data_PCOD9077175
_publ_section_title
;
Structure prediction by ZEFSAII (Michael W. Deem and Ramdas Pophale) SiO2 
 PCOD9077175
Probable space group: P -1
;
_chemical_formula_sum "Si O2"
_cell_formula_units_Z 16
_cell_length_a 8.192708
_cell_length_b 14.569578
_cell_length_c 8.788456
_cell_angle_alpha 80.834555
_cell_angle_beta 47.788119
_cell_angle_gamma 60.694919
_cell_volume 653.777727
_symmetry_space_group_name_H-M "P -1"
_symmetry_group_IT_number 2
_symmetry_cell_setting 'triclinic'
loop_
_space_group_symop_operation_xyz
x,y,z
-x,-y,-z
loop_
_atom_site_type_symbol
_atom_site_label
_atom_site_fract_x
_atom_site_fract_y
_atom_site_fract_z
Si Si1 0.369129 0.879139 0.530758
Si Si2 0.643725 0.902923 0.596140
Si Si3 0.506611 0.154134 0.870223
Si Si4 0.291990 0.500106 0.344205
Si Si5 0.179789 0.038715 0.061370
Si Si6 0.961712 0.558059 0.255189
Si Si7 0.846529 0.406871 0.148836
Si Si8 0.069617 0.281299 0.308048
O O1 0.623047 0.835516 0.487946
O O2 0.417319 0.825706 0.347849
O O3 0.126484 0.888717 0.766377
O O4 0.303928 0.003183 0.507885
O O5 0.843542 0.825751 0.618832
O O6 0.352661 0.965333 0.831768
O O7 0.745807 0.051130 0.829080
O O8 0.310096 0.110160 0.985619
O O9 0.340995 0.253894 0.063932
O O10 0.251990 0.413830 0.489160
O O11 0.564434 0.478031 0.235503
O O12 0.073411 0.618895 0.512329
O O13 0.222109 0.501645 0.211035
O O14 0.921808 0.477806 0.189866
O O15 0.974037 0.636446 0.101717
O O16 0.875800 0.318461 0.276075
#
# Coordination Sequence:
#
# PCOD9077175 Si02
#       8
#     2   2   2   2   2   2   2   2
#     4  10  18  34  57  73 101 148 182 216 278 332
#     4   9  20  34  51  79 108 137 182 230 270 325
#     4   9  19  32  49  77 105 133 178 225 267 326
#     4  10  20  38  61  82 113 151 183 227 280 329
#     4   9  17  34  54  72 101 140 177 218 273 332
#     4   9  19  36  60  85 105 143 194 222 269 343
#     4  10  20  38  61  82 112 152 185 225 280 333
#     4  10  20  36  52  77 116 142 176 237 277 313
#
# _framework density 24.47315
#
# number of rings (size 3 to 8) (size 9 to 14) (size 15 to 20)
#    0.000    2.500    0.000    3.375    0.000    1.000 
#    0.000   20.000    0.000    0.000    0.000    0.000 
#    0.000    0.000    0.000    0.000    0.000    0.000 
#
# Total GULP energy -89149.459097 kJ/mol
# GULP energy per Si atom -5571.841194 kJ/mol
# Density = 2.441745 g / cm^3
# Si number density = 24.473150 Si / 1000 Ang^3
#
#
#
# Elastic Constant Matrix: (Units=GPa)
#
#
# Indices 1 2 3 4 5 6 
#
# 1 131.1172 37.8351 41.8996 0.5455 16.2844 -23.1793
# 2 37.8351 55.6325 30.5957 2.2395 1.6170 -7.3848
# 3 41.8996 30.5957 89.0891 -9.0052 13.7658 -4.8416
# 4 0.5455 2.2395 -9.0052 39.4781 -11.3812 11.5555
# 5 16.2844 1.6170 13.7658 -11.3812 26.4516 -5.1438
# 6 -23.1793 -7.3848 -4.8416 11.5555 -5.1438 23.3122
#
#
#
# Elastic Compliance Matrix: (Units=1/GPa)
#
#
# Indices 1 2 3 4 5 6 
#
# 1 0.013171 -0.004965 -0.003471 -0.006133 -0.006212 0.012471
# 2 -0.004965 0.025968 -0.007403 -0.002938 0.004891 0.004288
# 3 -0.003471 -0.007403 0.016325 0.004385 -0.005130 -0.005712
# 4 -0.006133 -0.002938 0.004385 0.036668 0.013297 -0.021360
# 5 -0.006212 0.004891 -0.005130 0.013297 0.049454 -0.001372
# 6 0.012471 0.004288 -0.005712 -0.021360 -0.001372 0.065753
#
#
# Mechanical properties :
#
#
# Convention : Reuss Voigt Hill
#
# Bulk Modulus (GPa) = 42.04282 55.16662 48.60472
# Shear Modulus (GPa) = 20.24725 28.88228 24.56477
#
# Velocity S-wave (km/s) = 2.87945 3.43908 3.17163
# Velocity P-wave (km/s) = 5.31709 6.19357 5.77199
#
# Compressibility (1/GPa) = 0.02378528
#
# Stress axis : x y z
#
# Youngs Moduli (GPa) = 75.92692 38.50844 61.25464
#
# Poissons Ratio (x) = 0.19120 0.21265
# Poissons Ratio (y) = 0.37698 0.45346
# Poissons Ratio (z) = 0.26358 0.28507
#
# Static dielectric constant tensor:
#      x y z
#    x 1.996690 0.046800 0.025920 
#    y 0.046800 2.052200 0.001350 
#    z 0.025920 0.001350 1.997240 
# 
# From -- ./inp_files/214893.got.cif
#   From: 2010.05.17/outbox.cif.g08.bks.cpg/sg2_108_cif.got.tgz:214893.got - 2010.06.03 11:33:40.
