data_PCOD9077474
_publ_section_title
;
Structure prediction by ZEFSAII (Michael W. Deem and Ramdas Pophale) SiO2 
 PCOD9077474
Probable space group: P -1
;
_chemical_formula_sum "Si O2"
_cell_formula_units_Z 16
_cell_length_a 8.251748
_cell_length_b 13.736846
_cell_length_c 9.499366
_cell_angle_alpha 112.157099
_cell_angle_beta 64.135028
_cell_angle_gamma 125.620729
_cell_volume 776.393209
_symmetry_space_group_name_H-M "P -1"
_symmetry_group_IT_number 2
_symmetry_cell_setting 'triclinic'
loop_
_space_group_symop_operation_xyz
x,y,z
-x,-y,-z
loop_
_atom_site_type_symbol
_atom_site_label
_atom_site_fract_x
_atom_site_fract_y
_atom_site_fract_z
Si Si1 0.802215 0.332484 0.062958
Si Si2 0.798281 0.643182 0.174183
Si Si3 0.454818 0.393539 0.180396
Si Si4 0.018559 0.805182 0.744292
Si Si5 0.125120 0.070283 0.352149
Si Si6 0.839252 0.384031 0.408307
Si Si7 0.590959 0.669430 0.522557
Si Si8 0.877960 0.124013 0.954493
O O1 0.745073 0.191444 0.017250
O O2 0.018800 0.389481 0.926474
O O3 0.612997 0.342098 0.075573
O O4 0.855879 0.386827 0.231570
O O5 0.581465 0.529131 0.145323
O O6 0.766802 0.669839 0.360260
O O7 0.890880 0.767934 0.121634
O O8 0.217390 0.301056 0.182193
O O9 0.446187 0.404416 0.360072
O O10 0.000972 0.880007 0.663400
O O11 0.136232 0.731339 0.624408
O O12 0.115792 0.891071 0.889650
O O13 0.331985 0.192925 0.384073
O O14 0.173707 0.987725 0.185875
O O15 0.000000 0.000000 0.500000
O O16 0.615038 0.369830 0.509448
O O17 0.000000 0.500000 0.500000
#
# Coordination Sequence:
#
# PCOD9077474 Si02
#       8
#     2   2   2   2   2   2   2   2
#     4   8  19  35  55  85 116 152 195 233 289 348
#     4  10  18  34  60  83 120 147 194 238 294 340
#     4  10  19  34  58  89 116 151 194 239 289 359
#     4  10  22  38  60  87 116 156 195 239 296 343
#     4  11  20  40  62  82 115 156 200 247 281 340
#     4  10  20  40  57  86 122 155 186 239 296 357
#     4  10  21  36  61  85 115 156 198 233 296 347
#     4   9  20  37  58  81 117 151 190 241 293 329
#
# _framework density 20.608115999999999
#
# number of rings (size 3 to 8) (size 9 to 14) (size 15 to 20)
#    0.750    1.500    1.250    1.875    0.000    3.500 
#    2.250   11.875    0.000    0.000    0.000    0.000 
#    0.000    0.000    0.000    0.000    0.000    0.000 
#
# Total GULP energy -89183.313485 kJ/mol
# GULP energy per Si atom -5573.957093 kJ/mol
# Density = 2.056121 g / cm^3
# Si number density = 20.608116 Si / 1000 Ang^3
#
#
#
# Elastic Constant Matrix: (Units=GPa)
#
#
# Indices 1 2 3 4 5 6 
#
# 1 59.1202 8.1731 23.9253 10.6498 -13.1854 -0.2340
# 2 8.1731 67.9140 15.8301 8.6914 5.0349 -10.3625
# 3 23.9253 15.8301 82.2076 20.3152 -20.1175 -7.9985
# 4 10.6498 8.6914 20.3152 38.2213 2.4342 -3.1990
# 5 -13.1854 5.0349 -20.1175 2.4342 28.6151 2.2382
# 6 -0.2340 -10.3625 -7.9985 -3.1990 2.2382 16.5450
#
#
#
# Elastic Compliance Matrix: (Units=1/GPa)
#
#
# Indices 1 2 3 4 5 6 
#
# 1 0.021293 -0.002742 -0.002689 -0.004877 0.009202 -0.004904
# 2 -0.002742 0.018081 -0.003523 -0.000094 -0.007744 0.010612
# 3 -0.002689 -0.003523 0.019681 -0.009486 0.013745 0.003576
# 4 -0.004877 -0.000094 -0.009486 0.033638 -0.012029 0.003418
# 5 0.009202 -0.007744 0.013745 -0.012029 0.051815 -0.007411
# 6 -0.004904 0.010612 0.003576 0.003418 -0.007411 0.070411
#
#
# Mechanical properties :
#
#
# Convention : Reuss Voigt Hill
#
# Bulk Modulus (GPa) = 24.30332 33.89985 29.10158
# Shear Modulus (GPa) = 20.28037 27.43050 23.85544
#
# Velocity S-wave (km/s) = 3.14043 3.65232 3.40601
# Velocity P-wave (km/s) = 4.99684 5.85418 5.44242
#
# Compressibility (1/GPa) = 0.04114665
#
# Stress axis : x y z
#
# Youngs Moduli (GPa) = 46.96282 55.30671 50.80993
#
# Poissons Ratio (x) = 0.15166 0.13664
# Poissons Ratio (y) = 0.12878 0.17901
# Poissons Ratio (z) = 0.12630 0.19485
#
# Static dielectric constant tensor:
#      x y z
#    x 1.725650 -0.001980 -0.003070 
#    y -0.001980 1.790540 0.008400 
#    z -0.003070 0.008400 1.754640 
# 
# From -- ./inp_files/202990.got.cif
#   From: 2010.05.17/outbox.cif.g08.bks.cpg/sg2_102_cif.got.tgz:202990.got - 2010.06.03 11:33:40.
