data_PCOD9077352
_publ_section_title
;
Structure prediction by ZEFSAII (Michael W. Deem and Ramdas Pophale) SiO2 
 PCOD9077352
Probable space group: P -1
;
_chemical_formula_sum "Si O2"
_cell_formula_units_Z 14
_cell_length_a 9.830733
_cell_length_b 9.341582
_cell_length_c 8.161201
_cell_angle_alpha 77.032160
_cell_angle_beta 88.358775
_cell_angle_gamma 124.927244
_cell_volume 587.119287
_symmetry_space_group_name_H-M "P -1"
_symmetry_group_IT_number 2
_symmetry_cell_setting 'triclinic'
loop_
_space_group_symop_operation_xyz
x,y,z
-x,-y,-z
loop_
_atom_site_type_symbol
_atom_site_label
_atom_site_fract_x
_atom_site_fract_y
_atom_site_fract_z
Si Si1 0.552316 0.888067 0.281196
Si Si2 0.369028 0.292682 0.229238
Si Si3 0.142146 0.382275 0.353443
Si Si4 0.373059 0.532572 0.582797
Si Si5 0.183596 0.041813 0.987813
Si Si6 0.213981 0.921857 0.521545
Si Si7 0.785240 0.240413 0.779655
O O1 0.428650 0.718258 0.446771
O O2 0.417511 0.867282 0.166646
O O3 0.657535 0.060579 0.353163
O O4 0.697291 0.880753 0.196423
O O5 0.291149 0.402151 0.239812
O O6 0.567258 0.424013 0.241763
O O7 0.303226 0.190032 0.085927
O O8 0.283387 0.122833 0.404802
O O9 0.190535 0.390569 0.543444
O O10 0.128500 0.545234 0.268793
O O11 0.971505 0.187777 0.369194
O O12 0.500000 0.500000 0.500000
O O13 0.157453 0.852416 0.078939
O O14 0.000000 0.000000 0.000000
O O15 0.194912 0.810674 0.390792
#
# Coordination Sequence:
#
# PCOD9077352 Si02
#       7
#     2   2   2   2   2   2   2
#     4  10  20  38  61  84 115 154 191 232 282 346
#     4   9  19  36  58  85 117 154 192 229 283 351
#     4  10  18  34  58  90 119 144 186 247 290 328
#     4   8  17  33  56  83 113 145 182 229 284 336
#     4  11  23  39  59  85 114 154 199 237 280 342
#     4  10  19  34  61  89 112 149 192 235 284 342
#     4  10  22  38  57  84 118 152 190 239 289 337
#
# _framework density 23.845237999999998
#
# number of rings (size 3 to 8) (size 9 to 14) (size 15 to 20)
#    0.000    2.286    0.000    2.571    0.000    6.857 
#    0.000    9.286    0.000    6.857    0.000    0.000 
#    0.000    0.000    0.000    0.000    0.000    0.000 
#
# Total GULP energy -78104.486753 kJ/mol
# GULP energy per Si atom -5578.891911 kJ/mol
# Density = 2.379097 g / cm^3
# Si number density = 23.845238 Si / 1000 Ang^3
#
#
#
# Elastic Constant Matrix: (Units=GPa)
#
#
# Indices 1 2 3 4 5 6 
#
# 1 102.6112 21.6064 -3.0251 -9.7928 13.3169 7.8168
# 2 21.6064 69.3867 12.6359 10.8315 16.7998 -0.5766
# 3 -3.0251 12.6359 35.5409 4.9479 -0.4300 4.5923
# 4 -9.7928 10.8315 4.9479 25.5038 -5.9020 6.2276
# 5 13.3169 16.7998 -0.4300 -5.9020 25.9541 0.1843
# 6 7.8168 -0.5766 4.5923 6.2276 0.1843 48.8110
#
#
#
# Elastic Compliance Matrix: (Units=1/GPa)
#
#
# Indices 1 2 3 4 5 6 
#
# 1 0.011859 -0.004790 0.002168 0.006566 -0.001434 -0.002992
# 2 -0.004790 0.023621 -0.007377 -0.015153 -0.016426 0.003736
# 3 0.002168 -0.007377 0.031480 -0.000365 0.004126 -0.003365
# 4 0.006566 -0.015153 -0.000365 0.054626 0.018914 -0.008237
# 5 -0.001434 -0.016426 0.004126 0.018914 0.054288 -0.002971
# 6 -0.002992 0.003736 -0.003365 -0.008237 -0.002971 0.022389
#
#
# Mechanical properties :
#
#
# Convention : Reuss Voigt Hill
#
# Bulk Modulus (GPa) = 21.29520 29.99701 25.64611
# Shear Modulus (GPa) = 21.37527 31.80855 26.59191
#
# Velocity S-wave (km/s) = 2.99727 3.65630 3.34307
# Velocity P-wave (km/s) = 4.57473 5.51651 5.06755
#
# Compressibility (1/GPa) = 0.04695893
#
# Stress axis : x y z
#
# Youngs Moduli (GPa) = 84.32623 42.33579 31.76662
#
# Poissons Ratio (x) = 0.20279 -0.06886
# Poissons Ratio (y) = 0.40393 0.23436
# Poissons Ratio (z) = -0.18278 0.31233
#
# Static dielectric constant tensor:
#      x y z
#    x 1.974040 0.035760 0.051940 
#    y 0.035760 1.944610 0.014750 
#    z 0.051940 0.014750 1.994150 
# 
# From -- ./inp_files/158120.got.cif
#   From: 2010.05.17/outbox.cif.g08.bks.cpg/sg2_80_cif.got.tgz:158120.got - 2010.06.03 11:33:40.
