data_PCOD9077995
_publ_section_title
;
Structure prediction by ZEFSAII (Michael W. Deem and Ramdas Pophale) SiO2 
 PCOD9077995
Probable space group: P -1
;
_chemical_formula_sum "Si O2"
_cell_formula_units_Z 16
_cell_length_a 11.840276
_cell_length_b 9.053170
_cell_length_c 9.126209
_cell_angle_alpha 104.256986
_cell_angle_beta 81.558754
_cell_angle_gamma 114.083371
_cell_volume 864.409621
_symmetry_space_group_name_H-M "P -1"
_symmetry_group_IT_number 2
_symmetry_cell_setting 'triclinic'
loop_
_space_group_symop_operation_xyz
x,y,z
-x,-y,-z
loop_
_atom_site_type_symbol
_atom_site_label
_atom_site_fract_x
_atom_site_fract_y
_atom_site_fract_z
Si Si1 0.901186 0.633302 0.085725
Si Si2 0.667427 0.322158 0.125475
Si Si3 0.491198 0.670794 0.098067
Si Si4 0.225987 0.798169 0.666992
Si Si5 0.983086 0.531178 0.763330
Si Si6 0.744926 0.839313 0.258899
Si Si7 0.718018 0.398248 0.630150
Si Si8 0.359742 0.434612 0.562599
O O1 0.788271 0.452012 0.051796
O O2 0.843088 0.767347 0.160610
O O3 0.980347 0.609136 0.200238
O O4 0.975127 0.650968 0.926010
O O5 0.703746 0.200193 0.192028
O O6 0.641122 0.443056 0.276213
O O7 0.558989 0.256663 0.011789
O O8 0.625410 0.781435 0.161376
O O9 0.390902 0.636059 0.239316
O O10 0.500000 0.500000 0.000000
O O11 0.299929 0.758301 0.509352
O O12 0.095966 0.640870 0.666291
O O13 0.205860 0.965289 0.688751
O O14 0.850807 0.455392 0.694718
O O15 0.695252 0.745433 0.399329
O O16 0.716851 0.539340 0.552190
O O17 0.500000 0.500000 0.500000
#
# Coordination Sequence:
#
# PCOD9077995 Si02
#       8
#     2   2   2   2   2   2   2   2
#     4   9  18  35  63  86 108 149 196 242 276 334
#     4   9  18  35  55  85 110 145 194 227 281 335
#     4  12  19  35  66  87 110 144 203 243 274 342
#     4  10  24  37  54  85 126 155 179 236 299 342
#     4  10  19  38  63  84 110 151 203 235 277 336
#     4  11  22  37  57  87 122 149 187 237 300 333
#     4  11  21  37  62  87 110 153 200 230 282 343
#     4  10  18  35  57  83 111 150 189 231 276 342
#
# _framework density 18.509744000000001
#
# number of rings (size 3 to 8) (size 9 to 14) (size 15 to 20)
#    0.000    1.750    5.000    1.125    0.000    1.500 
#    0.000    2.500    5.500    0.000    0.000    0.000 
#    0.000    0.000    0.000    0.000    0.000    0.000 
#
# Total GULP energy -89243.497874 kJ/mol
# GULP energy per Si atom -5577.718617 kJ/mol
# Density = 1.846761 g / cm^3
# Si number density = 18.509744 Si / 1000 Ang^3
#
#
#
# Elastic Constant Matrix: (Units=GPa)
#
#
# Indices 1 2 3 4 5 6 
#
# 1 113.3963 17.8304 38.8565 -2.9947 9.5513 -19.7015
# 2 17.8304 60.9067 26.4217 -0.8056 -4.1017 -30.0541
# 3 38.8565 26.4217 86.1679 -11.9698 -9.8576 -9.1848
# 4 -2.9947 -0.8056 -11.9698 15.0744 -1.4637 0.8614
# 5 9.5513 -4.1017 -9.8576 -1.4637 46.2478 -5.6641
# 6 -19.7015 -30.0541 -9.1848 0.8614 -5.6641 24.9862
#
#
#
# Elastic Compliance Matrix: (Units=1/GPa)
#
#
# Indices 1 2 3 4 5 6 
#
# 1 0.012846 0.006569 -0.006892 -0.003613 -0.001790 0.015215
# 2 0.006569 0.053593 -0.012427 -0.008700 0.008721 0.067350
# 3 -0.006892 -0.012427 0.019552 0.014558 0.003365 -0.012933
# 4 -0.003613 -0.008700 0.014558 0.077689 0.004354 -0.009653
# 5 -0.001790 0.008721 0.003365 0.004354 0.025576 0.015963
# 6 0.015215 0.067350 -0.012933 -0.009653 0.015963 0.132227
#
#
# Mechanical properties :
#
#
# Convention : Reuss Voigt Hill
#
# Bulk Modulus (GPa) = 16.53153 47.40979 31.97066
# Shear Modulus (GPa) = 13.61850 29.08582 21.35216
#
# Velocity S-wave (km/s) = 2.71541 3.96836 3.40010
# Velocity P-wave (km/s) = 4.33381 6.83127 5.72050
#
# Compressibility (1/GPa) = 0.06049045
#
# Stress axis : x y z
#
# Youngs Moduli (GPa) = 77.84355 18.65933 51.14500
#
# Poissons Ratio (x) = -0.12256 0.35248
# Poissons Ratio (y) = -0.51132 0.63558
# Poissons Ratio (z) = 0.53649 0.23188
#
# Static dielectric constant tensor:
#      x y z
#    x 1.673680 -0.008230 -0.003300 
#    y -0.008230 1.630180 -0.033270 
#    z -0.003300 -0.033270 1.659540 
# 
# From -- ./inp_files/171557.got.cif
#   From: 2010.05.17/outbox.cif.g08.bks.cpg/sg2_86_cif.got.tgz:171557.got - 2010.06.03 11:33:40.
