data_PCOD9077670
_publ_section_title
;
Structure prediction by ZEFSAII (Michael W. Deem and Ramdas Pophale) SiO2 
 PCOD9077670
Probable space group: P -1
;
_chemical_formula_sum "Si O2"
_cell_formula_units_Z 14
_cell_length_a 7.570262
_cell_length_b 20.857768
_cell_length_c 4.937205
_cell_angle_alpha 86.089861
_cell_angle_beta 86.760060
_cell_angle_gamma 117.303580
_cell_volume 687.714509
_symmetry_space_group_name_H-M "P -1"
_symmetry_group_IT_number 2
_symmetry_cell_setting 'triclinic'
loop_
_space_group_symop_operation_xyz
x,y,z
-x,-y,-z
loop_
_atom_site_type_symbol
_atom_site_label
_atom_site_fract_x
_atom_site_fract_y
_atom_site_fract_z
Si Si1 0.528488 0.051687 0.732570
Si Si2 0.631822 0.712918 0.547918
Si Si3 0.075994 0.431801 0.721705
Si Si4 0.179955 0.316060 0.960310
Si Si5 0.735079 0.196610 0.906806
Si Si6 0.525360 0.829358 0.524118
Si Si7 0.189925 0.593552 0.740480
O O1 0.727901 0.125770 0.777225
O O2 0.394927 0.092122 0.650361
O O3 0.500000 0.000000 0.500000
O O4 0.500000 0.000000 0.000000
O O5 0.680336 0.703074 0.239617
O O6 0.671212 0.795026 0.574693
O O7 0.403534 0.660601 0.660599
O O8 0.763998 0.690144 0.736242
O O9 0.197160 0.392248 0.838364
O O10 0.196837 0.518855 0.691618
O O11 0.979236 0.405815 0.443371
O O12 0.890130 0.411443 0.948063
O O13 0.951613 0.257031 0.945523
O O14 0.630304 0.221976 0.677621
O O15 0.595011 0.172108 0.193086
#
# Coordination Sequence:
#
# PCOD9077670 Si02
#       7
#     2   2   2   2   2   2   2
#     4  10  18  34  62  90 105 136 193 242 270 322
#     4  12  24  36  56  86 121 152 187 234 285 338
#     4  10  21  39  61  82 112 153 198 240 279 328
#     4  12  24  36  56  86 121 152 187 234 285 338
#     4  10  20  36  60  83 111 149 188 236 269 341
#     4  10  20  36  60  83 111 149 188 236 269 341
#     4  10  21  39  61  82 112 153 198 240 279 328
#
# _framework density 20.357284
#
# number of rings (size 3 to 8) (size 9 to 14) (size 15 to 20)
#    0.857    0.571    1.429    5.143    0.000    1.143 
#    0.000    0.000    0.000    5.143    0.000    0.000 
#    0.000    0.000    0.000    0.000    0.000    0.000 
#
# Total GULP energy -78015.794489 kJ/mol
# GULP energy per Si atom -5572.556749 kJ/mol
# Density = 2.031095 g / cm^3
# Si number density = 20.357284 Si / 1000 Ang^3
#
#
#
# Elastic Constant Matrix: (Units=GPa)
#
#
# Indices 1 2 3 4 5 6 
#
# 1 28.7442 19.2802 2.3154 -9.3594 8.2071 -22.2086
# 2 19.2802 76.3332 17.4553 -19.0362 19.9212 -32.2138
# 3 2.3154 17.4553 103.3228 -0.3163 5.9657 -2.2430
# 4 -9.3594 -19.0362 -0.3163 27.4114 -7.8942 8.6714
# 5 8.2071 19.9212 5.9657 -7.8942 30.1677 -3.8307
# 6 -22.2086 -32.2138 -2.2430 8.6714 -3.8307 24.4275
#
#
#
# Elastic Compliance Matrix: (Units=1/GPa)
#
#
# Indices 1 2 3 4 5 6 
#
# 1 0.702371 0.360541 -0.038389 0.084094 -0.267673 1.038679
# 2 0.360541 0.226485 -0.024581 0.051340 -0.155496 0.581600
# 3 -0.038389 -0.024581 0.012484 -0.006296 0.014734 -0.061626
# 4 0.084094 0.051340 -0.006296 0.055426 -0.025812 0.119859
# 5 -0.267673 -0.155496 0.014734 -0.025812 0.146290 -0.414962
# 6 1.038679 0.581600 -0.061626 0.119859 -0.414962 1.638969
#
#
# Mechanical properties :
#
#
# Convention : Reuss Voigt Hill
#
# Bulk Modulus (GPa) = 0.65084 31.83355 16.24219
# Shear Modulus (GPa) = 1.85251 27.69126 14.77189
#
# Velocity S-wave (km/s) = 0.95497 3.69218 2.69668
# Velocity P-wave (km/s) = 1.23950 5.81787 4.20618
#
# Compressibility (1/GPa) = 1.53648174
#
# Stress axis : x y z
#
# Youngs Moduli (GPa) = 1.42375 4.41531 80.10546
#
# Poissons Ratio (x) = -1.59190 3.07515
# Poissons Ratio (y) = -0.51332 1.96906
# Poissons Ratio (z) = 0.05466 0.10853
#
# Static dielectric constant tensor:
#      x y z
#    x 1.729570 -0.048160 0.019100 
#    y -0.048160 1.769710 -0.010280 
#    z 0.019100 -0.010280 1.719260 
# 
# From -- ./inp_files/9512.got.cif
#   From: 2010.05.17/outbox.cif.g08.bks.cpg/sg2_5_cif.got.tgz:9512.got - 2010.06.03 11:33:40.
