data_PCOD9077246
_publ_section_title
;
Structure prediction by ZEFSAII (Michael W. Deem and Ramdas Pophale) SiO2 
 PCOD9077246
Probable space group: P -1
;
_chemical_formula_sum "Si O2"
_cell_formula_units_Z 14
_cell_length_a 9.798176
_cell_length_b 8.320813
_cell_length_c 11.798280
_cell_angle_alpha 76.736830
_cell_angle_beta 98.050164
_cell_angle_gamma 58.144909
_cell_volume 754.521791
_symmetry_space_group_name_H-M "P -1"
_symmetry_group_IT_number 2
_symmetry_cell_setting 'triclinic'
loop_
_space_group_symop_operation_xyz
x,y,z
-x,-y,-z
loop_
_atom_site_type_symbol
_atom_site_label
_atom_site_fract_x
_atom_site_fract_y
_atom_site_fract_z
Si Si1 0.915237 0.961226 0.395077
Si Si2 0.547404 0.058905 0.820081
Si Si3 0.356951 0.103503 0.561935
Si Si4 0.247435 0.535649 0.455705
Si Si5 0.402591 0.290755 0.996910
Si Si6 0.323770 0.689316 0.849588
Si Si7 0.474883 0.570629 0.303608
O O1 0.756302 0.978271 0.428866
O O2 0.060403 0.738057 0.404831
O O3 0.841656 0.123716 0.259384
O O4 0.000000 0.000000 0.500000
O O5 0.442088 0.069446 0.699256
O O6 0.617852 0.188485 0.768272
O O7 0.651753 0.826724 0.912939
O O8 0.430759 0.193750 0.891376
O O9 0.243703 0.341680 0.485022
O O10 0.500000 0.000000 0.500000
O O11 0.351915 0.534343 0.361953
O O12 0.362118 0.507462 0.583427
O O13 0.581601 0.240304 0.073429
O O14 0.295265 0.534166 0.934786
O O15 0.455074 0.552644 0.785139
#
# Coordination Sequence:
#
# PCOD9077246 Si02
#       7
#     2   2   2   2   2   2   2
#     4  12  23  36  57  91 125 152 188 244 306 348
#     4   9  18  33  57  86 111 144 201 247 282 328
#     4  11  23  38  60  89 120 154 197 238 295 358
#     4  10  21  35  54  84 124 154 185 235 302 348
#     4   9  18  33  58  86 108 152 203 248 268 343
#     4  10  18  34  57  86 112 150 203 239 287 345
#     4   9  18  34  56  84 116 153 191 237 285 357
#
# _framework density 18.5548
#
# number of rings (size 3 to 8) (size 9 to 14) (size 15 to 20)
#    0.000    2.000    2.857    1.286    4.000    0.000 
#    0.000    0.000    0.000    8.571    0.000    0.000 
#    0.000    0.000    0.000    0.000    0.000    0.000 
#
# Total GULP energy -78027.816028 kJ/mol
# GULP energy per Si atom -5573.415431 kJ/mol
# Density = 1.851257 g / cm^3
# Si number density = 18.554800 Si / 1000 Ang^3
#
#
#
# Elastic Constant Matrix: (Units=GPa)
#
#
# Indices 1 2 3 4 5 6 
#
# 1 35.8579 10.8315 23.6797 -0.1188 -6.7198 9.6864
# 2 10.8315 79.8760 44.1554 -15.6353 3.5344 5.1470
# 3 23.6797 44.1554 110.3780 -16.5207 -7.0687 9.9008
# 4 -0.1188 -15.6353 -16.5207 47.8651 13.0146 -0.4975
# 5 -6.7198 3.5344 -7.0687 13.0146 26.8656 -5.5422
# 6 9.6864 5.1470 9.9008 -0.4975 -5.5422 25.4360
#
#
#
# Elastic Compliance Matrix: (Units=1/GPa)
#
#
# Indices 1 2 3 4 5 6 
#
# 1 0.036904 -0.002255 -0.006421 -0.005257 0.008454 -0.009359
# 2 -0.002255 0.017786 -0.006086 0.005778 -0.007704 -0.001937
# 3 -0.006421 -0.006086 0.013402 0.002230 0.001395 -0.001192
# 4 -0.005257 0.005778 0.002230 0.027724 -0.015511 -0.002873
# 5 0.008454 -0.007704 0.001395 -0.015511 0.049960 0.008379
# 6 -0.009359 -0.001937 -0.001192 -0.002873 0.008379 0.045504
#
#
# Mechanical properties :
#
#
# Convention : Reuss Voigt Hill
#
# Bulk Modulus (GPa) = 25.92796 42.60500 34.26648
# Shear Modulus (GPa) = 21.39849 29.86304 25.63076
#
# Velocity S-wave (km/s) = 3.39965 4.01615 3.72069
# Velocity P-wave (km/s) = 5.42349 6.67214 6.07996
#
# Compressibility (1/GPa) = 0.03856841
#
# Stress axis : x y z
#
# Youngs Moduli (GPa) = 27.09710 56.22251 74.61501
#
# Poissons Ratio (x) = 0.12677 0.47911
# Poissons Ratio (y) = 0.06110 0.45413
# Poissons Ratio (z) = 0.17399 0.34219
#
# Static dielectric constant tensor:
#      x y z
#    x 1.611020 0.049400 -0.021090 
#    y 0.049400 1.675520 -0.022130 
#    z -0.021090 -0.022130 1.672060 
# 
# From -- ./inp_files/168901.got.cif
#   From: 2010.05.17/outbox.cif.g08.bks.cpg/sg2_85_cif.got.tgz:168901.got - 2010.06.03 11:33:40.
