data_PCOD9077220
_publ_section_title
;
Structure prediction by ZEFSAII (Michael W. Deem and Ramdas Pophale) SiO2 
 PCOD9077220
Probable space group: P -1
;
_chemical_formula_sum "Si O2"
_cell_formula_units_Z 16
_cell_length_a 6.939335
_cell_length_b 11.234739
_cell_length_c 13.115131
_cell_angle_alpha 68.791272
_cell_angle_beta 41.228016
_cell_angle_gamma 82.795785
_cell_volume 610.065136
_symmetry_space_group_name_H-M "P -1"
_symmetry_group_IT_number 2
_symmetry_cell_setting 'triclinic'
loop_
_space_group_symop_operation_xyz
x,y,z
-x,-y,-z
loop_
_atom_site_type_symbol
_atom_site_label
_atom_site_fract_x
_atom_site_fract_y
_atom_site_fract_z
Si Si1 0.572662 0.457671 0.598329
Si Si2 0.942026 0.017767 0.711424
Si Si3 0.639269 0.293603 0.892903
Si Si4 0.910313 0.698863 0.525415
Si Si5 0.196891 0.430658 0.202723
Si Si6 0.365212 0.068265 0.925255
Si Si7 0.925908 0.240741 0.222979
Si Si8 0.992849 0.255925 0.961733
O O1 0.500000 0.500000 0.500000
O O2 0.779414 0.348626 0.555354
O O3 0.265755 0.385356 0.802258
O O4 0.729818 0.588765 0.555612
O O5 0.102443 0.159004 0.558669
O O6 0.602019 0.994472 0.805399
O O7 0.842670 0.001545 0.876451
O O8 0.128199 0.904773 0.661182
O O9 0.818554 0.443545 0.759701
O O10 0.289004 0.276905 0.056926
O O11 0.791509 0.256692 0.944242
O O12 0.392436 0.806832 0.156707
O O13 0.756807 0.679734 0.703835
O O14 0.500000 0.500000 0.000000
O O15 0.914926 0.360459 0.265744
O O16 0.151467 0.134592 0.924238
O O17 0.839327 0.245962 0.137544
#
# Coordination Sequence:
#
# PCOD9077220 Si02
#       8
#     2   2   2   2   2   2   2   2
#     4  11  23  34  54  88 117 138 179 228 285 347
#     4   9  18  35  57  78 115 151 177 225 271 330
#     4   9  18  32  58  83 109 143 182 229 281 318
#     4  11  22  37  57  79 115 152 173 231 289 312
#     4  10  20  37  59  80 108 150 193 230 267 322
#     4   9  18  35  54  84 117 140 183 225 268 344
#     4   9  21  38  54  82 113 145 199 226 252 331
#     4  10  18  34  57  84 110 145 178 228 286 324
#
# _framework density 26.226710000000001
#
# number of rings (size 3 to 8) (size 9 to 14) (size 15 to 20)
#    0.000    2.500    1.250    3.000    3.500    1.000 
#    0.000   17.500    0.000    0.000    0.000   21.875 
#    0.000    0.000    0.000    0.000    0.000    0.000 
#
# Total GULP energy -89205.143970 kJ/mol
# GULP energy per Si atom -5575.321498 kJ/mol
# Density = 2.616702 g / cm^3
# Si number density = 26.226710 Si / 1000 Ang^3
#
#
#
# Elastic Constant Matrix: (Units=GPa)
#
#
# Indices 1 2 3 4 5 6 
#
# 1 121.8168 32.3158 22.5111 -12.4756 25.8996 -19.1757
# 2 32.3158 132.7058 51.9912 -50.6750 9.6437 5.3081
# 3 22.5111 51.9912 102.6661 -37.8621 31.5075 0.3806
# 4 -12.4756 -50.6750 -37.8621 53.6848 -12.7047 4.2767
# 5 25.8996 9.6437 31.5075 -12.7047 35.2320 -7.0075
# 6 -19.1757 5.3081 0.3806 4.2767 -7.0075 48.7595
#
#
#
# Elastic Compliance Matrix: (Units=1/GPa)
#
#
# Indices 1 2 3 4 5 6 
#
# 1 0.011037 -0.003499 0.000998 -0.002253 -0.008116 0.003745
# 2 -0.003499 0.013860 -0.003877 0.011114 0.005653 -0.003017
# 3 0.000998 -0.003877 0.018042 0.006142 -0.013965 -0.001872
# 4 -0.002253 0.011114 0.006142 0.034379 0.004625 -0.004495
# 5 -0.008116 0.005653 -0.013965 0.004625 0.047500 0.002723
# 6 0.003745 -0.003017 -0.001872 -0.004495 0.002723 0.023110
#
#
# Mechanical properties :
#
#
# Convention : Reuss Voigt Hill
#
# Bulk Modulus (GPa) = 33.13045 63.42501 48.27773
# Shear Modulus (GPa) = 29.28329 44.22665 36.75497
#
# Velocity S-wave (km/s) = 3.34510 4.11094 3.74763
# Velocity P-wave (km/s) = 5.25160 6.83878 6.09706
#
# Compressibility (1/GPa) = 0.03018371
#
# Stress axis : x y z
#
# Youngs Moduli (GPa) = 90.60303 72.14884 55.42515
#
# Poissons Ratio (x) = 0.25245 -0.05530
# Poissons Ratio (y) = 0.31703 0.21486
# Poissons Ratio (z) = -0.09039 0.27969
#
# Static dielectric constant tensor:
#      x y z
#    x 2.077760 0.049140 0.023400 
#    y 0.049140 2.489960 0.207490 
#    z 0.023400 0.207490 2.324230 
# 
# From -- ./inp_files/502874.got.cif
#   From: 2010.05.17/outbox.cif.g08.bks.cpg/sg2_252_cif.got.tgz:502874.got - 2010.06.03 11:33:40.
