data_PCOD9077328
_publ_section_title
;
Structure prediction by ZEFSAII (Michael W. Deem and Ramdas Pophale) SiO2 
 PCOD9077328
Probable space group: P -1
;
_chemical_formula_sum "Si O2"
_cell_formula_units_Z 15
_cell_length_a 17.984906
_cell_length_b 6.641557
_cell_length_c 10.162229
_cell_angle_alpha 62.873882
_cell_angle_beta 139.497223
_cell_angle_gamma 132.971168
_cell_volume 571.870394
_symmetry_space_group_name_H-M "P -1"
_symmetry_group_IT_number 2
_symmetry_cell_setting 'triclinic'
loop_
_space_group_symop_operation_xyz
x,y,z
-x,-y,-z
loop_
_atom_site_type_symbol
_atom_site_label
_atom_site_fract_x
_atom_site_fract_y
_atom_site_fract_z
Si Si1 0.305690 0.447620 0.676027
Si Si2 0.384110 0.598678 0.012557
Si Si3 0.788710 0.530158 0.737463
Si Si4 0.000000 0.500000 0.000000
Si Si5 0.210182 0.852659 0.713622
Si Si6 0.333055 0.054535 0.201365
Si Si7 0.056433 0.477165 0.381228
Si Si8 0.542727 0.235225 0.667282
O O1 0.408260 0.635638 0.877261
O O2 0.303542 0.535850 0.497154
O O3 0.156815 0.373303 0.549849
O O4 0.306323 0.180982 0.742501
O O5 0.288591 0.706277 0.881252
O O6 0.316009 0.276139 0.047076
O O7 0.493642 0.746489 0.237688
O O8 0.950591 0.736345 0.868214
O O9 0.693671 0.506859 0.736302
O O10 0.802436 0.262050 0.857344
O O11 0.948594 0.430821 0.796395
O O12 0.125474 0.733088 0.499306
O O13 0.097816 0.752370 0.707074
O O14 0.423124 0.169398 0.422902
O O15 0.421671 0.988209 0.245248
#
# Coordination Sequence:
#
# PCOD9077328 Si02
#       8
#     2   2   2   1   2   2   2   2
#     4  10  21  37  56  81 123 150 183 242 291 338
#     4  11  20  34  62  88 106 146 201 238 281 344
#     4   9  20  40  56  85 119 151 183 240 292 334
#     4  10  18  34  58  86 116 138 190 238 282 332
#     4  10  20  37  55  81 117 156 192 229 287 346
#     4   9  20  39  64  81 113 152 194 243 282 334
#     4   9  20  36  55  80 113 156 200 231 276 342
#     4   9  19  39  63  84 109 151 203 230 285 342
#
# _framework density 26.229718999999999
#
# number of rings (size 3 to 8) (size 9 to 14) (size 15 to 20)
#    0.800    1.600    0.000    2.400    1.867    0.000 
#   12.000    4.000    0.000    0.000    0.000    0.000 
#    0.000    0.000    0.000    0.000    0.000    0.000 
#
# Total GULP energy -83587.883177 kJ/mol
# GULP energy per Si atom -5572.525545 kJ/mol
# Density = 2.617002 g / cm^3
# Si number density = 26.229719 Si / 1000 Ang^3
#
#
#
# Elastic Constant Matrix: (Units=GPa)
#
#
# Indices 1 2 3 4 5 6 
#
# 1 104.4545 30.9388 46.3964 -9.5145 -6.4530 -16.2029
# 2 30.9388 80.7140 35.6559 -23.0046 0.2640 -19.5147
# 3 46.3964 35.6559 168.0849 1.1297 -34.5733 -7.7318
# 4 -9.5145 -23.0046 1.1297 32.8604 -9.7304 1.1825
# 5 -6.4530 0.2640 -34.5733 -9.7304 53.6297 6.8652
# 6 -16.2029 -19.5147 -7.7318 1.1825 6.8652 23.7877
#
#
#
# Elastic Compliance Matrix: (Units=1/GPa)
#
#
# Indices 1 2 3 4 5 6 
#
# 1 0.012490 -0.001076 -0.003114 0.002455 -0.000919 0.006756
# 2 -0.001076 0.022944 -0.004435 0.014533 -0.002600 0.016676
# 3 -0.003114 -0.004435 0.008661 -0.002572 0.005321 -0.004353
# 4 0.002455 0.014533 -0.002572 0.042592 0.005120 0.009164
# 5 -0.000919 -0.002600 0.005321 0.005120 0.023958 -0.008198
# 6 0.006756 0.016676 -0.004353 0.009164 -0.008198 0.060816
#
#
# Mechanical properties :
#
#
# Convention : Reuss Voigt Hill
#
# Bulk Modulus (GPa) = 37.25132 64.35954 50.80543
# Shear Modulus (GPa) = 25.29597 38.07303 31.68450
#
# Velocity S-wave (km/s) = 3.10885 3.81402 3.47935
# Velocity P-wave (km/s) = 5.20763 6.63218 5.96260
#
# Compressibility (1/GPa) = 0.02684468
#
# Stress axis : x y z
#
# Youngs Moduli (GPa) = 80.06191 43.58523 115.45345
#
# Poissons Ratio (x) = 0.04689 0.35955
# Poissons Ratio (y) = 0.08613 0.51208
# Poissons Ratio (z) = 0.24933 0.19332
#
# Static dielectric constant tensor:
#      x y z
#    x 2.362850 0.099100 0.093190 
#    y 0.099100 2.197780 0.013810 
#    z 0.093190 0.013810 2.098490 
# 
# From -- ./inp_files/322566.got.cif
#   From: 2010.05.17/outbox.cif.g08.bks.cpg/sg2_162_cif.got.tgz:322566.got - 2010.06.03 11:33:40.
