data_PCOD9077628
_publ_section_title
;
Structure prediction by ZEFSAII (Michael W. Deem and Ramdas Pophale) SiO2 
 PCOD9077628
Probable space group: P -1
;
_chemical_formula_sum "Si O2"
_cell_formula_units_Z 16
_cell_length_a 21.240517
_cell_length_b 11.694850
_cell_length_c 9.369414
_cell_angle_alpha 48.115245
_cell_angle_beta 47.089554
_cell_angle_gamma 28.186180
_cell_volume 789.681492
_symmetry_space_group_name_H-M "P -1"
_symmetry_group_IT_number 2
_symmetry_cell_setting 'triclinic'
loop_
_space_group_symop_operation_xyz
x,y,z
-x,-y,-z
loop_
_atom_site_type_symbol
_atom_site_label
_atom_site_fract_x
_atom_site_fract_y
_atom_site_fract_z
Si Si1 0.063056 0.859777 0.174407
Si Si2 0.270258 0.991838 0.469057
Si Si3 0.633418 0.243621 0.927780
Si Si4 0.208948 0.793436 0.524615
Si Si5 0.326337 0.351360 0.865519
Si Si6 0.795993 0.021621 0.130565
Si Si7 0.480629 0.835838 0.058250
Si Si8 0.917680 0.463863 0.758266
O O1 0.093187 0.639544 0.272975
O O2 0.951251 0.020587 0.342722
O O3 0.176802 0.833037 0.049841
O O4 0.000000 0.000000 0.000000
O O5 0.304962 0.886424 0.661652
O O6 0.139319 0.289989 0.404923
O O7 0.240342 0.880764 0.519715
O O8 0.393251 0.907694 0.272434
O O9 0.730376 0.222057 0.702137
O O10 0.567804 0.209572 0.951902
O O11 0.500000 0.500000 0.000000
O O12 0.736184 0.039653 0.062025
O O13 0.295036 0.522017 0.656052
O O14 0.367726 0.373132 0.934396
O O15 0.190577 0.445678 0.032478
O O16 0.440117 0.065840 0.888350
O O17 0.938874 0.753979 0.196004
#
# Coordination Sequence:
#
# PCOD9077628 Si02
#       8
#     2   2   2   2   2   2   2   2
#     4  10  18  34  61  93 115 152 204 252 291 351
#     4  10  20  35  63  94 118 157 206 252 301 354
#     4  11  28  42  57  88 132 164 198 242 312 373
#     4  11  21  39  64  86 119 161 207 250 296 357
#     4  10  19  40  68  89 114 156 210 265 285 349
#     4  11  21  38  59  90 125 161 193 251 302 365
#     4   9  23  40  63  91 119 155 212 250 303 355
#     4  10  19  35  64  94 121 150 203 261 301 345
#
# _framework density 20.261334000000002
#
# number of rings (size 3 to 8) (size 9 to 14) (size 15 to 20)
#    0.000    1.750    5.000    0.375    5.250    1.500 
#    0.000    7.500    0.000    0.000    0.000    0.000 
#    0.000    0.000    0.000    0.000    0.000    0.000 
#
# Total GULP energy -89129.897701 kJ/mol
# GULP energy per Si atom -5570.618606 kJ/mol
# Density = 2.021522 g / cm^3
# Si number density = 20.261334 Si / 1000 Ang^3
#
#
#
# Elastic Constant Matrix: (Units=GPa)
#
#
# Indices 1 2 3 4 5 6 
#
# 1 77.3560 2.1174 40.8943 2.3458 7.5197 -2.8620
# 2 2.1174 30.6151 29.4405 8.7926 4.2402 4.6749
# 3 40.8943 29.4405 126.0173 -3.3028 9.5667 11.8040
# 4 2.3458 8.7926 -3.3028 24.7774 4.7911 -0.7138
# 5 7.5197 4.2402 9.5667 4.7911 29.9802 -2.6467
# 6 -2.8620 4.6749 11.8040 -0.7138 -2.6467 21.7538
#
#
#
# Elastic Compliance Matrix: (Units=1/GPa)
#
#
# Indices 1 2 3 4 5 6 
#
# 1 0.017272 0.007087 -0.007679 -0.004708 -0.001730 0.004551
# 2 0.007087 0.053366 -0.014908 -0.021413 -0.001440 -0.003325
# 3 -0.007679 -0.014908 0.014878 0.008326 -0.002566 -0.005918
# 4 -0.004708 -0.021413 0.008326 0.050787 -0.006534 0.000336
# 5 -0.001730 -0.001440 -0.002566 -0.006534 0.036358 0.005683
# 6 0.004551 -0.003325 -0.005918 0.000336 0.005683 0.051196
#
#
# Mechanical properties :
#
#
# Convention : Reuss Voigt Hill
#
# Bulk Modulus (GPa) = 18.34343 42.09922 30.22132
# Shear Modulus (GPa) = 18.31310 26.07138 22.19224
#
# Velocity S-wave (km/s) = 3.00966 3.59103 3.31312
# Velocity P-wave (km/s) = 4.59897 6.16581 5.43910
#
# Compressibility (1/GPa) = 0.05451544
#
# Stress axis : x y z
#
# Youngs Moduli (GPa) = 57.89687 18.73845 67.21545
#
# Poissons Ratio (x) = -0.13279 0.51615
# Poissons Ratio (y) = -0.41029 1.00203
# Poissons Ratio (z) = 0.44459 0.27935
#
# Static dielectric constant tensor:
#      x y z
#    x 1.733730 -0.019730 -0.049890 
#    y -0.019730 1.820960 0.053460 
#    z -0.049890 0.053460 1.750830 
# 
# From -- ./inp_files/298277.got.cif
#   From: 2010.05.17/outbox.cif.g08.bks.cpg/sg2_150_cif.got.tgz:298277.got - 2010.06.03 11:33:40.
