data_PCOD9077790
_publ_section_title
;
Structure prediction by ZEFSAII (Michael W. Deem and Ramdas Pophale) SiO2 
 PCOD9077790
Probable space group: P -1
;
_chemical_formula_sum "Si O2"
_cell_formula_units_Z 14
_cell_length_a 13.611134
_cell_length_b 15.423452
_cell_length_c 10.750208
_cell_angle_alpha 150.503577
_cell_angle_beta 56.841421
_cell_angle_gamma 142.137054
_cell_volume 604.183084
_symmetry_space_group_name_H-M "P -1"
_symmetry_group_IT_number 2
_symmetry_cell_setting 'triclinic'
loop_
_space_group_symop_operation_xyz
x,y,z
-x,-y,-z
loop_
_atom_site_type_symbol
_atom_site_label
_atom_site_fract_x
_atom_site_fract_y
_atom_site_fract_z
Si Si1 0.352337 0.113820 0.804858
Si Si2 0.985530 0.669309 0.649514
Si Si3 0.355237 0.959465 0.350961
Si Si4 0.748956 0.575371 0.137689
Si Si5 0.285004 0.423063 0.130679
Si Si6 0.294858 0.768764 0.898519
Si Si7 0.129830 0.912831 0.273781
O O1 0.183452 0.920659 0.771095
O O2 0.335900 0.949897 0.501059
O O3 0.544428 0.295061 0.963340
O O4 0.352229 0.311847 0.995929
O O5 0.000000 0.500000 0.500000
O O6 0.902275 0.724111 0.864471
O O7 0.842193 0.502534 0.425416
O O8 0.296455 0.749653 0.024325
O O9 0.229817 0.977128 0.412318
O O10 0.560913 0.253387 0.546076
O O11 0.919111 0.639913 0.101587
O O12 0.821377 0.832865 0.476829
O O13 0.732761 0.600489 0.033937
O O14 0.214644 0.874266 0.070142
O O15 0.500000 0.000000 0.000000
#
# Coordination Sequence:
#
# PCOD9077790 Si02
#       7
#     2   2   2   2   2   2   2
#     4  11  21  39  61  93 115 155 208 248 287 356
#     4  12  26  39  57  85 128 166 192 242 308 353
#     4   9  18  37  66  86 112 154 204 244 295 347
#     4  10  18  34  66  90 120 145 201 255 297 346
#     4  11  18  39  63  89 114 158 196 248 300 356
#     4  10  19  39  60  82 119 162 197 233 298 365
#     4   9  17  33  60  93 117 154 191 244 307 339
#
# _framework density 23.171783999999999
#
# number of rings (size 3 to 8) (size 9 to 14) (size 15 to 20)
#    0.857    0.857    4.286    2.143    0.000    0.571 
#    0.000    7.857    0.000    5.143    0.000    0.000 
#    0.000    0.000    0.000    0.000    0.000    0.000 
#
# Total GULP energy -78112.751444 kJ/mol
# GULP energy per Si atom -5579.482246 kJ/mol
# Density = 2.311904 g / cm^3
# Si number density = 23.171784 Si / 1000 Ang^3
#
#
#
# Elastic Constant Matrix: (Units=GPa)
#
#
# Indices 1 2 3 4 5 6 
#
# 1 41.0417 34.7976 -5.8435 -3.3436 10.0127 12.6874
# 2 34.7976 178.8139 34.4307 20.4629 8.9183 40.0268
# 3 -5.8435 34.4307 63.7269 2.5992 6.8225 2.3198
# 4 -3.3436 20.4629 2.5992 35.6417 14.3208 3.2182
# 5 10.0127 8.9183 6.8225 14.3208 22.8695 4.8234
# 6 12.6874 40.0268 2.3198 3.2182 4.8234 41.9196
#
#
#
# Elastic Compliance Matrix: (Units=1/GPa)
#
#
# Indices 1 2 3 4 5 6 
#
# 1 0.049102 -0.013370 0.014631 0.026077 -0.036837 -0.000668
# 2 -0.013370 0.012324 -0.008479 -0.012167 0.012840 -0.007795
# 3 0.014631 -0.008479 0.022929 0.011414 -0.017841 0.003576
# 4 0.026077 -0.012167 0.011414 0.054360 -0.044981 0.004096
# 5 -0.036837 0.012840 -0.017841 -0.044981 0.089814 -0.007005
# 6 -0.000668 -0.007795 0.003576 0.004096 -0.007005 0.031794
#
#
# Mechanical properties :
#
#
# Convention : Reuss Voigt Hill
#
# Bulk Modulus (GPa) = 14.30244 45.59470 29.94857
# Shear Modulus (GPa) = 16.77486 34.76601 25.77043
#
# Velocity S-wave (km/s) = 2.69352 3.87765 3.33850
# Velocity P-wave (km/s) = 3.98236 6.30617 5.27385
#
# Compressibility (1/GPa) = 0.06991815
#
# Stress axis : x y z
#
# Youngs Moduli (GPa) = 20.36564 81.14522 43.61320
#
# Poissons Ratio (x) = 1.08491 -0.63808
# Poissons Ratio (y) = 0.27229 0.36979
# Poissons Ratio (z) = -0.29796 0.68802
#
# Static dielectric constant tensor:
#      x y z
#    x 1.952240 -0.040170 -0.058350 
#    y -0.040170 1.861020 0.016450 
#    z -0.058350 0.016450 1.931920 
# 
# From -- ./inp_files/456845.got.cif
#   From: 2010.05.17/outbox.cif.g08.bks.cpg/sg2_229_cif.got.tgz:456845.got - 2010.06.03 11:33:40.
