data_PCOD9077076
_publ_section_title
;
Structure prediction by ZEFSAII (Michael W. Deem and Ramdas Pophale) SiO2 
 PCOD9077076
Probable space group: P -1
;
_chemical_formula_sum "Si O2"
_cell_formula_units_Z 16
_cell_length_a 11.113452
_cell_length_b 11.963162
_cell_length_c 17.892392
_cell_angle_alpha 40.302918
_cell_angle_beta 147.479156
_cell_angle_gamma 130.326402
_cell_volume 827.155150
_symmetry_space_group_name_H-M "P -1"
_symmetry_group_IT_number 2
_symmetry_cell_setting 'triclinic'
loop_
_space_group_symop_operation_xyz
x,y,z
-x,-y,-z
loop_
_atom_site_type_symbol
_atom_site_label
_atom_site_fract_x
_atom_site_fract_y
_atom_site_fract_z
Si Si1 0.712605 0.615990 0.027182
Si Si2 0.511619 0.337991 0.852710
Si Si3 0.223300 0.153857 0.336480
Si Si4 0.202755 0.625233 0.523177
Si Si5 0.517162 0.163948 0.332834
Si Si6 0.132393 0.192672 0.841819
Si Si7 0.157062 0.844256 0.966983
Si Si8 0.966070 0.468942 0.106949
O O1 0.820880 0.716137 0.102065
O O2 0.893406 0.497850 0.139550
O O3 0.500000 0.500000 0.000000
O O4 0.617153 0.752374 0.847279
O O5 0.402915 0.499046 0.670796
O O6 0.330123 0.261502 0.854550
O O7 0.596303 0.194388 0.913367
O O8 0.732635 0.410823 0.974179
O O9 0.364971 0.167406 0.326443
O O10 0.987249 0.082637 0.215712
O O11 0.147623 0.324891 0.253661
O O12 0.372554 0.021327 0.529003
O O13 0.277855 0.716343 0.592633
O O14 0.000000 0.500000 0.500000
O O15 0.107271 0.753839 0.345860
O O16 0.144026 0.985476 0.952547
O O17 0.052943 0.656135 0.028573
#
# Coordination Sequence:
#
# PCOD9077076 Si02
#       8
#     2   2   2   2   2   2   2   2
#     4  12  23  40  60  85 126 168 192 233 308 376
#     4  10  19  37  62  84 118 156 203 247 292 350
#     4  10  21  37  66  90 112 151 209 259 284 341
#     4  10  18  34  55  85 113 151 196 242 285 337
#     4  11  20  39  63  91 114 151 209 247 290 353
#     4  11  23  36  57  91 124 154 191 247 306 356
#     4  11  20  36  61  94 114 149 203 260 294 333
#     4  11  21  38  62  89 117 159 203 246 295 355
#
# _framework density 19.343409000000001
#
# number of rings (size 3 to 8) (size 9 to 14) (size 15 to 20)
#    0.000    1.250    5.000    3.375    0.000    0.500 
#    0.000    1.875    0.000    2.250    0.000    0.000 
#    0.000    0.000    0.000    0.000    0.000    0.000 
#
# Total GULP energy -89225.426314 kJ/mol
# GULP energy per Si atom -5576.589145 kJ/mol
# Density = 1.929938 g / cm^3
# Si number density = 19.343409 Si / 1000 Ang^3
#
#
#
# Elastic Constant Matrix: (Units=GPa)
#
#
# Indices 1 2 3 4 5 6 
#
# 1 79.1247 20.2689 29.3140 -14.1538 21.4484 -17.2311
# 2 20.2689 84.0379 31.8274 -12.0428 16.3501 -24.9622
# 3 29.3140 31.8274 94.3888 -25.7436 24.9297 -15.7573
# 4 -14.1538 -12.0428 -25.7436 31.5355 -8.4453 6.2654
# 5 21.4484 16.3501 24.9297 -8.4453 29.4287 -3.3860
# 6 -17.2311 -24.9622 -15.7573 6.2654 -3.3860 37.7219
#
#
#
# Elastic Compliance Matrix: (Units=1/GPa)
#
#
# Indices 1 2 3 4 5 6 
#
# 1 0.017778 0.000588 -0.000848 0.003285 -0.010859 0.006635
# 2 0.000588 0.016935 -0.002210 0.001251 -0.006483 0.009762
# 3 -0.000848 -0.002210 0.017296 0.009728 -0.009682 0.002891
# 4 0.003285 0.001251 0.009728 0.041872 0.000628 -0.000506
# 5 -0.010859 -0.006483 -0.009682 0.000628 0.052883 -0.008652
# 6 0.006635 0.009762 0.002891 -0.000506 -0.008652 0.036516
#
#
# Mechanical properties :
#
#
# Convention : Reuss Voigt Hill
#
# Bulk Modulus (GPa) = 21.24524 46.70801 33.97662
# Shear Modulus (GPa) = 24.52075 31.47995 28.00035
#
# Velocity S-wave (km/s) = 3.56428 4.03851 3.80878
# Velocity P-wave (km/s) = 5.28638 6.77829 6.07828
#
# Compressibility (1/GPa) = 0.04706937
#
# Stress axis : x y z
#
# Youngs Moduli (GPa) = 56.24915 59.05003 57.81803
#
# Poissons Ratio (x) = -0.03470 0.04900
# Poissons Ratio (y) = -0.03305 0.12775
# Poissons Ratio (z) = 0.04767 0.13048
#
# Static dielectric constant tensor:
#      x y z
#    x 1.705880 0.037900 0.022740 
#    y 0.037900 1.754300 -0.026730 
#    z 0.022740 -0.026730 1.727180 
# 
# From -- ./inp_files/568625.got.cif
#   From: 2010.05.17/outbox.cif.g08.bks.cpg/sg2_285_cif.got.tgz:568625.got - 2010.06.03 11:33:40.
