data_PCOD9077722
_publ_section_title
;
Structure prediction by ZEFSAII (Michael W. Deem and Ramdas Pophale) SiO2 
 PCOD9077722
Probable space group: P -1
;
_chemical_formula_sum "Si O2"
_cell_formula_units_Z 16
_cell_length_a 8.872465
_cell_length_b 18.944899
_cell_length_c 17.350257
_cell_angle_alpha 157.560362
_cell_angle_beta 55.587659
_cell_angle_gamma 111.517966
_cell_volume 798.508957
_symmetry_space_group_name_H-M "P -1"
_symmetry_group_IT_number 2
_symmetry_cell_setting 'triclinic'
loop_
_space_group_symop_operation_xyz
x,y,z
-x,-y,-z
loop_
_atom_site_type_symbol
_atom_site_label
_atom_site_fract_x
_atom_site_fract_y
_atom_site_fract_z
Si Si1 0.291141 0.230957 0.474333
Si Si2 0.789153 0.333740 0.204907
Si Si3 0.747157 0.649866 0.225289
Si Si4 0.869342 0.625622 0.923185
Si Si5 0.250187 0.818550 0.106470
Si Si6 0.229575 0.040657 0.582063
Si Si7 0.467664 0.813901 0.786621
Si Si8 0.465013 0.615168 0.002028
O O1 0.323510 0.307479 0.623834
O O2 0.482189 0.183643 0.314978
O O3 0.070807 0.423582 0.699972
O O4 0.272080 0.021506 0.281385
O O5 0.646840 0.576068 0.519577
O O6 0.743046 0.180396 0.117181
O O7 0.023937 0.296105 0.092852
O O8 0.722948 0.308049 0.109878
O O9 0.712500 0.860806 0.407461
O O10 0.617634 0.549182 0.123631
O O11 0.000000 0.500000 0.000000
O O12 0.753657 0.828229 0.218353
O O13 0.708338 0.548615 0.867168
O O14 0.387245 0.703821 0.026750
O O15 0.014229 0.894284 0.279450
O O16 0.356770 0.792483 0.278976
O O17 0.500000 0.000000 0.000000
#
# Coordination Sequence:
#
# PCOD9077722 Si02
#       8
#     2   2   2   2   2   2   2   2
#     4  11  21  38  62  88 115 150 198 241 284 342
#     4   9  20  38  59  86 118 146 190 241 286 345
#     4  12  21  39  59  82 115 156 199 237 277 342
#     4  10  23  39  54  87 123 151 187 242 299 341
#     4  11  20  37  62  84 113 156 196 239 279 342
#     4  11  22  38  56  83 116 157 200 234 281 344
#     4  10  18  34  63  93 109 145 198 243 281 334
#     4  12  23  37  58  83 119 157 194 237 292 342
#
# _framework density 20.037345999999999
#
# number of rings (size 3 to 8) (size 9 to 14) (size 15 to 20)
#    0.000    1.250    5.000    3.000    0.000    0.500 
#    4.500    0.000    0.000   12.750    0.000    0.000 
#    0.000    0.000    0.000    0.000    0.000    0.000 
#
# Total GULP energy -89258.729896 kJ/mol
# GULP energy per Si atom -5578.670619 kJ/mol
# Density = 1.999174 g / cm^3
# Si number density = 20.037346 Si / 1000 Ang^3
#
#
#
# Elastic Constant Matrix: (Units=GPa)
#
#
# Indices 1 2 3 4 5 6 
#
# 1 58.3189 25.2624 6.3765 -3.4331 -0.2350 22.4122
# 2 25.2624 130.3548 18.0660 -8.4563 7.2565 19.7440
# 3 6.3765 18.0660 69.0171 -1.8790 17.8572 3.6975
# 4 -3.4331 -8.4563 -1.8790 40.7250 6.7880 8.2645
# 5 -0.2350 7.2565 17.8572 6.7880 13.4283 5.5138
# 6 22.4122 19.7440 3.6975 8.2645 5.5138 28.5383
#
#
#
# Elastic Compliance Matrix: (Units=1/GPa)
#
#
# Indices 1 2 3 4 5 6 
#
# 1 0.028157 -0.001674 -0.004821 0.004159 0.015803 -0.024588
# 2 -0.001674 0.009357 -0.001116 0.003358 -0.003086 -0.005390
# 3 -0.004821 -0.001116 0.024894 0.005438 -0.038271 0.007153
# 4 0.004159 0.003358 0.005438 0.031560 -0.020191 -0.011533
# 5 0.015803 -0.003086 -0.038271 -0.020191 0.149128 -0.028282
# 6 -0.024588 -0.005390 0.007153 -0.011533 -0.028282 0.065957
#
#
# Mechanical properties :
#
#
# Convention : Reuss Voigt Hill
#
# Bulk Modulus (GPa) = 21.19347 39.67785 30.43566
# Shear Modulus (GPa) = 14.70577 30.40404 22.55491
#
# Velocity S-wave (km/s) = 2.71203 3.89957 3.35870
# Velocity P-wave (km/s) = 4.51739 6.33407 5.50124
#
# Compressibility (1/GPa) = 0.04718434
#
# Stress axis : x y z
#
# Youngs Moduli (GPa) = 35.51492 106.87695 40.17083
#
# Poissons Ratio (x) = 0.17895 0.19368
# Poissons Ratio (y) = 0.05946 0.04482
# Poissons Ratio (z) = 0.17123 0.11925
#
# Static dielectric constant tensor:
#      x y z
#    x 1.737240 -0.002880 0.012140 
#    y -0.002880 1.755980 0.005200 
#    z 0.012140 0.005200 1.738980 
# 
# From -- ./inp_files/311306.got.cif
#   From: 2010.05.17/outbox.cif.g08.bks.cpg/sg2_156_cif.got.tgz:311306.got - 2010.06.03 11:33:40.
