data_PCOD9077895
_publ_section_title
;
Structure prediction by ZEFSAII (Michael W. Deem and Ramdas Pophale) SiO2 
 PCOD9077895
Probable space group: P -1
;
_chemical_formula_sum "Si O2"
_cell_formula_units_Z 16
_cell_length_a 21.442070
_cell_length_b 21.010280
_cell_length_c 12.411408
_cell_angle_alpha 142.700086
_cell_angle_beta 29.071077
_cell_angle_gamma 161.469016
_cell_volume 843.229550
_symmetry_space_group_name_H-M "P -1"
_symmetry_group_IT_number 2
_symmetry_cell_setting 'triclinic'
loop_
_space_group_symop_operation_xyz
x,y,z
-x,-y,-z
loop_
_atom_site_type_symbol
_atom_site_label
_atom_site_fract_x
_atom_site_fract_y
_atom_site_fract_z
Si Si1 0.243333 0.049239 0.132195
Si Si2 0.322626 0.123597 0.657945
Si Si3 0.078689 0.922568 0.979917
Si Si4 0.675526 0.653172 0.540216
Si Si5 0.647757 0.979479 0.857733
Si Si6 0.955427 0.860151 0.671143
Si Si7 0.709967 0.271508 0.134962
Si Si8 0.565191 0.571299 0.192297
O O1 0.342757 0.239559 0.243075
O O2 0.388992 0.088344 0.057510
O O3 0.957816 0.844617 0.330583
O O4 0.217819 0.985631 0.963971
O O5 0.562765 0.232882 0.396143
O O6 0.355575 0.269548 0.777608
O O7 0.263778 0.060155 0.784724
O O8 0.083828 0.922025 0.673901
O O9 0.817868 0.691218 0.015400
O O10 0.993038 0.981546 0.217392
O O11 0.500000 0.500000 0.500000
O O12 0.588328 0.515312 0.582002
O O13 0.892855 0.099853 0.592977
O O14 0.422623 0.794206 0.866787
O O15 0.675007 0.123586 0.009956
O O16 0.656192 0.638374 0.823686
O O17 0.000000 0.500000 0.000000
#
# Coordination Sequence:
#
# PCOD9077895 Si02
#       8
#     2   2   2   2   2   2   2   2
#     4  11  21  35  53  83 123 148 179 232 281 335
#     4  10  24  36  56  82 117 150 192 233 276 331
#     4  11  22  36  50  87 126 153 178 218 278 356
#     4  11  21  32  54  85 120 153 188 219 273 344
#     4  10  21  36  60  83 107 143 186 243 291 310
#     4  10  18  35  55  84 116 147 183 229 276 320
#     4  10  22  41  61  81 102 138 201 249 278 323
#     4  11  19  33  56  84 115 156 185 219 275 336
#
# _framework density 18.974667
#
# number of rings (size 3 to 8) (size 9 to 14) (size 15 to 20)
#    0.000    1.500    3.750    3.000    3.500    2.000 
#    0.000    0.625    0.000    0.750    0.000    0.000 
#    0.000    0.000    0.000    0.000    0.000    0.000 
#
# Total GULP energy -89196.556829 kJ/mol
# GULP energy per Si atom -5574.784802 kJ/mol
# Density = 1.893148 g / cm^3
# Si number density = 18.974667 Si / 1000 Ang^3
#
#
#
# Elastic Constant Matrix: (Units=GPa)
#
#
# Indices 1 2 3 4 5 6 
#
# 1 139.8169 34.6282 41.9112 -13.3538 30.7265 14.6674
# 2 34.6282 89.4026 16.8619 -26.8772 6.7236 23.7247
# 3 41.9112 16.8619 61.4975 -11.0811 10.0969 7.1807
# 4 -13.3538 -26.8772 -11.0811 19.5656 -1.3807 -2.5531
# 5 30.7265 6.7236 10.0969 -1.3807 28.6432 -4.7466
# 6 14.6674 23.7247 7.1807 -2.5531 -4.7466 24.1237
#
#
#
# Elastic Compliance Matrix: (Units=1/GPa)
#
#
# Indices 1 2 3 4 5 6 
#
# 1 0.012817 0.001143 -0.004694 0.005435 -0.013698 -0.009640
# 2 0.001143 0.031893 0.003838 0.041734 -0.013257 -0.031395
# 3 -0.004694 0.003838 0.022357 0.013520 -0.004251 -0.006981
# 4 0.005435 0.041734 0.013520 0.112967 -0.021689 -0.040684
# 5 -0.013698 -0.013257 -0.004251 -0.021689 0.058447 0.031836
# 6 -0.009640 -0.031395 -0.006981 -0.040684 0.031836 0.082226
#
#
# Mechanical properties :
#
#
# Convention : Reuss Voigt Hill
#
# Bulk Modulus (GPa) = 14.78379 53.05774 33.92076
# Shear Modulus (GPa) = 14.59085 27.62088 21.10587
#
# Velocity S-wave (km/s) = 2.77603 3.81947 3.33876
# Velocity P-wave (km/s) = 4.25245 6.89015 5.72528
#
# Compressibility (1/GPa) = 0.06764167
#
# Stress axis : x y z
#
# Youngs Moduli (GPa) = 78.02181 31.35448 44.72880
#
# Poissons Ratio (x) = -0.03584 0.20998
# Poissons Ratio (y) = -0.08919 -0.17169
# Poissons Ratio (z) = 0.36627 -0.12035
#
# Static dielectric constant tensor:
#      x y z
#    x 1.721340 0.041260 0.007720 
#    y 0.041260 1.706980 0.008190 
#    z 0.007720 0.008190 1.649630 
# 
# From -- ./inp_files/436514.got.cif
#   From: 2010.05.17/outbox.cif.g08.bks.cpg/sg2_219_cif.got.tgz:436514.got - 2010.06.03 11:33:40.
