data_PCOD9077963
_publ_section_title
;
Structure prediction by ZEFSAII (Michael W. Deem and Ramdas Pophale) SiO2 
 PCOD9077963
Probable space group: P -1
;
_chemical_formula_sum "Si O2"
_cell_formula_units_Z 16
_cell_length_a 10.898570
_cell_length_b 14.587154
_cell_length_c 14.008935
_cell_angle_alpha 148.218102
_cell_angle_beta 31.143179
_cell_angle_gamma 135.721267
_cell_volume 606.100524
_symmetry_space_group_name_H-M "P -1"
_symmetry_group_IT_number 2
_symmetry_cell_setting 'triclinic'
loop_
_space_group_symop_operation_xyz
x,y,z
-x,-y,-z
loop_
_atom_site_type_symbol
_atom_site_label
_atom_site_fract_x
_atom_site_fract_y
_atom_site_fract_z
Si Si1 0.482580 0.774664 0.496520
Si Si2 0.130164 0.944922 0.266753
Si Si3 0.987634 0.864136 0.678324
Si Si4 0.509288 0.730781 0.918032
Si Si5 0.002210 0.232036 0.105115
Si Si6 0.941051 0.606628 0.982510
Si Si7 0.639103 0.576973 0.386170
Si Si8 0.466201 0.824741 0.238665
O O1 0.659523 0.646791 0.205762
O O2 0.557899 0.752325 0.539807
O O3 0.525113 0.966952 0.599719
O O4 0.202856 0.744293 0.658793
O O5 0.025914 0.770677 0.134600
O O6 0.397678 0.889141 0.068800
O O7 0.000000 0.000000 0.500000
O O8 0.092004 0.084047 0.331061
O O9 0.258345 0.793566 0.424505
O O10 0.791943 0.740422 0.739137
O O11 0.978542 0.039699 0.903639
O O12 0.422583 0.561165 0.775575
O O13 0.409803 0.748697 0.106013
O O14 0.965600 0.368231 0.164089
O O15 0.270961 0.240664 0.967173
O O16 0.083822 0.441629 0.786888
O O17 0.500000 0.500000 0.500000
#
# Coordination Sequence:
#
# PCOD9077963 Si02
#       8
#     2   2   2   2   2   2   2   2
#     4  12  22  41  69  94 130 172 213 265 322 384
#     4  10  18  35  56  91 126 156 202 264 323 365
#     4  11  22  38  64  96 131 164 212 275 318 373
#     4  11  24  40  62  95 131 167 214 266 324 379
#     4  11  23  39  68 100 128 166 220 271 315 379
#     4  10  22  40  64  95 124 168 217 260 319 383
#     4  11  25  46  66  94 133 174 214 261 327 395
#     4  12  24  41  67 102 127 167 220 268 324 375
#
# _framework density 26.398260000000001
#
# number of rings (size 3 to 8) (size 9 to 14) (size 15 to 20)
#    0.000    1.000    6.250    1.500    0.000    2.000 
#    2.250    0.625    0.000    1.500    0.000    0.000 
#    0.000    0.000    0.000    0.000    0.000    0.000 
#
# Total GULP energy -89669.496865 kJ/mol
# GULP energy per Si atom -5604.343554 kJ/mol
# Density = 2.633818 g / cm^3
# Si number density = 26.398260 Si / 1000 Ang^3
#
#
#
# Elastic Constant Matrix: (Units=GPa)
#
#
# Indices 1 2 3 4 5 6 
#
# 1 83.6423 4.7604 26.8970 -0.7741 -20.4036 6.9984
# 2 4.7604 41.7382 21.0915 -18.8817 -9.8278 -1.1500
# 3 26.8970 21.0915 116.0500 -47.1798 -33.2689 20.7584
# 4 -0.7741 -18.8817 -47.1798 49.2479 2.7937 -2.5141
# 5 -20.4036 -9.8278 -33.2689 2.7937 52.3268 -6.5799
# 6 6.9984 -1.1500 20.7584 -2.5141 -6.5799 30.9536
#
#
#
# Elastic Compliance Matrix: (Units=1/GPa)
#
#
# Indices 1 2 3 4 5 6 
#
# 1 0.013934 -0.000713 -0.003674 -0.003770 0.003120 -0.000356
# 2 -0.000713 0.030634 0.000576 0.012127 0.005583 0.003084
# 3 -0.003674 0.000576 0.022790 0.020853 0.010737 -0.010455
# 4 -0.003770 0.012127 0.020853 0.043910 0.010866 -0.006806
# 5 0.003120 0.005583 0.010737 0.010866 0.027500 -0.000970
# 6 -0.000356 0.003084 -0.010455 -0.006806 -0.000970 0.038754
#
#
# Mechanical properties :
#
#
# Convention : Reuss Voigt Hill
#
# Bulk Modulus (GPa) = 16.74023 38.54760 27.64391
# Shear Modulus (GPa) = 24.38363 39.08442 31.73402
#
# Velocity S-wave (km/s) = 3.04251 3.85199 3.47093
# Velocity P-wave (km/s) = 4.32408 5.86667 5.15342
#
# Compressibility (1/GPa) = 0.05973635
#
# Stress axis : x y z
#
# Youngs Moduli (GPa) = 71.76842 32.64301 43.87893
#
# Poissons Ratio (x) = 0.02327 0.16123
# Poissons Ratio (y) = 0.05117 -0.02530
# Poissons Ratio (z) = 0.26371 -0.01882
#
# Static dielectric constant tensor:
#      x y z
#    x 2.074670 -0.022410 -0.053430 
#    y -0.022410 2.126410 -0.012270 
#    z -0.053430 -0.012270 2.073750 
# 
# From -- ./inp_files/522482.got.cif
#   From: 2010.05.17/outbox.cif.g08.bks.cpg/sg2_262_cif.got.tgz:522482.got - 2010.06.03 11:33:40.
