data_PCOD9077946
_publ_section_title
;
Structure prediction by ZEFSAII (Michael W. Deem and Ramdas Pophale) SiO2 
 PCOD9077946
Probable space group: P -1
;
_chemical_formula_sum "Si O2"
_cell_formula_units_Z 14
_cell_length_a 7.818259
_cell_length_b 11.061263
_cell_length_c 9.888697
_cell_angle_alpha 101.710992
_cell_angle_beta 71.819613
_cell_angle_gamma 51.843310
_cell_volume 541.874609
_symmetry_space_group_name_H-M "P -1"
_symmetry_group_IT_number 2
_symmetry_cell_setting 'triclinic'
loop_
_space_group_symop_operation_xyz
x,y,z
-x,-y,-z
loop_
_atom_site_type_symbol
_atom_site_label
_atom_site_fract_x
_atom_site_fract_y
_atom_site_fract_z
Si Si1 0.041114 0.334523 0.946531
Si Si2 0.442517 0.836483 0.895224
Si Si3 0.693883 0.467352 0.837788
Si Si4 0.414748 0.050555 0.313801
Si Si5 0.664211 0.101470 0.490856
Si Si6 0.599363 0.504549 0.310925
Si Si7 0.089254 0.865202 0.764767
O O1 0.974047 0.321318 0.808361
O O2 0.333751 0.144764 0.857293
O O3 0.838084 0.379207 0.112878
O O4 0.000000 0.500000 0.000000
O O5 0.607437 0.652424 0.892188
O O6 0.646440 0.823367 0.763429
O O7 0.264905 0.849117 0.831306
O O8 0.208052 0.009135 0.084733
O O9 0.645800 0.433579 0.695728
O O10 0.500000 0.500000 0.000000
O O11 0.510551 0.093241 0.419722
O O12 0.908979 0.040524 0.338721
O O13 0.267859 0.014651 0.421304
O O14 0.472809 0.316145 0.611366
O O15 0.734905 0.346187 0.353411
#
# Coordination Sequence:
#
# PCOD9077946 Si02
#       7
#     2   2   2   2   2   2   2
#     4  11  20  37  62  83 112 153 198 226 285 348
#     4   9  17  34  56  85 113 148 192 235 278 332
#     4   9  21  34  59  88 114 143 192 247 280 324
#     4  10  20  35  57  86 116 154 189 231 281 343
#     4  10  20  31  55  88 119 149 188 232 286 337
#     4  10  18  35  56  87 115 148 193 238 278 334
#     4   9  17  29  58  85 114 150 192 230 278 341
#
# _framework density 25.836236
#
# number of rings (size 3 to 8) (size 9 to 14) (size 15 to 20)
#    0.000    2.286    2.857    0.429    6.000    0.000 
#    0.000    1.429    0.000   13.714    0.000    0.000 
#    0.000    0.000    0.000    0.000    0.000    0.000 
#
# Total GULP energy -78232.435556 kJ/mol
# GULP energy per Si atom -5588.031111 kJ/mol
# Density = 2.577743 g / cm^3
# Si number density = 25.836236 Si / 1000 Ang^3
#
#
#
# Elastic Constant Matrix: (Units=GPa)
#
#
# Indices 1 2 3 4 5 6 
#
# 1 89.7235 23.1418 8.7974 -4.8009 18.2477 9.3281
# 2 23.1418 159.1618 36.1776 -30.6706 -10.2602 40.6745
# 3 8.7974 36.1776 72.2110 -11.6055 1.7310 15.8555
# 4 -4.8009 -30.6706 -11.6055 59.5495 20.1268 -4.1121
# 5 18.2477 -10.2602 1.7310 20.1268 20.6193 7.3951
# 6 9.3281 40.6745 15.8555 -4.1121 7.3951 32.1628
#
#
#
# Elastic Compliance Matrix: (Units=1/GPa)
#
#
# Indices 1 2 3 4 5 6 
#
# 1 0.019060 -0.005788 0.000836 0.011134 -0.034540 0.010746
# 2 -0.005788 0.013640 -0.002792 -0.002701 0.021793 -0.019550
# 3 0.000836 -0.002792 0.016543 0.003686 -0.006038 -0.003007
# 4 0.011134 -0.002701 0.003686 0.035371 -0.051301 0.014687
# 5 -0.034540 0.021793 -0.006038 -0.051301 0.161376 -0.058230
# 6 0.010746 -0.019550 -0.003007 0.014687 -0.058230 0.069448
#
#
# Mechanical properties :
#
#
# Convention : Reuss Voigt Hill
#
# Bulk Modulus (GPa) = 29.62702 50.81443 40.22073
# Shear Modulus (GPa) = 14.61231 39.33161 26.97196
#
# Velocity S-wave (km/s) = 2.38076 3.90595 3.23454
# Velocity P-wave (km/s) = 4.36457 6.32871 5.43609
#
# Compressibility (1/GPa) = 0.03375297
#
# Stress axis : x y z
#
# Youngs Moduli (GPa) = 52.46683 73.31590 60.44937
#
# Poissons Ratio (x) = 0.42438 -0.05053
# Poissons Ratio (y) = 0.30370 0.16878
# Poissons Ratio (z) = -0.04386 0.20471
#
# Static dielectric constant tensor:
#      x y z
#    x 2.082590 -0.028930 0.023060 
#    y -0.028930 2.136040 -0.038550 
#    z 0.023060 -0.038550 2.103420 
# 
# From -- ./inp_files/387739.got.cif
#   From: 2010.05.17/outbox.cif.g08.bks.cpg/sg2_194_cif.got.tgz:387739.got - 2010.06.03 11:33:40.
