data_PCOD9077066
_publ_section_title
;
Structure prediction by ZEFSAII (Michael W. Deem and Ramdas Pophale) SiO2 
 PCOD9077066
Probable space group: P -1
;
_chemical_formula_sum "Si O2"
_cell_formula_units_Z 16
_cell_length_a 6.431075
_cell_length_b 15.389704
_cell_length_c 9.761116
_cell_angle_alpha 138.327570
_cell_angle_beta 74.142410
_cell_angle_gamma 100.065185
_cell_volume 617.224402
_symmetry_space_group_name_H-M "P -1"
_symmetry_group_IT_number 2
_symmetry_cell_setting 'triclinic'
loop_
_space_group_symop_operation_xyz
x,y,z
-x,-y,-z
loop_
_atom_site_type_symbol
_atom_site_label
_atom_site_fract_x
_atom_site_fract_y
_atom_site_fract_z
Si Si1 0.761218 0.524413 0.971177
Si Si2 0.106194 0.507847 0.638777
Si Si3 0.632113 0.822575 0.326269
Si Si4 0.973835 0.924103 0.733347
Si Si5 0.110967 0.787985 0.989132
Si Si6 0.145470 0.749606 0.250742
Si Si7 0.737852 0.751724 0.790040
Si Si8 0.412492 0.031997 0.771408
O O1 0.853174 0.408356 0.918916
O O2 0.909273 0.497728 0.774460
O O3 0.500000 0.500000 0.000000
O O4 0.752289 0.683303 0.176379
O O5 0.227808 0.642352 0.792404
O O6 0.274920 0.382913 0.449029
O O7 0.000000 0.500000 0.500000
O O8 0.393204 0.781179 0.276169
O O9 0.683095 0.912566 0.291707
O O10 0.598880 0.925253 0.576534
O O11 0.015201 0.832388 0.486122
O O12 0.848090 0.842006 0.766786
O O13 0.216632 0.953235 0.775874
O O14 0.862881 0.067364 0.902117
O O15 0.900243 0.745118 0.884970
O O16 0.091631 0.805262 0.176390
O O17 0.541836 0.841013 0.996044
#
# Coordination Sequence:
#
# PCOD9077066 Si02
#       8
#     2   2   2   2   2   2   2   2
#     4  10  19  34  53  79 112 147 184 222 270 331
#     4  10  20  35  57  85 109 144 185 229 278 325
#     4   9  18  32  53  80 110 144 184 224 263 331
#     4  10  18  34  55  84 105 141 181 229 273 326
#     4  10  20  32  54  84 114 138 178 231 279 326
#     4  10  20  33  53  82 113 142 177 227 286 316
#     4  10  19  35  59  82 107 140 186 227 274 326
#     4   9  17  31  56  82 101 138 190 227 261 319
#
# _framework density 25.922501
#
# number of rings (size 3 to 8) (size 9 to 14) (size 15 to 20)
#    0.000    2.250    1.250    4.125    0.000    0.500 
#    0.000    0.000    0.000   21.750    0.000    0.000 
#    0.000    0.000    0.000    0.000    0.000    0.000 
#
# Total GULP energy -89194.097045 kJ/mol
# GULP energy per Si atom -5574.631065 kJ/mol
# Density = 2.586350 g / cm^3
# Si number density = 25.922501 Si / 1000 Ang^3
#
#
#
# Elastic Constant Matrix: (Units=GPa)
#
#
# Indices 1 2 3 4 5 6 
#
# 1 53.7030 24.9290 15.4107 6.7593 -12.4882 -14.7107
# 2 24.9290 114.8103 35.1385 3.1819 -12.9837 -3.9989
# 3 15.4107 35.1385 198.8963 15.6804 -8.7136 -1.7528
# 4 6.7593 3.1819 15.6804 54.5070 -2.1762 2.8991
# 5 -12.4882 -12.9837 -8.7136 -2.1762 45.2573 16.0135
# 6 -14.7107 -3.9989 -1.7528 2.8991 16.0135 45.7132
#
#
#
# Elastic Compliance Matrix: (Units=1/GPa)
#
#
# Indices 1 2 3 4 5 6 
#
# 1 0.023536 -0.004296 -0.000675 -0.002704 0.002743 0.006383
# 2 -0.004296 0.010247 -0.001442 0.000494 0.001944 -0.001254
# 3 -0.000675 -0.001442 0.005461 -0.001374 0.000459 -0.000208
# 4 -0.002704 0.000494 -0.001374 0.019213 0.000910 -0.002417
# 5 0.002743 0.001944 0.000459 0.000910 0.026465 -0.008258
# 6 0.006383 -0.001254 -0.000208 -0.002417 -0.008258 0.026858
#
#
# Mechanical properties :
#
#
# Convention : Reuss Voigt Hill
#
# Bulk Modulus (GPa) = 37.85462 57.59621 47.72542
# Shear Modulus (GPa) = 37.47803 48.55759 43.01781
#
# Velocity S-wave (km/s) = 3.80646 4.33272 4.07809
# Velocity P-wave (km/s) = 5.82696 6.87727 6.37379
#
# Compressibility (1/GPa) = 0.02641686
#
# Stress axis : x y z
#
# Youngs Moduli (GPa) = 42.48889 97.59193 183.10252
#
# Poissons Ratio (x) = 0.41928 0.12359
# Poissons Ratio (y) = 0.18254 0.26407
# Poissons Ratio (z) = 0.02868 0.14075
#
# Static dielectric constant tensor:
#      x y z
#    x 2.201020 0.018740 -0.065790 
#    y 0.018740 2.008830 0.040060 
#    z -0.065790 0.040060 2.144460 
# 
# From -- ./inp_files/204098.got.cif
#   From: 2010.05.17/outbox.cif.g08.bks.cpg/sg2_103_cif.got.tgz:204098.got - 2010.06.03 11:33:40.
