data_PCOD9077163
_publ_section_title
;
Structure prediction by ZEFSAII (Michael W. Deem and Ramdas Pophale) SiO2 
 PCOD9077163
Probable space group: P -1
;
_chemical_formula_sum "Si O2"
_cell_formula_units_Z 14
_cell_length_a 9.526974
_cell_length_b 18.851996
_cell_length_c 7.930449
_cell_angle_alpha 129.813834
_cell_angle_beta 32.113621
_cell_angle_gamma 129.254829
_cell_volume 567.160560
_symmetry_space_group_name_H-M "P -1"
_symmetry_group_IT_number 2
_symmetry_cell_setting 'triclinic'
loop_
_space_group_symop_operation_xyz
x,y,z
-x,-y,-z
loop_
_atom_site_type_symbol
_atom_site_label
_atom_site_fract_x
_atom_site_fract_y
_atom_site_fract_z
Si Si1 0.141996 0.868476 0.451637
Si Si2 0.558664 0.668712 0.249082
Si Si3 0.084431 0.138017 0.684854
Si Si4 0.280026 0.027189 0.031267
Si Si5 0.019316 0.597388 0.531157
Si Si6 0.184877 0.667607 0.125964
Si Si7 0.366696 0.405106 0.590844
O O1 0.160363 0.770949 0.370670
O O2 0.093818 0.840144 0.258528
O O3 0.415606 0.948436 0.303069
O O4 0.890121 0.913822 0.818913
O O5 0.719841 0.769746 0.303147
O O6 0.259949 0.668924 0.492627
O O7 0.558369 0.594915 0.290111
O O8 0.741271 0.632450 0.868012
O O9 0.257855 0.071145 0.310269
O O10 0.888578 0.078973 0.934361
O O11 0.119783 0.594884 0.235481
O O12 0.000000 0.500000 0.500000
O O13 0.951818 0.627620 0.166510
O O14 0.481858 0.672782 0.760107
O O15 0.500000 0.500000 0.500000
#
# Coordination Sequence:
#
# PCOD9077163 Si02
#       7
#     2   2   2   2   2   2   2
#     4  10  18  34  56  88 116 155 197 241 301 359
#     4  12  24  40  67  92 124 156 219 260 297 371
#     4   9  20  33  59  93 121 152 199 256 306 353
#     4   9  19  31  58  92 127 148 188 259 312 361
#     4  12  27  45  60  87 129 175 203 249 322 378
#     4  12  23  41  63  87 127 162 208 250 314 380
#     4  12  23  40  65  93 116 154 210 276 310 352
#
# _framework density 24.684367999999999
#
# number of rings (size 3 to 8) (size 9 to 14) (size 15 to 20)
#    0.857    0.286    1.429    6.429    2.000    0.000 
#    0.000    0.000    0.000    5.143    0.000    0.000 
#    0.000    0.000    0.000    0.000    0.000    0.000 
#
# Total GULP energy -78356.663126 kJ/mol
# GULP energy per Si atom -5596.904509 kJ/mol
# Density = 2.462819 g / cm^3
# Si number density = 24.684368 Si / 1000 Ang^3
#
#
#
# Elastic Constant Matrix: (Units=GPa)
#
#
# Indices 1 2 3 4 5 6 
#
# 1 51.2294 4.1371 12.3268 -3.7924 -13.3989 -1.0664
# 2 4.1371 101.9329 4.3447 -4.9434 -14.4854 8.5489
# 3 12.3268 4.3447 47.9878 -8.3356 -4.2928 1.5233
# 4 -3.7924 -4.9434 -8.3356 23.7593 2.8298 -4.7744
# 5 -13.3989 -14.4854 -4.2928 2.8298 29.2250 -4.0199
# 6 -1.0664 8.5489 1.5233 -4.7744 -4.0199 29.8425
#
#
#
# Elastic Compliance Matrix: (Units=1/GPa)
#
#
# Indices 1 2 3 4 5 6 
#
# 1 0.023608 0.000615 -0.005011 0.001392 0.010612 0.002575
# 2 0.000615 0.010772 -0.000404 0.001149 0.005153 -0.002165
# 3 -0.005011 -0.000404 0.023454 0.007305 0.000232 -0.000061
# 4 0.001392 0.001149 0.007305 0.046601 -0.001320 0.006626
# 5 0.010612 0.005153 0.000232 -0.001320 0.042403 0.004392
# 6 0.002575 -0.002165 -0.000061 0.006626 0.004392 0.035876
#
#
# Mechanical properties :
#
#
# Convention : Reuss Voigt Hill
#
# Bulk Modulus (GPa) = 20.73193 26.97414 23.85304
# Shear Modulus (GPa) = 23.99319 28.58812 26.29065
#
# Velocity S-wave (km/s) = 3.12107 3.40685 3.26709
# Velocity P-wave (km/s) = 4.62657 5.14070 4.89040
#
# Compressibility (1/GPa) = 0.04823478
#
# Stress axis : x y z
#
# Youngs Moduli (GPa) = 42.35811 92.83156 42.63691
#
# Poissons Ratio (x) = -0.05709 0.21364
# Poissons Ratio (y) = -0.02605 0.01723
# Poissons Ratio (z) = 0.21224 0.03751
#
# Static dielectric constant tensor:
#      x y z
#    x 1.955030 -0.020460 0.015630 
#    y -0.020460 1.985430 0.044880 
#    z 0.015630 0.044880 1.944080 
# 
# From -- ./inp_files/218153.got.cif
#   From: 2010.05.17/outbox.cif.g08.bks.cpg/sg2_110_cif.got.tgz:218153.got - 2010.06.03 11:33:40.
