data_PCOD9077549
_publ_section_title
;
Structure prediction by ZEFSAII (Michael W. Deem and Ramdas Pophale) SiO2 
 PCOD9077549
Probable space group: P -1
;
_chemical_formula_sum "Si O2"
_cell_formula_units_Z 13
_cell_length_a 19.572880
_cell_length_b 7.249149
_cell_length_c 10.776465
_cell_angle_alpha 135.583977
_cell_angle_beta 149.062848
_cell_angle_gamma 43.634637
_cell_volume 523.261575
_symmetry_space_group_name_H-M "P -1"
_symmetry_group_IT_number 2
_symmetry_cell_setting 'triclinic'
loop_
_space_group_symop_operation_xyz
x,y,z
-x,-y,-z
loop_
_atom_site_type_symbol
_atom_site_label
_atom_site_fract_x
_atom_site_fract_y
_atom_site_fract_z
Si Si1 0.233937 0.709823 0.842088
Si Si2 0.515004 0.310519 0.151356
Si Si3 0.116472 0.298340 0.342990
Si Si4 0.500000 0.500000 0.500000
Si Si5 0.912661 0.822208 0.026122
Si Si6 0.809890 0.015657 0.441010
Si Si7 0.805010 0.494663 0.037972
O O1 0.145219 0.592584 0.549860
O O2 0.194882 0.632974 0.884366
O O3 0.195187 0.039062 0.965040
O O4 0.393442 0.519653 0.981576
O O5 0.497317 0.443436 0.322111
O O6 0.670884 0.269391 0.328225
O O7 0.500000 0.000000 0.000000
O O8 0.196666 0.115587 0.495430
O O9 0.951356 0.347242 0.127143
O O10 0.161596 0.146713 0.209803
O O11 0.668599 0.489763 0.750765
O O12 0.042098 0.938311 0.304729
O O13 0.000000 0.500000 0.000000
O O14 0.804194 0.799933 0.222878
#
# Coordination Sequence:
#
# PCOD9077549 Si02
#       7
#     2   2   2   1   2   2   2
#     4  10  21  37  58  93 124 144 201 249 296 353
#     4  11  20  33  59  96 125 146 184 259 306 349
#     4  11  20  37  67  86 116 153 201 256 302 334
#     4  10  20  28  50  90 132 142 182 228 322 346
#     4  12  26  40  59  86 121 165 205 240 290 360
#     4  11  20  39  61  93 121 149 199 249 301 349
#     4  10  18  34  60  92 119 148 190 255 297 348
#
# _framework density 24.844172
#
# number of rings (size 3 to 8) (size 9 to 14) (size 15 to 20)
#    0.000    1.231    7.692    2.308    4.308    0.615 
#    0.000    0.769    0.000    0.923    0.000    0.000 
#    0.000    0.000    0.000    0.000    0.000    0.000 
#
# Total GULP energy -72405.321249 kJ/mol
# GULP energy per Si atom -5569.640096 kJ/mol
# Density = 2.478763 g / cm^3
# Si number density = 24.844172 Si / 1000 Ang^3
#
#
#
# Elastic Constant Matrix: (Units=GPa)
#
#
# Indices 1 2 3 4 5 6 
#
# 1 62.7480 19.2135 29.3713 -4.0443 -24.2368 -6.2417
# 2 19.2135 120.0928 52.3686 -16.6932 5.1427 -30.4084
# 3 29.3713 52.3686 177.9591 -21.7008 -11.6551 -15.1561
# 4 -4.0443 -16.6932 -21.7008 34.8262 -16.6510 3.8853
# 5 -24.2368 5.1427 -11.6551 -16.6510 32.3867 -12.0237
# 6 -6.2417 -30.4084 -15.1561 3.8853 -12.0237 27.4559
#
#
#
# Elastic Compliance Matrix: (Units=1/GPa)
#
#
# Indices 1 2 3 4 5 6 
#
# 1 0.049668 0.004416 0.004754 0.042668 0.077448 0.046685
# 2 0.004416 0.014275 -0.000795 0.011416 0.014450 0.021087
# 3 0.004754 -0.000795 0.008658 0.012632 0.017291 0.010764
# 4 0.042668 0.011416 0.012632 0.089740 0.103857 0.062099
# 5 0.077448 0.014450 0.017291 0.103857 0.187153 0.110418
# 6 0.046685 0.021087 0.010764 0.062099 0.110418 0.115899
#
#
# Mechanical properties :
#
#
# Convention : Reuss Voigt Hill
#
# Bulk Modulus (GPa) = 11.19181 62.52296 36.85738
# Shear Modulus (GPa) = 10.45094 36.25685 23.35390
#
# Velocity S-wave (km/s) = 2.05322 3.82432 3.06929
# Velocity P-wave (km/s) = 3.18364 6.68739 5.23721
#
# Compressibility (1/GPa) = 0.08935108
#
# Stress axis : x y z
#
# Youngs Moduli (GPa) = 20.13370 70.05473 115.49790
#
# Poissons Ratio (x) = -0.30936 -0.54913
# Poissons Ratio (y) = -0.08891 0.09184
# Poissons Ratio (z) = -0.09572 0.05570
#
# Static dielectric constant tensor:
#      x y z
#    x 2.024400 0.106260 0.037140 
#    y 0.106260 2.320680 0.049590 
#    z 0.037140 0.049590 1.899990 
# 
# From -- ./inp_files/469073.got.cif
#   From: 2010.05.17/outbox.cif.g08.bks.cpg/sg2_235_cif.got.tgz:469073.got - 2010.06.03 11:33:40.
