data_PCOD9077533
_publ_section_title
;
Structure prediction by ZEFSAII (Michael W. Deem and Ramdas Pophale) SiO2 
 PCOD9077533
Probable space group: P -1
;
_chemical_formula_sum "Si O2"
_cell_formula_units_Z 16
_cell_length_a 10.467067
_cell_length_b 16.276651
_cell_length_c 16.222195
_cell_angle_alpha 36.101167
_cell_angle_beta 32.387583
_cell_angle_gamma 31.940127
_cell_volume 741.334686
_symmetry_space_group_name_H-M "P -1"
_symmetry_group_IT_number 2
_symmetry_cell_setting 'triclinic'
loop_
_space_group_symop_operation_xyz
x,y,z
-x,-y,-z
loop_
_atom_site_type_symbol
_atom_site_label
_atom_site_fract_x
_atom_site_fract_y
_atom_site_fract_z
Si Si1 0.279711 0.209823 0.620089
Si Si2 0.128524 0.241274 0.012722
Si Si3 0.739692 0.248327 0.921901
Si Si4 0.659621 0.825190 0.727028
Si Si5 0.260152 0.941176 0.086693
Si Si6 0.172974 0.149446 0.551463
Si Si7 0.571683 0.410512 0.282158
Si Si8 0.920746 0.453238 0.168726
O O1 0.136431 0.241733 0.581715
O O2 0.390935 0.330853 0.464323
O O3 0.037003 0.225679 0.798092
O O4 0.528602 0.019661 0.645784
O O5 0.864748 0.277861 0.184458
O O6 0.158391 0.128028 0.011963
O O7 0.419720 0.156811 0.974811
O O8 0.085907 0.416280 0.871094
O O9 0.758948 0.122026 0.942396
O O10 0.560144 0.430998 0.833767
O O11 0.588295 0.212973 0.106573
O O12 0.839194 0.761768 0.597635
O O13 0.851927 0.726173 0.779372
O O14 0.050843 0.905912 0.281524
O O15 0.500000 0.000000 0.500000
O O16 0.637127 0.464002 0.290428
O O17 0.000000 0.500000 0.000000
#
# Coordination Sequence:
#
# PCOD9077533 Si02
#       8
#     2   2   2   2   2   2   2   2
#     4  10  23  37  63  93 129 164 210 256 310 371
#     4  10  18  34  60  89 119 164 209 245 305 378
#     4  11  20  39  66  91 128 162 210 261 308 370
#     4  11  20  39  66  94 121 169 210 255 314 372
#     4  10  20  35  63  91 120 164 208 254 310 365
#     4   9  20  39  60  87 128 163 200 254 310 366
#     4  11  20  39  64  94 127 170 202 252 327 371
#     4  10  19  36  63  89 126 159 201 260 309 366
#
# _framework density 21.582694
#
# number of rings (size 3 to 8) (size 9 to 14) (size 15 to 20)
#    0.000    1.750    3.750    3.000    0.000    0.500 
#    0.000    3.750   13.750    0.000    0.000    0.000 
#    0.000    0.000    0.000    0.000    0.000    0.000 
#
# Total GULP energy -89245.143911 kJ/mol
# GULP energy per Si atom -5577.821494 kJ/mol
# Density = 2.153357 g / cm^3
# Si number density = 21.582694 Si / 1000 Ang^3
#
#
#
# Elastic Constant Matrix: (Units=GPa)
#
#
# Indices 1 2 3 4 5 6 
#
# 1 62.1020 22.7029 51.4849 -12.1294 -15.0890 0.4286
# 2 22.7029 79.6108 37.9835 -13.9132 -7.3586 2.0408
# 3 51.4849 37.9835 129.6902 -13.5698 -20.3923 14.9664
# 4 -12.1294 -13.9132 -13.5698 37.5173 2.6617 -2.9680
# 5 -15.0890 -7.3586 -20.3923 2.6617 43.7991 -10.9739
# 6 0.4286 2.0408 14.9664 -2.9680 -10.9739 20.9888
#
#
#
# Elastic Compliance Matrix: (Units=1/GPa)
#
#
# Indices 1 2 3 4 5 6 
#
# 1 0.027827 -0.001840 -0.010172 0.005025 0.007058 0.011265
# 2 -0.001840 0.015460 -0.003511 0.003978 0.000561 0.001894
# 3 -0.010172 -0.003511 0.013824 -0.000331 0.000021 -0.009344
# 4 0.005025 0.003978 -0.000331 0.029900 0.001639 0.004832
# 5 0.007058 0.000561 0.000021 0.001639 0.029082 0.015223
# 6 0.011265 0.001894 -0.009344 0.004832 0.015223 0.062536
#
#
# Mechanical properties :
#
#
# Convention : Reuss Voigt Hill
#
# Bulk Modulus (GPa) = 38.36801 55.08285 46.72543
# Shear Modulus (GPa) = 22.89733 31.07648 26.98690
#
# Velocity S-wave (km/s) = 3.26070 3.79869 3.53993
# Velocity P-wave (km/s) = 5.65615 6.69457 6.19715
#
# Compressibility (1/GPa) = 0.02606338
#
# Stress axis : x y z
#
# Youngs Moduli (GPa) = 35.93578 64.68381 72.33623
#
# Poissons Ratio (x) = 0.11904 0.73583
# Poissons Ratio (y) = 0.06613 0.25400
# Poissons Ratio (z) = 0.36555 0.22713
#
# Static dielectric constant tensor:
#      x y z
#    x 1.831020 0.000430 -0.000780 
#    y 0.000430 1.887900 0.044450 
#    z -0.000780 0.044450 1.807560 
# 
# From -- ./inp_files/570229.got.cif
#   From: 2010.05.17/outbox.cif.g08.bks.cpg/sg2_286_cif.got.tgz:570229.got - 2010.06.03 11:33:40.
