data_PCOD9077128
_publ_section_title
;
Structure prediction by ZEFSAII (Michael W. Deem and Ramdas Pophale) SiO2 
 PCOD9077128
Probable space group: P -1
;
_chemical_formula_sum "Si O2"
_cell_formula_units_Z 13
_cell_length_a 8.815921
_cell_length_b 14.685974
_cell_length_c 11.267841
_cell_angle_alpha 149.824977
_cell_angle_beta 107.842631
_cell_angle_gamma 54.303368
_cell_volume 520.747949
_symmetry_space_group_name_H-M "P -1"
_symmetry_group_IT_number 2
_symmetry_cell_setting 'triclinic'
loop_
_space_group_symop_operation_xyz
x,y,z
-x,-y,-z
loop_
_atom_site_type_symbol
_atom_site_label
_atom_site_fract_x
_atom_site_fract_y
_atom_site_fract_z
Si Si1 0.000000 0.500000 0.500000
Si Si2 0.164637 0.502143 0.167204
Si Si3 0.220412 0.979986 0.099106
Si Si4 0.227973 0.790782 0.659938
Si Si5 0.116447 0.185224 0.932851
Si Si6 0.296998 0.529797 0.969124
Si Si7 0.341436 0.115500 0.482223
O O1 0.114256 0.239274 0.305914
O O2 0.050568 0.357501 0.224510
O O3 0.257200 0.573672 0.365490
O O4 0.198461 0.268461 0.950666
O O5 0.906277 0.721065 0.355350
O O6 0.235873 0.506018 0.058495
O O7 0.371151 0.938031 0.192064
O O8 0.026608 0.013105 0.147879
O O9 0.325806 0.778698 0.794876
O O10 0.272446 0.912982 0.712500
O O11 0.915453 0.235661 0.880179
O O12 0.354268 0.310277 0.657111
O O13 0.500000 0.500000 0.000000
O O14 0.500000 0.000000 0.500000
#
# Coordination Sequence:
#
# PCOD9077128 Si02
#       7
#     1   2   2   2   2   2   2
#     4  10  14  32  60  88 122 158 202 240 302 372
#     4  10  21  42  59  90 128 162 209 252 305 367
#     4   9  17  31  56  94 123 159 203 248 301 369
#     4   9  18  32  60  94 114 155 211 250 298 369
#     4  10  19  34  62  89 119 165 199 251 311 358
#     4  11  24  40  59  89 124 166 212 255 306 363
#     4  10  20  38  62  91 125 163 197 251 311 368
#
# _framework density 24.964089999999999
#
# number of rings (size 3 to 8) (size 9 to 14) (size 15 to 20)
#    0.000    2.154    4.615    1.846    4.308    0.615 
#    2.769    0.000    0.000    6.462    0.000    0.000 
#    0.000    0.000    0.000    0.000    0.000    0.000 
#
# Total GULP energy -72429.185853 kJ/mol
# GULP energy per Si atom -5571.475835 kJ/mol
# Density = 2.490727 g / cm^3
# Si number density = 24.964090 Si / 1000 Ang^3
#
#
#
# Elastic Constant Matrix: (Units=GPa)
#
#
# Indices 1 2 3 4 5 6 
#
# 1 122.4162 59.8429 46.8923 -17.7490 8.0572 3.0803
# 2 59.8429 122.7884 17.4141 -37.1832 4.3911 3.8134
# 3 46.8923 17.4141 114.5285 -27.4325 19.6805 -11.9869
# 4 -17.7490 -37.1832 -27.4325 46.1854 -8.2507 9.8938
# 5 8.0572 4.3911 19.6805 -8.2507 30.1097 -7.2976
# 6 3.0803 3.8134 -11.9869 9.8938 -7.2976 37.5358
#
#
#
# Elastic Compliance Matrix: (Units=1/GPa)
#
#
# Indices 1 2 3 4 5 6 
#
# 1 0.012874 -0.006416 -0.005102 -0.003027 -0.000319 -0.001298
# 2 -0.006416 0.014451 0.002846 0.011541 0.000175 -0.003041
# 3 -0.005102 0.002846 0.013104 0.006838 -0.005386 0.001465
# 4 -0.003027 0.011541 0.006838 0.035965 0.002645 -0.007706
# 5 -0.000319 0.000175 -0.005386 0.002645 0.038760 0.005127
# 6 -0.001298 -0.003041 0.001465 -0.007706 0.005127 0.030552
#
#
# Mechanical properties :
#
#
# Convention : Reuss Voigt Hill
#
# Bulk Modulus (GPa) = 43.31718 67.55908 55.43813
# Shear Modulus (GPa) = 29.28339 38.47176 33.87758
#
# Velocity S-wave (km/s) = 3.42865 3.92992 3.68782
# Velocity P-wave (km/s) = 5.75010 6.90751 6.35521
#
# Compressibility (1/GPa) = 0.02308553
#
# Stress axis : x y z
#
# Youngs Moduli (GPa) = 77.67426 69.20165 76.31028
#
# Poissons Ratio (x) = 0.44399 0.38932
# Poissons Ratio (y) = 0.49835 -0.21716
# Poissons Ratio (z) = 0.39628 -0.19693
#
# Static dielectric constant tensor:
#      x y z
#    x 1.979070 -0.025690 -0.042220 
#    y -0.025690 2.041500 0.029710 
#    z -0.042220 0.029710 2.060640 
# 
# From -- ./inp_files/162832.got.cif
#   From: 2010.05.17/outbox.cif.g08.bks.cpg/sg2_82_cif.got.tgz:162832.got - 2010.06.03 11:33:40.
