data_PCOD9077684
_publ_section_title
;
Structure prediction by ZEFSAII (Michael W. Deem and Ramdas Pophale) SiO2 
 PCOD9077684
Probable space group: P -1
;
_chemical_formula_sum "Si O2"
_cell_formula_units_Z 13
_cell_length_a 5.243511
_cell_length_b 14.856809
_cell_length_c 12.564650
_cell_angle_alpha 139.250889
_cell_angle_beta 57.150866
_cell_angle_gamma 131.253838
_cell_volume 478.496349
_symmetry_space_group_name_H-M "P -1"
_symmetry_group_IT_number 2
_symmetry_cell_setting 'triclinic'
loop_
_space_group_symop_operation_xyz
x,y,z
-x,-y,-z
loop_
_atom_site_type_symbol
_atom_site_label
_atom_site_fract_x
_atom_site_fract_y
_atom_site_fract_z
Si Si1 0.145659 0.458767 0.779748
Si Si2 0.730454 0.145732 0.506460
Si Si3 0.474897 0.166088 0.348875
Si Si4 0.000000 0.000000 0.000000
Si Si5 0.580243 0.314997 0.251361
Si Si6 0.082673 0.871299 0.081388
Si Si7 0.806116 0.643616 0.111915
O O1 0.349127 0.531202 0.690803
O O2 0.273524 0.375481 0.762665
O O3 0.802807 0.309664 0.689118
O O4 0.114740 0.596676 0.975164
O O5 0.603891 0.153425 0.423464
O O6 0.086591 0.136900 0.413799
O O7 0.500000 0.000000 0.500000
O O8 0.630858 0.309672 0.361729
O O9 0.458820 0.017663 0.150665
O O10 0.772203 0.824833 0.835260
O O11 0.914286 0.919805 0.068380
O O12 0.867243 0.269786 0.102639
O O13 0.907784 0.804880 0.174562
O O14 0.500000 0.500000 0.000000
#
# Coordination Sequence:
#
# PCOD9077684 Si02
#       7
#     2   2   2   1   2   2   2
#     4  10  24  43  64  96 135 173 228 284 337 405
#     4  12  28  47  69  97 139 186 232 278 334 415
#     4  11  26  43  71  98 135 185 228 278 343 406
#     4  10  18  34  62  92 132 164 208 278 340 388
#     4  10  23  41  66 101 132 174 227 287 342 397
#     4  10  22  37  65  99 134 168 231 283 336 405
#     4  10  21  39  67  95 126 174 221 283 349 393
#
# _framework density 27.168441999999999
#
# number of rings (size 3 to 8) (size 9 to 14) (size 15 to 20)
#    0.000    1.538    0.000    4.154   12.923    1.231 
#    0.000    0.000    0.000    0.000    0.000    0.000 
#    0.000    0.000    0.000    0.000    0.000    0.000 
#
# Total GULP energy -72475.256869 kJ/mol
# GULP energy per Si atom -5575.019759 kJ/mol
# Density = 2.710661 g / cm^3
# Si number density = 27.168442 Si / 1000 Ang^3
#
#
#
# Elastic Constant Matrix: (Units=GPa)
#
#
# Indices 1 2 3 4 5 6 
#
# 1 124.1111 62.2855 37.1335 -21.6822 38.2477 -57.5896
# 2 62.2855 267.1203 31.3372 -26.4050 30.8607 -69.7466
# 3 37.1335 31.3372 87.4133 6.5023 13.0905 -36.3894
# 4 -21.6822 -26.4050 6.5023 39.3694 -15.6451 17.1929
# 5 38.2477 30.8607 13.0905 -15.6451 65.1836 -17.6057
# 6 -57.5896 -69.7466 -36.3894 17.1929 -17.6057 59.9096
#
#
#
# Elastic Compliance Matrix: (Units=1/GPa)
#
#
# Indices 1 2 3 4 5 6 
#
# 1 0.016485 0.000752 -0.000481 0.001066 -0.005780 0.014426
# 2 0.000752 0.005528 0.000863 0.000346 -0.001195 0.007232
# 3 -0.000481 0.000863 0.018029 -0.009515 -0.002378 0.013525
# 4 0.001066 0.000346 -0.009515 0.035876 0.006274 -0.012804
# 5 -0.005780 -0.001195 -0.002378 0.006274 0.020127 -0.004278
# 6 0.014426 0.007232 0.013525 -0.012804 -0.004278 0.049610
#
#
# Mechanical properties :
#
#
# Convention : Reuss Voigt Hill
#
# Bulk Modulus (GPa) = 23.63528 82.23969 52.93748
# Shear Modulus (GPa) = 31.74804 56.08510 43.91657
#
# Velocity S-wave (km/s) = 3.42213 4.54844 4.02488
# Velocity P-wave (km/s) = 4.93286 7.61055 6.41301
#
# Compressibility (1/GPa) = 0.04230964
#
# Stress axis : x y z
#
# Youngs Moduli (GPa) = 60.66116 180.91155 55.46591
#
# Poissons Ratio (x) = -0.13612 0.02668
# Poissons Ratio (y) = -0.04564 -0.04784
# Poissons Ratio (z) = 0.02918 -0.15605
#
# Static dielectric constant tensor:
#      x y z
#    x 1.892910 0.026580 0.016010 
#    y 0.026580 2.100890 -0.031300 
#    z 0.016010 -0.031300 2.245530 
# 
# From -- ./inp_files/61588.got.cif
#   From: 2010.05.17/outbox.cif.g08.bks.cpg/sg2_31_cif.got.tgz:61588.got - 2010.06.03 11:33:40.
