data_PCOD9077629
_publ_section_title
;
Structure prediction by ZEFSAII (Michael W. Deem and Ramdas Pophale) SiO2 
 PCOD9077629
Probable space group: P -1
;
_chemical_formula_sum "Si O2"
_cell_formula_units_Z 14
_cell_length_a 15.002948
_cell_length_b 12.216941
_cell_length_c 8.306677
_cell_angle_alpha 78.990296
_cell_angle_beta 130.655554
_cell_angle_gamma 62.498170
_cell_volume 699.229135
_symmetry_space_group_name_H-M "P -1"
_symmetry_group_IT_number 2
_symmetry_cell_setting 'triclinic'
loop_
_space_group_symop_operation_xyz
x,y,z
-x,-y,-z
loop_
_atom_site_type_symbol
_atom_site_label
_atom_site_fract_x
_atom_site_fract_y
_atom_site_fract_z
Si Si1 0.452091 0.517616 0.746743
Si Si2 0.584560 0.223972 0.306733
Si Si3 0.139823 0.352679 0.344049
Si Si4 0.207714 0.895698 0.740171
Si Si5 0.519564 0.019800 0.334028
Si Si6 0.199175 0.530953 0.563016
Si Si7 0.153290 0.187610 0.696483
O O1 0.420255 0.667396 0.608010
O O2 0.263504 0.583341 0.507003
O O3 0.500000 0.500000 0.000000
O O4 0.628659 0.312754 0.947564
O O5 0.745976 0.125978 0.389603
O O6 0.595344 0.089627 0.412506
O O7 0.379056 0.379490 0.933836
O O8 0.176139 0.434856 0.467924
O O9 0.078188 0.301847 0.411536
O O10 0.327334 0.166367 0.530968
O O11 0.000000 0.500000 0.000000
O O12 0.225189 0.008102 0.798038
O O13 0.000000 0.000000 0.500000
O O14 0.500000 0.000000 0.500000
O O15 0.320330 0.142489 0.974776
O O16 0.014647 0.694188 0.404707
#
# Coordination Sequence:
#
# PCOD9077629 Si02
#       7
#     2   2   2   2   2   2   2
#     4   8  17  33  58  91 118 155 201 252 298 368
#     4  10  19  37  60  91 125 160 203 254 305 366
#     4  12  25  40  59  91 126 162 207 256 305 367
#     4  10  18  34  61  93 119 158 212 248 305 365
#     4  12  25  41  63  92 127 163 207 257 304 367
#     4  10  20  37  63  90 120 161 201 250 309 366
#     4  12  22  39  67  90 124 164 206 253 312 363
#
# _framework density 20.022048999999999
#
# number of rings (size 3 to 8) (size 9 to 14) (size 15 to 20)
#    0.000    1.714    2.857    6.000    2.000    0.000 
#    0.000    0.000    3.143    4.286    0.000    0.000 
#    0.000    0.000    0.000    0.000    0.000    0.000 
#
# Total GULP energy -78059.787370 kJ/mol
# GULP energy per Si atom -5575.699098 kJ/mol
# Density = 1.997648 g / cm^3
# Si number density = 20.022049 Si / 1000 Ang^3
#
#
#
# Elastic Constant Matrix: (Units=GPa)
#
#
# Indices 1 2 3 4 5 6 
#
# 1 104.5165 60.5827 46.0757 -16.5934 21.5087 1.4083
# 2 60.5827 153.2208 23.9662 -27.7700 5.7745 16.0155
# 3 46.0757 23.9662 60.7625 -17.3994 13.1161 -6.2741
# 4 -16.5934 -27.7700 -17.3994 20.0344 -6.8499 7.4725
# 5 21.5087 5.7745 13.1161 -6.8499 27.8831 -1.9397
# 6 1.4083 16.0155 -6.2741 7.4725 -1.9397 17.0010
#
#
#
# Elastic Compliance Matrix: (Units=1/GPa)
#
#
# Indices 1 2 3 4 5 6 
#
# 1 0.020014 -0.008004 -0.012325 -0.010503 -0.010231 0.004782
# 2 -0.008004 0.018620 0.004642 0.037075 0.007110 -0.030649
# 3 -0.012325 0.004642 0.030510 0.023585 -0.000184 -0.002479
# 4 -0.010503 0.037075 0.023585 0.154043 0.020865 -0.090678
# 5 -0.010231 0.007110 -0.000184 0.020865 0.046818 -0.009748
# 6 0.004782 -0.030649 -0.002479 -0.090678 -0.009748 0.125126
#
#
# Mechanical properties :
#
#
# Convention : Reuss Voigt Hill
#
# Bulk Modulus (GPa) = 26.47574 64.41657 45.44616
# Shear Modulus (GPa) = 11.38706 25.50871 18.44788
#
# Velocity S-wave (km/s) = 2.38738 3.57323 3.03871
# Velocity P-wave (km/s) = 4.56634 7.01902 5.92107
#
# Compressibility (1/GPa) = 0.03777043
#
# Stress axis : x y z
#
# Youngs Moduli (GPa) = 49.96492 53.70512 32.77614
#
# Poissons Ratio (x) = 0.42983 0.40397
# Poissons Ratio (y) = 0.39989 -0.15213
# Poissons Ratio (z) = 0.61582 -0.24928
#
# Static dielectric constant tensor:
#      x y z
#    x 1.767720 0.051380 -0.026270 
#    y 0.051380 1.734920 -0.009650 
#    z -0.026270 -0.009650 1.710560 
# 
# From -- ./inp_files/305185.got.cif
#   From: 2010.05.17/outbox.cif.g08.bks.cpg/sg2_153_cif.got.tgz:305185.got - 2010.06.03 11:33:40.
