data_PCOD9077641
_publ_section_title
;
Structure prediction by ZEFSAII (Michael W. Deem and Ramdas Pophale) SiO2 
 PCOD9077641
Probable space group: P -1
;
_chemical_formula_sum "Si O2"
_cell_formula_units_Z 14
_cell_length_a 4.989478
_cell_length_b 9.029779
_cell_length_c 16.134584
_cell_angle_alpha 87.843175
_cell_angle_beta 96.775717
_cell_angle_gamma 121.981247
_cell_volume 612.020827
_symmetry_space_group_name_H-M "P -1"
_symmetry_group_IT_number 2
_symmetry_cell_setting 'triclinic'
loop_
_space_group_symop_operation_xyz
x,y,z
-x,-y,-z
loop_
_atom_site_type_symbol
_atom_site_label
_atom_site_fract_x
_atom_site_fract_y
_atom_site_fract_z
Si Si1 0.748823 0.484118 0.331845
Si Si2 0.687859 0.149688 0.879501
Si Si3 0.837675 0.498333 0.079903
Si Si4 0.350137 0.144561 0.038092
Si Si5 0.329778 0.157120 0.423248
Si Si6 0.697993 0.420234 0.767134
Si Si7 0.935027 0.219681 0.535038
O O1 0.510589 0.283053 0.350644
O O2 0.574934 0.541162 0.259050
O O3 0.090203 0.535257 0.308246
O O4 0.825293 0.601977 0.413977
O O5 0.573185 0.224356 0.800528
O O6 0.063009 0.304500 0.898258
O O7 0.603016 0.953564 0.880241
O O8 0.548674 0.159776 0.962992
O O9 0.474806 0.341641 0.065474
O O10 0.037752 0.464514 0.156229
O O11 0.000000 0.500000 0.000000
O O12 0.000000 0.000000 0.000000
O O13 0.606671 0.203614 0.499642
O O14 0.086248 0.199129 0.456752
O O15 0.151302 0.949013 0.408581
#
# Coordination Sequence:
#
# PCOD9077641 Si02
#       7
#     2   2   2   2   2   2   2
#     4  12  22  41  59  92 125 161 192 244 305 368
#     4   8  20  37  50  85 109 151 199 253 300 359
#     4   8  18  40  56  79 114 158 205 256 299 351
#     4  10  18  34  62  81 104 146 217 260 299 351
#     4  10  21  39  65  95 117 154 207 235 292 356
#     4  10  24  40  58  85 129 161 199 244 317 366
#     4  10  21  39  66  91 120 157 197 251 282 350
#
# _framework density 22.875039000000001
#
# number of rings (size 3 to 8) (size 9 to 14) (size 15 to 20)
#    0.857    1.429    0.000    2.571    2.000    0.571 
#   12.857    0.000    0.000    0.000    0.000    0.000 
#    0.000    0.000    0.000    0.000    0.000    0.000 
#
# Total GULP energy -78048.645264 kJ/mol
# GULP energy per Si atom -5574.903233 kJ/mol
# Density = 2.282297 g / cm^3
# Si number density = 22.875039 Si / 1000 Ang^3
#
#
#
# Elastic Constant Matrix: (Units=GPa)
#
#
# Indices 1 2 3 4 5 6 
#
# 1 60.4325 15.8790 -5.2243 -5.2308 -2.7406 9.4173
# 2 15.8790 80.0947 8.5673 -30.8951 -13.3426 17.0685
# 3 -5.2243 8.5673 43.0857 -27.6621 -6.8752 -4.2681
# 4 -5.2308 -30.8951 -27.6621 41.4890 13.0095 -2.5087
# 5 -2.7406 -13.3426 -6.8752 13.0095 28.5235 1.7772
# 6 9.4173 17.0685 -4.2681 -2.5087 1.7772 22.7210
#
#
#
# Elastic Compliance Matrix: (Units=1/GPa)
#
#
# Indices 1 2 3 4 5 6 
#
# 1 0.018511 -0.001449 0.004471 0.003641 0.000855 -0.005409
# 2 -0.001449 0.023261 0.007235 0.019783 0.004314 -0.013668
# 3 0.004471 0.007235 0.047376 0.038800 -0.002845 0.006118
# 4 0.003641 0.019783 0.038800 0.069057 -0.012511 -0.000479
# 5 0.000855 0.004314 -0.002845 -0.012511 0.042731 -0.008853
# 6 -0.005409 -0.013668 0.006118 -0.000479 -0.008853 0.058311
#
#
# Mechanical properties :
#
#
# Convention : Reuss Voigt Hill
#
# Bulk Modulus (GPa) = 9.11893 24.67299 16.89596
# Shear Modulus (GPa) = 18.16288 29.50610 23.83449
#
# Velocity S-wave (km/s) = 2.82086 3.59539 3.23142
# Velocity P-wave (km/s) = 3.82162 5.29577 4.61790
#
# Compressibility (1/GPa) = 0.10966200
#
# Stress axis : x y z
#
# Youngs Moduli (GPa) = 54.02097 42.99051 21.10780
#
# Poissons Ratio (x) = 0.06228 -0.09436
# Poissons Ratio (y) = 0.07825 -0.15271
# Poissons Ratio (z) = -0.24150 -0.31103
#
# Static dielectric constant tensor:
#      x y z
#    x 1.870570 0.004340 0.031870 
#    y 0.004340 1.894820 -0.050170 
#    z 0.031870 -0.050170 1.875520 
# 
# From -- ./inp_files/546532.got.cif
#   From: 2010.05.17/outbox.cif.g08.bks.cpg/sg2_274_cif.got.tgz:546532.got - 2010.06.03 11:33:40.
