data_PCOD9077575
_publ_section_title
;
Structure prediction by ZEFSAII (Michael W. Deem and Ramdas Pophale) SiO2 
 PCOD9077575
Probable space group: P -1
;
_chemical_formula_sum "Si O2"
_cell_formula_units_Z 13
_cell_length_a 9.120327
_cell_length_b 11.957662
_cell_length_c 7.093472
_cell_angle_alpha 58.420639
_cell_angle_beta 106.919690
_cell_angle_gamma 65.709680
_cell_volume 455.343688
_symmetry_space_group_name_H-M "P -1"
_symmetry_group_IT_number 2
_symmetry_cell_setting 'triclinic'
loop_
_space_group_symop_operation_xyz
x,y,z
-x,-y,-z
loop_
_atom_site_type_symbol
_atom_site_label
_atom_site_fract_x
_atom_site_fract_y
_atom_site_fract_z
Si Si1 0.053036 0.692352 0.465534
Si Si2 0.192177 0.633084 0.135217
Si Si3 0.583812 0.807319 0.753768
Si Si4 0.661171 0.781529 0.226303
Si Si5 0.000000 0.500000 0.000000
Si Si6 0.244973 0.882537 0.046848
Si Si7 0.379525 0.688520 0.638969
O O1 0.903339 0.658173 0.508080
O O2 0.142791 0.624575 0.346087
O O3 0.253477 0.632236 0.706805
O O4 0.879780 0.910194 0.218331
O O5 0.164255 0.806560 0.966776
O O6 0.426834 0.476018 0.274033
O O7 0.029915 0.638403 0.958099
O O8 0.423955 0.778361 0.724277
O O9 0.500000 0.000000 0.500000
O O10 0.700135 0.748202 0.047918
O O11 0.743738 0.665398 0.780684
O O12 0.496583 0.763596 0.223093
O O13 0.500000 0.000000 0.000000
O O14 0.229724 0.850567 0.287578
#
# Coordination Sequence:
#
# PCOD9077575 Si02
#       7
#     2   2   2   2   1   2   2
#     4  10  18  34  61  82 114 158 200 243 295 366
#     4  10  19  36  58  85 120 154 210 245 293 364
#     4  11  22  39  66  87 126 157 212 252 296 365
#     4  10  21  38  60  89 123 161 197 248 314 363
#     4  10  22  36  62  94 118 162 204 254 298 354
#     4  10  20  35  62  86 119 158 200 249 309 355
#     4  10  21  35  59  91 110 156 210 249 294 353
#
# _framework density 28.549861
#
# number of rings (size 3 to 8) (size 9 to 14) (size 15 to 20)
#    0.000    1.846    1.538    5.538    2.154    0.000 
#    0.000    9.231   20.308    0.000    0.000    0.000 
#    0.000    0.000    0.000    0.000    0.000    0.000 
#
# Total GULP energy -72559.933670 kJ/mol
# GULP energy per Si atom -5581.533359 kJ/mol
# Density = 2.848488 g / cm^3
# Si number density = 28.549861 Si / 1000 Ang^3
#
#
#
# Elastic Constant Matrix: (Units=GPa)
#
#
# Indices 1 2 3 4 5 6 
#
# 1 230.0916 59.0284 16.7372 4.7850 30.3238 12.4434
# 2 59.0284 149.8472 50.4928 -8.2909 17.8484 30.2783
# 3 16.7372 50.4928 46.9996 -19.8763 3.8802 1.3022
# 4 4.7850 -8.2909 -19.8763 58.1573 1.9006 7.2495
# 5 30.3238 17.8484 3.8802 1.9006 53.2939 6.1308
# 6 12.4434 30.2783 1.3022 7.2495 6.1308 62.3712
#
#
#
# Elastic Compliance Matrix: (Units=1/GPa)
#
#
# Indices 1 2 3 4 5 6 
#
# 1 0.005118 -0.001836 0.000081 -0.000600 -0.002301 0.000164
# 2 -0.001836 0.013423 -0.014369 -0.002113 -0.001704 -0.005437
# 3 0.000081 -0.014369 0.041336 0.011462 0.000809 0.004685
# 4 -0.000600 -0.002113 0.011462 0.021060 -0.000363 -0.001506
# 5 -0.002301 -0.001704 0.000809 -0.000363 0.020681 -0.000721
# 6 0.000164 -0.005437 0.004685 -0.001506 -0.000721 0.018788
#
#
# Mechanical properties :
#
#
# Convention : Reuss Voigt Hill
#
# Bulk Modulus (GPa) = 36.19389 75.49502 55.84446
# Shear Modulus (GPa) = 30.89037 54.80981 42.85009
#
# Velocity S-wave (km/s) = 3.29291 4.38630 3.87833
# Velocity P-wave (km/s) = 5.21178 7.22173 6.29746
#
# Compressibility (1/GPa) = 0.02762897
#
# Stress axis : x y z
#
# Youngs Moduli (GPa) = 195.39034 74.49765 24.19214
#
# Poissons Ratio (x) = 0.13677 -0.00196
# Poissons Ratio (y) = 0.35871 0.34763
# Poissons Ratio (z) = -0.01587 1.07048
#
# Static dielectric constant tensor:
#      x y z
#    x 2.297190 0.165820 0.023080 
#    y 0.165820 1.826170 -0.109200 
#    z 0.023080 -0.109200 2.256950 
# 
# From -- ./inp_files/177489.got.cif
#   From: 2010.05.17/outbox.cif.g08.bks.cpg/sg2_89_cif.got.tgz:177489.got - 2010.06.03 11:33:40.
