data_PCOD9077775
_publ_section_title
;
Structure prediction by ZEFSAII (Michael W. Deem and Ramdas Pophale) SiO2 
 PCOD9077775
Probable space group: P -1
;
_chemical_formula_sum "Si O2"
_cell_formula_units_Z 12
_cell_length_a 14.498494
_cell_length_b 6.988984
_cell_length_c 14.555500
_cell_angle_alpha 51.600738
_cell_angle_beta 152.982834
_cell_angle_gamma 116.252008
_cell_volume 498.878269
_symmetry_space_group_name_H-M "P -1"
_symmetry_group_IT_number 2
_symmetry_cell_setting 'triclinic'
loop_
_space_group_symop_operation_xyz
x,y,z
-x,-y,-z
loop_
_atom_site_type_symbol
_atom_site_label
_atom_site_fract_x
_atom_site_fract_y
_atom_site_fract_z
Si Si1 0.000065 0.406567 0.188208
Si Si2 0.566739 0.829662 0.414362
Si Si3 0.770666 0.965936 0.786772
Si Si4 0.364451 0.533757 0.572846
Si Si5 0.531488 0.203120 0.104866
Si Si6 0.284911 0.879399 0.891803
O O1 0.181634 0.303448 0.302830
O O2 0.134909 0.487136 0.366839
O O3 0.818557 0.661629 0.918597
O O4 0.901661 0.195235 0.201349
O O5 0.515006 0.614821 0.367214
O O6 0.389205 0.919604 0.305966
O O7 0.566538 0.058633 0.276010
O O8 0.675565 0.163102 0.560048
O O9 0.000000 0.000000 0.000000
O O10 0.504173 0.371288 0.826548
O O11 0.337178 0.119227 0.912765
O O12 0.500000 0.500000 0.000000
O O13 0.720648 0.095337 0.230194
#
# Coordination Sequence:
#
# PCOD9077775 Si02
#       6
#     2   2   2   2   2   2
#     4   9  20  35  62  88 124 165 197 256 314 361
#     4   9  19  36  58  90 124 157 210 254 302 370
#     4  10  18  34  65  88 123 169 200 251 316 364
#     4   8  19  35  60  90 122 164 202 253 303 373
#     4  10  21  39  66  88 125 164 208 265 304 377
#     4  10  20  40  64  89 127 167 202 258 324 354
#
# _framework density 24.053963
#
# number of rings (size 3 to 8) (size 9 to 14) (size 15 to 20)
#    1.000    1.667    0.000    1.500    0.000    1.333 
#    0.000    1.667   33.000    0.000    0.000    0.000 
#    0.000    0.000    0.000    0.000    0.000    0.000 
#
# Total GULP energy -66978.704882 kJ/mol
# GULP energy per Si atom -5581.558740 kJ/mol
# Density = 2.399921 g / cm^3
# Si number density = 24.053963 Si / 1000 Ang^3
#
#
#
# Elastic Constant Matrix: (Units=GPa)
#
#
# Indices 1 2 3 4 5 6 
#
# 1 93.0635 57.7243 37.5059 -1.0777 11.7370 25.1178
# 2 57.7243 147.4602 42.8196 -16.9197 18.1785 9.9878
# 3 37.5059 42.8196 108.2960 -15.8699 5.4895 11.1017
# 4 -1.0777 -16.9197 -15.8699 46.9307 8.0824 5.1198
# 5 11.7370 18.1785 5.4895 8.0824 39.4164 1.7151
# 6 25.1178 9.9878 11.1017 5.1198 1.7151 31.7304
#
#
#
# Elastic Compliance Matrix: (Units=1/GPa)
#
#
# Indices 1 2 3 4 5 6 
#
# 1 0.018894 -0.005554 -0.003191 -0.001031 -0.001895 -0.011823
# 2 -0.005554 0.010151 -0.001539 0.003480 -0.003587 0.001372
# 3 -0.003191 -0.001539 0.011674 0.003606 -0.000635 -0.001622
# 4 -0.001031 0.003480 0.003606 0.025506 -0.006800 -0.005289
# 5 -0.001895 -0.003587 -0.000635 -0.006800 0.028968 0.002382
# 6 -0.011823 0.001372 -0.001622 -0.005289 0.002382 0.041735
#
#
# Mechanical properties :
#
#
# Convention : Reuss Voigt Hill
#
# Bulk Modulus (GPa) = 49.62190 69.43547 59.52869
# Shear Modulus (GPa) = 30.44833 37.66683 34.05758
#
# Velocity S-wave (km/s) = 3.56172 3.96148 3.76690
# Velocity P-wave (km/s) = 6.13096 7.06071 6.61219
#
# Compressibility (1/GPa) = 0.02015239
#
# Stress axis : x y z
#
# Youngs Moduli (GPa) = 52.92652 98.51305 85.65756
#
# Poissons Ratio (x) = 0.54711 0.27331
# Poissons Ratio (y) = 0.29394 0.13184
# Poissons Ratio (z) = 0.16887 0.15163
#
# Static dielectric constant tensor:
#      x y z
#    x 1.939630 -0.008860 -0.037200 
#    y -0.008860 1.943860 -0.000070 
#    z -0.037200 -0.000070 1.973740 
# 
# From -- ./inp_files/571871.got.cif
#   From: 2010.05.17/outbox.cif.g08.bks.cpg/sg2_286_cif.got.tgz:571871.got - 2010.06.03 11:33:40.
