data_PCOD9077062
_publ_section_title
;
Structure prediction by ZEFSAII (Michael W. Deem and Ramdas Pophale) SiO2 
 PCOD9077062
Probable space group: P -1
;
_chemical_formula_sum "Si O2"
_cell_formula_units_Z 16
_cell_length_a 7.825630
_cell_length_b 8.694735
_cell_length_c 13.776414
_cell_angle_alpha 55.193613
_cell_angle_beta 70.395941
_cell_angle_gamma 69.071988
_cell_volume 708.219934
_symmetry_space_group_name_H-M "P -1"
_symmetry_group_IT_number 2
_symmetry_cell_setting 'triclinic'
loop_
_space_group_symop_operation_xyz
x,y,z
-x,-y,-z
loop_
_atom_site_type_symbol
_atom_site_label
_atom_site_fract_x
_atom_site_fract_y
_atom_site_fract_z
Si Si1 0.374159 0.990702 0.234231
Si Si2 0.042003 0.594921 0.112465
Si Si3 0.109555 0.727872 0.669270
Si Si4 0.733804 0.142546 0.097468
Si Si5 0.049739 0.869589 0.419630
Si Si6 0.956127 0.752696 0.280977
Si Si7 0.389311 0.417323 0.633986
Si Si8 0.723106 0.928708 0.982923
O O1 0.237026 0.955770 0.358190
O O2 0.496667 0.776711 0.269790
O O3 0.522396 0.127217 0.169094
O O4 0.244523 0.049073 0.144670
O O5 0.017044 0.378056 0.201950
O O6 0.060716 0.652000 0.201963
O O7 0.198540 0.657493 0.992867
O O8 0.844903 0.724672 0.066656
O O9 0.032704 0.761718 0.561172
O O10 0.304971 0.580452 0.669023
O O11 0.112166 0.940161 0.627356
O O12 0.869520 0.975774 0.191292
O O13 0.771081 0.065976 0.007589
O O14 0.058972 0.743317 0.367082
O O15 0.781302 0.653154 0.358290
O O16 0.500000 0.500000 0.500000
O O17 0.500000 0.000000 0.000000
#
# Coordination Sequence:
#
# PCOD9077062 Si02
#       8
#     2   2   2   2   2   2   2   2
#     4  10  19  33  61  83 113 147 187 233 280 335
#     4  10  18  34  55  83 115 144 190 233 278 332
#     4  10  23  37  58  79 119 151 181 239 283 333
#     4   9  17  31  53  81 112 144 181 236 286 322
#     4  11  21  39  57  82 113 153 192 223 291 336
#     4   9  19  33  59  83 109 149 189 229 276 342
#     4  10  19  38  58  86 112 142 188 235 278 326
#     4   9  16  29  53  86 110 141 185 234 282 325
#
# _framework density 22.591853
#
# number of rings (size 3 to 8) (size 9 to 14) (size 15 to 20)
#    0.000    2.250    1.250    5.250    0.000    2.000 
#    2.250    3.750    0.000    0.000    0.000   10.500 
#    0.000    0.000    0.000    0.000    0.000    0.000 
#
# Total GULP energy -89151.264783 kJ/mol
# GULP energy per Si atom -5571.954049 kJ/mol
# Density = 2.254043 g / cm^3
# Si number density = 22.591853 Si / 1000 Ang^3
#
#
#
# Elastic Constant Matrix: (Units=GPa)
#
#
# Indices 1 2 3 4 5 6 
#
# 1 69.7082 7.6141 30.7417 3.0383 -16.2320 -4.0410
# 2 7.6141 53.5175 18.6326 -4.4700 11.9338 -10.8681
# 3 30.7417 18.6326 116.3929 -20.7805 -21.7605 1.3918
# 4 3.0383 -4.4700 -20.7805 29.3354 0.9815 3.4969
# 5 -16.2320 11.9338 -21.7605 0.9815 45.5491 6.8403
# 6 -4.0410 -10.8681 1.3918 3.4969 6.8403 13.6026
#
#
#
# Elastic Compliance Matrix: (Units=1/GPa)
#
#
# Indices 1 2 3 4 5 6 
#
# 1 0.018150 -0.001269 -0.005061 -0.006334 0.003829 0.004599
# 2 -0.001269 0.034974 -0.010754 -0.006317 -0.020731 0.040716
# 3 -0.005061 -0.010754 0.016321 0.012543 0.011674 -0.020861
# 4 -0.006334 -0.006317 0.012543 0.045245 0.007999 -0.023867
# 5 0.003829 -0.020731 0.011674 0.007999 0.039979 -0.038782
# 6 0.004599 0.040716 -0.020861 -0.023867 -0.038782 0.135185
#
#
# Mechanical properties :
#
#
# Convention : Reuss Voigt Hill
#
# Bulk Modulus (GPa) = 28.34720 39.28838 33.81779
# Shear Modulus (GPa) = 14.89066 29.87275 22.38170
#
# Velocity S-wave (km/s) = 2.57011 3.64026 3.15095
# Velocity P-wave (km/s) = 4.62407 5.92427 5.31408
#
# Compressibility (1/GPa) = 0.03527686
#
# Stress axis : x y z
#
# Youngs Moduli (GPa) = 55.09577 28.59278 61.27015
#
# Poissons Ratio (x) = 0.03629 0.31007
# Poissons Ratio (y) = 0.06993 0.65891
# Poissons Ratio (z) = 0.27883 0.30749
#
# Static dielectric constant tensor:
#      x y z
#    x 1.887100 -0.017170 -0.030360 
#    y -0.017170 1.871380 -0.006260 
#    z -0.030360 -0.006260 1.938590 
# 
# From -- ./inp_files/492000.got.cif
#   From: 2010.05.17/outbox.cif.g08.bks.cpg/sg2_246_cif.got.tgz:492000.got - 2010.06.03 11:33:40.
