data_PCOD9077208
_publ_section_title
;
Structure prediction by ZEFSAII (Michael W. Deem and Ramdas Pophale) SiO2 
 PCOD9077208
Probable space group: P -1
;
_chemical_formula_sum "Si O2"
_cell_formula_units_Z 12
_cell_length_a 20.561248
_cell_length_b 11.350399
_cell_length_c 11.948001
_cell_angle_alpha 144.176787
_cell_angle_beta 160.451543
_cell_angle_gamma 37.196810
_cell_volume 538.518909
_symmetry_space_group_name_H-M "P -1"
_symmetry_group_IT_number 2
_symmetry_cell_setting 'triclinic'
loop_
_space_group_symop_operation_xyz
x,y,z
-x,-y,-z
loop_
_atom_site_type_symbol
_atom_site_label
_atom_site_fract_x
_atom_site_fract_y
_atom_site_fract_z
Si Si1 0.622960 0.873464 0.201383
Si Si2 0.054175 0.727379 0.752399
Si Si3 0.132112 0.554664 0.153703
Si Si4 0.262730 0.898139 0.768040
Si Si5 0.933677 0.282411 0.495356
Si Si6 0.548534 0.441058 0.661395
O O1 0.855127 0.878408 0.580104
O O2 0.485881 0.924446 0.126652
O O3 0.607700 0.639470 0.968837
O O4 0.500000 0.000000 0.000000
O O5 0.101240 0.751933 0.716813
O O6 0.000000 0.500000 0.500000
O O7 0.257579 0.728387 0.148346
O O8 0.182661 0.774593 0.438748
O O9 0.346874 0.417545 0.378618
O O10 0.000000 0.500000 0.000000
O O11 0.001899 0.501695 0.796504
O O12 0.236132 0.765313 0.732984
O O13 0.119056 0.113045 0.703177
O O14 0.500000 0.500000 0.500000
#
# Coordination Sequence:
#
# PCOD9077208 Si02
#       6
#     2   2   2   2   2   2
#     4  10  18  34  57  82 112 144 186 236 276 337
#     4  10  20  34  57  84 112 149 192 229 284 340
#     4   9  18  34  56  81 108 148 188 226 276 337
#     4   9  19  32  58  89 108 151 188 224 287 337
#     4  10  18  35  60  80 115 149 184 234 284 331
#     4  10  21  36  55  80 111 148 190 232 287 332
#
# _framework density 22.283341
#
# number of rings (size 3 to 8) (size 9 to 14) (size 15 to 20)
#    0.000    2.333    1.667    2.000    0.000    0.000 
#    0.000   15.833    7.333    9.000    0.000    0.000 
#    0.000    0.000    0.000    0.000    0.000    0.000 
#
# Total GULP energy -66883.922854 kJ/mol
# GULP energy per Si atom -5573.660238 kJ/mol
# Density = 2.223262 g / cm^3
# Si number density = 22.283341 Si / 1000 Ang^3
#
#
#
# Elastic Constant Matrix: (Units=GPa)
#
#
# Indices 1 2 3 4 5 6 
#
# 1 139.6383 24.7190 66.4872 -32.2024 32.0234 -7.2629
# 2 24.7190 49.9516 29.2966 -8.0446 16.1813 -5.3393
# 3 66.4872 29.2966 118.9887 -27.7843 29.6495 -3.7424
# 4 -32.2024 -8.0446 -27.7843 44.1859 -12.9648 2.1703
# 5 32.0234 16.1813 29.6495 -12.9648 33.7535 -6.5524
# 6 -7.2629 -5.3393 -3.7424 2.1703 -6.5524 29.2213
#
#
#
# Elastic Compliance Matrix: (Units=1/GPa)
#
#
# Indices 1 2 3 4 5 6 
#
# 1 0.011328 -0.000939 -0.003811 0.004119 -0.005237 0.000676
# 2 -0.000939 0.025395 -0.003945 -0.000922 -0.007739 0.002235
# 3 -0.003811 -0.003945 0.013632 0.003570 -0.005367 -0.001391
# 4 0.004119 -0.000922 0.003570 0.029049 0.004592 0.000185
# 5 -0.005237 -0.007739 -0.005367 0.004592 0.046061 0.006584
# 6 0.000676 0.002235 -0.001391 0.000185 0.006584 0.036083
#
#
# Mechanical properties :
#
#
# Convention : Reuss Voigt Hill
#
# Bulk Modulus (GPa) = 30.33391 61.06493 45.69942
# Shear Modulus (GPa) = 26.32645 33.97053 30.14849
#
# Velocity S-wave (km/s) = 3.44094 3.90870 3.68225
# Velocity P-wave (km/s) = 5.42486 6.91620 6.21542
#
# Compressibility (1/GPa) = 0.03296641
#
# Stress axis : x y z
#
# Youngs Moduli (GPa) = 88.27779 39.37823 73.35807
#
# Poissons Ratio (x) = 0.03697 0.27954
# Poissons Ratio (y) = 0.08288 0.28936
# Poissons Ratio (z) = 0.33639 0.15533
#
# Static dielectric constant tensor:
#      x y z
#    x 1.842070 0.001840 0.045480 
#    y 0.001840 2.292070 0.323350 
#    z 0.045480 0.323350 2.086210 
# 
# From -- ./inp_files/149478.got.cif
#   From: 2010.05.17/outbox.cif.g08.bks.cpg/sg2_75_cif.got.tgz:149478.got - 2010.06.03 11:33:40.
