data_PCOD9077138
_publ_section_title
;
Structure prediction by ZEFSAII (Michael W. Deem and Ramdas Pophale) SiO2 
 PCOD9077138
Probable space group: P -1
;
_chemical_formula_sum "Si O2"
_cell_formula_units_Z 14
_cell_length_a 8.506034
_cell_length_b 7.581355
_cell_length_c 7.682793
_cell_angle_alpha 81.496768
_cell_angle_beta 83.677221
_cell_angle_gamma 97.005411
_cell_volume 482.175128
_symmetry_space_group_name_H-M "P -1"
_symmetry_group_IT_number 2
_symmetry_cell_setting 'triclinic'
loop_
_space_group_symop_operation_xyz
x,y,z
-x,-y,-z
loop_
_atom_site_type_symbol
_atom_site_label
_atom_site_fract_x
_atom_site_fract_y
_atom_site_fract_z
Si Si1 0.497039 0.404821 0.235081
Si Si2 0.182614 0.642036 0.650521
Si Si3 0.252580 0.656083 0.271468
Si Si4 0.012887 0.285036 0.912449
Si Si5 0.111482 0.032185 0.649231
Si Si6 0.442313 0.082981 0.675632
Si Si7 0.329072 0.218724 0.007909
O O1 0.628321 0.372474 0.363426
O O2 0.332466 0.475512 0.286928
O O3 0.592477 0.583364 0.102886
O O4 0.440613 0.219523 0.164039
O O5 0.136573 0.643735 0.453917
O O6 0.090529 0.478467 0.794220
O O7 0.159989 0.833830 0.706554
O O8 0.392558 0.812050 0.284393
O O9 0.172410 0.689569 0.092073
O O10 0.023362 0.124265 0.797592
O O11 0.141806 0.239587 0.047190
O O12 0.284293 0.156781 0.595961
O O13 0.000000 0.000000 0.500000
O O14 0.353457 0.070272 0.883291
O O15 0.500000 0.000000 0.500000
#
# Coordination Sequence:
#
# PCOD9077138 Si02
#       7
#     2   2   2   2   2   2   2
#     4   9  19  35  54  83 113 152 196 234 283 344
#     4  11  21  37  58  85 118 155 191 239 293 342
#     4  11  20  34  58  88 116 149 194 243 283 341
#     4  10  21  37  57  86 116 154 191 236 296 341
#     4  11  21  36  57  84 118 151 188 238 297 341
#     4  10  18  34  56  84 112 144 191 237 284 337
#     4   8  18  35  56  78 114 154 189 233 288 345
#
# _framework density 29.035095999999999
#
# number of rings (size 3 to 8) (size 9 to 14) (size 15 to 20)
#    0.000    2.000    2.857    1.714    0.000    0.571 
#    0.000    2.857    0.000    0.000    0.000   22.000 
#    0.000    0.000    0.000    0.000    0.000    0.000 
#
# Total GULP energy -78072.648185 kJ/mol
# GULP energy per Si atom -5576.617727 kJ/mol
# Density = 2.896901 g / cm^3
# Si number density = 29.035096 Si / 1000 Ang^3
#
#
#
# Elastic Constant Matrix: (Units=GPa)
#
#
# Indices 1 2 3 4 5 6 
#
# 1 158.3511 21.7216 34.0603 9.1461 41.6948 6.0327
# 2 21.7216 140.1153 25.8030 20.4663 -10.8417 2.3434
# 3 34.0603 25.8030 108.6882 22.3693 34.4219 7.9077
# 4 9.1461 20.4663 22.3693 59.2171 5.5833 -7.3358
# 5 41.6948 -10.8417 34.4219 5.5833 51.8127 17.2855
# 6 6.0327 2.3434 7.9077 -7.3358 17.2855 41.2003
#
#
#
# Elastic Compliance Matrix: (Units=1/GPa)
#
#
# Indices 1 2 3 4 5 6 
#
# 1 0.008659 -0.002127 0.000186 0.000416 -0.008385 0.002410
# 2 -0.002127 0.008952 -0.002821 -0.002702 0.006739 -0.002965
# 3 0.000186 -0.002821 0.013439 -0.003083 -0.009693 0.001072
# 4 0.000416 -0.002702 -0.003083 0.019852 -0.002789 0.005390
# 5 -0.008385 0.006739 -0.009693 -0.002789 0.038908 -0.014115
# 6 0.002410 -0.002965 0.001072 0.005390 -0.014115 0.030763
#
#
# Mechanical properties :
#
#
# Convention : Reuss Voigt Hill
#
# Bulk Modulus (GPa) = 46.45571 63.36939 54.91255
# Shear Modulus (GPa) = 36.42422 52.15068 44.28745
#
# Velocity S-wave (km/s) = 3.54572 4.24267 3.90976
# Velocity P-wave (km/s) = 5.72690 6.77295 6.27177
#
# Compressibility (1/GPa) = 0.02152588
#
# Stress axis : x y z
#
# Youngs Moduli (GPa) = 115.48940 111.70737 74.41233
#
# Poissons Ratio (x) = 0.23755 -0.01384
# Poissons Ratio (y) = 0.24559 0.20993
# Poissons Ratio (z) = -0.02148 0.31515
#
# Static dielectric constant tensor:
#      x y z
#    x 2.309550 0.005960 -0.082810 
#    y 0.005960 2.371650 -0.060870 
#    z -0.082810 -0.060870 2.346380 
# 
# From -- ./inp_files/155434.got.cif
#   From: 2010.05.17/outbox.cif.g08.bks.cpg/sg2_78_cif.got.tgz:155434.got - 2010.06.03 11:33:40.
