data_PCOD9077691
_publ_section_title
;
Structure prediction by ZEFSAII (Michael W. Deem and Ramdas Pophale) SiO2 
 PCOD9077691
Probable space group: P -1
;
_chemical_formula_sum "Si O2"
_cell_formula_units_Z 16
_cell_length_a 10.830522
_cell_length_b 12.725771
_cell_length_c 8.858612
_cell_angle_alpha 129.508515
_cell_angle_beta 107.402525
_cell_angle_gamma 105.572532
_cell_volume 703.058316
_symmetry_space_group_name_H-M "P -1"
_symmetry_group_IT_number 2
_symmetry_cell_setting 'triclinic'
loop_
_space_group_symop_operation_xyz
x,y,z
-x,-y,-z
loop_
_atom_site_type_symbol
_atom_site_label
_atom_site_fract_x
_atom_site_fract_y
_atom_site_fract_z
Si Si1 0.889518 0.063183 0.688163
Si Si2 0.869445 0.223088 0.554303
Si Si3 0.769235 0.321459 0.360082
Si Si4 0.148035 0.913566 0.970559
Si Si5 0.606432 0.859323 0.967216
Si Si6 0.221618 0.313998 0.724397
Si Si7 0.282214 0.341392 0.097254
Si Si8 0.776653 0.622126 0.548494
O O1 0.810555 0.868861 0.428447
O O2 0.866479 0.184629 0.692621
O O3 0.815643 0.045618 0.805850
O O4 0.087543 0.171684 0.869349
O O5 0.849662 0.355302 0.586938
O O6 0.041093 0.267360 0.604832
O O7 0.713067 0.034688 0.263542
O O8 0.571485 0.201292 0.193142
O O9 0.818642 0.488717 0.442516
O O10 0.815567 0.215843 0.190174
O O11 0.275646 0.088971 0.085578
O O12 0.954002 0.815658 0.789131
O O13 0.598389 0.710232 0.909621
O O14 0.300168 0.421398 0.009482
O O15 0.298367 0.386945 0.651580
O O16 0.300810 0.414952 0.342296
#
# Coordination Sequence:
#
# PCOD9077691 Si02
#       8
#     2   2   2   2   2   2   2   2
#     4  10  18  34  62  94 106 136 200 261 282 311
#     4  10  18  35  60  84 116 145 188 244 289 331
#     4  11  24  38  53  83 123 162 181 220 297 354
#     4  10  20  36  61  87 108 148 200 236 282 336
#     4  11  19  38  60  80 118 151 191 236 284 347
#     4  11  18  35  64  90 113 140 194 255 289 317
#     4  10  20  35  60  91 111 148 194 242 291 328
#     4  11  22  38  60  87 118 151 194 238 282 343
#
# _framework density 22.757715999999999
#
# number of rings (size 3 to 8) (size 9 to 14) (size 15 to 20)
#    0.000    1.500    5.000    3.375    0.000    2.500 
#    2.250    5.000    0.000    0.000    0.000    0.000 
#    0.000    0.000    0.000    0.000    0.000    0.000 
#
# Total GULP energy -89172.938741 kJ/mol
# GULP energy per Si atom -5573.308671 kJ/mol
# Density = 2.270592 g / cm^3
# Si number density = 22.757716 Si / 1000 Ang^3
#
#
#
# Elastic Constant Matrix: (Units=GPa)
#
#
# Indices 1 2 3 4 5 6 
#
# 1 64.9641 19.7462 26.0722 -11.6286 15.4633 -4.9825
# 2 19.7462 131.9603 40.2715 -31.2590 -2.2078 4.3747
# 3 26.0722 40.2715 48.6223 -18.8774 1.6352 15.9134
# 4 -11.6286 -31.2590 -18.8774 40.9389 5.8026 -5.6014
# 5 15.4633 -2.2078 1.6352 5.8026 32.0709 -4.3645
# 6 -4.9825 4.3747 15.9134 -5.6014 -4.3645 37.7269
#
#
#
# Elastic Compliance Matrix: (Units=1/GPa)
#
#
# Indices 1 2 3 4 5 6 
#
# 1 0.025285 0.001502 -0.016023 0.003720 -0.010687 0.009240
# 2 0.001502 0.011327 -0.009330 0.005257 0.000071 0.003609
# 3 -0.016023 -0.009330 0.045729 0.006648 0.000932 -0.019228
# 4 0.003720 0.005257 0.006648 0.033823 -0.007726 0.001205
# 5 -0.010687 0.000071 0.000932 -0.007726 0.037882 0.001422
# 6 0.009240 0.003609 -0.019228 0.001205 0.001422 0.035762
#
#
# Mechanical properties :
#
#
# Convention : Reuss Voigt Hill
#
# Bulk Modulus (GPa) = 28.86835 46.41404 37.64119
# Shear Modulus (GPa) = 20.07562 32.77779 26.42670
#
# Velocity S-wave (km/s) = 2.97332 3.79924 3.41136
# Velocity P-wave (km/s) = 4.94976 6.29958 5.66502
#
# Compressibility (1/GPa) = 0.03464002
#
# Stress axis : x y z
#
# Youngs Moduli (GPa) = 39.54847 88.28090 21.86791
#
# Poissons Ratio (x) = -0.13263 0.35040
# Poissons Ratio (y) = -0.05942 0.20403
# Poissons Ratio (z) = 0.63370 0.82367
#
# Static dielectric constant tensor:
#      x y z
#    x 1.841940 0.029000 -0.026880 
#    y 0.029000 1.949630 -0.018990 
#    z -0.026880 -0.018990 1.894390 
# 
# From -- ./inp_files/181476.got.cif
#   From: 2010.05.17/outbox.cif.g08.bks.cpg/sg2_91_cif.got.tgz:181476.got - 2010.06.03 11:33:40.
