data_PCOD9077243
_publ_section_title
;
Structure prediction by ZEFSAII (Michael W. Deem and Ramdas Pophale) SiO2 
 PCOD9077243
Probable space group: P -1
;
_chemical_formula_sum "Si O2"
_cell_formula_units_Z 16
_cell_length_a 18.369269
_cell_length_b 11.756492
_cell_length_c 9.513194
_cell_angle_alpha 95.564546
_cell_angle_beta 100.784994
_cell_angle_gamma 152.128670
_cell_volume 774.303457
_symmetry_space_group_name_H-M "P -1"
_symmetry_group_IT_number 2
_symmetry_cell_setting 'triclinic'
loop_
_space_group_symop_operation_xyz
x,y,z
-x,-y,-z
loop_
_atom_site_type_symbol
_atom_site_label
_atom_site_fract_x
_atom_site_fract_y
_atom_site_fract_z
Si Si1 0.941230 0.470798 0.168439
Si Si2 0.122784 0.514844 0.156154
Si Si3 0.293256 0.291634 0.284786
Si Si4 0.967384 0.895027 0.324430
Si Si5 0.362731 0.150684 0.337306
Si Si6 0.113730 0.253829 0.199209
Si Si7 0.688512 0.285826 0.196416
Si Si8 0.461146 0.824004 0.597775
O O1 0.822937 0.366919 0.231667
O O2 0.961108 0.362041 0.155716
O O3 0.862441 0.410167 0.985300
O O4 0.162443 0.823403 0.287383
O O5 0.074583 0.312470 0.106399
O O6 0.334382 0.835068 0.339740
O O7 0.316937 0.196023 0.232849
O O8 0.502019 0.622678 0.456664
O O9 0.196045 0.255229 0.155681
O O10 0.155313 0.098222 0.351064
O O11 0.803801 0.565762 0.229804
O O12 0.000000 0.000000 0.500000
O O13 0.954385 0.980941 0.218331
O O14 0.473323 0.203599 0.310781
O O15 0.296459 0.552424 0.397979
O O16 0.624100 0.212242 0.323604
O O17 0.500000 0.000000 0.000000
#
# Coordination Sequence:
#
# PCOD9077243 Si02
#       8
#     2   2   2   2   2   2   2   2
#     4  10  20  33  55  80 112 151 190 227 282 339
#     4  10  20  35  53  84 113 149 188 236 284 327
#     4   8  16  28  54  82 107 137 183 234 278 320
#     4  10  18  34  57  86 110 147 189 226 283 333
#     4   9  15  31  51  82 105 135 189 231 269 324
#     4   9  18  33  56  85 112 144 189 239 278 331
#     4  12  21  36  56  86 113 149 194 228 276 347
#     4  10  19  32  58  80 111 150 186 235 278 329
#
# _framework density 20.663732
#
# number of rings (size 3 to 8) (size 9 to 14) (size 15 to 20)
#    0.750    1.500    3.750    0.375    0.000    0.000 
#    0.000    3.125    0.000    2.250    0.000    0.000 
#    0.000    0.000    0.000    0.000    0.000    0.000 
#
# Total GULP energy -89073.505352 kJ/mol
# GULP energy per Si atom -5567.094085 kJ/mol
# Density = 2.061670 g / cm^3
# Si number density = 20.663732 Si / 1000 Ang^3
#
#
#
# Elastic Constant Matrix: (Units=GPa)
#
#
# Indices 1 2 3 4 5 6 
#
# 1 162.1381 30.7661 9.3669 -6.9067 -2.3272 -3.7031
# 2 30.7661 46.9641 26.6986 10.8251 -1.2960 -6.9665
# 3 9.3669 26.6986 58.0069 13.6507 -2.4121 1.0259
# 4 -6.9067 10.8251 13.6507 30.0699 -2.3498 -4.4564
# 5 -2.3272 -1.2960 -2.4121 -2.3498 29.9099 0.9860
# 6 -3.7031 -6.9665 1.0259 -4.4564 0.9860 45.2106
#
#
#
# Elastic Compliance Matrix: (Units=1/GPa)
#
#
# Indices 1 2 3 4 5 6 
#
# 1 0.007452 -0.006158 0.000809 0.003611 0.000662 -0.000015
# 2 -0.006158 0.035474 -0.013718 -0.007341 -0.000776 0.004566
# 3 0.000809 -0.013718 0.025096 -0.006673 0.001077 -0.003298
# 4 0.003611 -0.007341 -0.006673 0.040433 0.002494 0.003247
# 5 0.000662 -0.000776 0.001077 0.002494 0.033754 -0.000580
# 6 -0.000015 0.004566 -0.003298 0.003247 -0.000580 0.023229
#
#
# Mechanical properties :
#
#
# Convention : Reuss Voigt Hill
#
# Bulk Modulus (GPa) = 33.45889 44.53026 38.99457
# Shear Modulus (GPa) = 23.41522 34.38992 28.90257
#
# Velocity S-wave (km/s) = 3.36989 4.08397 3.74399
# Velocity P-wave (km/s) = 5.60078 6.62081 6.13204
#
# Compressibility (1/GPa) = 0.02988743
#
# Stress axis : x y z
#
# Youngs Moduli (GPa) = 134.18561 28.18957 39.84654
#
# Poissons Ratio (x) = 0.17360 -0.03224
# Poissons Ratio (y) = 0.82636 0.54663
# Poissons Ratio (z) = -0.10858 0.38672
#
# Static dielectric constant tensor:
#      x y z
#    x 1.822640 -0.054110 0.007220 
#    y -0.054110 1.733780 0.016380 
#    z 0.007220 0.016380 1.804070 
# 
# From -- ./inp_files/464635.got.cif
#   From: 2010.05.17/outbox.cif.g08.bks.cpg/sg2_233_cif.got.tgz:464635.got - 2010.06.03 11:33:40.
