data_PCOD9077478
_publ_section_title
;
Structure prediction by ZEFSAII (Michael W. Deem and Ramdas Pophale) SiO2 
 PCOD9077478
Probable space group: P -1
;
_chemical_formula_sum "Si O2"
_cell_formula_units_Z 16
_cell_length_a 9.189784
_cell_length_b 16.461692
_cell_length_c 7.250899
_cell_angle_alpha 111.818535
_cell_angle_beta 131.279529
_cell_angle_gamma 69.510214
_cell_volume 756.588907
_symmetry_space_group_name_H-M "P -1"
_symmetry_group_IT_number 2
_symmetry_cell_setting 'triclinic'
loop_
_space_group_symop_operation_xyz
x,y,z
-x,-y,-z
loop_
_atom_site_type_symbol
_atom_site_label
_atom_site_fract_x
_atom_site_fract_y
_atom_site_fract_z
Si Si1 0.229922 0.805234 0.056057
Si Si2 0.044217 0.903438 0.622507
Si Si3 0.360850 0.626300 0.871957
Si Si4 0.224083 0.994839 0.271349
Si Si5 0.675271 0.954848 0.986453
Si Si6 0.086098 0.609821 0.294056
Si Si7 0.753893 0.498139 0.007796
Si Si8 0.057545 0.215055 0.880866
O O1 0.382213 0.718306 0.068578
O O2 0.150612 0.843363 0.824827
O O3 0.291814 0.891604 0.278316
O O4 0.056534 0.778166 0.014981
O O5 0.053048 0.842501 0.401086
O O6 0.824091 0.939481 0.542658
O O7 0.150624 0.989496 0.764395
O O8 0.213406 0.643102 0.590922
O O9 0.267762 0.566456 0.893755
O O10 0.563673 0.572482 0.924920
O O11 0.348266 0.026702 0.236288
O O12 0.000000 0.000000 0.000000
O O13 0.738347 0.850192 0.978806
O O14 0.500000 0.000000 0.000000
O O15 0.947355 0.544859 0.209550
O O16 0.952903 0.690009 0.142599
O O17 0.227051 0.557226 0.213270
#
# Coordination Sequence:
#
# PCOD9077478 Si02
#       8
#     2   2   2   2   2   2   2   2
#     4  10  18  34  60  84 111 151 196 239 281 348
#     4  10  19  36  60  78 108 160 199 225 276 357
#     4  11  21  41  66  86 122 155 197 244 304 362
#     4   8  16  33  54  75 111 150 190 225 275 342
#     4  10  20  34  56  85 119 149 190 248 291 327
#     4  11  23  39  63  93 118 155 200 246 302 361
#     4  10  24  41  63  90 120 155 194 251 306 359
#     4  12  20  35  63  83 113 155 203 233 293 353
#
# _framework density 21.147546999999999
#
# number of rings (size 3 to 8) (size 9 to 14) (size 15 to 20)
#    0.000    2.000    6.250    1.125    0.000    2.000 
#    0.000    0.625    5.500    0.000    0.000    0.000 
#    0.000    0.000    0.000    0.000    0.000    0.000 
#
# Total GULP energy -89268.532147 kJ/mol
# GULP energy per Si atom -5579.283259 kJ/mol
# Density = 2.109941 g / cm^3
# Si number density = 21.147547 Si / 1000 Ang^3
#
#
#
# Elastic Constant Matrix: (Units=GPa)
#
#
# Indices 1 2 3 4 5 6 
#
# 1 130.9189 43.0208 7.4440 -8.4921 -5.0879 -17.9050
# 2 43.0208 137.1918 -3.1174 -3.4265 -2.3019 -24.3662
# 3 7.4440 -3.1174 22.9101 2.1663 -5.3345 1.0519
# 4 -8.4921 -3.4265 2.1663 26.4038 0.8368 -8.6138
# 5 -5.0879 -2.3019 -5.3345 0.8368 14.8772 -1.3268
# 6 -17.9050 -24.3662 1.0519 -8.6138 -1.3268 30.6786
#
#
#
# Elastic Compliance Matrix: (Units=1/GPa)
#
#
# Indices 1 2 3 4 5 6 
#
# 1 0.009662 -0.001947 -0.003690 0.004954 0.001909 0.005693
# 2 -0.001947 0.009281 0.001759 0.002659 0.001876 0.007003
# 3 -0.003690 0.001759 0.049838 -0.006769 0.016937 -0.003633
# 4 0.004954 0.002659 -0.006769 0.046343 -0.001306 0.018191
# 5 0.001909 0.001876 0.016937 -0.001306 0.074743 0.004889
# 6 0.005693 0.007003 -0.003633 0.018191 0.004889 0.046924
#
#
# Mechanical properties :
#
#
# Convention : Reuss Voigt Hill
#
# Bulk Modulus (GPa) = 16.38624 42.85729 29.62176
# Shear Modulus (GPa) = 18.87596 30.63681 24.75639
#
# Velocity S-wave (km/s) = 2.99086 3.81033 3.42519
# Velocity P-wave (km/s) = 4.43760 6.29825 5.44795
#
# Compressibility (1/GPa) = 0.06102680
#
# Stress axis : x y z
#
# Youngs Moduli (GPa) = 103.49847 107.74567 20.06508
#
# Poissons Ratio (x) = 0.20976 0.07403
# Poissons Ratio (y) = 0.20149 -0.03530
# Poissons Ratio (z) = 0.38187 -0.18956
#
# Static dielectric constant tensor:
#      x y z
#    x 1.857650 -0.053270 0.015100 
#    y -0.053270 1.807440 -0.039160 
#    z 0.015100 -0.039160 1.855060 
# 
# From -- ./inp_files/203368.got.cif
#   From: 2010.05.17/outbox.cif.g08.bks.cpg/sg2_102_cif.got.tgz:203368.got - 2010.06.03 11:33:40.
