data_PCOD9077724
_publ_section_title
;
Structure prediction by ZEFSAII (Michael W. Deem and Ramdas Pophale) SiO2 
 PCOD9077724
Probable space group: P -1
;
_chemical_formula_sum "Si O2"
_cell_formula_units_Z 12
_cell_length_a 13.978374
_cell_length_b 5.416350
_cell_length_c 13.353309
_cell_angle_alpha 74.794360
_cell_angle_beta 33.714679
_cell_angle_gamma 92.008965
_cell_volume 477.178913
_symmetry_space_group_name_H-M "P -1"
_symmetry_group_IT_number 2
_symmetry_cell_setting 'triclinic'
loop_
_space_group_symop_operation_xyz
x,y,z
-x,-y,-z
loop_
_atom_site_type_symbol
_atom_site_label
_atom_site_fract_x
_atom_site_fract_y
_atom_site_fract_z
Si Si1 0.391603 0.940438 0.229967
Si Si2 0.867169 0.165025 0.116530
Si Si3 0.840462 0.448733 0.919538
Si Si4 0.904919 0.667152 0.450212
Si Si5 0.244951 0.989330 0.560907
Si Si6 0.281466 0.176993 0.132932
O O1 0.221199 0.644738 0.358363
O O2 0.353445 0.918383 0.384321
O O3 0.356057 0.187669 0.180205
O O4 0.589712 0.940348 0.027190
O O5 0.715879 0.008486 0.355853
O O6 0.773012 0.209683 0.091390
O O7 0.000000 0.500000 0.000000
O O8 0.000000 0.000000 0.000000
O O9 0.699513 0.542278 0.972873
O O10 0.951596 0.362167 0.750322
O O11 0.014768 0.748928 0.780192
O O12 0.752841 0.721367 0.510617
O O13 0.049803 0.947220 0.356869
#
# Coordination Sequence:
#
# PCOD9077724 Si02
#       6
#     2   2   2   2   2   2
#     4  10  22  38  56  84 122 160 202 252 306 367
#     4  10  18  34  63  93 125 160 208 259 319 376
#     4   9  19  34  57  88 116 155 202 253 304 371
#     4  10  19  35  60  84 114 155 201 248 306 368
#     4   9  19  34  57  88 116 155 202 253 304 371
#     4  10  22  38  56  84 122 160 202 252 306 367
#
# _framework density 25.1478
#
# number of rings (size 3 to 8) (size 9 to 14) (size 15 to 20)
#    0.000    2.333    1.667    0.500    0.000    8.667 
#    0.000    4.167    0.000    2.000    0.000    0.000 
#    0.000    0.000    0.000    0.000    0.000    0.000 
#
# Total GULP energy -66985.157503 kJ/mol
# GULP energy per Si atom -5582.096459 kJ/mol
# Density = 2.509056 g / cm^3
# Si number density = 25.147800 Si / 1000 Ang^3
#
#
#
# Elastic Constant Matrix: (Units=GPa)
#
#
# Indices 1 2 3 4 5 6 
#
# 1 110.0554 55.4786 63.2672 -6.6998 18.8483 -32.7348
# 2 55.4786 117.7763 33.8402 9.1944 24.3293 -21.1747
# 3 63.2672 33.8402 124.5698 8.1134 31.9058 -10.3428
# 4 -6.6998 9.1944 8.1134 37.8106 3.7521 5.3471
# 5 18.8483 24.3293 31.9058 3.7521 43.9865 -15.9689
# 6 -32.7348 -21.1747 -10.3428 5.3471 -15.9689 30.3415
#
#
#
# Elastic Compliance Matrix: (Units=1/GPa)
#
#
# Indices 1 2 3 4 5 6 
#
# 1 0.023717 -0.006299 -0.011077 0.004241 0.008710 0.021253
# 2 -0.006299 0.012461 0.001299 -0.004068 -0.004546 0.000668
# 3 -0.011077 0.001299 0.015359 -0.002941 -0.010857 -0.011005
# 4 0.004241 -0.004068 -0.002941 0.029806 -0.001999 -0.005570
# 5 0.008710 -0.004546 -0.010857 -0.001999 0.037835 0.022788
# 6 0.021253 0.000668 -0.011005 -0.005570 0.022788 0.065578
#
#
# Mechanical properties :
#
#
# Convention : Reuss Voigt Hill
#
# Bulk Modulus (GPa) = 51.58960 73.06372 62.32666
# Shear Modulus (GPa) = 22.38417 35.74875 29.06646
#
# Velocity S-wave (km/s) = 2.98670 3.77443 3.40343
# Velocity P-wave (km/s) = 5.69675 6.93627 6.34684
#
# Compressibility (1/GPa) = 0.01938375
#
# Stress axis : x y z
#
# Youngs Moduli (GPa) = 42.16336 80.24855 65.10696
#
# Poissons Ratio (x) = 0.50545 0.72119
# Poissons Ratio (y) = 0.26557 -0.08454
# Poissons Ratio (z) = 0.46704 -0.10420
#
# Static dielectric constant tensor:
#      x y z
#    x 2.396340 0.178690 -0.109580 
#    y 0.178690 2.107960 -0.126700 
#    z -0.109580 -0.126700 2.021470 
# 
# From -- ./inp_files/22986.got.cif
#   From: 2010.05.17/outbox.cif.g08.bks.cpg/sg2_12_cif.got.tgz:22986.got - 2010.06.03 11:33:40.
