data_PCOD9077219
_publ_section_title
;
Structure prediction by ZEFSAII (Michael W. Deem and Ramdas Pophale) SiO2 
 PCOD9077219
Probable space group: P -1
;
_chemical_formula_sum "Si O2"
_cell_formula_units_Z 16
_cell_length_a 10.526297
_cell_length_b 13.624556
_cell_length_c 9.872173
_cell_angle_alpha 135.959444
_cell_angle_beta 58.220693
_cell_angle_gamma 144.050366
_cell_volume 572.494626
_symmetry_space_group_name_H-M "P -1"
_symmetry_group_IT_number 2
_symmetry_cell_setting 'triclinic'
loop_
_space_group_symop_operation_xyz
x,y,z
-x,-y,-z
loop_
_atom_site_type_symbol
_atom_site_label
_atom_site_fract_x
_atom_site_fract_y
_atom_site_fract_z
Si Si1 0.299343 0.239001 0.437548
Si Si2 0.466105 0.665954 0.018016
Si Si3 0.788369 0.088494 0.421944
Si Si4 0.024666 0.810087 0.292150
Si Si5 0.689103 0.322323 0.410433
Si Si6 0.601254 0.120505 0.917275
Si Si7 0.138430 0.543618 0.262429
Si Si8 0.168228 0.227938 0.199141
O O1 0.529640 0.326442 0.434997
O O2 0.274457 0.259872 0.316084
O O3 0.222457 0.317661 0.653830
O O4 0.124163 0.993575 0.317467
O O5 0.437481 0.748303 0.983302
O O6 0.232451 0.495386 0.055400
O O7 0.622497 0.639493 0.884126
O O8 0.609588 0.864038 0.235806
O O9 0.996714 0.228580 0.341653
O O10 0.863857 0.079983 0.514722
O O11 0.758013 0.232831 0.608023
O O12 0.147504 0.750457 0.121197
O O13 0.781022 0.440114 0.617389
O O14 0.881253 0.398025 0.279785
O O15 0.544396 0.086092 0.296688
O O16 0.500000 0.000000 0.000000
O O17 0.000000 0.000000 0.000000
#
# Coordination Sequence:
#
# PCOD9077219 Si02
#       8
#     2   2   2   2   2   2   2   2
#     4   9  17  34  52  77 114 144 181 229 283 327
#     4  11  18  32  58  86 106 146 190 235 273 333
#     4  10  18  34  57  84 109 143 195 236 271 334
#     4   9  17  30  54  80 105 139 186 233 270 328
#     4  10  22  37  56  84 115 151 183 235 286 335
#     4  11  20  33  55  83 113 142 188 235 282 326
#     4  11  21  36  60  83 115 150 191 231 278 338
#     4   9  20  33  54  86 113 142 184 238 284 325
#
# _framework density 27.947863000000002
#
# number of rings (size 3 to 8) (size 9 to 14) (size 15 to 20)
#    0.000    2.000    2.500    3.375    0.000    1.000 
#    0.000    5.000    2.750    1.500    0.000    0.000 
#    0.000    0.000    0.000    0.000    0.000    0.000 
#
# Total GULP energy -89490.013565 kJ/mol
# GULP energy per Si atom -5593.125848 kJ/mol
# Density = 2.788425 g / cm^3
# Si number density = 27.947863 Si / 1000 Ang^3
#
#
#
# Elastic Constant Matrix: (Units=GPa)
#
#
# Indices 1 2 3 4 5 6 
#
# 1 89.9716 22.3235 24.9764 -6.4075 -20.7760 19.1235
# 2 22.3235 124.1753 16.2930 -25.9386 -11.7877 37.2447
# 3 24.9764 16.2930 98.1065 -43.0342 -32.9113 27.9238
# 4 -6.4075 -25.9386 -43.0342 45.5570 16.0557 -13.0148
# 5 -20.7760 -11.7877 -32.9113 16.0557 56.7633 -13.5381
# 6 19.1235 37.2447 27.9238 -13.0148 -13.5381 71.8367
#
#
#
# Elastic Compliance Matrix: (Units=1/GPa)
#
#
# Indices 1 2 3 4 5 6 
#
# 1 0.013309 -0.002095 -0.003306 -0.003983 0.003345 -0.001263
# 2 -0.002095 0.011209 0.003778 0.008089 0.000220 -0.005215
# 3 -0.003306 0.003778 0.022231 0.019165 0.005814 -0.005152
# 4 -0.003983 0.008089 0.019165 0.043880 -0.001787 -0.002970
# 5 0.003345 0.000220 0.005814 -0.001787 0.022939 0.000735
# 6 -0.001263 -0.005215 -0.005152 -0.002970 0.000735 0.018564
#
#
# Mechanical properties :
#
#
# Convention : Reuss Voigt Hill
#
# Bulk Modulus (GPa) = 22.98669 48.82656 35.90663
# Shear Modulus (GPa) = 33.36041 51.40877 42.38459
#
# Velocity S-wave (km/s) = 3.45870 4.29354 3.89853
# Velocity P-wave (km/s) = 4.91862 6.48751 5.75676
#
# Compressibility (1/GPa) = 0.04350343
#
# Stress axis : x y z
#
# Youngs Moduli (GPa) = 75.13528 89.21606 44.98274
#
# Poissons Ratio (x) = 0.18687 0.14872
# Poissons Ratio (y) = 0.15737 -0.16994
# Poissons Ratio (z) = 0.24841 -0.33706
#
# Static dielectric constant tensor:
#      x y z
#    x 2.209990 0.005450 0.002550 
#    y 0.005450 2.364060 0.068390 
#    z 0.002550 0.068390 2.262710 
# 
# From -- ./inp_files/263335.got.cif
#   From: 2010.05.17/outbox.cif.g08.bks.cpg/sg2_132_cif.got.tgz:263335.got - 2010.06.03 11:33:40.
