data_PCOD9077392
_publ_section_title
;
Structure prediction by ZEFSAII (Michael W. Deem and Ramdas Pophale) SiO2 
 PCOD9077392
Probable space group: P -1
;
_chemical_formula_sum "Si O2"
_cell_formula_units_Z 16
_cell_length_a 15.632778
_cell_length_b 8.820601
_cell_length_c 9.541513
_cell_angle_alpha 78.831682
_cell_angle_beta 145.029359
_cell_angle_gamma 90.281199
_cell_volume 711.596300
_symmetry_space_group_name_H-M "P -1"
_symmetry_group_IT_number 2
_symmetry_cell_setting 'triclinic'
loop_
_space_group_symop_operation_xyz
x,y,z
-x,-y,-z
loop_
_atom_site_type_symbol
_atom_site_label
_atom_site_fract_x
_atom_site_fract_y
_atom_site_fract_z
Si Si1 0.180706 0.317793 0.319065
Si Si2 0.529110 0.946985 0.308441
Si Si3 0.735905 0.508236 0.014304
Si Si4 0.835721 0.363413 0.887586
Si Si5 0.915140 0.738674 0.118946
Si Si6 0.302189 0.922073 0.234243
Si Si7 0.557051 0.713247 0.955867
Si Si8 0.742876 0.377144 0.329271
O O1 0.341941 0.183155 0.582715
O O2 0.196087 0.498267 0.297207
O O3 0.138084 0.283891 0.106399
O O4 0.020087 0.321430 0.180858
O O5 0.419773 0.869359 0.270749
O O6 0.614167 0.025833 0.528588
O O7 0.438426 0.103732 0.070857
O O8 0.867053 0.604136 0.170404
O O9 0.765526 0.367855 0.192959
O O10 0.733037 0.442946 0.868236
O O11 0.585913 0.640861 0.848626
O O12 0.785992 0.205848 0.814502
O O13 0.096567 0.711491 0.371729
O O14 0.821272 0.914260 0.009792
O O15 0.394643 0.694925 0.795856
O O16 0.687177 0.573201 0.236235
#
# Coordination Sequence:
#
# PCOD9077392 Si02
#       8
#     2   2   2   2   2   2   2   2
#     4   9  22  37  54  83 116 143 179 227 276 332
#     4  10  20  37  56  82 113 139 188 234 267 315
#     4   9  18  37  55  79 114 141 179 228 268 326
#     4  10  21  38  52  82 118 146 180 214 285 342
#     4  10  18  34  59  84 106 141 191 229 263 316
#     4  10  21  33  57  85 108 147 183 225 276 329
#     4   9  19  35  57  83 107 138 186 236 263 312
#     4   9  19  33  59  84 103 143 189 233 263 309
#
# _framework density 22.484656999999999
#
# number of rings (size 3 to 8) (size 9 to 14) (size 15 to 20)
#    0.750    1.750    1.250    0.375    5.250    1.500 
#    0.000    0.625    0.000    0.750    0.000    0.000 
#    0.000    0.000    0.000    0.000    0.000    0.000 
#
# Total GULP energy -89282.794376 kJ/mol
# GULP energy per Si atom -5580.174649 kJ/mol
# Density = 2.243348 g / cm^3
# Si number density = 22.484657 Si / 1000 Ang^3
#
#
#
# Elastic Constant Matrix: (Units=GPa)
#
#
# Indices 1 2 3 4 5 6 
#
# 1 86.8546 18.1053 13.3467 1.8238 7.4707 5.3054
# 2 18.1053 75.6494 5.2965 -2.3524 12.4850 19.5074
# 3 13.3467 5.2965 57.6533 -13.6414 11.2393 1.3280
# 4 1.8238 -2.3524 -13.6414 21.1974 0.8083 11.8922
# 5 7.4707 12.4850 11.2393 0.8083 20.7094 0.0729
# 6 5.3054 19.5074 1.3280 11.8922 0.0729 26.8597
#
#
#
# Elastic Compliance Matrix: (Units=1/GPa)
#
#
# Indices 1 2 3 4 5 6 
#
# 1 0.012858 -0.003741 -0.004085 -0.005807 0.000050 0.002950
# 2 -0.003741 0.025276 0.009443 0.026717 -0.019951 -0.029860
# 3 -0.004085 0.009443 0.030433 0.034631 -0.022007 -0.022829
# 4 -0.005807 0.026717 0.034631 0.113735 -0.036999 -0.070225
# 5 0.000050 -0.019951 -0.022007 -0.036999 0.073573 0.031749
# 6 0.002950 -0.029860 -0.022829 -0.070225 0.031749 0.090469
#
#
# Mechanical properties :
#
#
# Convention : Reuss Voigt Hill
#
# Bulk Modulus (GPa) = 13.92720 32.62826 23.27773
# Shear Modulus (GPa) = 13.62227 25.98054 19.80140
#
# Velocity S-wave (km/s) = 2.46407 3.40292 2.97082
# Velocity P-wave (km/s) = 3.78194 5.47564 4.70562
#
# Compressibility (1/GPa) = 0.07180192
#
# Stress axis : x y z
#
# Youngs Moduli (GPa) = 77.76981 39.56250 32.85863
#
# Poissons Ratio (x) = 0.14800 0.13422
# Poissons Ratio (y) = 0.29094 -0.31027
# Poissons Ratio (z) = 0.31767 -0.37357
#
# Static dielectric constant tensor:
#      x y z
#    x 1.866310 -0.014690 -0.035790 
#    y -0.014690 1.816890 -0.003040 
#    z -0.035790 -0.003040 1.875630 
# 
# From -- ./inp_files/263427.got.cif
#   From: 2010.05.17/outbox.cif.g08.bks.cpg/sg2_132_cif.got.tgz:263427.got - 2010.06.03 11:33:40.
