data_PCOD9077221
_publ_section_title
;
Structure prediction by ZEFSAII (Michael W. Deem and Ramdas Pophale) SiO2 
 PCOD9077221
Probable space group: P -1
;
_chemical_formula_sum "Si O2"
_cell_formula_units_Z 16
_cell_length_a 11.871525
_cell_length_b 8.150529
_cell_length_c 12.355360
_cell_angle_alpha 95.938905
_cell_angle_beta 39.303800
_cell_angle_gamma 93.603263
_cell_volume 752.919277
_symmetry_space_group_name_H-M "P -1"
_symmetry_group_IT_number 2
_symmetry_cell_setting 'triclinic'
loop_
_space_group_symop_operation_xyz
x,y,z
-x,-y,-z
loop_
_atom_site_type_symbol
_atom_site_label
_atom_site_fract_x
_atom_site_fract_y
_atom_site_fract_z
Si Si1 0.991652 0.683028 0.633155
Si Si2 0.069390 0.684328 0.058167
Si Si3 0.268094 0.830840 0.725249
Si Si4 0.776297 0.499823 0.367959
Si Si5 0.722081 0.419316 0.752174
Si Si6 0.590244 0.379821 0.081572
Si Si7 0.079721 0.016740 0.683382
Si Si8 0.591657 0.821385 0.629649
O O1 0.087161 0.567493 0.645767
O O2 0.129443 0.683041 0.430699
O O3 0.971798 0.864932 0.708293
O O4 0.815521 0.592695 0.722208
O O5 0.895419 0.575886 0.188498
O O6 0.116764 0.775956 0.918792
O O7 0.244800 0.584248 0.960431
O O8 0.036114 0.825508 0.183618
O O9 0.321728 0.660831 0.611516
O O10 0.185523 0.955397 0.708156
O O11 0.434831 0.892393 0.673707
O O12 0.657059 0.646370 0.516571
O O13 0.550308 0.467597 0.812045
O O14 0.659309 0.347252 0.907111
O O15 0.493854 0.225890 0.196453
O O16 0.235077 0.069812 0.490019
#
# Coordination Sequence:
#
# PCOD9077221 Si02
#       8
#     2   2   2   2   2   2   2   2
#     4  10  20  37  61  83 108 146 193 224 283 325
#     4  10  20  36  56  83 116 147 183 229 276 327
#     4  10  20  34  57  82 115 148 190 220 276 325
#     4  10  18  34  57  84 111 146 193 226 269 327
#     4  10  20  38  62  84 108 142 188 242 280 316
#     4  10  20  36  59  82 111 143 182 236 280 320
#     4  10  22  37  57  80 119 152 180 220 281 344
#     4  10  20  36  56  83 116 147 183 229 276 327
#
# _framework density 21.250619
#
# number of rings (size 3 to 8) (size 9 to 14) (size 15 to 20)
#    0.000    2.000    2.500    1.500    0.000    0.000 
#    0.000    8.750    5.500    0.000    0.000    0.000 
#    0.000    0.000    0.000    0.000    0.000    0.000 
#
# Total GULP energy -89358.695950 kJ/mol
# GULP energy per Si atom -5584.918497 kJ/mol
# Density = 2.120225 g / cm^3
# Si number density = 21.250619 Si / 1000 Ang^3
#
#
#
# Elastic Constant Matrix: (Units=GPa)
#
#
# Indices 1 2 3 4 5 6 
#
# 1 42.6401 17.2901 6.9452 -1.7470 -4.9561 -6.4092
# 2 17.2901 35.9301 4.0352 6.1534 -12.5982 7.3284
# 3 6.9452 4.0352 96.9968 -22.9357 7.5237 -6.0331
# 4 -1.7470 6.1534 -22.9357 19.0736 -8.4901 8.1299
# 5 -4.9561 -12.5982 7.5237 -8.4901 19.7628 -1.4702
# 6 -6.4092 7.3284 -6.0331 8.1299 -1.4702 20.7214
#
#
#
# Elastic Compliance Matrix: (Units=1/GPa)
#
#
# Indices 1 2 3 4 5 6 
#
# 1 0.034497 -0.021558 0.000068 0.001238 -0.003276 0.017596
# 2 -0.021558 0.053955 -0.004997 -0.002635 0.027959 -0.024187
# 3 0.000068 -0.004997 0.015318 0.020751 -0.000228 -0.001909
# 4 0.001238 -0.002635 0.020751 0.107502 0.034505 -0.032373
# 5 -0.003276 0.027959 -0.000228 0.034505 0.081117 -0.018751
# 6 0.017596 -0.024187 -0.001909 -0.032373 -0.018751 0.073071
#
#
# Mechanical properties :
#
#
# Convention : Reuss Voigt Hill
#
# Bulk Modulus (GPa) = 19.68657 25.78978 22.73817
# Shear Modulus (GPa) = 11.48455 21.73133 16.60794
#
# Velocity S-wave (km/s) = 2.32725 3.20131 2.79861
# Velocity P-wave (km/s) = 4.06270 5.08202 4.60068
#
# Compressibility (1/GPa) = 0.05079605
#
# Stress axis : x y z
#
# Youngs Moduli (GPa) = 28.98775 18.53397 65.28169
#
# Poissons Ratio (x) = 0.39956 -0.00444
# Poissons Ratio (y) = 0.62492 0.32623
# Poissons Ratio (z) = -0.00197 0.09262
#
# Static dielectric constant tensor:
#      x y z
#    x 1.772770 -0.007400 0.004410 
#    y -0.007400 1.728930 -0.011890 
#    z 0.004410 -0.011890 1.793850 
# 
# From -- ./inp_files/195748.got.cif
#   From: 2010.05.17/outbox.cif.g08.bks.cpg/sg2_98_cif.got.tgz:195748.got - 2010.06.03 11:33:40.
