data_PCOD9077721
_publ_section_title
;
Structure prediction by ZEFSAII (Michael W. Deem and Ramdas Pophale) SiO2 
 PCOD9077721
Probable space group: P -1
;
_chemical_formula_sum "Si O2"
_cell_formula_units_Z 14
_cell_length_a 12.593352
_cell_length_b 10.837346
_cell_length_c 11.598147
_cell_angle_alpha 69.772148
_cell_angle_beta 38.387920
_cell_angle_gamma 42.102512
_cell_volume 543.142893
_symmetry_space_group_name_H-M "P -1"
_symmetry_group_IT_number 2
_symmetry_cell_setting 'triclinic'
loop_
_space_group_symop_operation_xyz
x,y,z
-x,-y,-z
loop_
_atom_site_type_symbol
_atom_site_label
_atom_site_fract_x
_atom_site_fract_y
_atom_site_fract_z
Si Si1 0.314368 0.742384 0.310776
Si Si2 0.328286 0.504179 0.220048
Si Si3 0.640657 0.138173 0.258406
Si Si4 0.327679 0.240945 0.102296
Si Si5 0.775829 0.309913 0.197538
Si Si6 0.298203 0.169299 0.402578
Si Si7 0.108123 0.311528 0.041814
O O1 0.234147 0.648440 0.363272
O O2 0.533351 0.566571 0.283995
O O3 0.494075 0.737739 0.083732
O O4 0.000000 0.000000 0.500000
O O5 0.558452 0.264370 0.165840
O O6 0.025837 0.676814 0.353718
O O7 0.500000 0.500000 0.000000
O O8 0.644943 0.242775 0.323761
O O9 0.409919 0.166035 0.426190
O O10 0.959694 0.875076 0.059634
O O11 0.252014 0.284820 0.286514
O O12 0.078397 0.378694 0.176334
O O13 0.500000 0.000000 0.000000
O O14 0.942433 0.275973 0.172696
O O15 0.560669 0.915322 0.214520
O O16 0.000000 0.500000 0.000000
#
# Coordination Sequence:
#
# PCOD9077721 Si02
#       7
#     2   2   2   2   2   2   2
#     4  11  21  36  62  93 134 170 223 272 329 392
#     4  11  23  39  66  94 126 172 223 277 330 400
#     4   9  19  38  63  89 130 169 216 266 329 385
#     4  10  20  35  60  94 130 169 213 266 333 386
#     4   9  19  35  62  91 131 178 208 270 322 388
#     4  10  21  38  65  94 128 169 223 274 329 391
#     4  10  18  34  63  92 136 169 212 269 324 393
#
# _framework density 25.775905999999999
#
# number of rings (size 3 to 8) (size 9 to 14) (size 15 to 20)
#    0.000    2.000    1.429    3.000    0.000    0.000 
#    0.000    0.000   18.857   27.429    0.000    0.000 
#    0.000    0.000    0.000    0.000    0.000    0.000 
#
# Total GULP energy -77978.362488 kJ/mol
# GULP energy per Si atom -5569.883035 kJ/mol
# Density = 2.571724 g / cm^3
# Si number density = 25.775906 Si / 1000 Ang^3
#
#
#
# Elastic Constant Matrix: (Units=GPa)
#
#
# Indices 1 2 3 4 5 6 
#
# 1 112.5957 26.8235 37.3617 10.2689 -35.9785 12.4341
# 2 26.8235 81.3346 29.8023 27.7741 6.3291 -6.8882
# 3 37.3617 29.8023 131.1715 22.3799 -30.4082 -0.8537
# 4 10.2689 27.7741 22.3799 41.1931 1.0561 -2.5125
# 5 -35.9785 6.3291 -30.4082 1.0561 45.1018 0.0009
# 6 12.4341 -6.8882 -0.8537 -2.5125 0.0009 28.5927
#
#
#
# Elastic Compliance Matrix: (Units=1/GPa)
#
#
# Indices 1 2 3 4 5 6 
#
# 1 0.015866 -0.007064 0.000276 -0.000222 0.013840 -0.008613
# 2 -0.007064 0.020571 -0.003454 -0.009528 -0.010627 0.007088
# 3 0.000276 -0.003454 0.010876 -0.003917 0.008129 -0.000972
# 4 -0.000222 -0.009528 -0.003917 0.032977 -0.002253 0.000582
# 5 0.013840 -0.010627 0.008129 -0.002253 0.040237 -0.008535
# 6 -0.008613 0.007088 -0.000972 0.000582 -0.008535 0.040450
#
#
# Mechanical properties :
#
#
# Convention : Reuss Voigt Hill
#
# Bulk Modulus (GPa) = 37.27203 57.00852 47.14028
# Shear Modulus (GPa) = 26.26001 38.38515 32.32258
#
# Velocity S-wave (km/s) = 3.19530 3.86319 3.54501
# Velocity P-wave (km/s) = 5.30138 6.48567 5.92320
#
# Compressibility (1/GPa) = 0.02682977
#
# Stress axis : x y z
#
# Youngs Moduli (GPa) = 63.02620 48.61274 91.94430
#
# Poissons Ratio (x) = 0.34341 -0.02537
# Poissons Ratio (y) = 0.44523 0.31753
# Poissons Ratio (z) = -0.01739 0.16789
#
# Static dielectric constant tensor:
#      x y z
#    x 43.286800 25.024900 -5.011300 
#    y 25.024900 18.224780 -3.495920 
#    z -5.011300 -3.495920 2.990080 
# 
# From -- ./inp_files/532440.got.cif
#   From: 2010.05.17/outbox.cif.g08.bks.cpg/sg2_267_cif.got.tgz:532440.got - 2010.06.03 11:33:40.
