data_PCOD9077870
_publ_section_title
;
Structure prediction by ZEFSAII (Michael W. Deem and Ramdas Pophale) SiO2 
 PCOD9077870
Probable space group: P -1
;
_chemical_formula_sum "Si O2"
_cell_formula_units_Z 16
_cell_length_a 24.451068
_cell_length_b 9.996806
_cell_length_c 9.159642
_cell_angle_alpha 41.687767
_cell_angle_beta 140.210527
_cell_angle_gamma 152.527955
_cell_volume 644.756229
_symmetry_space_group_name_H-M "P -1"
_symmetry_group_IT_number 2
_symmetry_cell_setting 'triclinic'
loop_
_space_group_symop_operation_xyz
x,y,z
-x,-y,-z
loop_
_atom_site_type_symbol
_atom_site_label
_atom_site_fract_x
_atom_site_fract_y
_atom_site_fract_z
Si Si1 0.455888 0.591509 0.950462
Si Si2 0.062147 0.269112 0.545195
Si Si3 0.735331 0.055851 0.470413
Si Si4 0.842734 0.825204 0.936063
Si Si5 0.660977 0.298324 0.802254
Si Si6 0.102244 0.835173 0.495210
Si Si7 0.249644 0.549688 0.456941
Si Si8 0.562955 0.792414 0.565781
O O1 0.433744 0.423020 0.186247
O O2 0.500000 0.500000 0.000000
O O3 0.332068 0.501464 0.719833
O O4 0.564695 0.947522 0.897528
O O5 0.931267 0.148760 0.425227
O O6 0.114463 0.318735 0.450056
O O7 0.165780 0.609392 0.541599
O O8 0.083099 0.116039 0.818984
O O9 0.772158 0.913105 0.746884
O O10 0.599335 0.872122 0.404647
O O11 0.765971 0.043321 0.376684
O O12 0.745050 0.482748 0.966116
O O13 0.911410 0.006300 0.777735
O O14 0.747569 0.439543 0.720861
O O15 0.571323 0.338617 0.572232
O O16 0.000000 0.500000 0.500000
O O17 0.332560 0.887518 0.400055
#
# Coordination Sequence:
#
# PCOD9077870 Si02
#       8
#     2   2   2   2   2   2   2   2
#     4  11  18  34  55  73 105 155 188 203 254 322
#     4  10  18  36  60  79 103 143 181 225 256 324
#     4   8  19  33  54  82 103 135 184 217 263 313
#     4  10  21  35  54  82 114 132 179 222 277 310
#     4  11  22  34  51  84 115 142 171 226 267 312
#     4   8  17  37  58  79 100 142 179 218 268 324
#     4  10  20  34  55  82 105 142 192 210 257 324
#     4  10  18  35  55  75 111 146 182 217 250 319
#
# _framework density 24.815579
#
# number of rings (size 3 to 8) (size 9 to 14) (size 15 to 20)
#    0.750    1.500    2.500    1.875    0.000    1.500 
#    0.000    9.375    0.000    0.000    0.000    5.250 
#    0.000    0.000    0.000    0.000    0.000    0.000 
#
# Total GULP energy -89350.769636 kJ/mol
# GULP energy per Si atom -5584.423102 kJ/mol
# Density = 2.475910 g / cm^3
# Si number density = 24.815579 Si / 1000 Ang^3
#
#
#
# Elastic Constant Matrix: (Units=GPa)
#
#
# Indices 1 2 3 4 5 6 
#
# 1 130.2862 8.4095 27.6642 -5.4003 -26.1655 17.3141
# 2 8.4095 86.8965 41.6696 -8.5242 -1.0919 -7.9102
# 3 27.6642 41.6696 57.9491 -9.8953 3.3343 -11.9089
# 4 -5.4003 -8.5242 -9.8953 32.0277 -6.7613 -6.1449
# 5 -26.1655 -1.0919 3.3343 -6.7613 33.1486 -16.5019
# 6 17.3141 -7.9102 -11.9089 -6.1449 -16.5019 30.0581
#
#
#
# Elastic Compliance Matrix: (Units=1/GPa)
#
#
# Indices 1 2 3 4 5 6 
#
# 1 0.011691 0.002909 -0.009084 0.000589 0.007782 -0.005175
# 2 0.002909 0.018514 -0.014471 0.002187 0.005184 0.000756
# 3 -0.009084 -0.014471 0.037299 0.009422 -0.000623 0.017786
# 4 0.000589 0.002187 0.009422 0.043809 0.020585 0.024226
# 5 0.007782 0.005184 -0.000623 0.020585 0.056642 0.031939
# 6 -0.005175 0.000756 0.017786 0.024226 0.031939 0.065983
#
#
# Mechanical properties :
#
#
# Convention : Reuss Voigt Hill
#
# Bulk Modulus (GPa) = 38.15051 47.84649 42.99850
# Shear Modulus (GPa) = 17.60761 32.20612 24.90687
#
# Velocity S-wave (km/s) = 2.66661 3.60643 3.17153
# Velocity P-wave (km/s) = 4.98879 6.05512 5.54764
#
# Compressibility (1/GPa) = 0.02621197
#
# Stress axis : x y z
#
# Youngs Moduli (GPa) = 85.53230 54.01207 26.81051
#
# Poissons Ratio (x) = -0.15712 0.24355
# Poissons Ratio (y) = -0.24881 0.38799
# Poissons Ratio (z) = 0.77697 0.78163
#
# Static dielectric constant tensor:
#      x y z
#    x 2.071460 0.009410 -0.018860 
#    y 0.009410 2.000060 -0.019520 
#    z -0.018860 -0.019520 1.937700 
# 
# From -- ./inp_files/343330.got.cif
#   From: 2010.05.17/outbox.cif.g08.bks.cpg/sg2_172_cif.got.tgz:343330.got - 2010.06.03 11:33:40.
