data_PCOD9077433
_publ_section_title
;
Structure prediction by ZEFSAII (Michael W. Deem and Ramdas Pophale) SiO2 
 PCOD9077433
Probable space group: P -1
;
_chemical_formula_sum "Si O2"
_cell_formula_units_Z 16
_cell_length_a 6.970564
_cell_length_b 9.139514
_cell_length_c 10.139504
_cell_angle_alpha 69.668329
_cell_angle_beta 100.700435
_cell_angle_gamma 102.054203
_cell_volume 587.838322
_symmetry_space_group_name_H-M "P -1"
_symmetry_group_IT_number 2
_symmetry_cell_setting 'triclinic'
loop_
_space_group_symop_operation_xyz
x,y,z
-x,-y,-z
loop_
_atom_site_type_symbol
_atom_site_label
_atom_site_fract_x
_atom_site_fract_y
_atom_site_fract_z
Si Si1 0.688418 0.632526 0.942071
Si Si2 0.296301 0.262009 0.817006
Si Si3 0.810613 0.964492 0.782948
Si Si4 0.730547 0.401686 0.823660
Si Si5 0.248859 0.142103 0.580957
Si Si6 0.643788 0.368891 0.540319
Si Si7 0.775709 0.085834 0.027691
Si Si8 0.847053 0.171958 0.455175
O O1 0.798187 0.683046 0.079582
O O2 0.500000 0.500000 0.000000
O O3 0.654681 0.802158 0.825946
O O4 0.804779 0.557775 0.865971
O O5 0.492387 0.384160 0.781995
O O6 0.184678 0.229481 0.677374
O O7 0.350764 0.084623 0.900281
O O8 0.786858 0.070218 0.874807
O O9 0.811435 0.059144 0.617984
O O10 0.024022 0.919204 0.863347
O O11 0.786733 0.390838 0.680703
O O12 0.736728 0.262297 0.974229
O O13 0.474495 0.214509 0.568340
O O14 0.081500 0.191841 0.448818
O O15 0.243225 0.953312 0.628812
O O16 0.500000 0.500000 0.500000
O O17 0.765788 0.331471 0.436787
#
# Coordination Sequence:
#
# PCOD9077433 Si02
#       8
#     2   2   2   2   2   2   2   2
#     4   9  20  36  56  86 128 161 202 254 321 382
#     4   9  18  37  58  92 125 159 206 262 311 386
#     4  10  20  34  62  88 121 165 208 264 317 376
#     4  10  20  36  58  89 124 166 204 256 322 383
#     4  10  23  42  69  94 128 169 223 266 322 376
#     4  11  25  43  65  95 130 172 217 266 326 389
#     4  10  18  34  59  90 117 158 206 257 325 371
#     4  11  22  44  68  94 130 168 222 275 312 379
#
# _framework density 27.218368000000002
#
# number of rings (size 3 to 8) (size 9 to 14) (size 15 to 20)
#    0.000    2.000    2.500    0.750    1.750    1.000 
#    0.000    2.500    0.000    0.000    0.000    0.000 
#    0.000    0.000    0.000    0.000    0.000    0.000 
#
# Total GULP energy -89126.691538 kJ/mol
# GULP energy per Si atom -5570.418221 kJ/mol
# Density = 2.715642 g / cm^3
# Si number density = 27.218368 Si / 1000 Ang^3
#
#
#
# Elastic Constant Matrix: (Units=GPa)
#
#
# Indices 1 2 3 4 5 6 
#
# 1 72.7180 28.9899 10.6030 9.9931 -3.4265 -17.5320
# 2 28.9899 135.7996 20.0394 27.7170 8.4309 -20.7043
# 3 10.6030 20.0394 49.6623 -2.7601 -10.3594 0.9762
# 4 9.9931 27.7170 -2.7601 47.6158 -6.4397 -4.5234
# 5 -3.4265 8.4309 -10.3594 -6.4397 28.3217 -6.4398
# 6 -17.5320 -20.7043 0.9762 -4.5234 -6.4398 45.3264
#
#
#
# Elastic Compliance Matrix: (Units=1/GPa)
#
#
# Indices 1 2 3 4 5 6 
#
# 1 0.016686 -0.002247 -0.002251 -0.001393 0.002854 0.005743
# 2 -0.002247 0.010888 -0.005714 -0.006837 -0.006564 0.002612
# 3 -0.002251 -0.005714 0.025844 0.006769 0.012045 -0.001650
# 4 -0.001393 -0.006837 0.006769 0.027139 0.010606 0.000408
# 5 0.002854 -0.006564 0.012045 0.010606 0.045651 0.005390
# 6 0.005743 0.002612 -0.001650 0.000408 0.005390 0.026319
#
#
# Mechanical properties :
#
#
# Convention : Reuss Voigt Hill
#
# Bulk Modulus (GPa) = 30.30919 41.93829 36.12374
# Shear Modulus (GPa) = 27.18148 37.48928 32.33538
#
# Velocity S-wave (km/s) = 3.16356 3.71530 3.45047
# Velocity P-wave (km/s) = 4.95014 5.81774 5.40139
#
# Compressibility (1/GPa) = 0.03299330
#
# Stress axis : x y z
#
# Youngs Moduli (GPa) = 59.92967 91.84439 38.69440
#
# Poissons Ratio (x) = 0.20640 0.08709
# Poissons Ratio (y) = 0.13468 0.22111
# Poissons Ratio (z) = 0.13489 0.52481
#
# Static dielectric constant tensor:
#      x y z
#    x 2.167340 -0.010360 -0.028570 
#    y -0.010360 2.166740 -0.011930 
#    z -0.028570 -0.011930 2.245580 
# 
# From -- ./inp_files/378404.got.cif
#   From: 2010.05.17/outbox.cif.g08.bks.cpg/sg2_190_cif.got.tgz:378404.got - 2010.06.03 11:33:40.
