data_PCOD9077955
_publ_section_title
;
Structure prediction by ZEFSAII (Michael W. Deem and Ramdas Pophale) SiO2 
 PCOD9077955
Probable space group: P -1
;
_chemical_formula_sum "Si O2"
_cell_formula_units_Z 16
_cell_length_a 12.544928
_cell_length_b 11.538770
_cell_length_c 13.443553
_cell_angle_alpha 142.954363
_cell_angle_beta 32.087898
_cell_angle_gamma 135.049711
_cell_volume 619.761054
_symmetry_space_group_name_H-M "P -1"
_symmetry_group_IT_number 2
_symmetry_cell_setting 'triclinic'
loop_
_space_group_symop_operation_xyz
x,y,z
-x,-y,-z
loop_
_atom_site_type_symbol
_atom_site_label
_atom_site_fract_x
_atom_site_fract_y
_atom_site_fract_z
Si Si1 0.327345 0.144989 0.755411
Si Si2 0.087889 0.087652 0.720579
Si Si3 0.120786 0.464615 0.669414
Si Si4 0.411742 0.511988 0.322244
Si Si5 0.237540 0.782508 0.263970
Si Si6 0.633407 0.669885 0.950016
Si Si7 0.733869 0.968649 0.780392
Si Si8 0.317928 0.470292 0.705625
O O1 0.129523 0.108090 0.818023
O O2 0.448377 0.334939 0.744220
O O3 0.276486 0.185978 0.938284
O O4 0.500000 0.000000 0.500000
O O5 0.230905 0.256686 0.665536
O O6 0.864581 0.060876 0.832542
O O7 0.172508 0.887723 0.485465
O O8 0.263833 0.600306 0.578522
O O9 0.138660 0.524491 0.811272
O O10 0.894211 0.420961 0.783350
O O11 0.210084 0.252846 0.433183
O O12 0.580992 0.429532 0.207053
O O13 0.262219 0.412749 0.286215
O O14 0.471010 0.771200 0.082781
O O15 0.195432 0.913084 0.292860
O O16 0.500000 0.500000 0.000000
O O17 0.500000 0.000000 0.000000
O O18 0.500000 0.500000 0.500000
#
# Coordination Sequence:
#
# PCOD9077955 Si02
#       8
#     2   2   2   2   2   2   2   2
#     4  10  19  36  65  86 115 164 207 249 291 358
#     4  10  18  35  59  93 116 155 210 239 296 370
#     4  10  18  35  56  89 120 154 201 244 297 377
#     4   9  20  34  58  86 119 155 195 250 305 346
#     4  11  19  34  63  84 116 158 202 247 303 361
#     4  10  21  38  57  84 118 157 200 247 304 348
#     4  11  21  33  59  91 129 155 190 255 314 360
#     4   9  16  31  58  82 122 154 189 242 296 368
#
# _framework density 25.816400999999999
#
# number of rings (size 3 to 8) (size 9 to 14) (size 15 to 20)
#    0.000    2.000    3.750    1.500    0.000    0.000 
#    0.000    3.125   24.750    8.250    0.000    0.000 
#    0.000    0.000    0.000    0.000    0.000    0.000 
#
# Total GULP energy -89199.220558 kJ/mol
# GULP energy per Si atom -5574.951285 kJ/mol
# Density = 2.575764 g / cm^3
# Si number density = 25.816401 Si / 1000 Ang^3
#
#
#
# Elastic Constant Matrix: (Units=GPa)
#
#
# Indices 1 2 3 4 5 6 
#
# 1 213.1959 23.8926 32.6663 -1.6573 52.8809 11.4505
# 2 23.8926 51.8381 20.1377 -2.5244 -1.5194 12.9856
# 3 32.6663 20.1377 68.3767 -0.9538 18.1858 1.7692
# 4 -1.6573 -2.5244 -0.9538 29.4786 2.3378 -0.1813
# 5 52.8809 -1.5194 18.1858 2.3378 55.0529 -4.7829
# 6 11.4505 12.9856 1.7692 -0.1813 -4.7829 33.4119
#
#
#
# Elastic Compliance Matrix: (Units=1/GPa)
#
#
# Indices 1 2 3 4 5 6 
#
# 1 0.006853 -0.002469 -0.000711 0.000664 -0.006643 -0.002299
# 2 -0.002469 0.025499 -0.007370 0.001380 0.004757 -0.007985
# 3 -0.000711 -0.007370 0.018585 0.000379 -0.005560 0.001330
# 4 0.000664 0.001380 0.000379 0.034264 -0.002260 -0.000921
# 5 -0.006643 0.004757 -0.005560 -0.002260 0.027007 0.004576
# 6 -0.002299 -0.007985 0.001330 -0.000921 0.004576 0.034400
#
#
# Mechanical properties :
#
#
# Convention : Reuss Voigt Hill
#
# Bulk Modulus (GPa) = 33.51536 54.08932 43.80234
# Shear Modulus (GPa) = 28.14494 40.70295 34.42395
#
# Velocity S-wave (km/s) = 3.30539 3.97499 3.65556
# Velocity P-wave (km/s) = 5.25147 6.48571 5.90094
#
# Compressibility (1/GPa) = 0.02983706
#
# Stress axis : x y z
#
# Youngs Moduli (GPa) = 145.93076 39.21795 53.80781
#
# Poissons Ratio (x) = 0.09682 0.03826
# Poissons Ratio (y) = 0.36027 0.39654
# Poissons Ratio (z) = 0.10376 0.28902
#
# Static dielectric constant tensor:
#      x y z
#    x 2.079420 0.206230 0.000540 
#    y 0.206230 0.538580 -0.012170 
#    z 0.000540 -0.012170 2.241160 
# 
# From -- ./inp_files/406702.got.cif
#   From: 2010.05.17/outbox.cif.g08.bks.cpg/sg2_204_cif.got.tgz:406702.got - 2010.06.03 11:33:40.
