data_PCOD9077121
_publ_section_title
;
Structure prediction by ZEFSAII (Michael W. Deem and Ramdas Pophale) SiO2 
 PCOD9077121
Probable space group: P -1
;
_chemical_formula_sum "Si O2"
_cell_formula_units_Z 16
_cell_length_a 13.059806
_cell_length_b 7.072901
_cell_length_c 9.610635
_cell_angle_alpha 116.483164
_cell_angle_beta 111.248499
_cell_angle_gamma 104.802236
_cell_volume 641.357160
_symmetry_space_group_name_H-M "P -1"
_symmetry_group_IT_number 2
_symmetry_cell_setting 'triclinic'
loop_
_space_group_symop_operation_xyz
x,y,z
-x,-y,-z
loop_
_atom_site_type_symbol
_atom_site_label
_atom_site_fract_x
_atom_site_fract_y
_atom_site_fract_z
Si Si1 0.816940 0.832459 0.817912
Si Si2 0.210990 0.767072 0.743220
Si Si3 0.606366 0.363535 0.908445
Si Si4 0.328111 0.978836 0.580747
Si Si5 0.992869 0.663371 0.805634
Si Si6 0.334634 0.458843 0.694616
Si Si7 0.199883 0.585301 0.171132
Si Si8 0.595985 0.756138 0.828949
O O1 0.828368 0.692662 0.915379
O O2 0.673286 0.773065 0.732661
O O3 0.885269 0.727018 0.720500
O O4 0.907250 0.115797 0.975246
O O5 0.077700 0.677134 0.723442
O O6 0.229872 0.536271 0.670873
O O7 0.235009 0.870178 0.631965
O O8 0.322357 0.989929 0.963302
O O9 0.473546 0.115654 0.748420
O O10 0.730484 0.343931 0.920076
O O11 0.596427 0.544235 0.852950
O O12 0.616671 0.475520 0.100836
O O13 0.302485 0.183818 0.565260
O O14 0.307370 0.775826 0.391265
O O15 0.921730 0.441713 0.809186
O O16 0.446755 0.652630 0.713502
#
# Coordination Sequence:
#
# PCOD9077121 Si02
#       8
#     2   2   2   2   2   2   2   2
#     4   7  14  29  55  78 101 138 184 224 257 316
#     4  11  20  33  56  83 111 140 189 220 272 325
#     4  10  18  34  56  82 106 143 188 223 269 323
#     4  11  21  34  56  82 111 148 176 225 281 322
#     4   8  16  32  55  83 103 143 189 224 256 330
#     4  11  21  33  55  86 110 144 181 229 268 322
#     4   9  18  33  57  77 111 147 180 221 277 324
#     4   9  15  31  55  79 103 136 182 229 260 310
#
# _framework density 24.947098
#
# number of rings (size 3 to 8) (size 9 to 14) (size 15 to 20)
#    0.750    1.750    2.500    1.500    0.000    0.500 
#    0.000    1.250    8.250    4.500    0.000    0.000 
#    0.000    0.000    0.000    0.000    0.000    0.000 
#
# Total GULP energy -89114.528689 kJ/mol
# GULP energy per Si atom -5569.658043 kJ/mol
# Density = 2.489032 g / cm^3
# Si number density = 24.947098 Si / 1000 Ang^3
#
#
#
# Elastic Constant Matrix: (Units=GPa)
#
#
# Indices 1 2 3 4 5 6 
#
# 1 151.7379 30.4205 6.7659 -7.6907 -51.0850 50.4101
# 2 30.4205 92.1114 18.4063 2.7359 -10.6212 7.8507
# 3 6.7659 18.4063 85.5429 -6.9110 -9.1239 13.4716
# 4 -7.6907 2.7359 -6.9110 16.9263 8.6129 -11.4072
# 5 -51.0850 -10.6212 -9.1239 8.6129 9.6514 -0.4536
# 6 50.4101 7.8507 13.4716 -11.4072 -0.4536 40.0740
#
#
#
# Elastic Compliance Matrix: (Units=1/GPa)
#
#
# Indices 1 2 3 4 5 6 
#
# 1 -0.000783 -0.002693 -0.001295 0.013601 -0.020207 0.005591
# 2 -0.002693 0.012419 -0.002868 -0.004084 0.000382 0.000761
# 3 -0.001295 -0.002868 0.012477 0.007550 -0.004951 0.000090
# 4 0.013601 -0.004084 0.007550 0.052591 0.027531 -0.003565
# 5 -0.020207 0.000382 -0.004951 0.027531 -0.030550 0.034499
# 6 0.005591 0.000761 0.000090 -0.003565 0.034499 0.017118
#
#
# Mechanical properties :
#
#
# Convention : Reuss Voigt Hill
#
# Bulk Modulus (GPa) = 96.15111 48.95305 72.55208
# Shear Modulus (GPa) = 62.14806 31.58365 46.86585
#
# Velocity S-wave (km/s) = 4.99660 3.56198 4.33899
# Velocity P-wave (km/s) = 8.48019 6.04833 7.36532
#
# Compressibility (1/GPa) = 0.01040030
#
# Stress axis : x y z
#
# Youngs Moduli (GPa) = -1277.21967 80.51855 80.14534
#
# Poissons Ratio (x) = 0.21684 0.10383
# Poissons Ratio (y) = -3.43957 0.22988
# Poissons Ratio (z) = -1.65464 0.23095
#
# Static dielectric constant tensor:
#      x y z
#    x 2.133710 -0.045300 0.031800 
#    y -0.045300 2.012050 -0.042050 
#    z 0.031800 -0.042050 1.957330 
# 
# From -- ./inp_files/443594.got.cif
#   From: 2010.05.17/outbox.cif.g08.bks.cpg/sg2_222_cif.got.tgz:443594.got - 2010.06.03 11:33:40.
