data_PCOD9077679
_publ_section_title
;
Structure prediction by ZEFSAII (Michael W. Deem and Ramdas Pophale) SiO2 
 PCOD9077679
Probable space group: P -1
;
_chemical_formula_sum "Si O2"
_cell_formula_units_Z 14
_cell_length_a 8.174296
_cell_length_b 16.332982
_cell_length_c 15.722056
_cell_angle_alpha 25.673703
_cell_angle_beta 55.436094
_cell_angle_gamma 73.193223
_cell_volume 585.966352
_symmetry_space_group_name_H-M "P -1"
_symmetry_group_IT_number 2
_symmetry_cell_setting 'triclinic'
loop_
_space_group_symop_operation_xyz
x,y,z
-x,-y,-z
loop_
_atom_site_type_symbol
_atom_site_label
_atom_site_fract_x
_atom_site_fract_y
_atom_site_fract_z
Si Si1 0.600986 0.479773 0.769659
Si Si2 0.891497 0.116503 0.370667
Si Si3 0.088024 0.029291 0.254211
Si Si4 0.198957 0.287207 0.677400
Si Si5 0.853012 0.485131 0.852824
Si Si6 0.644959 0.334207 0.244305
Si Si7 0.786926 0.602238 0.247907
O O1 0.790711 0.602553 0.519433
O O2 0.675837 0.401635 0.901508
O O3 0.572213 0.673892 0.637239
O O4 0.343272 0.242239 0.029111
O O5 0.664025 0.122916 0.457593
O O6 0.862350 0.011486 0.384174
O O7 0.000000 0.000000 0.500000
O O8 0.115859 0.404026 0.034826
O O9 0.144431 0.141723 0.038835
O O10 0.025038 0.775869 0.525466
O O11 0.490760 0.391446 0.511581
O O12 0.150815 0.385860 0.682648
O O13 0.000000 0.000000 0.000000
O O14 0.042814 0.426629 0.835158
O O15 0.695224 0.385265 0.080232
#
# Coordination Sequence:
#
# PCOD9077679 Si02
#       7
#     2   2   2   2   2   2   2
#     4  10  24  40  63  98 134 169 221 267 318 391
#     4  10  18  34  62  91 126 174 210 253 316 385
#     4  10  21  40  62  94 130 169 215 260 324 381
#     4  10  22  45  68  90 129 172 220 278 323 375
#     4  12  22  40  68  97 134 173 209 265 325 394
#     4  10  21  37  61  95 138 168 208 267 321 384
#     4  10  23  42  68  96 125 171 221 270 324 382
#
# _framework density 23.892156
#
# number of rings (size 3 to 8) (size 9 to 14) (size 15 to 20)
#    0.000    1.714    2.857    1.286    2.000    1.714 
#    0.000   15.000    0.000    0.000    0.000    0.000 
#    0.000    0.000    0.000    0.000    0.000    0.000 
#
# Total GULP energy -78179.459369 kJ/mol
# GULP energy per Si atom -5584.247098 kJ/mol
# Density = 2.383778 g / cm^3
# Si number density = 23.892156 Si / 1000 Ang^3
#
#
#
# Elastic Constant Matrix: (Units=GPa)
#
#
# Indices 1 2 3 4 5 6 
#
# 1 73.9041 39.2377 42.0873 0.4874 21.1794 6.2571
# 2 39.2377 104.7083 49.2739 7.7074 20.3422 20.2466
# 3 42.0873 49.2739 136.3582 -7.4491 13.2974 6.3073
# 4 0.4874 7.7074 -7.4491 38.2364 4.4290 10.5174
# 5 21.1794 20.3422 13.2974 4.4290 41.8526 -3.2352
# 6 6.2571 20.2466 6.3073 10.5174 -3.2352 42.1125
#
#
#
# Elastic Compliance Matrix: (Units=1/GPa)
#
#
# Indices 1 2 3 4 5 6 
#
# 1 0.020086 -0.004154 -0.003898 0.000972 -0.007102 -0.001192
# 2 -0.004154 0.014835 -0.003463 -0.001473 -0.004313 -0.005960
# 3 -0.003898 -0.003463 0.009901 0.002614 0.000243 0.000127
# 4 0.000972 -0.001473 0.002614 0.029518 -0.004312 -0.007531
# 5 -0.007102 -0.004313 0.000243 -0.004312 0.030466 0.006510
# 6 -0.001192 -0.005960 0.000127 -0.007531 0.006510 0.029150
#
#
# Mechanical properties :
#
#
# Convention : Reuss Voigt Hill
#
# Bulk Modulus (GPa) = 45.88551 64.01871 54.95211
# Shear Modulus (GPa) = 30.44129 36.73175 33.58652
#
# Velocity S-wave (km/s) = 3.57334 3.92522 3.75341
# Velocity P-wave (km/s) = 6.02262 6.88449 6.46793
#
# Compressibility (1/GPa) = 0.02179337
#
# Stress axis : x y z
#
# Youngs Moduli (GPa) = 49.78583 67.40644 100.99794
#
# Poissons Ratio (x) = 0.28001 0.39366
# Poissons Ratio (y) = 0.20681 0.34974
# Poissons Ratio (z) = 0.19405 0.23342
#
# Static dielectric constant tensor:
#      x y z
#    x 2.036790 0.007270 -0.045580 
#    y 0.007270 1.930740 0.054270 
#    z -0.045580 0.054270 1.947330 
# 
# From -- ./inp_files/504898.got.cif
#   From: 2010.05.17/outbox.cif.g08.bks.cpg/sg2_253_cif.got.tgz:504898.got - 2010.06.03 11:33:40.
