data_PCOD9077492
_publ_section_title
;
Structure prediction by ZEFSAII (Michael W. Deem and Ramdas Pophale) SiO2 
 PCOD9077492
Probable space group: P -1
;
_chemical_formula_sum "Si O2"
_cell_formula_units_Z 16
_cell_length_a 10.464624
_cell_length_b 9.777577
_cell_length_c 13.684740
_cell_angle_alpha 67.386329
_cell_angle_beta 110.371780
_cell_angle_gamma 53.241750
_cell_volume 645.659017
_symmetry_space_group_name_H-M "P -1"
_symmetry_group_IT_number 2
_symmetry_cell_setting 'triclinic'
loop_
_space_group_symop_operation_xyz
x,y,z
-x,-y,-z
loop_
_atom_site_type_symbol
_atom_site_label
_atom_site_fract_x
_atom_site_fract_y
_atom_site_fract_z
Si Si1 0.901828 0.970044 0.613248
Si Si2 0.306445 0.868148 0.279362
Si Si3 0.132796 0.252187 0.491171
Si Si4 0.537883 0.831641 0.187222
Si Si5 0.641540 0.441947 0.757840
Si Si6 0.354591 0.944720 0.833855
Si Si7 0.465889 0.453038 0.880133
Si Si8 0.799537 0.484954 0.628515
O O1 0.883408 0.840013 0.579610
O O2 0.178304 0.779828 0.715530
O O3 0.874317 0.956954 0.723441
O O4 0.659849 0.287738 0.426438
O O5 0.354652 0.959449 0.193537
O O6 0.233421 0.800386 0.208367
O O7 0.586477 0.591737 0.481273
O O8 0.297855 0.029029 0.682462
O O9 0.239240 0.308665 0.464525
O O10 0.842425 0.544468 0.373107
O O11 0.500275 0.039447 0.094557
O O12 0.513372 0.717879 0.135640
O O13 0.646591 0.399510 0.884463
O O14 0.753203 0.488959 0.728703
O O15 0.081886 0.186693 0.750100
O O16 0.484161 0.670294 0.968944
#
# Coordination Sequence:
#
# PCOD9077492 Si02
#       8
#     2   2   2   2   2   2   2   2
#     4  10  21  37  59  84 110 146 194 230 271 331
#     4  10  18  36  63  84 104 143 199 234 265 319
#     4  10  19  34  61  88 112 143 181 237 281 325
#     4   9  17  36  60  85 106 150 197 225 264 333
#     4  10  22  38  61  81 107 151 198 231 262 330
#     4  11  19  35  59  85 120 143 179 234 284 335
#     4  10  22  36  57  85 114 151 184 226 285 327
#     4  10  18  34  60  86 108 143 192 228 277 321
#
# _framework density 24.780881999999998
#
# number of rings (size 3 to 8) (size 9 to 14) (size 15 to 20)
#    0.000    2.000    2.500    3.000    0.000    2.500 
#    2.250    1.250   11.000    0.000    0.000    0.000 
#    0.000    0.000    0.000    0.000    0.000    0.000 
#
# Total GULP energy -89482.122009 kJ/mol
# GULP energy per Si atom -5592.632626 kJ/mol
# Density = 2.472448 g / cm^3
# Si number density = 24.780882 Si / 1000 Ang^3
#
#
#
# Elastic Constant Matrix: (Units=GPa)
#
#
# Indices 1 2 3 4 5 6 
#
# 1 133.3671 45.3071 37.6283 14.4615 -39.7563 -33.3189
# 2 45.3071 113.0034 19.3784 17.2271 -11.9936 -26.4454
# 3 37.6283 19.3784 65.8374 1.3215 -23.4706 -13.8946
# 4 14.4615 17.2271 1.3215 36.1327 -4.8954 -4.7119
# 5 -39.7563 -11.9936 -23.4706 -4.8954 41.6129 10.8157
# 6 -33.3189 -26.4454 -13.8946 -4.7119 10.8157 47.0680
#
#
#
# Elastic Compliance Matrix: (Units=1/GPa)
#
#
# Indices 1 2 3 4 5 6 
#
# 1 0.013160 -0.002404 -0.002554 -0.002177 0.008897 0.004949
# 2 -0.002404 0.011551 -0.001559 -0.004129 -0.001436 0.004244
# 3 -0.002554 -0.001559 0.020431 0.002382 0.008490 0.001635
# 4 -0.002177 -0.004129 0.002382 0.030607 0.001807 -0.000509
# 5 0.008897 -0.001436 0.008490 0.001807 0.037215 -0.000373
# 6 0.004949 0.004244 0.001635 -0.000509 -0.000373 0.027651
#
#
# Mechanical properties :
#
#
# Convention : Reuss Voigt Hill
#
# Bulk Modulus (GPa) = 31.14491 57.42614 44.28553
# Shear Modulus (GPa) = 30.42248 38.95566 34.68907
#
# Velocity S-wave (km/s) = 3.50760 3.96915 3.74549
# Velocity P-wave (km/s) = 5.38514 6.65052 6.05100
#
# Compressibility (1/GPa) = 0.03210797
#
# Stress axis : x y z
#
# Youngs Moduli (GPa) = 75.98816 86.57339 48.94473
#
# Poissons Ratio (x) = 0.20813 0.12500
# Poissons Ratio (y) = 0.18268 0.07631
# Poissons Ratio (z) = 0.19406 0.13498
#
# Static dielectric constant tensor:
#      x y z
#    x 1.948480 0.018860 -0.009770 
#    y 0.018860 1.992850 0.050600 
#    z -0.009770 0.050600 2.055610 
# 
# From -- ./inp_files/518850.got.cif
#   From: 2010.05.17/outbox.cif.g08.bks.cpg/sg2_260_cif.got.tgz:518850.got - 2010.06.03 11:33:40.
