data_PCOD9077030
_publ_section_title
;
Structure prediction by ZEFSAII (Michael W. Deem and Ramdas Pophale) SiO2 
 PCOD9077030
Probable space group: P -1
;
_chemical_formula_sum "Si O2"
_cell_formula_units_Z 16
_cell_length_a 9.686186
_cell_length_b 15.361231
_cell_length_c 8.942329
_cell_angle_alpha 55.502889
_cell_angle_beta 134.110878
_cell_angle_gamma 113.774995
_cell_volume 787.244627
_symmetry_space_group_name_H-M "P -1"
_symmetry_group_IT_number 2
_symmetry_cell_setting 'triclinic'
loop_
_space_group_symop_operation_xyz
x,y,z
-x,-y,-z
loop_
_atom_site_type_symbol
_atom_site_label
_atom_site_fract_x
_atom_site_fract_y
_atom_site_fract_z
Si Si1 0.092961 0.800814 0.004041
Si Si2 0.507330 0.181217 0.246685
Si Si3 0.555800 0.396055 0.228984
Si Si4 0.277958 0.220028 0.747655
Si Si5 0.108556 0.748946 0.410196
Si Si6 0.689713 0.871263 0.573642
Si Si7 0.470408 0.697154 0.396025
Si Si8 0.725518 0.993023 0.210299
O O1 0.086878 0.800977 0.179962
O O2 0.248548 0.711853 0.167209
O O3 0.873144 0.795245 0.791492
O O4 0.171922 0.907858 0.883572
O O5 0.455165 0.297380 0.162652
O O6 0.735906 0.181594 0.445326
O O7 0.390310 0.105664 0.344891
O O8 0.431513 0.179072 0.024781
O O9 0.779105 0.361344 0.419759
O O10 0.507248 0.390952 0.373789
O O11 0.500000 0.500000 0.000000
O O12 0.387623 0.299540 0.640255
O O13 0.207839 0.117069 0.703655
O O14 0.094269 0.264166 0.650639
O O15 0.524460 0.805912 0.422633
O O16 0.743970 0.974754 0.419209
O O17 0.500000 0.000000 0.000000
#
# Coordination Sequence:
#
# PCOD9077030 Si02
#       8
#     2   2   2   2   2   2   2   2
#     4  11  18  36  55  76 106 150 192 225 259 321
#     4   9  19  36  57  78 111 142 174 224 281 322
#     4   8  17  39  63  80 107 142 177 221 268 335
#     4  11  20  36  55  79 111 149 177 223 279 314
#     4   9  20  35  58  78 113 138 179 223 282 317
#     4  10  18  34  55  75 104 149 185 222 268 324
#     4   9  20  35  58  78 113 144 178 225 272 322
#     4  11  21  36  52  77 114 145 193 231 255 311
#
# _framework density 20.324051999999998
#
# number of rings (size 3 to 8) (size 9 to 14) (size 15 to 20)
#    0.750    1.500    5.000    0.375    0.000    2.500 
#    2.250    3.125    0.000    0.000    0.000    0.000 
#    0.000    0.000    0.000    0.000    0.000    0.000 
#
# Total GULP energy -89133.526037 kJ/mol
# GULP energy per Si atom -5570.845377 kJ/mol
# Density = 2.027779 g / cm^3
# Si number density = 20.324052 Si / 1000 Ang^3
#
#
#
# Elastic Constant Matrix: (Units=GPa)
#
#
# Indices 1 2 3 4 5 6 
#
# 1 144.0015 5.8540 57.3333 -7.3139 -15.3154 15.7889
# 2 5.8540 13.4684 15.7347 -4.0828 -3.4897 -0.4695
# 3 57.3333 15.7347 126.3165 -10.6234 -18.9061 12.3256
# 4 -7.3139 -4.0828 -10.6234 28.6608 9.2724 -1.2348
# 5 -15.3154 -3.4897 -18.9061 9.2724 40.4880 5.1183
# 6 15.7889 -0.4695 12.3256 -1.2348 5.1183 10.4504
#
#
#
# Elastic Compliance Matrix: (Units=1/GPa)
#
#
# Indices 1 2 3 4 5 6 
#
# 1 0.009986 -0.001137 -0.002316 -0.000593 0.004596 -0.014728
# 2 -0.001137 0.093188 -0.013244 0.010474 -0.004114 0.024778
# 3 -0.002316 -0.013244 0.013011 -0.000287 0.006077 -0.015452
# 4 -0.000593 0.010474 -0.000287 0.039852 -0.010013 0.011318
# 5 0.004596 -0.004114 0.006077 -0.010013 0.035360 -0.032797
# 6 -0.014728 0.024778 -0.015452 0.011318 -0.032797 0.154680
#
#
# Mechanical properties :
#
#
# Convention : Reuss Voigt Hill
#
# Bulk Modulus (GPa) = 12.07882 49.07005 30.57443
# Shear Modulus (GPa) = 12.28293 29.57745 20.93019
#
# Velocity S-wave (km/s) = 2.46103 3.81897 3.21257
# Velocity P-wave (km/s) = 3.74587 6.60623 5.37000
#
# Compressibility (1/GPa) = 0.08278955
#
# Stress axis : x y z
#
# Youngs Moduli (GPa) = 100.13869 10.73098 76.85996
#
# Poissons Ratio (x) = 0.01221 0.17799
# Poissons Ratio (y) = 0.11391 1.01797
# Poissons Ratio (z) = 0.23190 0.14213
#
# Static dielectric constant tensor:
#      x y z
#    x 1.776150 -0.000360 -0.011920 
#    y -0.000360 1.726020 0.004940 
#    z -0.011920 0.004940 1.742560 
# 
# From -- ./inp_files/216846.got.cif
#   From: 2010.05.17/outbox.cif.g08.bks.cpg/sg2_109_cif.got.tgz:216846.got - 2010.06.03 11:33:40.
