data_PCOD9077184
_publ_section_title
;
Structure prediction by ZEFSAII (Michael W. Deem and Ramdas Pophale) SiO2 
 PCOD9077184
Probable space group: P -1
;
_chemical_formula_sum "Si O2"
_cell_formula_units_Z 14
_cell_length_a 7.981118
_cell_length_b 9.652392
_cell_length_c 13.113125
_cell_angle_alpha 122.449633
_cell_angle_beta 105.215655
_cell_angle_gamma 57.593611
_cell_volume 719.263111
_symmetry_space_group_name_H-M "P -1"
_symmetry_group_IT_number 2
_symmetry_cell_setting 'triclinic'
loop_
_space_group_symop_operation_xyz
x,y,z
-x,-y,-z
loop_
_atom_site_type_symbol
_atom_site_label
_atom_site_fract_x
_atom_site_fract_y
_atom_site_fract_z
Si Si1 0.489853 0.344314 0.866296
Si Si2 0.017891 0.375612 0.638289
Si Si3 0.640667 0.585241 0.354895
Si Si4 0.094554 0.916841 0.262218
Si Si5 0.911323 0.647535 0.135137
Si Si6 0.231271 0.707917 0.586625
Si Si7 0.710883 0.070864 0.492809
O O1 0.421754 0.427891 0.774759
O O2 0.710566 0.171758 0.812911
O O3 0.319982 0.297026 0.861487
O O4 0.500000 0.500000 0.000000
O O5 0.131103 0.467411 0.634023
O O6 0.978905 0.441109 0.774539
O O7 0.842044 0.389632 0.547085
O O8 0.180280 0.152382 0.585988
O O9 0.614948 0.449263 0.376102
O O10 0.513093 0.801609 0.455113
O O11 0.168424 0.889333 0.382103
O O12 0.967021 0.810483 0.184472
O O13 0.955482 0.139003 0.317762
O O14 0.000000 0.500000 0.000000
O O15 0.288059 0.838344 0.579249
#
# Coordination Sequence:
#
# PCOD9077184 Si02
#       7
#     2   2   2   2   2   2   2
#     4  10  21  36  57  81 107 148 192 225 268 328
#     4  10  19  35  54  81 109 147 184 220 278 332
#     4  10  22  32  54  88 110 141 182 231 280 327
#     4  10  19  36  57  82 110 147 187 228 270 333
#     4  11  19  33  60  83 103 143 198 227 260 324
#     4  11  19  35  55  82 118 141 172 233 291 321
#     4  10  18  34  57  79 111 146 182 223 272 334
#
# _framework density 19.464365999999998
#
# number of rings (size 3 to 8) (size 9 to 14) (size 15 to 20)
#    0.000    1.714    4.286    2.143    0.000    1.143 
#    0.000    0.714    0.000    0.857    0.000    0.000 
#    0.000    0.000    0.000    0.000    0.000    0.000 
#
# Total GULP energy -78044.175329 kJ/mol
# GULP energy per Si atom -5574.583952 kJ/mol
# Density = 1.942006 g / cm^3
# Si number density = 19.464366 Si / 1000 Ang^3
#
#
#
# Elastic Constant Matrix: (Units=GPa)
#
#
# Indices 1 2 3 4 5 6 
#
# 1 99.9492 16.7182 35.7655 2.0698 -8.9116 2.2863
# 2 16.7182 68.1310 20.9580 -1.3753 -11.8912 3.9671
# 3 35.7655 20.9580 125.4508 7.8764 -15.8556 -2.1748
# 4 2.0698 -1.3753 7.8764 16.2988 1.1229 -3.2001
# 5 -8.9116 -11.8912 -15.8556 1.1229 27.4787 5.1336
# 6 2.2863 3.9671 -2.1748 -3.2001 5.1336 19.8270
#
#
#
# Elastic Compliance Matrix: (Units=1/GPa)
#
#
# Indices 1 2 3 4 5 6 
#
# 1 0.011478 -0.001547 -0.002766 -0.000755 0.001846 -0.001917
# 2 -0.001547 0.017082 -0.001703 0.001005 0.006806 -0.005026
# 3 -0.002766 -0.001703 0.009893 -0.004902 0.004305 -0.000161
# 4 -0.000755 0.001005 -0.004902 0.066806 -0.007630 0.012106
# 5 0.001846 0.006806 0.004305 -0.007630 0.045362 -0.014079
# 6 -0.001917 -0.005026 -0.000161 0.012106 -0.014079 0.057245
#
#
# Mechanical properties :
#
#
# Convention : Reuss Voigt Hill
#
# Bulk Modulus (GPa) = 37.84891 48.93493 43.39192
# Shear Modulus (GPa) = 21.86225 27.39351 24.62788
#
# Velocity S-wave (km/s) = 3.35504 3.75556 3.56094
# Velocity P-wave (km/s) = 5.87332 6.63332 6.26486
#
# Compressibility (1/GPa) = 0.02642084
#
# Stress axis : x y z
#
# Youngs Moduli (GPa) = 87.12470 58.54197 101.07675
#
# Poissons Ratio (x) = 0.09056 0.27962
# Poissons Ratio (y) = 0.13478 0.17211
# Poissons Ratio (z) = 0.24102 0.09968
#
# Static dielectric constant tensor:
#      x y z
#    x 1.763900 -0.008320 -0.023500 
#    y -0.008320 1.673160 0.008380 
#    z -0.023500 0.008380 1.681410 
# 
# From -- ./inp_files/165998.got.cif
#   From: 2010.05.17/outbox.cif.g08.bks.cpg/sg2_83_cif.got.tgz:165998.got - 2010.06.03 11:33:40.
