data_PCOD9077471
_publ_section_title
;
Structure prediction by ZEFSAII (Michael W. Deem and Ramdas Pophale) SiO2 
 PCOD9077471
Probable space group: P -1
;
_chemical_formula_sum "Si O2"
_cell_formula_units_Z 16
_cell_length_a 11.029370
_cell_length_b 10.973081
_cell_length_c 12.004815
_cell_angle_alpha 50.256697
_cell_angle_beta 47.721797
_cell_angle_gamma 47.800850
_cell_volume 748.333339
_symmetry_space_group_name_H-M "P -1"
_symmetry_group_IT_number 2
_symmetry_cell_setting 'triclinic'
loop_
_space_group_symop_operation_xyz
x,y,z
-x,-y,-z
loop_
_atom_site_type_symbol
_atom_site_label
_atom_site_fract_x
_atom_site_fract_y
_atom_site_fract_z
Si Si1 0.844422 0.336490 0.167488
Si Si2 0.542034 0.345877 0.759025
Si Si3 0.543607 0.827705 0.290164
Si Si4 0.520013 0.795818 0.905928
Si Si5 0.190257 0.502463 0.539182
Si Si6 0.084802 0.391864 0.175846
Si Si7 0.293394 0.931211 0.584574
Si Si8 0.658686 0.728923 0.620945
O O1 0.632789 0.466825 0.240880
O O2 0.850361 0.146444 0.254220
O O3 0.956610 0.345433 0.200350
O O4 0.908738 0.429072 0.976242
O O5 0.488028 0.223973 0.783320
O O6 0.709884 0.370478 0.590183
O O7 0.576790 0.277885 0.903760
O O8 0.697581 0.663035 0.352729
O O9 0.362363 0.881147 0.444562
O O10 0.584279 0.997711 0.169194
O O11 0.712021 0.755767 0.869931
O O12 0.587137 0.700396 0.801969
O O13 0.217967 0.432787 0.436895
O O14 0.993257 0.585925 0.665068
O O15 0.471680 0.828237 0.609431
O O16 0.251850 0.133240 0.506941
#
# Coordination Sequence:
#
# PCOD9077471 Si02
#       8
#     2   2   2   2   2   2   2   2
#     4  10  18  36  57  85 112 145 192 225 284 340
#     4  11  19  34  60  87 106 146 195 237 268 333
#     4  10  18  34  60  83 109 143 192 238 270 325
#     4  10  23  37  54  84 125 147 173 234 301 327
#     4  11  20  36  63  82 106 152 200 229 261 335
#     4  10  22  35  56  86 119 147 175 239 294 332
#     4   9  17  34  60  85 104 150 194 235 262 332
#     4   9  19  35  57  81 113 148 193 226 273 330
#
# _framework density 21.380846999999999
#
# number of rings (size 3 to 8) (size 9 to 14) (size 15 to 20)
#    0.000    2.000    3.750    2.250    0.000    1.000 
#    0.000    6.250    0.000    0.000    0.000    0.000 
#    0.000    0.000    0.000    0.000    0.000    0.000 
#
# Total GULP energy -89328.706654 kJ/mol
# GULP energy per Si atom -5583.044166 kJ/mol
# Density = 2.133218 g / cm^3
# Si number density = 21.380847 Si / 1000 Ang^3
#
#
#
# Elastic Constant Matrix: (Units=GPa)
#
#
# Indices 1 2 3 4 5 6 
#
# 1 37.4919 13.4790 32.6719 -3.2560 5.1792 18.1562
# 2 13.4790 29.4339 13.0213 2.0025 -0.5109 9.3239
# 3 32.6719 13.0213 82.5035 1.4473 10.0867 -0.8929
# 4 -3.2560 2.0025 1.4473 26.3447 5.0195 7.5647
# 5 5.1792 -0.5109 10.0867 5.0195 34.7197 2.2179
# 6 18.1562 9.3239 -0.8929 7.5647 2.2179 21.5696
#
#
#
# Elastic Compliance Matrix: (Units=1/GPa)
#
#
# Indices 1 2 3 4 5 6 
#
# 1 0.243280 0.004246 -0.100765 0.107734 -0.006694 -0.247883
# 2 0.004246 0.043799 -0.009389 0.004099 0.003725 -0.024716
# 3 -0.100765 -0.009389 0.055654 -0.045286 -0.001578 0.107226
# 4 0.107734 0.004099 -0.045286 0.090987 -0.007996 -0.125420
# 5 -0.006694 0.003725 -0.001578 -0.007996 0.031243 0.003551
# 6 -0.247883 -0.024716 0.107226 -0.125420 0.003551 0.313761
#
#
# Mechanical properties :
#
#
# Convention : Reuss Voigt Hill
#
# Bulk Modulus (GPa) = 7.63842 29.75265 18.69553
# Shear Modulus (GPa) = 4.83475 22.54392 13.68934
#
# Velocity S-wave (km/s) = 1.50538 3.25067 2.53308
# Velocity P-wave (km/s) = 2.56941 5.29480 4.16154
#
# Compressibility (1/GPa) = 0.13091716
#
# Stress axis : x y z
#
# Youngs Moduli (GPa) = 4.11048 22.83170 17.96816
#
# Poissons Ratio (x) = -0.09694 1.81056
# Poissons Ratio (y) = -0.01745 0.16870
# Poissons Ratio (z) = 0.41419 0.21436
#
# Static dielectric constant tensor:
#      x y z
#    x 1.787090 -0.005640 0.021220 
#    y -0.005640 1.777280 -0.018990 
#    z 0.021220 -0.018990 1.797580 
# 
# From -- ./inp_files/243043.got.cif
#   From: 2010.05.17/outbox.cif.g08.bks.cpg/sg2_122_cif.got.tgz:243043.got - 2010.06.03 11:33:40.
