data_PCOD9077858
_publ_section_title
;
Structure prediction by ZEFSAII (Michael W. Deem and Ramdas Pophale) SiO2 
 PCOD9077858
Probable space group: P -1
;
_chemical_formula_sum "Si O2"
_cell_formula_units_Z 16
_cell_length_a 6.215547
_cell_length_b 9.696804
_cell_length_c 16.816057
_cell_angle_alpha 58.123681
_cell_angle_beta 103.401497
_cell_angle_gamma 100.829377
_cell_volume 834.599386
_symmetry_space_group_name_H-M "P -1"
_symmetry_group_IT_number 2
_symmetry_cell_setting 'triclinic'
loop_
_space_group_symop_operation_xyz
x,y,z
-x,-y,-z
loop_
_atom_site_type_symbol
_atom_site_label
_atom_site_fract_x
_atom_site_fract_y
_atom_site_fract_z
Si Si1 0.283122 0.630705 0.166972
Si Si2 0.176356 0.365039 0.551143
Si Si3 0.601500 0.878586 0.839120
Si Si4 0.844095 0.776804 0.043407
Si Si5 0.477926 0.530555 0.895517
Si Si6 0.645490 0.469158 0.631346
Si Si7 0.322700 0.097895 0.858745
Si Si8 0.099374 0.844415 0.299266
O O1 0.324130 0.531744 0.120793
O O2 0.268659 0.509488 0.277824
O O3 0.493063 0.751743 0.172856
O O4 0.091972 0.748458 0.096913
O O5 0.383407 0.420768 0.609929
O O6 0.000000 0.500000 0.500000
O O7 0.719571 0.617980 0.533279
O O8 0.040508 0.198557 0.618871
O O9 0.479623 0.723982 0.831062
O O10 0.427159 0.957891 0.859144
O O11 0.724238 0.002976 0.749271
O O12 0.787680 0.819508 0.934855
O O13 0.725733 0.596423 0.107276
O O14 0.741388 0.910473 0.050762
O O15 0.500000 0.500000 0.000000
O O16 0.766849 0.312021 0.660126
O O17 0.096325 0.139932 0.785447
#
# Coordination Sequence:
#
# PCOD9077858 Si02
#       8
#     2   2   2   2   2   2   2   2
#     4  11  20  37  59  80 112 144 194 233 270 333
#     4   9  19  31  56  83 117 139 172 226 286 338
#     4  11  22  35  52  79 113 150 193 226 279 328
#     4  10  22  37  55  77 107 154 192 238 270 316
#     4   9  23  39  52  75 109 154 196 231 269 325
#     4  10  18  35  54  87 110 142 181 226 279 335
#     4  11  20  34  54  80 115 141 187 233 279 323
#     4  11  19  33  54  83 115 142 177 230 287 329
#
# _framework density 19.170874999999999
#
# number of rings (size 3 to 8) (size 9 to 14) (size 15 to 20)
#    0.000    1.750    3.750    0.375    0.000    8.000 
#    0.000    0.000    0.000    0.750    0.000   13.125 
#    0.000    0.000    0.000    0.000    0.000    0.000 
#
# Total GULP energy -89093.897660 kJ/mol
# GULP energy per Si atom -5568.368604 kJ/mol
# Density = 1.912724 g / cm^3
# Si number density = 19.170875 Si / 1000 Ang^3
#
#
#
# Elastic Constant Matrix: (Units=GPa)
#
#
# Indices 1 2 3 4 5 6 
#
# 1 82.0856 40.9597 33.6111 -3.4550 2.1556 -2.2132
# 2 40.9597 88.0269 21.9991 -15.7070 -16.3745 -5.3896
# 3 33.6111 21.9991 96.0704 -6.2888 -20.4436 2.2622
# 4 -3.4550 -15.7070 -6.2888 20.8484 6.1599 -9.3922
# 5 2.1556 -16.3745 -20.4436 6.1599 42.0409 1.0610
# 6 -2.2132 -5.3896 2.2622 -9.3922 1.0610 21.6419
#
#
#
# Elastic Compliance Matrix: (Units=1/GPa)
#
#
# Indices 1 2 3 4 5 6 
#
# 1 0.019666 -0.009779 -0.006449 -0.004520 -0.007257 -0.001356
# 2 -0.009779 0.020648 0.000873 0.017503 0.006117 0.011347
# 3 -0.006449 0.000873 0.014156 0.000764 0.007492 -0.001958
# 4 -0.004520 0.017503 0.000764 0.079563 -0.005211 0.038601
# 5 -0.007257 0.006117 0.007492 -0.005211 0.031043 -0.003785
# 6 -0.001356 0.011347 -0.001958 0.038601 -0.003785 0.066036
#
#
# Mechanical properties :
#
#
# Convention : Reuss Voigt Hill
#
# Bulk Modulus (GPa) = 42.08661 51.03588 46.56124
# Shear Modulus (GPa) = 18.53622 28.21377 23.37499
#
# Velocity S-wave (km/s) = 3.11287 3.84044 3.49563
# Velocity P-wave (km/s) = 5.90940 6.80769 6.37439
#
# Compressibility (1/GPa) = 0.02376053
#
# Stress axis : x y z
#
# Youngs Moduli (GPa) = 50.84817 48.43140 70.64220
#
# Poissons Ratio (x) = 0.47359 0.45561
# Poissons Ratio (y) = 0.49722 -0.06169
# Poissons Ratio (z) = 0.32794 -0.04230
#
# Static dielectric constant tensor:
#      x y z
#    x 1.736010 -0.002740 -0.065770 
#    y -0.002740 1.662160 -0.009050 
#    z -0.065770 -0.009050 1.744310 
# 
# From -- ./inp_files/122567.got.cif
#   From: 2010.05.17/outbox.cif.g08.bks.cpg/sg2_62_cif.got.tgz:122567.got - 2010.06.03 11:33:40.
