data_PCOD9077847
_publ_section_title
;
Structure prediction by ZEFSAII (Michael W. Deem and Ramdas Pophale) SiO2 
 PCOD9077847
Probable space group: P -1
;
_chemical_formula_sum "Si O2"
_cell_formula_units_Z 16
_cell_length_a 11.219456
_cell_length_b 21.913822
_cell_length_c 8.837829
_cell_angle_alpha 50.262128
_cell_angle_beta 115.698979
_cell_angle_gamma 153.676315
_cell_volume 676.259068
_symmetry_space_group_name_H-M "P -1"
_symmetry_group_IT_number 2
_symmetry_cell_setting 'triclinic'
loop_
_space_group_symop_operation_xyz
x,y,z
-x,-y,-z
loop_
_atom_site_type_symbol
_atom_site_label
_atom_site_fract_x
_atom_site_fract_y
_atom_site_fract_z
Si Si1 0.556193 0.900051 0.063424
Si Si2 0.164162 0.800742 0.564944
Si Si3 0.340288 0.388758 0.934149
Si Si4 0.199674 0.280619 0.721707
Si Si5 0.588691 0.190050 0.529326
Si Si6 0.170840 0.828812 0.839062
Si Si7 0.704415 0.823599 0.715067
Si Si8 0.336447 0.184827 0.942576
O O1 0.409786 0.820207 0.273791
O O2 0.488672 0.786929 0.101958
O O3 0.439769 0.916827 0.892902
O O4 0.911530 0.094944 0.955635
O O5 0.180884 0.733634 0.570463
O O6 0.016469 0.712387 0.788118
O O7 0.983636 0.772301 0.424691
O O8 0.500000 0.000000 0.500000
O O9 0.326129 0.286511 0.112939
O O10 0.043507 0.280638 0.965532
O O11 0.500000 0.500000 0.000000
O O12 0.393889 0.430354 0.717769
O O13 0.396592 0.309394 0.744758
O O14 0.554045 0.264540 0.365866
O O15 0.288704 0.982261 0.641959
O O16 0.678311 0.840571 0.846891
O O17 0.000000 0.000000 0.500000
O O18 0.000000 0.000000 0.000000
#
# Coordination Sequence:
#
# PCOD9077847 Si02
#       8
#     2   2   2   2   2   2   2   2
#     4  11  18  32  54  89 118 148 185 247 300 343
#     4  10  20  30  54  89 118 146 185 249 301 337
#     4  11  24  40  58  82 119 165 195 225 287 361
#     4  10  18  35  54  80 121 153 190 238 292 344
#     4  11  19  30  53  85 116 141 182 245 300 329
#     4  11  20  33  56  83 119 148 194 238 292 343
#     4  11  20  35  56  83 115 146 193 250 286 328
#     4   9  20  28  49  82 120 149 178 230 306 346
#
# _framework density 23.659572000000001
#
# number of rings (size 3 to 8) (size 9 to 14) (size 15 to 20)
#    0.000    1.500    5.000    3.375    5.250    1.000 
#    0.000    0.625    0.000    9.750    0.000    0.000 
#    0.000    0.000    0.000    0.000    0.000    0.000 
#
# Total GULP energy -89081.983016 kJ/mol
# GULP energy per Si atom -5567.623938 kJ/mol
# Density = 2.360572 g / cm^3
# Si number density = 23.659572 Si / 1000 Ang^3
#
#
#
# Elastic Constant Matrix: (Units=GPa)
#
#
# Indices 1 2 3 4 5 6 
#
# 1 154.4270 30.5567 30.7735 9.5810 0.4902 -27.1572
# 2 30.5567 68.8831 30.2462 25.2278 -0.4277 -13.9536
# 3 30.7735 30.2462 87.1102 33.2723 14.5259 -7.7082
# 4 9.5810 25.2278 33.2723 31.9876 -0.2777 -9.2752
# 5 0.4902 -0.4277 14.5259 -0.2777 36.4459 16.2811
# 6 -27.1572 -13.9536 -7.7082 -9.2752 16.2811 34.6798
#
#
#
# Elastic Compliance Matrix: (Units=1/GPa)
#
#
# Indices 1 2 3 4 5 6 
#
# 1 0.008592 -0.002828 -0.002829 0.004686 -0.002230 0.007262
# 2 -0.002828 0.022173 -0.000402 -0.015369 -0.000985 0.002969
# 3 -0.002829 -0.000402 0.022941 -0.022383 -0.009898 0.001383
# 4 0.004686 -0.015369 -0.022383 0.067614 0.005644 0.007944
# 5 -0.002230 -0.000985 -0.009898 0.005644 0.041390 -0.022264
# 6 0.007262 0.002969 0.001383 0.007944 -0.022264 0.048601
#
#
# Mechanical properties :
#
#
# Convention : Reuss Voigt Hill
#
# Bulk Modulus (GPa) = 24.04597 54.84146 39.44371
# Shear Modulus (GPa) = 21.07108 35.21225 28.14166
#
# Velocity S-wave (km/s) = 2.98752 3.86202 3.45257
# Velocity P-wave (km/s) = 4.69955 6.56633 5.70975
#
# Compressibility (1/GPa) = 0.04158701
#
# Stress axis : x y z
#
# Youngs Moduli (GPa) = 116.38340 45.10029 43.59056
#
# Poissons Ratio (x) = 0.12756 0.12330
# Poissons Ratio (y) = 0.32918 0.01754
# Poissons Ratio (z) = 0.32921 0.01814
#
# Static dielectric constant tensor:
#      x y z
#    x 1.943380 0.025610 -0.229140 
#    y 0.025610 2.007230 0.027640 
#    z -0.229140 0.027640 0.966140 
# 
# From -- ./inp_files/281714.got.cif
#   From: 2010.05.17/outbox.cif.g08.bks.cpg/sg2_141_cif.got.tgz:281714.got - 2010.06.03 11:33:40.
