data_PCOD9077152
_publ_section_title
;
Structure prediction by ZEFSAII (Michael W. Deem and Ramdas Pophale) SiO2 
 PCOD9077152
Probable space group: P -1
;
_chemical_formula_sum "Si O2"
_cell_formula_units_Z 16
_cell_length_a 12.101343
_cell_length_b 27.197733
_cell_length_c 5.442779
_cell_angle_alpha 68.419410
_cell_angle_beta 73.466113
_cell_angle_gamma 25.932938
_cell_volume 723.772627
_symmetry_space_group_name_H-M "P -1"
_symmetry_group_IT_number 2
_symmetry_cell_setting 'triclinic'
loop_
_space_group_symop_operation_xyz
x,y,z
-x,-y,-z
loop_
_atom_site_type_symbol
_atom_site_label
_atom_site_fract_x
_atom_site_fract_y
_atom_site_fract_z
Si Si1 0.663112 0.754583 0.107544
Si Si2 0.962626 0.347035 0.316700
Si Si3 0.618483 0.866981 0.233249
Si Si4 0.232570 0.096613 0.242975
Si Si5 0.755285 0.326851 0.377903
Si Si6 0.284180 0.710951 0.020328
Si Si7 0.592989 0.683508 0.020471
Si Si8 0.021781 0.552721 0.625132
O O1 0.527345 0.848316 0.215375
O O2 0.503945 0.773531 0.043265
O O3 0.895773 0.629077 0.325429
O O4 0.804663 0.734331 0.861748
O O5 0.097749 0.261561 0.615067
O O6 0.875211 0.439881 0.294218
O O7 0.766245 0.385859 0.257662
O O8 0.438801 0.966289 0.370141
O O9 0.638340 0.903627 0.945286
O O10 0.050553 0.186757 0.416686
O O11 0.020446 0.164028 0.057235
O O12 0.663737 0.342899 0.665970
O O13 0.623039 0.355262 0.169690
O O14 0.390858 0.726176 0.956486
O O15 0.757675 0.580160 0.295179
O O16 0.792542 0.620697 0.802126
#
# Coordination Sequence:
#
# PCOD9077152 Si02
#       8
#     2   2   2   2   2   2   2   2
#     4  10  19  33  59  84 113 147 191 248 289 336
#     4  10  18  34  56  85 119 146 188 245 292 337
#     4  10  18  34  56  89 116 151 194 242 283 340
#     4   9  20  33  58  85 120 153 195 233 288 345
#     4  10  20  38  57  83 122 156 188 232 292 349
#     4  10  22  38  59  84 119 162 189 235 290 353
#     4  10  21  39  59  82 109 155 195 244 290 346
#     4   9  21  37  60  85 109 142 203 246 292 338
#
# _framework density 22.106392
#
# number of rings (size 3 to 8) (size 9 to 14) (size 15 to 20)
#    0.750    1.500    2.500    0.375    3.500    1.500 
#    0.000    1.875    0.000    7.500    0.000    0.000 
#    0.000    0.000    0.000    0.000    0.000    0.000 
#
# Total GULP energy -89255.624726 kJ/mol
# GULP energy per Si atom -5578.476545 kJ/mol
# Density = 2.205608 g / cm^3
# Si number density = 22.106392 Si / 1000 Ang^3
#
#
#
# Elastic Constant Matrix: (Units=GPa)
#
#
# Indices 1 2 3 4 5 6 
#
# 1 202.4225 23.3250 32.3500 4.1478 -1.5172 19.5083
# 2 23.3250 49.0187 5.3145 -4.7584 -7.4536 8.7514
# 3 32.3500 5.3145 73.8778 4.2857 1.0633 4.7442
# 4 4.1478 -4.7584 4.2857 14.5751 8.9350 -5.0271
# 5 -1.5172 -7.4536 1.0633 8.9350 21.2556 2.3824
# 6 19.5083 8.7514 4.7442 -5.0271 2.3824 27.1044
#
#
#
# Elastic Compliance Matrix: (Units=1/GPa)
#
#
# Indices 1 2 3 4 5 6 
#
# 1 0.006024 -0.001966 -0.001970 -0.004734 0.002326 -0.004438
# 2 -0.001966 0.024033 -0.000605 0.000883 0.008713 -0.006841
# 3 -0.001970 -0.000605 0.014893 -0.005725 0.001554 -0.002192
# 4 -0.004734 0.000883 -0.005725 0.113157 -0.050622 0.029561
# 5 0.002326 0.008713 0.001554 -0.050622 0.073782 -0.020634
# 6 -0.004438 -0.006841 -0.002192 0.029561 -0.020634 0.049978
#
#
# Mechanical properties :
#
#
# Convention : Reuss Voigt Hill
#
# Bulk Modulus (GPa) = 27.88099 49.69980 38.79039
# Shear Modulus (GPa) = 16.50681 30.20900 23.35790
#
# Velocity S-wave (km/s) = 2.73554 3.70067 3.25408
# Velocity P-wave (km/s) = 4.75575 6.38677 5.63063
#
# Compressibility (1/GPa) = 0.03586673
#
# Stress axis : x y z
#
# Youngs Moduli (GPa) = 166.00929 41.60865 67.14760
#
# Poissons Ratio (x) = 0.08181 0.13229
# Poissons Ratio (y) = 0.32640 0.04064
# Poissons Ratio (z) = 0.32706 0.02518
#
# Static dielectric constant tensor:
#      x y z
#    x 1.853120 0.010820 0.050230 
#    y 0.010820 1.818190 0.000900 
#    z 0.050230 0.000900 1.850890 
# 
# From -- ./inp_files/84783.got.cif
#   From: 2010.05.17/outbox.cif.g08.bks.cpg/sg2_43_cif.got.tgz:84783.got - 2010.06.03 11:33:40.
