data_PCOD9077759
_publ_section_title
;
Structure prediction by ZEFSAII (Michael W. Deem and Ramdas Pophale) SiO2 
 PCOD9077759
Probable space group: P -1
;
_chemical_formula_sum "Si O2"
_cell_formula_units_Z 15
_cell_length_a 9.445839
_cell_length_b 11.934367
_cell_length_c 9.064807
_cell_angle_alpha 58.728758
_cell_angle_beta 99.258469
_cell_angle_gamma 130.777477
_cell_volume 635.852538
_symmetry_space_group_name_H-M "P -1"
_symmetry_group_IT_number 2
_symmetry_cell_setting 'triclinic'
loop_
_space_group_symop_operation_xyz
x,y,z
-x,-y,-z
loop_
_atom_site_type_symbol
_atom_site_label
_atom_site_fract_x
_atom_site_fract_y
_atom_site_fract_z
Si Si1 0.628550 0.370688 0.718892
Si Si2 0.983747 0.202974 0.013080
Si Si3 0.959486 0.490072 0.323352
Si Si4 0.603878 0.954958 0.939328
Si Si5 0.324059 0.079254 0.625302
Si Si6 0.849047 0.769297 0.422339
Si Si7 0.000000 0.000000 0.000000
Si Si8 0.270567 0.900830 0.455995
O O1 0.828650 0.420391 0.756587
O O2 0.505454 0.231455 0.657141
O O3 0.693052 0.556192 0.563755
O O4 0.502038 0.247750 0.920604
O O5 0.836482 0.113739 0.186591
O O6 0.074585 0.389910 0.837435
O O7 0.104476 0.145951 0.061758
O O8 0.827958 0.061423 0.953071
O O9 0.000000 0.500000 0.500000
O O10 0.793766 0.286856 0.393588
O O11 0.620160 0.018543 0.735803
O O12 0.500000 0.000000 0.000000
O O13 0.213229 0.148536 0.541497
O O14 0.373935 0.039579 0.510252
O O15 0.058784 0.838940 0.445712
O O16 0.859979 0.831040 0.216139
#
# Coordination Sequence:
#
# PCOD9077759 Si02
#       8
#     2   2   2   2   2   2   1   2
#     4  10  21  37  64  86 119 160 209 248 292 366
#     4  10  19  35  59  87 119 152 205 245 298 357
#     4  11  19  37  65  87 110 162 215 246 286 375
#     4  11  19  36  61  85 117 158 202 244 295 364
#     4  10  23  37  58  93 130 156 193 264 314 348
#     4  10  20  39  65  88 119 167 209 242 292 377
#     4  10  18  34  64  92 108 148 208 254 278 346
#     4  11  22  38  63  90 123 160 203 254 312 352
#
# _framework density 23.590375000000002
#
# number of rings (size 3 to 8) (size 9 to 14) (size 15 to 20)
#    0.000    1.600    4.000    1.600    0.000    0.533 
#    0.000    6.667   17.600    0.000    0.000    0.000 
#    0.000    0.000    0.000    0.000    0.000    0.000 
#
# Total GULP energy -83541.004374 kJ/mol
# GULP energy per Si atom -5569.400292 kJ/mol
# Density = 2.353668 g / cm^3
# Si number density = 23.590375 Si / 1000 Ang^3
#
#
#
# Elastic Constant Matrix: (Units=GPa)
#
#
# Indices 1 2 3 4 5 6 
#
# 1 74.9840 36.3241 36.4116 -17.2922 -4.4224 -3.3292
# 2 36.3241 105.4983 79.8794 -24.4490 -5.0346 -15.4011
# 3 36.4116 79.8794 167.1942 -45.7897 -0.3475 -25.4117
# 4 -17.2922 -24.4490 -45.7897 39.3625 -11.7487 3.2810
# 5 -4.4224 -5.0346 -0.3475 -11.7487 38.4419 -1.6924
# 6 -3.3292 -15.4011 -25.4117 3.2810 -1.6924 37.2153
#
#
#
# Elastic Compliance Matrix: (Units=1/GPa)
#
#
# Indices 1 2 3 4 5 6 
#
# 1 0.016963 -0.004383 -0.000229 0.005424 0.002998 -0.000795
# 2 -0.004383 0.016410 -0.006098 0.001645 0.002189 0.002190
# 3 -0.000229 -0.006098 0.012973 0.011676 0.003100 0.005426
# 4 0.005424 0.001645 0.011676 0.046514 0.015413 0.005739
# 5 0.002998 0.002189 0.003100 0.015413 0.031532 0.003366
# 6 -0.000795 0.002190 0.005426 0.005739 0.003366 0.031058
#
#
# Mechanical properties :
#
#
# Convention : Reuss Voigt Hill
#
# Bulk Modulus (GPa) = 40.11820 72.54517 56.33169
# Shear Modulus (GPa) = 27.00083 36.00805 31.50444
#
# Velocity S-wave (km/s) = 3.38682 3.91114 3.65838
# Velocity P-wave (km/s) = 5.68658 7.15645 6.46343
#
# Compressibility (1/GPa) = 0.02492634
#
# Stress axis : x y z
#
# Youngs Moduli (GPa) = 58.95163 60.93730 77.08122
#
# Poissons Ratio (x) = 0.26708 0.01768
# Poissons Ratio (y) = 0.25838 0.47004
# Poissons Ratio (z) = 0.01352 0.37160
#
# Static dielectric constant tensor:
#      x y z
#    x 1.392860 0.198530 -0.122090 
#    y 0.198530 1.829530 0.036800 
#    z -0.122090 0.036800 1.946210 
# 
# From -- ./inp_files/251620.got.cif
#   From: 2010.05.17/outbox.cif.g08.bks.cpg/sg2_126_cif.got.tgz:251620.got - 2010.06.03 11:33:40.
