data_PCOD9077354
_publ_section_title
;
Structure prediction by ZEFSAII (Michael W. Deem and Ramdas Pophale) SiO2 
 PCOD9077354
Probable space group: P -1
;
_chemical_formula_sum "Si O2"
_cell_formula_units_Z 16
_cell_length_a 9.323213
_cell_length_b 12.079033
_cell_length_c 15.535658
_cell_angle_alpha 29.660633
_cell_angle_beta 83.614699
_cell_angle_gamma 95.522336
_cell_volume 791.483796
_symmetry_space_group_name_H-M "P -1"
_symmetry_group_IT_number 2
_symmetry_cell_setting 'triclinic'
loop_
_space_group_symop_operation_xyz
x,y,z
-x,-y,-z
loop_
_atom_site_type_symbol
_atom_site_label
_atom_site_fract_x
_atom_site_fract_y
_atom_site_fract_z
Si Si1 0.351415 0.890423 0.908978
Si Si2 0.799602 0.636305 0.795653
Si Si3 0.869289 0.111122 0.923832
Si Si4 0.856558 0.002823 0.281328
Si Si5 0.298193 0.024986 0.158740
Si Si6 0.993843 0.375148 0.492715
Si Si7 0.164538 0.882223 0.596669
Si Si8 0.803138 0.580240 0.037354
O O1 0.291578 0.988817 0.763486
O O2 0.536036 0.994175 0.840408
O O3 0.296208 0.600126 0.093740
O O4 0.260890 0.955175 0.949166
O O5 0.791016 0.557680 0.949538
O O6 0.980712 0.740802 0.681462
O O7 0.757147 0.873804 0.629296
O O8 0.783596 0.032566 0.890612
O O9 0.958123 0.403167 0.725109
O O10 0.000000 0.000000 0.000000
O O11 0.889629 0.763726 0.422202
O O12 0.838902 0.026425 0.367598
O O13 0.014688 0.232769 0.085888
O O14 0.179170 0.831637 0.363595
O O15 0.304506 0.285483 0.012125
O O16 0.000000 0.500000 0.500000
O O17 0.231801 0.673922 0.741549
#
# Coordination Sequence:
#
# PCOD9077354 Si02
#       8
#     2   2   2   2   2   2   2   2
#     4  12  21  38  62  92 126 156 198 255 323 356
#     4  10  20  32  61  92 118 164 206 255 297 358
#     4  11  23  42  66  88 114 160 210 254 297 368
#     4  10  18  35  60  86 119 162 200 253 300 360
#     4  10  24  40  59  89 126 160 192 258 316 362
#     4   9  19  39  60  83 111 154 208 243 293 365
#     4  10  18  34  58  91 119 161 217 250 288 360
#     4  10  18  39  58  83 125 160 214 245 296 362
#
# _framework density 20.215195000000001
#
# number of rings (size 3 to 8) (size 9 to 14) (size 15 to 20)
#    0.000    1.750    2.500    4.125    0.000    1.500 
#    0.000    8.750    0.000    0.000    0.000    0.000 
#    0.000    0.000    0.000    0.000    0.000    0.000 
#
# Total GULP energy -89347.440176 kJ/mol
# GULP energy per Si atom -5584.215011 kJ/mol
# Density = 2.016918 g / cm^3
# Si number density = 20.215195 Si / 1000 Ang^3
#
#
#
# Elastic Constant Matrix: (Units=GPa)
#
#
# Indices 1 2 3 4 5 6 
#
# 1 138.9064 26.6141 37.1333 -1.8021 16.0096 -8.1758
# 2 26.6141 54.5884 0.5052 -14.5900 6.0182 -8.4896
# 3 37.1333 0.5052 83.9638 -19.7703 28.6692 -8.5214
# 4 -1.8021 -14.5900 -19.7703 25.7544 -8.0609 13.7483
# 5 16.0096 6.0182 28.6692 -8.0609 20.1769 -5.7066
# 6 -8.1758 -8.4896 -8.5214 13.7483 -5.7066 22.3910
#
#
#
# Elastic Compliance Matrix: (Units=1/GPa)
#
#
# Indices 1 2 3 4 5 6 
#
# 1 0.010623 -0.007455 -0.007133 -0.011775 0.000862 0.005787
# 2 -0.007455 0.028895 0.012491 0.024324 -0.012161 -0.005047
# 3 -0.007133 0.012491 0.032679 0.025727 -0.037254 -0.010723
# 4 -0.011775 0.024324 0.025727 0.092026 -0.010260 -0.044406
# 5 0.000862 -0.012161 -0.037254 -0.010260 0.105501 0.014714
# 6 0.005787 -0.005047 -0.010723 -0.044406 0.014714 0.071795
#
#
# Mechanical properties :
#
#
# Convention : Reuss Voigt Hill
#
# Bulk Modulus (GPa) = 14.70552 45.10710 29.90631
# Shear Modulus (GPa) = 13.57292 27.87820 20.72556
#
# Velocity S-wave (km/s) = 2.59399 3.71761 3.20542
# Velocity P-wave (km/s) = 4.03262 6.38666 5.34095
#
# Compressibility (1/GPa) = 0.06800169
#
# Stress axis : x y z
#
# Youngs Moduli (GPa) = 94.13772 34.60825 30.60086
#
# Poissons Ratio (x) = 0.25801 0.21827
# Poissons Ratio (y) = 0.70181 -0.38222
# Poissons Ratio (z) = 0.67146 -0.43228
#
# Static dielectric constant tensor:
#      x y z
#    x 1.694250 0.011430 0.013020 
#    y 0.011430 1.754780 0.020650 
#    z 0.013020 0.020650 1.780040 
# 
# From -- ./inp_files/187057.got.cif
#   From: 2010.05.17/outbox.cif.g08.bks.cpg/sg2_94_cif.got.tgz:187057.got - 2010.06.03 11:33:40.
