data_PCOD9077033
_publ_section_title
;
Structure prediction by ZEFSAII (Michael W. Deem and Ramdas Pophale) SiO2 
 PCOD9077033
Probable space group: P -1
;
_chemical_formula_sum "Si O2"
_cell_formula_units_Z 16
_cell_length_a 14.517986
_cell_length_b 8.465690
_cell_length_c 8.064753
_cell_angle_alpha 54.126833
_cell_angle_beta 66.163776
_cell_angle_gamma 76.117430
_cell_volume 734.668142
_symmetry_space_group_name_H-M "P -1"
_symmetry_group_IT_number 2
_symmetry_cell_setting 'triclinic'
loop_
_space_group_symop_operation_xyz
x,y,z
-x,-y,-z
loop_
_atom_site_type_symbol
_atom_site_label
_atom_site_fract_x
_atom_site_fract_y
_atom_site_fract_z
Si Si1 0.226910 0.616619 0.506218
Si Si2 0.416967 0.510531 0.217548
Si Si3 0.737751 0.682479 0.770490
Si Si4 0.082793 0.351671 0.602188
Si Si5 0.964207 0.055514 0.219584
Si Si6 0.849409 0.977427 0.703682
Si Si7 0.229353 0.718786 0.822600
Si Si8 0.439654 0.806442 0.723013
O O1 0.331718 0.553761 0.387368
O O2 0.139822 0.455534 0.648139
O O3 0.241699 0.678484 0.644964
O O4 0.184592 0.813751 0.330141
O O5 0.365683 0.349094 0.231275
O O6 0.513746 0.387321 0.284715
O O7 0.435124 0.708339 0.974175
O O8 0.825056 0.685850 0.568075
O O9 0.754754 0.853193 0.785200
O O10 0.756969 0.482708 0.972499
O O11 0.000000 0.500000 0.500000
O O12 0.034047 0.139483 0.771966
O O13 0.882537 0.202104 0.114217
O O14 0.075213 0.118676 0.158574
O O15 0.912036 0.008621 0.467474
O O16 0.322952 0.848243 0.735116
O O17 0.500000 0.000000 0.500000
#
# Coordination Sequence:
#
# PCOD9077033 Si02
#       8
#     2   2   2   2   2   2   2   2
#     4  10  20  35  59  83 115 146 185 242 282 329
#     4   9  21  42  61  85 116 148 190 239 292 344
#     4   9  20  36  58  78 116 154 187 229 283 348
#     4  10  18  34  55  77 110 157 194 227 275 330
#     4   9  18  32  54  79 112 154 188 221 274 345
#     4   9  17  32  54  81 112 153 188 216 282 338
#     4  10  22  38  55  86 114 145 192 237 284 338
#     4  10  22  40  66  84 109 153 193 232 295 358
#
# _framework density 21.77854
#
# number of rings (size 3 to 8) (size 9 to 14) (size 15 to 20)
#    0.000    2.500    1.250    0.000    8.750    1.000 
#    2.250    2.500    0.000    0.000    0.000    0.000 
#    0.000    0.000    0.000    0.000    0.000    0.000 
#
# Total GULP energy -89113.922127 kJ/mol
# GULP energy per Si atom -5569.620133 kJ/mol
# Density = 2.172897 g / cm^3
# Si number density = 21.778540 Si / 1000 Ang^3
#
#
#
# Elastic Constant Matrix: (Units=GPa)
#
#
# Indices 1 2 3 4 5 6 
#
# 1 60.9683 13.4507 5.0998 12.1085 3.8981 -10.4618
# 2 13.4507 72.8683 7.5149 -4.4538 -2.9628 -9.2182
# 3 5.0998 7.5149 71.2188 -10.8446 -8.9177 4.7787
# 4 12.1085 -4.4538 -10.8446 18.1840 -5.0826 -5.7922
# 5 3.8981 -2.9628 -8.9177 -5.0826 15.8870 -6.7332
# 6 -10.4618 -9.2182 4.7787 -5.7922 -6.7332 22.4082
#
#
#
# Elastic Compliance Matrix: (Units=1/GPa)
#
#
# Indices 1 2 3 4 5 6 
#
# 1 0.026399 -0.007814 -0.009204 -0.034201 -0.026467 -0.005720
# 2 -0.007814 0.019117 0.003755 0.023327 0.021837 0.016007
# 3 -0.009204 0.003755 0.022173 0.031581 0.029562 0.009565
# 4 -0.034201 0.023327 0.031581 0.148503 0.101635 0.055818
# 5 -0.026467 0.021837 0.029562 0.101635 0.148573 0.061236
# 6 -0.005720 0.016007 0.009565 0.055818 0.061236 0.079329
#
#
# Mechanical properties :
#
#
# Convention : Reuss Voigt Hill
#
# Bulk Modulus (GPa) = 24.29409 28.57625 26.43517
# Shear Modulus (GPa) = 10.32330 23.22853 16.77591
#
# Velocity S-wave (km/s) = 2.17954 3.26939 2.77843
# Velocity P-wave (km/s) = 4.18487 5.23466 4.73893
#
# Compressibility (1/GPa) = 0.04116228
#
# Stress axis : x y z
#
# Youngs Moduli (GPa) = 37.88042 52.30917 45.10019
#
# Poissons Ratio (x) = 0.40874 0.41510
# Poissons Ratio (y) = 0.29599 -0.16933
# Poissons Ratio (z) = 0.34865 -0.19640
#
# Static dielectric constant tensor:
#      x y z
#    x 1.939020 0.023130 -0.053850 
#    y 0.023130 1.801020 -0.082170 
#    z -0.053850 -0.082170 2.218200 
# 
# From -- ./inp_files/206074.got.cif
#   From: 2010.05.17/outbox.cif.g08.bks.cpg/sg2_104_cif.got.tgz:206074.got - 2010.06.03 11:33:40.
