data_PCOD9077194
_publ_section_title
;
Structure prediction by ZEFSAII (Michael W. Deem and Ramdas Pophale) SiO2 
 PCOD9077194
Probable space group: P -1
;
_chemical_formula_sum "Si O2"
_cell_formula_units_Z 16
_cell_length_a 13.048006
_cell_length_b 15.159750
_cell_length_c 12.216087
_cell_angle_alpha 140.612233
_cell_angle_beta 120.358533
_cell_angle_gamma 90.759354
_cell_volume 893.431808
_symmetry_space_group_name_H-M "P -1"
_symmetry_group_IT_number 2
_symmetry_cell_setting 'triclinic'
loop_
_space_group_symop_operation_xyz
x,y,z
-x,-y,-z
loop_
_atom_site_type_symbol
_atom_site_label
_atom_site_fract_x
_atom_site_fract_y
_atom_site_fract_z
Si Si1 0.757874 0.558695 0.760074
Si Si2 0.890572 0.829518 0.375680
Si Si3 0.390026 0.061227 0.867412
Si Si4 0.981910 0.930395 0.098524
Si Si5 0.023380 0.685307 0.200204
Si Si6 0.759283 0.894549 0.771789
Si Si7 0.549687 0.582347 0.833417
Si Si8 0.561628 0.920810 0.848355
O O1 0.647630 0.579866 0.787384
O O2 0.626505 0.315191 0.453329
O O3 0.826885 0.688401 0.811808
O O4 0.933918 0.667987 0.025486
O O5 0.920751 0.690292 0.240685
O O6 0.959084 0.946070 0.638858
O O7 0.688849 0.693723 0.114463
O O8 0.000000 0.000000 0.500000
O O9 0.225768 0.890192 0.534882
O O10 0.524755 0.049375 0.927370
O O11 0.468603 0.276696 0.082394
O O12 0.331750 0.013209 0.918115
O O13 0.141575 0.995593 0.183010
O O14 0.903638 0.976935 0.019014
O O15 0.000000 0.500000 0.000000
O O16 0.626962 0.650202 0.455159
O O17 0.647903 0.921675 0.791821
#
# Coordination Sequence:
#
# PCOD9077194 Si02
#       8
#     2   2   2   2   2   2   2   2
#     4  10  18  34  57  81 105 138 186 221 265 315
#     4  11  19  34  58  84 105 138 187 231 267 313
#     4  11  19  31  55  79 114 137 181 223 271 316
#     4  11  20  37  60  80 109 146 185 222 273 320
#     4  11  19  31  52  84 109 134 173 233 273 312
#     4  10  23  36  56  81 115 145 179 222 273 330
#     4  10  19  35  57  83 106 141 179 233 264 313
#     4  10  21  33  52  84 108 144 175 224 271 321
#
# _framework density 17.908473999999998
#
# number of rings (size 3 to 8) (size 9 to 14) (size 15 to 20)
#    0.000    1.500    5.000    2.250    0.000    2.500 
#    0.000    0.000    2.750    6.000    0.000    0.000 
#    0.000    0.000    0.000    0.000    0.000    0.000 
#
# Total GULP energy -89207.004873 kJ/mol
# GULP energy per Si atom -5575.437805 kJ/mol
# Density = 1.786771 g / cm^3
# Si number density = 17.908474 Si / 1000 Ang^3
#
#
#
# Elastic Constant Matrix: (Units=GPa)
#
#
# Indices 1 2 3 4 5 6 
#
# 1 72.9044 34.3648 22.4873 11.5526 -13.1628 -2.2531
# 2 34.3648 48.6839 16.6902 4.2034 -8.6476 -3.7606
# 3 22.4873 16.6902 78.5742 -5.0987 -9.1665 3.4160
# 4 11.5526 4.2034 -5.0987 29.8168 -2.0110 -5.6798
# 5 -13.1628 -8.6476 -9.1665 -2.0110 23.4543 9.2724
# 6 -2.2531 -3.7606 3.4160 -5.6798 9.2724 34.6238
#
#
#
# Elastic Compliance Matrix: (Units=1/GPa)
#
#
# Indices 1 2 3 4 5 6 
#
# 1 0.023791 -0.013862 -0.003390 -0.007897 0.007384 -0.002896
# 2 -0.013862 0.031657 -0.002556 0.001069 0.002028 0.002421
# 3 -0.003390 -0.002556 0.015128 0.004081 0.004406 -0.002501
# 4 -0.007897 0.001069 0.004081 0.038161 -0.001487 0.005858
# 5 0.007384 0.002028 0.004406 -0.001487 0.054929 -0.014688
# 6 -0.002896 0.002421 -0.002501 0.005858 -0.014688 0.034098
#
#
# Mechanical properties :
#
#
# Convention : Reuss Voigt Hill
#
# Bulk Modulus (GPa) = 32.29996 38.58298 35.44147
# Shear Modulus (GPa) = 20.18582 26.02032 23.10307
#
# Velocity S-wave (km/s) = 3.36097 3.81591 3.59564
# Velocity P-wave (km/s) = 5.75646 6.40361 6.08864
#
# Compressibility (1/GPa) = 0.03095979
#
# Stress axis : x y z
#
# Youngs Moduli (GPa) = 42.03236 31.58879 66.10472
#
# Poissons Ratio (x) = 0.43788 0.22406
# Poissons Ratio (y) = 0.58265 0.16900
# Poissons Ratio (z) = 0.14247 0.08076
#
# Static dielectric constant tensor:
#      x y z
#    x 1.631260 -0.009670 -0.007530 
#    y -0.009670 1.613070 -0.018770 
#    z -0.007530 -0.018770 1.658140 
# 
# From -- ./inp_files/283266.got.cif
#   From: 2010.05.17/outbox.cif.g08.bks.cpg/sg2_142_cif.got.tgz:283266.got - 2010.06.03 11:33:40.
