data_PCOD9077501
_publ_section_title
;
Structure prediction by ZEFSAII (Michael W. Deem and Ramdas Pophale) SiO2 
 PCOD9077501
Probable space group: P -1
;
_chemical_formula_sum "Si O2"
_cell_formula_units_Z 16
_cell_length_a 12.205022
_cell_length_b 8.560222
_cell_length_c 21.364364
_cell_angle_alpha 47.804737
_cell_angle_beta 31.225937
_cell_angle_gamma 37.342260
_cell_volume 701.661275
_symmetry_space_group_name_H-M "P -1"
_symmetry_group_IT_number 2
_symmetry_cell_setting 'triclinic'
loop_
_space_group_symop_operation_xyz
x,y,z
-x,-y,-z
loop_
_atom_site_type_symbol
_atom_site_label
_atom_site_fract_x
_atom_site_fract_y
_atom_site_fract_z
Si Si1 0.834130 0.745835 0.059377
Si Si2 0.843647 0.869491 0.354071
Si Si3 0.338856 0.440323 0.638985
Si Si4 0.427921 0.068551 0.410039
Si Si5 0.028386 0.317339 0.439643
Si Si6 0.147196 0.363279 0.113079
Si Si7 0.660213 0.164271 0.675197
Si Si8 0.275355 0.898482 0.083208
O O1 0.539193 0.829169 0.181918
O O2 0.968055 0.636120 0.090609
O O3 0.000000 0.500000 0.000000
O O4 0.829234 0.976432 0.967777
O O5 0.741140 0.969994 0.447013
O O6 0.867552 0.601546 0.413534
O O7 0.115613 0.804878 0.218119
O O8 0.628423 0.073940 0.355211
O O9 0.500000 0.500000 0.500000
O O10 0.471527 0.380411 0.657989
O O11 0.032833 0.632479 0.745964
O O12 0.401442 0.175862 0.651688
O O13 0.229034 0.291984 0.399874
O O14 0.853593 0.239225 0.579681
O O15 0.177667 0.105116 0.369370
O O16 0.215157 0.134442 0.093792
O O17 0.418493 0.306841 0.014931
#
# Coordination Sequence:
#
# PCOD9077501 Si02
#       8
#     2   2   2   2   2   2   2   2
#     4   9  19  35  55  81 113 145 180 230 280 327
#     4  11  23  39  56  84 119 151 192 234 284 347
#     4  10  18  34  60  86 114 147 186 242 290 326
#     4  10  23  37  55  83 115 152 190 230 287 344
#     4  10  21  39  61  85 114 149 186 241 292 332
#     4   9  20  37  57  85 112 146 195 236 279 333
#     4   9  20  37  60  88 113 143 195 238 281 345
#     4  10  21  36  58  84 113 151 192 232 279 340
#
# _framework density 22.803024000000001
#
# number of rings (size 3 to 8) (size 9 to 14) (size 15 to 20)
#    0.000    2.250    0.000    1.875    0.000   13.000 
#    0.000    2.500    0.000    4.500    0.000    0.000 
#    0.000    0.000    0.000    0.000    0.000    0.000 
#
# Total GULP energy -89327.173835 kJ/mol
# GULP energy per Si atom -5582.948365 kJ/mol
# Density = 2.275112 g / cm^3
# Si number density = 22.803024 Si / 1000 Ang^3
#
#
#
# Elastic Constant Matrix: (Units=GPa)
#
#
# Indices 1 2 3 4 5 6 
#
# 1 58.0748 12.4610 13.6099 4.5055 -5.8679 -14.0832
# 2 12.4610 62.3180 32.9673 16.0322 -9.4004 -5.6350
# 3 13.6099 32.9673 158.8755 27.8469 -3.6666 -6.7273
# 4 4.5055 16.0322 27.8469 34.9325 -6.3594 0.0159
# 5 -5.8679 -9.4004 -3.6666 -6.3594 23.0402 3.9242
# 6 -14.0832 -5.6350 -6.7273 0.0159 3.9242 20.2870
#
#
#
# Elastic Compliance Matrix: (Units=1/GPa)
#
#
# Indices 1 2 3 4 5 6 
#
# 1 0.021414 -0.002208 -0.000587 -0.000947 0.001865 0.013698
# 2 -0.002208 0.020502 -0.002813 -0.005910 0.005349 0.002199
# 3 -0.000587 -0.002813 0.007881 -0.005243 -0.001792 0.001775
# 4 -0.000947 -0.005910 -0.005243 0.037042 0.007683 -0.005553
# 5 0.001865 0.005349 -0.001792 0.007683 0.049143 -0.007326
# 6 0.013698 0.002199 0.001775 -0.005553 -0.007326 0.061422
#
#
# Mechanical properties :
#
#
# Convention : Reuss Voigt Hill
#
# Bulk Modulus (GPa) = 25.91875 44.14942 35.03408
# Shear Modulus (GPa) = 22.57533 30.33394 26.45464
#
# Velocity S-wave (km/s) = 3.14986 3.65123 3.40977
# Velocity P-wave (km/s) = 4.96184 6.09742 5.55871
#
# Compressibility (1/GPa) = 0.03858211
#
# Stress axis : x y z
#
# Youngs Moduli (GPa) = 46.69819 48.77486 126.88819
#
# Poissons Ratio (x) = 0.10768 0.07451
# Poissons Ratio (y) = 0.10309 0.35691
# Poissons Ratio (z) = 0.02742 0.13719
#
# Static dielectric constant tensor:
#      x y z
#    x 1.887810 -0.035170 0.003160 
#    y -0.035170 1.844500 0.002080 
#    z 0.003160 0.002080 1.872320 
# 
# From -- ./inp_files/594022.got.cif
#   From: 2010.05.17/outbox.cif.g08.bks.cpg/sg2_298_cif.got.tgz:594022.got - 2010.06.03 11:33:40.
