data_PCOD9077604
_publ_section_title
;
Structure prediction by ZEFSAII (Michael W. Deem and Ramdas Pophale) SiO2 
 PCOD9077604
Probable space group: P -1
;
_chemical_formula_sum "Si O2"
_cell_formula_units_Z 14
_cell_length_a 9.885900
_cell_length_b 7.895473
_cell_length_c 11.994494
_cell_angle_alpha 105.359280
_cell_angle_beta 137.088962
_cell_angle_gamma 102.526126
_cell_volume 479.420138
_symmetry_space_group_name_H-M "P -1"
_symmetry_group_IT_number 2
_symmetry_cell_setting 'triclinic'
loop_
_space_group_symop_operation_xyz
x,y,z
-x,-y,-z
loop_
_atom_site_type_symbol
_atom_site_label
_atom_site_fract_x
_atom_site_fract_y
_atom_site_fract_z
Si Si1 0.694185 0.448846 0.673541
Si Si2 0.519686 0.838970 0.054434
Si Si3 0.417503 0.650026 0.634958
Si Si4 0.164661 0.373796 0.629792
Si Si5 0.980707 0.854159 0.281573
Si Si6 0.371010 0.627546 0.138560
Si Si7 0.050913 0.941488 0.902129
O O1 0.526502 0.523397 0.630390
O O2 0.617447 0.280858 0.495112
O O3 0.712960 0.361895 0.787687
O O4 0.935451 0.684192 0.805230
O O5 0.799481 0.913012 0.225915
O O6 0.423290 0.810336 0.115949
O O7 0.343109 0.591450 0.853277
O O8 0.500000 0.000000 0.000000
O O9 0.166542 0.482211 0.531480
O O10 0.644875 0.852026 0.883550
O O11 0.958497 0.199556 0.568858
O O12 0.354597 0.320896 0.696853
O O13 0.099805 0.031816 0.280679
O O14 0.833268 0.621763 0.080519
O O15 0.000000 0.000000 0.000000
#
# Coordination Sequence:
#
# PCOD9077604 Si02
#       7
#     2   2   2   2   2   2   2
#     4   9  16  24  40  65  89 116 140 170 219 263
#     4   9  15  23  42  67  83 108 151 182 209 256
#     4   9  15  25  40  63  90 113 140 179 212 259
#     4   8  14  25  42  60  84 113 140 181 220 247
#     4   9  14  25  42  62  86 112 143 179 216 254
#     4   8  13  25  40  60  87 112 140 177 218 252
#     4  10  15  24  41  65  88 117 139 173 218 261
#
# _framework density 29.201943
#
# number of rings (size 3 to 8) (size 9 to 14) (size 15 to 20)
#    0.000    3.143    5.714    1.714    0.000    0.000 
#    0.000    0.714    0.000    1.714    0.000    1.000 
#    0.000    0.000    0.000    0.000    0.000    0.000 
#
# Total GULP energy -78049.881972 kJ/mol
# GULP energy per Si atom -5574.991569 kJ/mol
# Density = 2.913548 g / cm^3
# Si number density = 29.201943 Si / 1000 Ang^3
#
#
#
# Elastic Constant Matrix: (Units=GPa)
#
#
# Indices 1 2 3 4 5 6 
#
# 1 124.5181 37.9379 40.1520 -19.3641 -9.0115 34.5278
# 2 37.9379 190.8961 39.4625 -23.9187 -23.0103 66.6695
# 3 40.1520 39.4625 114.2597 -5.5207 -21.6052 30.7188
# 4 -19.3641 -23.9187 -5.5207 42.4367 25.0908 -23.1205
# 5 -9.0115 -23.0103 -21.6052 25.0908 43.8171 -20.5700
# 6 34.5278 66.6695 30.7188 -23.1205 -20.5700 62.0698
#
#
#
# Elastic Compliance Matrix: (Units=1/GPa)
#
#
# Indices 1 2 3 4 5 6 
#
# 1 0.010559 0.000032 -0.003173 0.004551 -0.003817 -0.003908
# 2 0.000032 0.008414 -0.000529 -0.000199 0.000137 -0.008823
# 3 -0.003173 -0.000529 0.012030 -0.006228 0.006844 -0.003672
# 4 0.004551 -0.000199 -0.006228 0.043158 -0.022556 0.009365
# 5 -0.003817 0.000137 0.006844 -0.022556 0.040019 0.003450
# 6 -0.003908 -0.008823 -0.003672 0.009365 0.003450 0.034211
#
#
# Mechanical properties :
#
#
# Convention : Reuss Voigt Hill
#
# Bulk Modulus (GPa) = 42.25771 73.86431 58.06101
# Shear Modulus (GPa) = 30.55875 50.47281 40.51578
#
# Velocity S-wave (km/s) = 3.23842 4.16192 3.72887
# Velocity P-wave (km/s) = 5.33717 6.96022 6.20202
#
# Compressibility (1/GPa) = 0.02366432
#
# Stress axis : x y z
#
# Youngs Moduli (GPa) = 94.70184 118.84594 83.12364
#
# Poissons Ratio (x) = -0.00386 0.26375
# Poissons Ratio (y) = -0.00307 0.04399
# Poissons Ratio (z) = 0.30049 0.06290
#
# Static dielectric constant tensor:
#      x y z
#    x 2.211670 0.014220 0.131090 
#    y 0.014220 2.535500 -0.226170 
#    z 0.131090 -0.226170 2.518720 
# 
# From -- ./inp_files/235019.got.cif
#   From: 2010.05.17/outbox.cif.g08.bks.cpg/sg2_118_cif.got.tgz:235019.got - 2010.06.03 11:33:40.
