data_PCOD9077784
_publ_section_title
;
Structure prediction by ZEFSAII (Michael W. Deem and Ramdas Pophale) SiO2 
 PCOD9077784
Probable space group: P -1
;
_chemical_formula_sum "Si O2"
_cell_formula_units_Z 15
_cell_length_a 7.720750
_cell_length_b 12.279067
_cell_length_c 9.074685
_cell_angle_alpha 106.500837
_cell_angle_beta 72.254205
_cell_angle_gamma 57.834157
_cell_volume 577.649076
_symmetry_space_group_name_H-M "P -1"
_symmetry_group_IT_number 2
_symmetry_cell_setting 'triclinic'
loop_
_space_group_symop_operation_xyz
x,y,z
-x,-y,-z
loop_
_atom_site_type_symbol
_atom_site_label
_atom_site_fract_x
_atom_site_fract_y
_atom_site_fract_z
Si Si1 0.000000 0.500000 0.500000
Si Si2 0.226270 0.992359 0.818186
Si Si3 0.559429 0.306066 0.177050
Si Si4 0.643325 0.528813 0.308015
Si Si5 0.157635 0.861086 0.536964
Si Si6 0.480148 0.289455 0.867801
Si Si7 0.847299 0.755111 0.903245
Si Si8 0.229343 0.174810 0.378290
O O1 0.286414 0.383747 0.323799
O O2 0.071806 0.352620 0.522743
O O3 0.276257 0.869632 0.875292
O O4 0.099520 0.986920 0.710415
O O5 0.494694 0.928103 0.670814
O O6 0.090227 0.157972 0.988162
O O7 0.590124 0.418899 0.275603
O O8 0.566416 0.314719 0.002211
O O9 0.398694 0.697049 0.489479
O O10 0.676849 0.565689 0.148793
O O11 0.909471 0.422327 0.279831
O O12 0.287834 0.842935 0.344897
O O13 0.949945 0.855577 0.560158
O O14 0.324222 0.249604 0.953218
O O15 0.730341 0.846713 0.817836
#
# Coordination Sequence:
#
# PCOD9077784 Si02
#       8
#     1   2   2   2   2   2   2   2
#     4  10  18  34  66 100 122 168 222 284 322 378
#     4  11  26  44  72 102 136 186 232 279 343 414
#     4  11  21  41  71 100 136 175 235 283 340 409
#     4  10  24  40  69 102 135 177 227 287 341 406
#     4  10  25  45  68 104 139 176 233 286 346 396
#     4  10  23  44  68 100 137 180 226 286 346 405
#     4  12  24  45  69  97 143 181 229 280 346 413
#     4  11  23  41  72 100 136 177 235 287 335 404
#
# _framework density 25.967323
#
# number of rings (size 3 to 8) (size 9 to 14) (size 15 to 20)
#    0.800    0.533    4.000    2.000    3.733    3.733 
#    2.400    0.667    0.000    0.000    0.000    0.000 
#    0.000    0.000    0.000    0.000    0.000    0.000 
#
# Total GULP energy -83790.725251 kJ/mol
# GULP energy per Si atom -5586.048350 kJ/mol
# Density = 2.590822 g / cm^3
# Si number density = 25.967323 Si / 1000 Ang^3
#
#
#
# Elastic Constant Matrix: (Units=GPa)
#
#
# Indices 1 2 3 4 5 6 
#
# 1 106.5818 6.7502 7.3052 17.6347 -15.1547 24.2872
# 2 6.7502 89.4965 20.2727 13.9197 -11.4706 0.7371
# 3 7.3052 20.2727 102.3842 -0.7539 -8.2741 16.7858
# 4 17.6347 13.9197 -0.7539 50.2142 9.2636 -1.4255
# 5 -15.1547 -11.4706 -8.2741 9.2636 49.0367 0.6633
# 6 24.2872 0.7371 16.7858 -1.4255 0.6633 40.4484
#
#
#
# Elastic Compliance Matrix: (Units=1/GPa)
#
#
# Indices 1 2 3 4 5 6 
#
# 1 0.012982 0.000554 0.000745 -0.005956 0.005506 -0.008415
# 2 0.000554 0.012816 -0.002350 -0.004443 0.003609 0.000194
# 3 0.000745 -0.002350 0.011138 0.000118 0.001606 -0.005049
# 4 -0.005956 -0.004443 0.000118 0.024773 -0.007602 0.004606
# 5 0.005506 0.003609 0.001606 -0.007602 0.024710 -0.004712
# 6 -0.008415 0.000194 -0.005049 0.004606 -0.004712 0.032107
#
#
# Mechanical properties :
#
#
# Convention : Reuss Voigt Hill
#
# Bulk Modulus (GPa) = 28.70859 40.79097 34.74978
# Shear Modulus (GPa) = 37.81020 45.54884 41.67952
#
# Velocity S-wave (km/s) = 3.81999 4.19272 4.01069
# Velocity P-wave (km/s) = 5.52594 6.25949 5.90412
#
# Compressibility (1/GPa) = 0.03483278
#
# Stress axis : x y z
#
# Youngs Moduli (GPa) = 77.02840 78.02648 89.78556
#
# Poissons Ratio (x) = -0.04319 -0.06687
# Poissons Ratio (y) = -0.04264 0.21099
# Poissons Ratio (z) = -0.05737 0.18336
#
# Static dielectric constant tensor:
#      x y z
#    x 1.888560 -0.062900 -0.126010 
#    y -0.062900 2.060930 0.024780 
#    z -0.126010 0.024780 1.977930 
# 
# From -- ./inp_files/202477.got.cif
#   From: 2010.05.17/outbox.cif.g08.bks.cpg/sg2_102_cif.got.tgz:202477.got - 2010.06.03 11:33:40.
