data_PCOD9077157
_publ_section_title
;
Structure prediction by ZEFSAII (Michael W. Deem and Ramdas Pophale) SiO2 
 PCOD9077157
Probable space group: P -1
;
_chemical_formula_sum "Si O2"
_cell_formula_units_Z 16
_cell_length_a 8.857862
_cell_length_b 14.747441
_cell_length_c 7.773955
_cell_angle_alpha 54.299352
_cell_angle_beta 127.093933
_cell_angle_gamma 122.358638
_cell_volume 630.926911
_symmetry_space_group_name_H-M "P -1"
_symmetry_group_IT_number 2
_symmetry_cell_setting 'triclinic'
loop_
_space_group_symop_operation_xyz
x,y,z
-x,-y,-z
loop_
_atom_site_type_symbol
_atom_site_label
_atom_site_fract_x
_atom_site_fract_y
_atom_site_fract_z
Si Si1 0.132096 0.260436 0.446699
Si Si2 0.114564 0.336565 0.943350
Si Si3 0.965522 0.455217 0.220887
Si Si4 0.203592 0.955019 0.629022
Si Si5 0.567292 0.918077 0.776225
Si Si6 0.159674 0.898097 0.040405
Si Si7 0.464829 0.200471 0.594756
Si Si8 0.520729 0.336336 0.152132
O O1 0.346875 0.238567 0.628124
O O2 0.085871 0.360009 0.422044
O O3 0.957481 0.140842 0.483160
O O4 0.122491 0.300009 0.193173
O O5 0.992161 0.430897 0.756028
O O6 0.010564 0.217310 0.906837
O O7 0.334515 0.388327 0.963268
O O8 0.731552 0.397474 0.149341
O O9 0.000000 0.500000 0.000000
O O10 0.396516 0.907690 0.810969
O O11 0.295595 0.092886 0.509560
O O12 0.123249 0.946511 0.776951
O O13 0.552656 0.791406 0.841856
O O14 0.500000 0.000000 0.500000
O O15 0.775681 0.996170 0.900716
O O16 0.352084 0.850991 0.200374
O O17 0.539264 0.306793 0.397925
#
# Coordination Sequence:
#
# PCOD9077157 Si02
#       8
#     2   2   2   2   2   2   2   2
#     4   9  18  32  58  85 109 152 198 231 274 343
#     4   9  21  37  56  83 114 152 191 241 284 330
#     4  10  20  38  60  83 110 146 200 245 280 333
#     4  10  18  34  56  86 122 151 184 236 286 334
#     4  11  19  33  59  87 119 150 188 233 284 349
#     4  10  21  37  57  86 124 153 184 232 292 334
#     4  10  19  33  56  86 118 150 187 228 288 348
#     4  11  20  35  61  86 111 150 197 235 282 342
#
# _framework density 25.359514999999998
#
# number of rings (size 3 to 8) (size 9 to 14) (size 15 to 20)
#    0.000    2.000    3.750    2.250    0.000    0.500 
#    0.000    1.250    8.250    0.000    0.000    0.000 
#    0.000    0.000    0.000    0.000    0.000    0.000 
#
# Total GULP energy -89384.882578 kJ/mol
# GULP energy per Si atom -5586.555161 kJ/mol
# Density = 2.530180 g / cm^3
# Si number density = 25.359515 Si / 1000 Ang^3
#
#
#
# Elastic Constant Matrix: (Units=GPa)
#
#
# Indices 1 2 3 4 5 6 
#
# 1 136.1033 35.8771 6.8540 -18.3135 20.9433 23.4843
# 2 35.8771 105.9224 -1.2076 -11.5581 5.2848 3.5347
# 3 6.8540 -1.2076 38.2828 -8.8895 -1.5993 9.8995
# 4 -18.3135 -11.5581 -8.8895 27.2278 -4.9698 9.8916
# 5 20.9433 5.2848 -1.5993 -4.9698 42.0169 -15.5111
# 6 23.4843 3.5347 9.8995 9.8916 -15.5111 50.2706
#
#
#
# Elastic Compliance Matrix: (Units=1/GPa)
#
#
# Indices 1 2 3 4 5 6 
#
# 1 0.012452 -0.002225 0.002657 0.010704 -0.008599 -0.010943
# 2 -0.002225 0.010678 0.001878 0.003961 -0.000013 -0.000865
# 3 0.002657 0.001878 0.032674 0.017120 -0.002728 -0.012018
# 4 0.010704 0.003961 0.017120 0.058033 -0.006463 -0.022063
# 5 -0.008599 -0.000013 -0.002728 -0.006463 0.033146 0.016055
# 6 -0.010943 -0.000865 -0.012018 -0.022063 0.016055 0.036727
#
#
# Mechanical properties :
#
#
# Convention : Reuss Voigt Hill
#
# Bulk Modulus (GPa) = 16.55012 40.37282 28.46147
# Shear Modulus (GPa) = 25.09633 39.82206 32.45919
#
# Velocity S-wave (km/s) = 3.14924 3.96700 3.58154
# Velocity P-wave (km/s) = 4.44567 6.07763 5.32454
#
# Compressibility (1/GPa) = 0.06042253
#
# Stress axis : x y z
#
# Youngs Moduli (GPa) = 80.30914 93.65361 30.60532
#
# Poissons Ratio (x) = 0.20839 -0.08131
# Poissons Ratio (y) = 0.17869 -0.05747
# Poissons Ratio (z) = -0.21335 -0.17588
#
# Static dielectric constant tensor:
#      x y z
#    x 2.087670 -0.033530 -0.031470 
#    y -0.033530 1.991390 0.007810 
#    z -0.031470 0.007810 2.064720 
# 
# From -- ./inp_files/206077.got.cif
#   From: 2010.05.17/outbox.cif.g08.bks.cpg/sg2_104_cif.got.tgz:206077.got - 2010.06.03 11:33:40.
