data_PCOD9077595
_publ_section_title
;
Structure prediction by ZEFSAII (Michael W. Deem and Ramdas Pophale) SiO2 
 PCOD9077595
Probable space group: P -1
;
_chemical_formula_sum "Si O2"
_cell_formula_units_Z 14
_cell_length_a 7.913988
_cell_length_b 11.771919
_cell_length_c 15.463228
_cell_angle_alpha 143.043784
_cell_angle_beta 133.487492
_cell_angle_gamma 67.357017
_cell_volume 581.711360
_symmetry_space_group_name_H-M "P -1"
_symmetry_group_IT_number 2
_symmetry_cell_setting 'triclinic'
loop_
_space_group_symop_operation_xyz
x,y,z
-x,-y,-z
loop_
_atom_site_type_symbol
_atom_site_label
_atom_site_fract_x
_atom_site_fract_y
_atom_site_fract_z
Si Si1 0.058091 0.830074 0.468069
Si Si2 0.792842 0.132309 0.263895
Si Si3 0.309324 0.591291 0.097137
Si Si4 0.230177 0.908648 0.952434
Si Si5 0.276274 0.630154 0.293255
Si Si6 0.535666 0.632397 0.678170
Si Si7 0.652046 0.372677 0.054079
O O1 0.097702 0.888572 0.618234
O O2 0.274721 0.786682 0.463373
O O3 0.839601 0.607323 0.256700
O O4 0.000000 0.000000 0.500000
O O5 0.920152 0.143407 0.222435
O O6 0.717021 0.329210 0.365745
O O7 0.522252 0.943424 0.051623
O O8 0.390723 0.711455 0.288887
O O9 0.406103 0.403012 0.023350
O O10 0.414001 0.710318 0.117074
O O11 0.011973 0.500505 0.916563
O O12 0.195723 0.742764 0.912535
O O13 0.264069 0.136878 0.130004
O O14 0.386442 0.476033 0.281566
O O15 0.500000 0.500000 0.500000
#
# Coordination Sequence:
#
# PCOD9077595 Si02
#       7
#     2   2   2   2   2   2   2
#     4  11  24  38  62  87 123 163 205 251 309 360
#     4   9  20  36  62  87 120 161 205 237 306 367
#     4   9  21  34  63  85 122 153 202 252 299 355
#     4   9  20  35  63  87 118 159 204 242 298 365
#     4  10  19  37  59  88 116 160 203 241 304 367
#     4  10  18  34  61  87 119 155 195 247 296 362
#     4  10  21  39  59  94 120 160 203 256 299 353
#
# _framework density 24.066918999999999
#
# number of rings (size 3 to 8) (size 9 to 14) (size 15 to 20)
#    0.857    1.429    1.429    0.857    6.000    1.714 
#    0.000    3.571    3.143    0.000    0.000    0.000 
#    0.000    0.000    0.000    0.000    0.000    0.000 
#
# Total GULP energy -78022.751975 kJ/mol
# GULP energy per Si atom -5573.053712 kJ/mol
# Density = 2.401214 g / cm^3
# Si number density = 24.066919 Si / 1000 Ang^3
#
#
#
# Elastic Constant Matrix: (Units=GPa)
#
#
# Indices 1 2 3 4 5 6 
#
# 1 32.5285 34.7366 21.2850 -11.1496 -21.7367 4.3562
# 2 34.7366 211.4864 70.0998 -16.2108 -30.8926 10.7149
# 3 21.2850 70.0998 93.6525 -11.1607 -30.2207 25.5834
# 4 -11.1496 -16.2108 -11.1607 42.1488 10.0065 -10.5039
# 5 -21.7367 -30.8926 -30.2207 10.0065 34.2618 -9.8202
# 6 4.3562 10.7149 25.5834 -10.5039 -9.8202 25.5191
#
#
#
# Elastic Compliance Matrix: (Units=1/GPa)
#
#
# Indices 1 2 3 4 5 6 
#
# 1 0.060086 -0.004500 -0.000951 0.008184 0.033353 0.008789
# 2 -0.004500 0.007022 -0.005129 0.001060 -0.000430 0.003232
# 3 -0.000951 -0.005129 0.022552 -0.003124 0.010556 -0.017517
# 4 0.008184 0.001060 -0.003124 0.028967 -0.001439 0.012659
# 5 0.033353 -0.000430 0.010556 -0.001439 0.061714 0.007061
# 6 0.008789 0.003232 -0.017517 0.012659 0.007061 0.061817
#
#
# Mechanical properties :
#
#
# Convention : Reuss Voigt Hill
#
# Bulk Modulus (GPa) = 14.59840 65.54557 40.07199
# Shear Modulus (GPa) = 17.47320 34.48900 25.98110
#
# Velocity S-wave (km/s) = 2.69741 3.78967 3.28919
# Velocity P-wave (km/s) = 3.97244 6.81488 5.57776
#
# Compressibility (1/GPa) = 0.06850067
#
# Stress axis : x y z
#
# Youngs Moduli (GPa) = 16.64287 142.40446 44.34164
#
# Poissons Ratio (x) = 0.64080 0.04216
# Poissons Ratio (y) = 0.07489 0.22743
# Poissons Ratio (z) = 0.01582 0.73040
#
# Static dielectric constant tensor:
#      x y z
#    x 2.219970 0.078240 0.012970 
#    y 0.078240 1.987580 -0.046420 
#    z 0.012970 -0.046420 1.978150 
# 
# From -- ./inp_files/501044.got.cif
#   From: 2010.05.17/outbox.cif.g08.bks.cpg/sg2_251_cif.got.tgz:501044.got - 2010.06.03 11:33:40.
