data_PCOD9077023
_publ_section_title
;
Structure prediction by ZEFSAII (Michael W. Deem and Ramdas Pophale) SiO2 
 PCOD9077023
Probable space group: P -1
;
_chemical_formula_sum "Si O2"
_cell_formula_units_Z 16
_cell_length_a 14.050914
_cell_length_b 8.600490
_cell_length_c 19.967690
_cell_angle_alpha 78.185665
_cell_angle_beta 155.567516
_cell_angle_gamma 117.226503
_cell_volume 725.558754
_symmetry_space_group_name_H-M "P -1"
_symmetry_group_IT_number 2
_symmetry_cell_setting 'triclinic'
loop_
_space_group_symop_operation_xyz
x,y,z
-x,-y,-z
loop_
_atom_site_type_symbol
_atom_site_label
_atom_site_fract_x
_atom_site_fract_y
_atom_site_fract_z
Si Si1 0.327594 0.447941 0.110938
Si Si2 0.142837 0.314726 0.266156
Si Si3 0.075293 0.024321 0.144932
Si Si4 0.290485 0.630693 0.560866
Si Si5 0.691975 0.912670 0.268833
Si Si6 0.983638 0.250675 0.314537
Si Si7 0.341251 0.599169 0.248998
Si Si8 0.531740 0.003433 0.756760
O O1 0.598194 0.452023 0.307900
O O2 0.478615 0.659077 0.147154
O O3 0.228130 0.482963 0.114728
O O4 0.065260 0.217191 0.929335
O O5 0.500000 0.500000 0.500000
O O6 0.937383 0.246042 0.206166
O O7 0.124726 0.434497 0.183957
O O8 0.093848 0.117586 0.220757
O O9 0.827585 0.022318 0.947329
O O10 0.585306 0.800370 0.685579
O O11 0.015068 0.431892 0.357947
O O12 0.253064 0.772821 0.566771
O O13 0.539833 0.969541 0.217036
O O14 0.000000 0.000000 0.500000
O O15 0.774495 0.034664 0.241678
O O16 0.328192 0.334064 0.535138
O O17 0.414445 0.817513 0.269710
#
# Coordination Sequence:
#
# PCOD9077023 Si02
#       8
#     2   2   2   2   2   2   2   2
#     4   9  17  31  54  82 112 137 175 228 286 307
#     4  10  19  35  59  77 107 159 184 212 281 340
#     4  11  20  36  55  89 117 137 180 236 284 335
#     4  10  18  34  54  87 116 135 174 236 292 322
#     4  11  19  38  56  82 114 145 189 228 264 332
#     4  10  19  37  59  76 111 154 186 221 267 336
#     4   9  17  33  52  86 108 135 185 223 283 320
#     4  10  21  31  56  91 110 140 179 235 288 310
#
# _framework density 22.051970000000001
#
# number of rings (size 3 to 8) (size 9 to 14) (size 15 to 20)
#    0.000    2.000    7.500    1.500    0.000    1.000 
#    2.250    1.875    0.000    0.000    0.000    0.000 
#    0.000    0.000    0.000    0.000    0.000    0.000 
#
# Total GULP energy -89376.045621 kJ/mol
# GULP energy per Si atom -5586.002851 kJ/mol
# Density = 2.200178 g / cm^3
# Si number density = 22.051970 Si / 1000 Ang^3
#
#
#
# Elastic Constant Matrix: (Units=GPa)
#
#
# Indices 1 2 3 4 5 6 
#
# 1 102.5777 70.1226 34.6633 31.5134 -18.5782 32.4045
# 2 70.1226 126.8223 45.0788 54.7322 -16.5545 18.3404
# 3 34.6633 45.0788 84.0950 34.4132 -16.7548 5.0049
# 4 31.5134 54.7322 34.4132 51.2029 -15.2513 5.8265
# 5 -18.5782 -16.5545 -16.7548 -15.2513 38.3592 5.4521
# 6 32.4045 18.3404 5.0049 5.8265 5.4521 41.9708
#
#
#
# Elastic Compliance Matrix: (Units=1/GPa)
#
#
# Indices 1 2 3 4 5 6 
#
# 1 0.022287 -0.009007 -0.002536 0.001792 0.008548 -0.014328
# 2 -0.009007 0.019350 -0.000951 -0.015439 -0.002723 0.001109
# 3 -0.002536 -0.000951 0.017326 -0.008491 0.002386 0.001176
# 4 0.001792 -0.015439 -0.008491 0.042989 0.007672 -0.000589
# 5 0.008548 -0.002723 0.002386 0.007672 0.034729 -0.011271
# 6 -0.014328 0.001109 0.001176 -0.000589 -0.011271 0.035809
#
#
# Mechanical properties :
#
#
# Convention : Reuss Voigt Hill
#
# Bulk Modulus (GPa) = 29.43211 68.13606 48.78408
# Shear Modulus (GPa) = 23.94600 37.21527 30.58063
#
# Velocity S-wave (km/s) = 3.29886 4.11252 3.72795
# Velocity P-wave (km/s) = 5.28068 7.31542 6.37970
#
# Compressibility (1/GPa) = 0.03397650
#
# Stress axis : x y z
#
# Youngs Moduli (GPa) = 44.86994 51.67908 57.71583
#
# Poissons Ratio (x) = 0.46547 0.14635
# Poissons Ratio (y) = 0.40414 0.05487
# Poissons Ratio (z) = 0.11378 0.04913
#
# Static dielectric constant tensor:
#      x y z
#    x 1.864740 -0.028420 0.008890 
#    y -0.028420 1.822690 -0.011890 
#    z 0.008890 -0.011890 1.898970 
# 
# From -- ./inp_files/596995.got.cif
#   From: 2010.05.17/outbox.cif.g08.bks.cpg/sg2_299_cif.got.tgz:596995.got - 2010.06.03 11:33:40.
