data_PCOD9077131
_publ_section_title
;
Structure prediction by ZEFSAII (Michael W. Deem and Ramdas Pophale) SiO2 
 PCOD9077131
Probable space group: P -1
;
_chemical_formula_sum "Si O2"
_cell_formula_units_Z 14
_cell_length_a 14.547559
_cell_length_b 9.225274
_cell_length_c 5.292443
_cell_angle_alpha 94.771855
_cell_angle_beta 69.183725
_cell_angle_gamma 67.809673
_cell_volume 595.026771
_symmetry_space_group_name_H-M "P -1"
_symmetry_group_IT_number 2
_symmetry_cell_setting 'triclinic'
loop_
_space_group_symop_operation_xyz
x,y,z
-x,-y,-z
loop_
_atom_site_type_symbol
_atom_site_label
_atom_site_fract_x
_atom_site_fract_y
_atom_site_fract_z
Si Si1 0.789726 0.915217 0.964104
Si Si2 0.371694 0.638850 0.930947
Si Si3 0.869816 0.246557 0.787811
Si Si4 0.074641 0.461350 0.173058
Si Si5 0.539303 0.149050 0.311878
Si Si6 0.110962 0.000739 0.628934
Si Si7 0.480995 0.268922 0.889684
O O1 0.833964 0.975319 0.171605
O O2 0.658383 0.009506 0.113583
O O3 0.836662 0.723496 0.930007
O O4 0.840265 0.944128 0.655998
O O5 0.246475 0.729891 0.994753
O O6 0.405344 0.718750 0.150027
O O7 0.441859 0.684205 0.666609
O O8 0.400543 0.454712 0.939976
O O9 0.871417 0.416505 0.841991
O O10 0.981315 0.115737 0.782077
O O11 0.873692 0.178080 0.488994
O O12 0.000000 0.500000 0.500000
O O13 0.000000 0.500000 0.000000
O O14 0.493620 0.149552 0.632046
O O15 0.541169 0.805288 0.841399
#
# Coordination Sequence:
#
# PCOD9077131 Si02
#       7
#     2   2   2   2   2   2   2
#     4  12  21  42  61  84 123 163 197 233 305 355
#     4   9  19  34  56  87 114 150 188 250 297 338
#     4  11  22  41  60  93 120 157 202 248 290 353
#     4  12  25  44  57  83 126 167 194 238 296 356
#     4  10  18  34  56  83 110 152 191 236 289 355
#     4  11  24  38  61  90 119 156 197 257 282 345
#     4   9  19  34  55  85 119 141 188 253 300 338
#
# _framework density 23.528354
#
# number of rings (size 3 to 8) (size 9 to 14) (size 15 to 20)
#    0.857    0.571    4.286    2.143    0.000    3.429 
#    5.143    0.000    0.000    1.714    0.000    0.000 
#    0.000    0.000    0.000    0.000    0.000    0.000 
#
# Total GULP energy -78190.448435 kJ/mol
# GULP energy per Si atom -5585.032031 kJ/mol
# Density = 2.347480 g / cm^3
# Si number density = 23.528354 Si / 1000 Ang^3
#
#
#
# Elastic Constant Matrix: (Units=GPa)
#
#
# Indices 1 2 3 4 5 6 
#
# 1 76.8733 36.4833 35.3335 1.0028 6.2164 -0.9132
# 2 36.4833 137.0797 31.2105 31.0304 20.8971 -13.2842
# 3 35.3335 31.2105 120.5007 -6.7638 36.1625 -7.5099
# 4 1.0028 31.0304 -6.7638 33.4576 5.4354 2.5124
# 5 6.2164 20.8971 36.1625 5.4354 27.6773 4.1518
# 6 -0.9132 -13.2842 -7.5099 2.5124 4.1518 43.2965
#
#
#
# Elastic Compliance Matrix: (Units=1/GPa)
#
#
# Indices 1 2 3 4 5 6 
#
# 1 0.017776 -0.005326 -0.006546 0.001920 0.008705 -0.003341
# 2 -0.005326 0.012734 0.000160 -0.010823 -0.007274 0.005148
# 3 -0.006546 0.000160 0.018372 0.007423 -0.024870 0.005052
# 4 0.001920 -0.010823 0.007423 0.043248 -0.009919 -0.003551
# 5 0.008705 -0.007274 -0.024870 -0.009919 0.076072 -0.013081
# 6 -0.003341 0.005148 0.005052 -0.003551 -0.013081 0.026942
#
#
# Mechanical properties :
#
#
# Convention : Reuss Voigt Hill
#
# Bulk Modulus (GPa) = 39.28161 60.05648 49.66905
# Shear Modulus (GPa) = 22.02119 36.31470 29.16794
#
# Velocity S-wave (km/s) = 3.06264 3.93293 3.52475
# Velocity P-wave (km/s) = 5.40722 6.79739 6.14176
#
# Compressibility (1/GPa) = 0.02545720
#
# Stress axis : x y z
#
# Youngs Moduli (GPa) = 56.25507 78.53044 54.43134
#
# Poissons Ratio (x) = 0.41828 0.35630
# Poissons Ratio (y) = 0.29963 -0.00870
# Poissons Ratio (z) = 0.36823 -0.01254
#
# Static dielectric constant tensor:
#      x y z
#    x 1.841280 0.013250 0.037830 
#    y 0.013250 2.067360 -0.053890 
#    z 0.037830 -0.053890 1.867970 
# 
# From -- ./inp_files/89054.got.cif
#   From: 2010.05.17/outbox.cif.g08.bks.cpg/sg2_45_cif.got.tgz:89054.got - 2010.06.03 11:33:40.
