data_PCOD9077882
_publ_section_title
;
Structure prediction by ZEFSAII (Michael W. Deem and Ramdas Pophale) SiO2 
 PCOD9077882
Probable space group: P -1
;
_chemical_formula_sum "Si O2"
_cell_formula_units_Z 16
_cell_length_a 8.473154
_cell_length_b 16.231675
_cell_length_c 11.060381
_cell_angle_alpha 147.671149
_cell_angle_beta 92.993675
_cell_angle_gamma 67.697345
_cell_volume 632.221080
_symmetry_space_group_name_H-M "P -1"
_symmetry_group_IT_number 2
_symmetry_cell_setting 'triclinic'
loop_
_space_group_symop_operation_xyz
x,y,z
-x,-y,-z
loop_
_atom_site_type_symbol
_atom_site_label
_atom_site_fract_x
_atom_site_fract_y
_atom_site_fract_z
Si Si1 0.390239 0.399468 0.599697
Si Si2 0.098083 0.746591 0.437083
Si Si3 0.478970 0.829303 0.443040
Si Si4 0.935576 0.655043 0.548068
Si Si5 0.459430 0.674965 0.018661
Si Si6 0.164255 0.972381 0.880966
Si Si7 0.284325 0.242520 0.007233
Si Si8 0.124107 0.284073 0.795141
O O1 0.415940 0.349988 0.682610
O O2 0.230360 0.374516 0.515558
O O3 0.347224 0.608234 0.858426
O O4 0.606596 0.227803 0.332167
O O5 0.323739 0.533821 0.187063
O O6 0.978400 0.722893 0.507645
O O7 0.983040 0.794839 0.367157
O O8 0.113958 0.914510 0.682809
O O9 0.648714 0.825925 0.377459
O O10 0.369288 0.021557 0.762554
O O11 0.370398 0.804826 0.298802
O O12 0.866032 0.828497 0.853204
O O13 0.145568 0.441529 0.326100
O O14 0.530664 0.764648 0.041320
O O15 0.000000 0.000000 0.000000
O O16 0.138032 0.291508 0.947475
O O17 0.000000 0.500000 0.000000
#
# Coordination Sequence:
#
# PCOD9077882 Si02
#       8
#     2   2   2   2   2   2   2   2
#     4  11  20  33  59  84 107 139 187 231 277 318
#     4   9  16  30  55  85 103 142 186 224 264 313
#     4  11  20  33  52  86 119 148 175 221 278 330
#     4  10  18  35  55  81 106 143 188 232 265 317
#     4   9  18  32  53  81 113 147 177 218 263 327
#     4   9  20  35  57  83 105 134 188 244 271 311
#     4  10  21  34  56  80 118 154 177 214 273 330
#     4  11  15  30  57  84 110 142 191 218 258 326
#
# _framework density 25.307603
#
# number of rings (size 3 to 8) (size 9 to 14) (size 15 to 20)
#    0.000    2.000    5.000    3.000    0.000    0.000 
#    0.000    1.250    5.500    0.750    3.250    0.000 
#    0.000    0.000    0.000    0.000    0.000    0.000 
#
# Total GULP energy -89452.048230 kJ/mol
# GULP energy per Si atom -5590.753014 kJ/mol
# Density = 2.525000 g / cm^3
# Si number density = 25.307603 Si / 1000 Ang^3
#
#
#
# Elastic Constant Matrix: (Units=GPa)
#
#
# Indices 1 2 3 4 5 6 
#
# 1 119.6859 6.9761 50.6065 -6.5484 35.9771 12.7460
# 2 6.9761 32.7799 6.1137 -1.5846 4.4054 2.5310
# 3 50.6065 6.1137 177.1154 -18.9352 31.5508 18.2199
# 4 -6.5484 -1.5846 -18.9352 33.7816 6.5375 -2.1386
# 5 35.9771 4.4054 31.5508 6.5375 63.3552 -8.2860
# 6 12.7460 2.5310 18.2199 -2.1386 -8.2860 17.0361
#
#
#
# Elastic Compliance Matrix: (Units=1/GPa)
#
#
# Indices 1 2 3 4 5 6 
#
# 1 0.012868 -0.000256 -0.000307 0.003250 -0.009216 -0.013336
# 2 -0.000256 0.031500 0.000418 0.001897 -0.003272 -0.006289
# 3 -0.000307 0.000418 0.008523 0.005207 -0.006110 -0.011266
# 4 0.003250 0.001897 0.005207 0.034492 -0.009234 -0.008443
# 5 -0.009216 -0.003272 -0.006110 -0.009234 0.028737 0.026734
# 6 -0.013336 -0.006289 -0.011266 -0.008443 0.026734 0.093603
#
#
# Mechanical properties :
#
#
# Convention : Reuss Voigt Hill
#
# Bulk Modulus (GPa) = 19.01041 50.77486 34.89264
# Shear Modulus (GPa) = 21.97347 40.56026 31.26687
#
# Velocity S-wave (km/s) = 2.94981 4.00771 3.51874
# Velocity P-wave (km/s) = 4.37378 6.44378 5.50691
#
# Compressibility (1/GPa) = 0.05260277
#
# Stress axis : x y z
#
# Youngs Moduli (GPa) = 77.71020 31.74614 117.32433
#
# Poissons Ratio (x) = 0.00813 0.03601
# Poissons Ratio (y) = 0.01989 -0.04909
# Poissons Ratio (z) = 0.02385 -0.01328
#
# Static dielectric constant tensor:
#      x y z
#    x 2.041630 0.042670 -0.036280 
#    y 0.042670 2.004680 -0.038340 
#    z -0.036280 -0.038340 2.104590 
# 
# From -- ./inp_files/217275.got.cif
#   From: 2010.05.17/outbox.cif.g08.bks.cpg/sg2_109_cif.got.tgz:217275.got - 2010.06.03 11:33:40.
