data_PCOD9077210
_publ_section_title
;
Structure prediction by ZEFSAII (Michael W. Deem and Ramdas Pophale) SiO2 
 PCOD9077210
Probable space group: P -1
;
_chemical_formula_sum "Si O2"
_cell_formula_units_Z 16
_cell_length_a 23.335700
_cell_length_b 11.584258
_cell_length_c 12.208636
_cell_angle_alpha 36.538952
_cell_angle_beta 30.587807
_cell_angle_gamma 32.326940
_cell_volume 862.294226
_symmetry_space_group_name_H-M "P -1"
_symmetry_group_IT_number 2
_symmetry_cell_setting 'triclinic'
loop_
_space_group_symop_operation_xyz
x,y,z
-x,-y,-z
loop_
_atom_site_type_symbol
_atom_site_label
_atom_site_fract_x
_atom_site_fract_y
_atom_site_fract_z
Si Si1 0.631151 0.625358 0.503192
Si Si2 0.429204 0.767881 0.900953
Si Si3 0.555914 0.165323 0.756331
Si Si4 0.802536 0.087000 0.998707
Si Si5 0.715583 0.105231 0.750325
Si Si6 0.986590 0.169373 0.489809
Si Si7 0.415093 0.690540 0.634686
Si Si8 0.124561 0.396040 0.797197
O O1 0.539044 0.772570 0.643429
O O2 0.698367 0.352692 0.610249
O O3 0.532171 0.683491 0.520305
O O4 0.751696 0.665706 0.281693
O O5 0.299139 0.841717 0.989455
O O6 0.500000 0.500000 0.000000
O O7 0.385226 0.890825 0.995886
O O8 0.668428 0.100747 0.709901
O O9 0.456382 0.432710 0.736467
O O10 0.600615 0.166944 0.557069
O O11 0.500000 0.000000 0.000000
O O12 0.714133 0.210245 0.154565
O O13 0.860663 0.823086 0.116698
O O14 0.913939 0.137017 0.737553
O O15 0.863297 0.908288 0.673965
O O16 0.899409 0.417676 0.395272
O O17 0.000000 0.000000 0.500000
O O18 0.000000 0.500000 0.000000
#
# Coordination Sequence:
#
# PCOD9077210 Si02
#       8
#     2   2   2   2   2   2   2   2
#     4   9  18  32  54  82 117 146 179 234 293 347
#     4   9  16  30  53  83 112 143 177 225 292 353
#     4  10  22  40  63  83 109 150 198 247 290 337
#     4  11  22  36  57  86 121 153 188 237 286 350
#     4  10  18  34  57  82 113 149 191 233 288 340
#     4  12  20  37  56  81 122 158 185 228 285 345
#     4   9  22  41  58  85 115 147 194 245 294 334
#     4  12  22  33  54  87 122 157 192 222 283 360
#
# _framework density 18.555152
#
# number of rings (size 3 to 8) (size 9 to 14) (size 15 to 20)
#    0.000    1.750    3.750    1.500    0.000    6.000 
#    0.000    1.875    0.000    1.500    0.000    0.000 
#    0.000    0.000    0.000    0.000    0.000    0.000 
#
# Total GULP energy -89210.977458 kJ/mol
# GULP energy per Si atom -5575.686091 kJ/mol
# Density = 1.851292 g / cm^3
# Si number density = 18.555152 Si / 1000 Ang^3
#
#
#
# Elastic Constant Matrix: (Units=GPa)
#
#
# Indices 1 2 3 4 5 6 
#
# 1 67.8079 23.5262 52.2244 8.3507 16.0463 -10.0107
# 2 23.5262 83.5836 44.0069 -9.6204 7.7678 -5.4430
# 3 52.2244 44.0069 118.1401 9.7530 8.7474 7.6126
# 4 8.3507 -9.6204 9.7530 43.0119 -1.3586 -0.3490
# 5 16.0463 7.7678 8.7474 -1.3586 30.1030 1.8187
# 6 -10.0107 -5.4430 7.6126 -0.3490 1.8187 19.8448
#
#
#
# Elastic Compliance Matrix: (Units=1/GPa)
#
#
# Indices 1 2 3 4 5 6 
#
# 1 0.034316 0.001488 -0.015938 -0.003007 -0.015704 0.025219
# 2 0.001488 0.017142 -0.007809 0.005285 -0.003243 0.008838
# 3 -0.015938 -0.007809 0.019409 -0.003017 0.005835 -0.018215
# 4 -0.003007 0.005285 -0.003017 0.025780 0.002198 0.001342
# 5 -0.015704 -0.003243 0.005835 0.002198 0.041727 -0.014835
# 6 0.025219 0.008838 -0.018215 0.001342 -0.014835 0.073907
#
#
# Mechanical properties :
#
#
# Convention : Reuss Voigt Hill
#
# Bulk Modulus (GPa) = 37.95061 56.56074 47.25567
# Shear Modulus (GPa) = 18.82660 28.57691 23.70175
#
# Velocity S-wave (km/s) = 3.18878 3.92868 3.57791
# Velocity P-wave (km/s) = 5.83567 7.15038 6.52622
#
# Compressibility (1/GPa) = 0.02635004
#
# Stress axis : x y z
#
# Youngs Moduli (GPa) = 29.14085 58.33714 51.52131
#
# Poissons Ratio (x) = -0.08681 0.82114
# Poissons Ratio (y) = -0.04336 0.40232
# Poissons Ratio (z) = 0.46444 0.45554
#
# Static dielectric constant tensor:
#      x y z
#    x 1.621830 -0.005560 0.016650 
#    y -0.005560 1.679940 -0.030550 
#    z 0.016650 -0.030550 1.704490 
# 
# From -- ./inp_files/455752.got.cif
#   From: 2010.05.17/outbox.cif.g08.bks.cpg/sg2_228_cif.got.tgz:455752.got - 2010.06.03 11:33:40.
