data_PCOD9077960
_publ_section_title
;
Structure prediction by ZEFSAII (Michael W. Deem and Ramdas Pophale) SiO2 
 PCOD9077960
Probable space group: P -1
;
_chemical_formula_sum "Si O2"
_cell_formula_units_Z 16
_cell_length_a 29.419639
_cell_length_b 14.924125
_cell_length_c 8.354709
_cell_angle_alpha 133.793847
_cell_angle_beta 145.150107
_cell_angle_gamma 21.151593
_cell_volume 706.958904
_symmetry_space_group_name_H-M "P -1"
_symmetry_group_IT_number 2
_symmetry_cell_setting 'triclinic'
loop_
_space_group_symop_operation_xyz
x,y,z
-x,-y,-z
loop_
_atom_site_type_symbol
_atom_site_label
_atom_site_fract_x
_atom_site_fract_y
_atom_site_fract_z
Si Si1 0.672076 0.733085 0.482313
Si Si2 0.023180 0.325521 0.313441
Si Si3 0.598225 0.550961 0.606431
Si Si4 0.352200 0.614800 0.131158
Si Si5 0.625091 0.232210 0.206080
Si Si6 0.029354 0.220923 0.843923
Si Si7 0.677318 0.691077 0.825403
Si Si8 0.734615 0.936154 0.844337
O O1 0.659452 0.712613 0.607029
O O2 0.838185 0.435481 0.522392
O O3 0.478017 0.004070 0.190582
O O4 0.724812 0.806063 0.701034
O O5 0.000000 0.500000 0.500000
O O6 0.206563 0.027839 0.528486
O O7 0.011152 0.312877 0.076299
O O8 0.866789 0.476383 0.138183
O O9 0.687664 0.415058 0.868421
O O10 0.615190 0.395362 0.373006
O O11 0.659295 0.581736 0.716405
O O12 0.396652 0.856987 0.424550
O O13 0.500000 0.500000 0.500000
O O14 0.458764 0.412920 0.041890
O O15 0.183484 0.911250 0.937535
O O16 0.656081 0.119865 0.992345
O O17 0.091376 0.236581 0.913347
#
# Coordination Sequence:
#
# PCOD9077960 Si02
#       8
#     2   2   2   2   2   2   2   2
#     4   9  20  36  57  86 117 160 192 243 289 349
#     4  11  22  38  62  88 114 152 197 252 295 349
#     4  10  19  35  59  87 118 163 188 237 290 350
#     4  10  18  35  56  90 122 154 192 241 289 342
#     4  11  20  34  57  95 121 147 202 242 287 338
#     4  11  19  36  60  89 119 155 198 237 292 346
#     4   9  20  38  58  85 117 153 204 232 305 350
#     4  11  20  34  62  90 120 153 200 242 285 344
#
# _framework density 22.632149999999999
#
# number of rings (size 3 to 8) (size 9 to 14) (size 15 to 20)
#    0.000    1.750    5.000    2.250    0.000    0.500 
#    0.000    0.000    0.000   30.750    0.000    0.000 
#    0.000    0.000    0.000    0.000    0.000    0.000 
#
# Total GULP energy -89282.031582 kJ/mol
# GULP energy per Si atom -5580.126974 kJ/mol
# Density = 2.258064 g / cm^3
# Si number density = 22.632150 Si / 1000 Ang^3
#
#
#
# Elastic Constant Matrix: (Units=GPa)
#
#
# Indices 1 2 3 4 5 6 
#
# 1 101.0736 25.0816 1.5340 -8.6985 5.8615 5.9855
# 2 25.0816 106.3434 35.1650 -41.6523 1.7086 0.4964
# 3 1.5340 35.1650 25.1397 0.0007 0.6581 -6.3905
# 4 -8.6985 -41.6523 0.0007 22.6698 -3.6258 5.5871
# 5 5.8615 1.7086 0.6581 -3.6258 22.1994 -9.2950
# 6 5.9855 0.4964 -6.3905 5.5871 -9.2950 45.1238
#
#
#
# Elastic Compliance Matrix: (Units=1/GPa)
#
#
# Indices 1 2 3 4 5 6 
#
# 1 0.010581 0.001317 -0.003262 0.006814 -0.003093 -0.003361
# 2 0.001317 -0.034561 0.052215 -0.067351 -0.003898 0.015136
# 3 -0.003262 0.052215 -0.037394 0.099888 0.007453 -0.016270
# 4 0.006814 -0.067351 0.099888 -0.083375 -0.003302 0.023627
# 5 -0.003093 -0.003898 0.007453 -0.003302 0.050567 0.012334
# 6 -0.003361 0.015136 -0.016270 0.023627 0.012334 0.019752
#
#
# Mechanical properties :
#
#
# Convention : Reuss Voigt Hill
#
# Bulk Modulus (GPa) = 25.53216 39.56867 32.55041
# Shear Modulus (GPa) = -30.88014 29.38366 -0.74824
#
# Velocity S-wave (km/s) = -3.69784 3.60712 -0.57561
# Velocity P-wave (km/s) = 2.63175 5.90507 3.73789
#
# Compressibility (1/GPa) = 0.03916629
#
# Stress axis : x y z
#
# Youngs Moduli (GPa) = 94.50735 -28.93409 -26.74198
#
# Poissons Ratio (x) = 0.03812 -0.08723
# Poissons Ratio (y) = -0.12450 1.39633
# Poissons Ratio (z) = 0.30828 1.51079
#
# Static dielectric constant tensor:
#      x y z
#    x 1.874460 -0.016920 0.018970 
#    y -0.016920 1.958990 -0.091170 
#    z 0.018970 -0.091170 1.971850 
# 
# From -- ./inp_files/358869.got.cif
#   From: 2010.05.17/outbox.cif.g08.bks.cpg/sg2_180_cif.got.tgz:358869.got - 2010.06.03 11:33:40.
