data_PCOD9077726
_publ_section_title
;
Structure prediction by ZEFSAII (Michael W. Deem and Ramdas Pophale) SiO2 
 PCOD9077726
Probable space group: P -1
;
_chemical_formula_sum "Si O2"
_cell_formula_units_Z 16
_cell_length_a 7.013192
_cell_length_b 10.988111
_cell_length_c 10.413089
_cell_angle_alpha 118.313969
_cell_angle_beta 98.575929
_cell_angle_gamma 98.790196
_cell_volume 675.122999
_symmetry_space_group_name_H-M "P -1"
_symmetry_group_IT_number 2
_symmetry_cell_setting 'triclinic'
loop_
_space_group_symop_operation_xyz
x,y,z
-x,-y,-z
loop_
_atom_site_type_symbol
_atom_site_label
_atom_site_fract_x
_atom_site_fract_y
_atom_site_fract_z
Si Si1 0.545504 0.900840 0.749272
Si Si2 0.776950 0.442195 0.998473
Si Si3 0.691184 0.534915 0.446817
Si Si4 0.240311 0.307833 0.719968
Si Si5 0.805896 0.166687 0.508714
Si Si6 0.044444 0.171640 0.290966
Si Si7 0.733365 0.266284 0.170513
Si Si8 0.548239 0.158946 0.714880
O O1 0.382006 0.809354 0.583731
O O2 0.768298 0.890115 0.744431
O O3 0.471710 0.839066 0.850742
O O4 0.542997 0.061149 0.790327
O O5 0.716075 0.587650 0.100924
O O6 0.757796 0.347473 0.079121
O O7 0.655655 0.325872 0.829627
O O8 0.000000 0.500000 0.000000
O O9 0.500000 0.500000 0.500000
O O10 0.645398 0.604982 0.344935
O O11 0.858157 0.659914 0.590481
O O12 0.761332 0.397936 0.340444
O O13 0.322370 0.167671 0.668645
O O14 0.004311 0.274830 0.644419
O O15 0.679284 0.105913 0.593028
O O16 0.920529 0.107823 0.374238
O O17 0.892606 0.173221 0.161295
#
# Coordination Sequence:
#
# PCOD9077726 Si02
#       8
#     2   2   2   2   2   2   2   2
#     4  11  24  42  63 101 134 170 210 263 331 394
#     4  11  24  49  66  93 128 168 227 275 316 372
#     4  10  18  34  63  94 127 160 210 267 326 375
#     4  10  23  41  66  98 124 171 215 271 330 376
#     4  10  21  39  64  94 135 161 206 263 323 384
#     4  10  21  38  62  96 133 168 211 261 329 381
#     4  10  23  41  64  92 129 171 215 269 318 388
#     4  12  25  41  68  93 134 175 218 263 316 396
#
# _framework density 23.699384999999999
#
# number of rings (size 3 to 8) (size 9 to 14) (size 15 to 20)
#    0.000    1.500    2.500    2.625    1.750    5.500 
#    2.250    0.625    0.000    0.000    0.000    0.000 
#    0.000    0.000    0.000    0.000    0.000    0.000 
#
# Total GULP energy -89155.275492 kJ/mol
# GULP energy per Si atom -5572.204718 kJ/mol
# Density = 2.364544 g / cm^3
# Si number density = 23.699385 Si / 1000 Ang^3
#
#
#
# Elastic Constant Matrix: (Units=GPa)
#
#
# Indices 1 2 3 4 5 6 
#
# 1 158.1679 58.1354 31.2770 -0.3982 -27.6157 1.9917
# 2 58.1354 101.7467 10.9197 1.2302 -21.2374 19.7376
# 3 31.2770 10.9197 39.5946 8.1942 -9.7265 5.8270
# 4 -0.3982 1.2302 8.1942 31.4213 9.9104 -9.5956
# 5 -27.6157 -21.2374 -9.7265 9.9104 28.8057 -0.6101
# 6 1.9917 19.7376 5.8270 -9.5956 -0.6101 49.5003
#
#
#
# Elastic Compliance Matrix: (Units=1/GPa)
#
#
# Indices 1 2 3 4 5 6 
#
# 1 0.009912 -0.004852 -0.006492 0.001835 0.003158 0.002695
# 2 -0.004852 0.016211 0.005188 -0.008297 0.011730 -0.008343
# 3 -0.006492 0.005188 0.038313 -0.018506 0.016699 -0.009699
# 4 0.001835 -0.008297 -0.018506 0.050217 -0.027569 0.014807
# 5 0.003158 0.011730 0.016699 -0.027569 0.061274 -0.011359
# 6 0.002695 -0.008343 -0.009699 0.014807 -0.011359 0.027292
#
#
# Mechanical properties :
#
#
# Convention : Reuss Voigt Hill
#
# Bulk Modulus (GPa) = 19.18509 55.57483 37.37996
# Shear Modulus (GPa) = 21.46795 35.22392 28.34594
#
# Velocity S-wave (km/s) = 3.01299 3.85941 3.46217
# Velocity P-wave (km/s) = 4.49632 6.58490 5.63816
#
# Compressibility (1/GPa) = 0.05212381
#
# Stress axis : x y z
#
# Youngs Moduli (GPa) = 100.88998 61.68623 26.10100
#
# Poissons Ratio (x) = 0.29932 0.16945
# Poissons Ratio (y) = 0.48955 -0.13542
# Poissons Ratio (z) = 0.65498 -0.32006
#
# Static dielectric constant tensor:
#      x y z
#    x 1.951610 -0.041340 0.029950 
#    y -0.041340 1.908750 0.041370 
#    z 0.029950 0.041370 2.001170 
# 
# From -- ./inp_files/365265.got.cif
#   From: 2010.05.17/outbox.cif.g08.bks.cpg/sg2_183_cif.got.tgz:365265.got - 2010.06.03 11:33:40.
