data_PCOD9077550
_publ_section_title
;
Structure prediction by ZEFSAII (Michael W. Deem and Ramdas Pophale) SiO2 
 PCOD9077550
Probable space group: P -1
;
_chemical_formula_sum "Si O2"
_cell_formula_units_Z 14
_cell_length_a 20.314352
_cell_length_b 7.903618
_cell_length_c 12.044425
_cell_angle_alpha 77.719913
_cell_angle_beta 149.281230
_cell_angle_gamma 126.367112
_cell_volume 550.194986
_symmetry_space_group_name_H-M "P -1"
_symmetry_group_IT_number 2
_symmetry_cell_setting 'triclinic'
loop_
_space_group_symop_operation_xyz
x,y,z
-x,-y,-z
loop_
_atom_site_type_symbol
_atom_site_label
_atom_site_fract_x
_atom_site_fract_y
_atom_site_fract_z
Si Si1 0.252517 0.145620 0.484999
Si Si2 0.435692 0.918816 0.287919
Si Si3 0.253925 0.350061 0.854956
Si Si4 0.347576 0.185794 0.377877
Si Si5 0.623519 0.339714 0.312004
Si Si6 0.155367 0.953158 0.601170
Si Si7 0.094483 0.832710 0.837564
O O1 0.206530 0.082990 0.296929
O O2 0.310569 0.404216 0.571163
O O3 0.103824 0.905678 0.402321
O O4 0.491376 0.311462 0.818307
O O5 0.462586 0.747431 0.327928
O O6 0.500000 0.000000 0.500000
O O7 0.611161 0.196820 0.417702
O O8 0.215580 0.795467 0.970897
O O9 0.231580 0.227396 0.721047
O O10 0.198239 0.121755 0.888218
O O11 0.080053 0.312235 0.635819
O O12 0.500000 0.500000 0.500000
O O13 0.176128 0.936281 0.069129
O O14 0.825695 0.514657 0.498004
O O15 0.373692 0.080148 0.930534
#
# Coordination Sequence:
#
# PCOD9077550 Si02
#       7
#     2   2   2   2   2   2   2
#     4  11  20  36  59  94 125 155 199 248 300 356
#     4  10  22  41  61  84 122 161 202 250 295 356
#     4  10  18  34  60  92 121 156 202 245 296 346
#     4  11  23  42  62  88 124 160 200 249 307 366
#     4  11  21  38  63  95 118 154 206 250 296 354
#     4  10  21  33  61  97 121 155 201 255 290 353
#     4  11  21  38  65  90 118 163 199 247 304 352
#
# _framework density 25.445522
#
# number of rings (size 3 to 8) (size 9 to 14) (size 15 to 20)
#    0.000    1.429    5.714    2.571    2.000    2.857 
#    0.000    3.571    0.000    1.714    0.000    0.000 
#    0.000    0.000    0.000    0.000    0.000    0.000 
#
# Total GULP energy -78154.249221 kJ/mol
# GULP energy per Si atom -5582.446373 kJ/mol
# Density = 2.538761 g / cm^3
# Si number density = 25.445522 Si / 1000 Ang^3
#
#
#
# Elastic Constant Matrix: (Units=GPa)
#
#
# Indices 1 2 3 4 5 6 
#
# 1 153.0435 48.4799 18.4129 -14.1172 8.5050 37.9348
# 2 48.4799 98.6661 29.5640 -22.1309 12.6599 27.4753
# 3 18.4129 29.5640 87.2814 -11.3003 41.7819 4.6098
# 4 -14.1172 -22.1309 -11.3003 28.0771 6.7377 -0.1317
# 5 8.5050 12.6599 41.7819 6.7377 52.1744 -3.7106
# 6 37.9348 27.4753 4.6098 -0.1317 -3.7106 40.5307
#
#
#
# Elastic Compliance Matrix: (Units=1/GPa)
#
#
# Indices 1 2 3 4 5 6 
#
# 1 0.009552 -0.000956 0.001172 0.005338 -0.003574 -0.008735
# 2 -0.000956 0.018480 0.000193 0.015883 -0.007407 -0.012281
# 3 0.001172 0.000193 0.023921 0.015579 -0.021825 -0.005896
# 4 0.005338 0.015883 0.015579 0.063427 -0.026798 -0.019782
# 5 -0.003574 -0.007407 -0.021825 -0.026798 0.043534 0.014748
# 6 -0.008735 -0.012281 -0.005896 -0.019782 0.014748 0.043130
#
#
# Mechanical properties :
#
#
# Convention : Reuss Voigt Hill
#
# Bulk Modulus (GPa) = 18.94988 59.10053 39.02520
# Shear Modulus (GPa) = 22.85026 40.32540 31.58783
#
# Velocity S-wave (km/s) = 2.99993 3.98524 3.52716
# Velocity P-wave (km/s) = 4.41167 6.66730 5.65313
#
# Compressibility (1/GPa) = 0.05277079
#
# Stress axis : x y z
#
# Youngs Moduli (GPa) = 104.68784 54.11224 41.80506
#
# Poissons Ratio (x) = 0.05176 -0.04901
# Poissons Ratio (y) = 0.10013 -0.00807
# Poissons Ratio (z) = -0.12272 -0.01045
#
# Static dielectric constant tensor:
#      x y z
#    x 2.075960 0.021880 -0.033910 
#    y 0.021880 1.990760 -0.028990 
#    z -0.033910 -0.028990 2.148200 
# 
# From -- ./inp_files/469340.got.cif
#   From: 2010.05.17/outbox.cif.g08.bks.cpg/sg2_235_cif.got.tgz:469340.got - 2010.06.03 11:33:40.
