data_PCOD9077674
_publ_section_title
;
Structure prediction by ZEFSAII (Michael W. Deem and Ramdas Pophale) SiO2 
 PCOD9077674
Probable space group: P -1
;
_chemical_formula_sum "Si O2"
_cell_formula_units_Z 16
_cell_length_a 20.413677
_cell_length_b 16.340093
_cell_length_c 9.163967
_cell_angle_alpha 135.476422
_cell_angle_beta 41.293709
_cell_angle_gamma 161.357327
_cell_volume 644.822083
_symmetry_space_group_name_H-M "P -1"
_symmetry_group_IT_number 2
_symmetry_cell_setting 'triclinic'
loop_
_space_group_symop_operation_xyz
x,y,z
-x,-y,-z
loop_
_atom_site_type_symbol
_atom_site_label
_atom_site_fract_x
_atom_site_fract_y
_atom_site_fract_z
Si Si1 0.025735 0.244140 0.627924
Si Si2 0.874184 0.794120 0.827938
Si Si3 0.455721 0.816090 0.592800
Si Si4 0.474817 0.220378 0.855882
Si Si5 0.079427 0.965356 0.173800
Si Si6 0.950469 0.346712 0.506203
Si Si7 0.261991 0.541595 0.030159
Si Si8 0.863485 0.422956 0.981216
O O1 0.979620 0.155827 0.428621
O O2 0.290819 0.537668 0.555145
O O3 0.937746 0.057066 0.651107
O O4 0.976536 0.319881 0.875496
O O5 0.649633 0.506218 0.895487
O O6 0.832574 0.836117 0.813856
O O7 0.000000 0.000000 0.000000
O O8 0.473302 0.831519 0.407718
O O9 0.696299 0.051217 0.548435
O O10 0.335519 0.796847 0.851263
O O11 0.509514 0.230606 0.981384
O O12 0.241947 0.026366 0.951780
O O13 0.841617 0.682466 0.150798
O O14 0.981172 0.436692 0.728119
O O15 0.000000 0.500000 0.500000
O O16 0.106398 0.411461 0.263232
O O17 0.236231 0.609280 0.031077
#
# Coordination Sequence:
#
# PCOD9077674 Si02
#       8
#     2   2   2   2   2   2   2   2
#     4   8  20  36  60  85 118 156 192 241 296 345
#     4  11  21  37  63  87 118 151 200 247 289 352
#     4   9  18  34  60  83 120 154 190 245 291 344
#     4  11  22  38  58  90 118 156 199 241 295 346
#     4  11  20  39  62  81 122 160 191 244 297 343
#     4  10  18  34  62  90 115 158 196 236 295 349
#     4  10  20  37  59  87 118 155 200 239 285 353
#     4   8  18  35  59  81 120 153 191 240 292 343
#
# _framework density 24.813046
#
# number of rings (size 3 to 8) (size 9 to 14) (size 15 to 20)
#    0.750    1.500    2.500    1.125    0.000    0.000 
#    0.000    7.500    0.000    0.000    0.000    0.000 
#    0.000    0.000    0.000    0.000    0.000    0.000 
#
# Total GULP energy -89214.234038 kJ/mol
# GULP energy per Si atom -5575.889627 kJ/mol
# Density = 2.475657 g / cm^3
# Si number density = 24.813046 Si / 1000 Ang^3
#
#
#
# Elastic Constant Matrix: (Units=GPa)
#
#
# Indices 1 2 3 4 5 6 
#
# 1 91.3064 14.7989 5.5217 -0.7416 25.8204 -0.5414
# 2 14.7989 89.4251 12.8628 2.9491 2.3362 1.0810
# 3 5.5217 12.8628 139.6080 20.2920 27.5799 16.7174
# 4 -0.7416 2.9491 20.2920 28.7580 2.4069 0.6169
# 5 25.8204 2.3362 27.5799 2.4069 33.4723 1.4413
# 6 -0.5414 1.0810 16.7174 0.6169 1.4413 31.4106
#
#
#
# Elastic Compliance Matrix: (Units=1/GPa)
#
#
# Indices 1 2 3 4 5 6 
#
# 1 0.014952 -0.002455 0.002254 0.000159 -0.013220 -0.000254
# 2 -0.002455 0.011743 -0.001380 -0.000486 0.002238 0.000195
# 3 0.002254 -0.001380 0.010656 -0.006396 -0.009747 -0.005012
# 4 0.000159 -0.000486 -0.006396 0.039096 0.002260 0.002552
# 5 -0.013220 0.002238 -0.009747 0.002260 0.047672 0.002651
# 6 -0.000254 0.000195 -0.005012 0.002552 0.002651 0.034321
#
#
# Mechanical properties :
#
#
# Convention : Reuss Voigt Hill
#
# Bulk Modulus (GPa) = 29.24959 42.96737 36.10848
# Shear Modulus (GPa) = 28.90197 37.87191 33.38694
#
# Velocity S-wave (km/s) = 3.41660 3.91102 3.67214
# Velocity P-wave (km/s) = 5.23238 6.14400 5.70643
#
# Compressibility (1/GPa) = 0.03418851
#
# Stress axis : x y z
#
# Youngs Moduli (GPa) = 66.88030 85.16062 93.84108
#
# Poissons Ratio (x) = 0.20910 -0.21150
# Poissons Ratio (y) = 0.16422 0.12946
# Poissons Ratio (z) = -0.15073 0.11749
#
# Static dielectric constant tensor:
#      x y z
#    x 2.023800 -0.007770 -0.043050 
#    y -0.007770 1.926400 0.009100 
#    z -0.043050 0.009100 2.111260 
# 
# From -- ./inp_files/348886.got.cif
#   From: 2010.05.17/outbox.cif.g08.bks.cpg/sg2_175_cif.got.tgz:348886.got - 2010.06.03 11:33:40.
