data_PCOD9077231
_publ_section_title
;
Structure prediction by ZEFSAII (Michael W. Deem and Ramdas Pophale) SiO2 
 PCOD9077231
Probable space group: P -1
;
_chemical_formula_sum "Si O2"
_cell_formula_units_Z 16
_cell_length_a 9.684424
_cell_length_b 11.865838
_cell_length_c 11.001040
_cell_angle_alpha 62.366654
_cell_angle_beta 87.482167
_cell_angle_gamma 125.664269
_cell_volume 818.554880
_symmetry_space_group_name_H-M "P -1"
_symmetry_group_IT_number 2
_symmetry_cell_setting 'triclinic'
loop_
_space_group_symop_operation_xyz
x,y,z
-x,-y,-z
loop_
_atom_site_type_symbol
_atom_site_label
_atom_site_fract_x
_atom_site_fract_y
_atom_site_fract_z
Si Si1 0.509075 0.549082 0.282303
Si Si2 0.958903 0.189471 0.695725
Si Si3 0.689399 0.914252 0.031910
Si Si4 0.623713 0.673254 0.830226
Si Si5 0.693009 0.450783 0.493341
Si Si6 0.959444 0.999193 0.360191
Si Si7 0.620296 0.945039 0.298532
Si Si8 0.546213 0.901441 0.797123
O O1 0.655660 0.741564 0.122092
O O2 0.391159 0.393877 0.269168
O O3 0.616595 0.515347 0.377710
O O4 0.373674 0.551289 0.368284
O O5 0.885226 0.082848 0.878863
O O6 0.082682 0.392975 0.602351
O O7 0.072592 0.151841 0.637120
O O8 0.763081 0.085475 0.682945
O O9 0.665091 0.949225 0.151531
O O10 0.538322 0.872088 0.958674
O O11 0.537779 0.760560 0.802513
O O12 0.841643 0.820875 0.787311
O O13 0.500000 0.500000 0.000000
O O14 0.576774 0.251349 0.568206
O O15 0.785490 0.982820 0.350083
O O16 0.000000 0.000000 0.500000
O O17 0.593513 0.077913 0.251199
#
# Coordination Sequence:
#
# PCOD9077231 Si02
#       8
#     2   2   2   2   2   2   2   2
#     4  10  18  34  57  85 110 147 192 236 285 323
#     4   9  19  36  55  89 111 144 194 236 282 326
#     4   9  19  36  63  82 114 145 189 239 285 336
#     4  11  20  38  61  83 112 149 194 239 275 334
#     4  10  20  32  56  87 115 144 191 241 274 337
#     4  11  22  37  57  83 116 155 192 230 277 346
#     4  11  22  38  59  84 117 155 186 231 295 338
#     4   9  21  38  58  85 118 150 185 233 292 343
#
# _framework density 19.546644000000001
#
# number of rings (size 3 to 8) (size 9 to 14) (size 15 to 20)
#    0.750    1.250    1.250    4.125    0.000    3.500 
#    0.000    6.250    0.000    1.500    0.000    0.000 
#    0.000    0.000    0.000    0.000    0.000    0.000 
#
# Total GULP energy -89184.973351 kJ/mol
# GULP energy per Si atom -5574.060834 kJ/mol
# Density = 1.950215 g / cm^3
# Si number density = 19.546644 Si / 1000 Ang^3
#
#
#
# Elastic Constant Matrix: (Units=GPa)
#
#
# Indices 1 2 3 4 5 6 
#
# 1 74.6930 26.0898 30.9594 -14.6950 24.7410 -8.5337
# 2 26.0898 75.0685 24.9092 -23.2951 5.3474 -0.3396
# 3 30.9594 24.9092 92.3860 -21.1951 -2.2630 1.9933
# 4 -14.6950 -23.2951 -21.1951 21.2061 6.7486 5.0193
# 5 24.7410 5.3474 -2.2630 6.7486 27.6487 -7.0007
# 6 -8.5337 -0.3396 1.9933 5.0193 -7.0007 14.4796
#
#
#
# Elastic Compliance Matrix: (Units=1/GPa)
#
#
# Indices 1 2 3 4 5 6 
#
# 1 0.039291 0.009742 -0.003119 0.059113 -0.057984 -0.024711
# 2 0.009742 0.032407 0.003192 0.067089 -0.040398 -0.036726
# 3 -0.003119 0.003192 0.016538 0.023327 -0.005967 -0.015011
# 4 0.059113 0.067089 0.023327 0.271315 -0.165903 -0.141062
# 5 -0.057984 -0.040398 -0.005967 -0.165903 0.161523 0.101305
# 6 -0.024711 -0.036726 -0.015011 -0.141062 0.101305 0.153582
#
#
# Mechanical properties :
#
#
# Convention : Reuss Voigt Hill
#
# Bulk Modulus (GPa) = 9.27079 45.11826 27.19452
# Shear Modulus (GPa) = 7.23608 23.34616 15.29112
#
# Velocity S-wave (km/s) = 1.92613 3.45973 2.79998
# Velocity P-wave (km/s) = 3.11446 6.25237 4.93923
#
# Compressibility (1/GPa) = 0.10786564
#
# Stress axis : x y z
#
# Youngs Moduli (GPa) = 25.45115 30.85790 60.46688
#
# Poissons Ratio (x) = -0.30061 0.18859
# Poissons Ratio (y) = -0.24794 -0.19303
# Poissons Ratio (z) = 0.07938 -0.09851
#
# Static dielectric constant tensor:
#      x y z
#    x 1.687390 0.012780 -0.030580 
#    y 0.012780 1.709910 0.014050 
#    z -0.030580 0.014050 1.741730 
# 
# From -- ./inp_files/392113.got.cif
#   From: 2010.05.17/outbox.cif.g08.bks.cpg/sg2_197_cif.got.tgz:392113.got - 2010.06.03 11:33:40.
