data_PCOD9077347
_publ_section_title
;
Structure prediction by ZEFSAII (Michael W. Deem and Ramdas Pophale) SiO2 
 PCOD9077347
Probable space group: P -1
;
_chemical_formula_sum "Si O2"
_cell_formula_units_Z 16
_cell_length_a 10.581990
_cell_length_b 9.133818
_cell_length_c 15.757376
_cell_angle_alpha 143.450214
_cell_angle_beta 74.122268
_cell_angle_gamma 123.383531
_cell_volume 712.564233
_symmetry_space_group_name_H-M "P -1"
_symmetry_group_IT_number 2
_symmetry_cell_setting 'triclinic'
loop_
_space_group_symop_operation_xyz
x,y,z
-x,-y,-z
loop_
_atom_site_type_symbol
_atom_site_label
_atom_site_fract_x
_atom_site_fract_y
_atom_site_fract_z
Si Si1 0.300295 0.890073 0.273364
Si Si2 0.534056 0.275615 0.278527
Si Si3 0.991063 0.731538 0.167523
Si Si4 0.406739 0.211533 0.994568
Si Si5 0.295824 0.895591 0.480546
Si Si6 0.848628 0.787927 0.371873
Si Si7 0.632557 0.531702 0.717226
Si Si8 0.743289 0.689649 0.078132
O O1 0.291701 0.869085 0.366122
O O2 0.163737 0.917109 0.269220
O O3 0.473200 0.163675 0.332890
O O4 0.273553 0.586207 0.099730
O O5 0.701658 0.579476 0.365066
O O6 0.404003 0.312993 0.276338
O O7 0.548964 0.025572 0.115201
O O8 0.871507 0.602277 0.210753
O O9 0.908318 0.841693 0.171162
O O10 0.000000 0.500000 0.000000
O O11 0.286900 0.126287 0.897783
O O12 0.329020 0.263065 0.112767
O O13 0.581500 0.520922 0.086762
O O14 0.258453 0.585222 0.378299
O O15 0.175877 0.982965 0.566590
O O16 0.467540 0.203294 0.615251
O O17 0.000000 0.000000 0.500000
#
# Coordination Sequence:
#
# PCOD9077347 Si02
#       8
#     2   2   2   2   2   2   2   2
#     4  10  19  38  61  90 125 163 210 254 302 370
#     4  10  23  37  63  95 123 157 211 269 310 359
#     4  10  21  38  64  89 121 166 209 246 309 376
#     4  10  18  34  58  89 126 157 207 261 310 356
#     4  10  20  36  60  87 122 171 207 246 310 380
#     4  11  22  41  64  90 125 166 205 255 318 380
#     4  10  20  34  57  89 121 162 207 257 304 369
#     4   9  18  32  58  89 121 164 200 250 307 370
#
# _framework density 22.454117
#
# number of rings (size 3 to 8) (size 9 to 14) (size 15 to 20)
#    0.000    2.000    2.500    1.875    0.000    4.000 
#    0.000    1.250    0.000    4.500    0.000    0.000 
#    0.000    0.000    0.000    0.000    0.000    0.000 
#
# Total GULP energy -89160.043541 kJ/mol
# GULP energy per Si atom -5572.502721 kJ/mol
# Density = 2.240301 g / cm^3
# Si number density = 22.454117 Si / 1000 Ang^3
#
#
#
# Elastic Constant Matrix: (Units=GPa)
#
#
# Indices 1 2 3 4 5 6 
#
# 1 106.5215 26.7942 20.6698 1.8416 -4.2018 -18.3084
# 2 26.7942 54.4919 20.9540 -3.5145 -4.7347 -8.1678
# 3 20.6698 20.9540 72.7880 -15.7776 -12.3690 -10.2263
# 4 1.8416 -3.5145 -15.7776 21.9579 -5.2587 -11.9729
# 5 -4.2018 -4.7347 -12.3690 -5.2587 37.3824 1.3588
# 6 -18.3084 -8.1678 -10.2263 -11.9729 1.3588 28.8847
#
#
#
# Elastic Compliance Matrix: (Units=1/GPa)
#
#
# Indices 1 2 3 4 5 6 
#
# 1 0.011750 -0.004372 -0.000779 0.001411 0.000472 0.006498
# 2 -0.004372 0.022899 -0.003665 0.003946 0.001607 0.003967
# 3 -0.000779 -0.003665 0.027690 0.034356 0.012647 0.021919
# 4 0.001411 0.003946 0.034356 0.108336 0.025162 0.057896
# 5 0.000472 0.001607 0.012647 0.025162 0.034221 0.014051
# 6 0.006498 0.003967 0.021919 0.057896 0.014051 0.070959
#
#
# Mechanical properties :
#
#
# Convention : Reuss Voigt Hill
#
# Bulk Modulus (GPa) = 22.36746 41.18195 31.77470
# Shear Modulus (GPa) = 16.21333 28.67056 22.44195
#
# Velocity S-wave (km/s) = 2.69004 3.57718 3.16485
# Velocity P-wave (km/s) = 4.43074 5.95331 5.24754
#
# Compressibility (1/GPa) = 0.04470781
#
# Stress axis : x y z
#
# Youngs Moduli (GPa) = 85.10844 43.66999 36.11365
#
# Poissons Ratio (x) = 0.19092 0.02813
# Poissons Ratio (y) = 0.37208 0.13235
# Poissons Ratio (z) = 0.06630 0.16004
#
# Static dielectric constant tensor:
#      x y z
#    x 1.949780 -0.022720 -0.026100 
#    y -0.022720 1.854430 -0.006900 
#    z -0.026100 -0.006900 1.841450 
# 
# From -- ./inp_files/396980.got.cif
#   From: 2010.05.17/outbox.cif.g08.bks.cpg/sg2_199_cif.got.tgz:396980.got - 2010.06.03 11:33:40.
