data_PCOD9077436
_publ_section_title
;
Structure prediction by ZEFSAII (Michael W. Deem and Ramdas Pophale) SiO2 
 PCOD9077436
Probable space group: P -1
;
_chemical_formula_sum "Si O2"
_cell_formula_units_Z 14
_cell_length_a 14.537057
_cell_length_b 9.096234
_cell_length_c 11.757344
_cell_angle_alpha 121.064046
_cell_angle_beta 62.237770
_cell_angle_gamma 65.308198
_cell_volume 584.747433
_symmetry_space_group_name_H-M "P -1"
_symmetry_group_IT_number 2
_symmetry_cell_setting 'triclinic'
loop_
_space_group_symop_operation_xyz
x,y,z
-x,-y,-z
loop_
_atom_site_type_symbol
_atom_site_label
_atom_site_fract_x
_atom_site_fract_y
_atom_site_fract_z
Si Si1 0.060666 0.249935 0.294383
Si Si2 0.363377 0.958242 0.817697
Si Si3 0.174532 0.889113 0.515462
Si Si4 0.449701 0.174555 0.983301
Si Si5 0.949050 0.056639 0.918367
Si Si6 0.281448 0.900600 0.250676
Si Si7 0.465496 0.627735 0.418925
O O1 0.926618 0.290581 0.335850
O O2 0.000000 0.500000 0.500000
O O3 0.202675 0.957861 0.195025
O O4 0.174893 0.166718 0.087740
O O5 0.336496 0.945889 0.697624
O O6 0.533700 0.567332 0.603853
O O7 0.404616 0.094435 0.882859
O O8 0.271502 0.570490 0.281873
O O9 0.114276 0.082163 0.514350
O O10 0.356485 0.744924 0.409942
O O11 0.014475 0.093926 0.794979
O O12 0.648102 0.003177 0.761148
O O13 0.500000 0.000000 0.000000
O O14 0.700920 0.366793 0.179319
O O15 0.000000 0.000000 0.000000
O O16 0.500000 0.500000 0.000000
#
# Coordination Sequence:
#
# PCOD9077436 Si02
#       7
#     2   2   2   2   2   2   2
#     4  11  22  37  61  98 130 159 218 278 318 378
#     4  10  18  34  59  90 122 163 209 268 306 370
#     4  11  22  41  62  92 129 168 208 270 330 378
#     4  11  18  33  64  93 117 162 217 257 313 381
#     4  11  23  36  62  93 123 170 219 259 315 389
#     4  10  22  38  62  93 135 170 206 266 336 386
#     4  10  21  38  61  90 129 164 216 264 316 383
#
# _framework density 23.941960999999999
#
# number of rings (size 3 to 8) (size 9 to 14) (size 15 to 20)
#    0.000    1.429    2.857    6.000    0.000    0.571 
#    0.000    2.143    0.000    9.429    0.000    0.000 
#    0.000    0.000    0.000    0.000    0.000    0.000 
#
# Total GULP energy -78003.731928 kJ/mol
# GULP energy per Si atom -5571.695138 kJ/mol
# Density = 2.388747 g / cm^3
# Si number density = 23.941961 Si / 1000 Ang^3
#
#
#
# Elastic Constant Matrix: (Units=GPa)
#
#
# Indices 1 2 3 4 5 6 
#
# 1 162.0560 35.5919 55.6305 -21.9832 29.5545 -0.8754
# 2 35.5919 92.3152 38.5885 -30.4451 -0.5656 14.1910
# 3 55.6305 38.5885 115.4980 -43.4679 18.2933 -0.4738
# 4 -21.9832 -30.4451 -43.4679 45.1651 3.9608 -8.7895
# 5 29.5545 -0.5656 18.2933 3.9608 47.8044 -7.7139
# 6 -0.8754 14.1910 -0.4738 -8.7895 -7.7139 31.7215
#
#
#
# Elastic Compliance Matrix: (Units=1/GPa)
#
#
# Indices 1 2 3 4 5 6 
#
# 1 0.008316 -0.002016 -0.002308 0.000903 -0.004308 0.000299
# 2 -0.002016 0.015290 -0.001817 0.006552 0.000786 -0.004917
# 3 -0.002308 -0.001817 0.017087 0.015354 -0.005784 0.003852
# 4 0.000903 0.006552 0.015354 0.043980 -0.008812 0.007367
# 5 -0.004308 0.000786 -0.005784 -0.008812 0.027115 0.003595
# 6 0.000299 -0.004917 0.003852 0.007367 0.003595 0.036705
#
#
# Mechanical properties :
#
#
# Convention : Reuss Voigt Hill
#
# Bulk Modulus (GPa) = 35.19648 69.94342 52.56995
# Shear Modulus (GPa) = 29.36938 40.94209 35.15573
#
# Velocity S-wave (km/s) = 3.50621 4.13977 3.83609
# Velocity P-wave (km/s) = 5.57889 7.21993 6.45180
#
# Compressibility (1/GPa) = 0.02841193
#
# Stress axis : x y z
#
# Youngs Moduli (GPa) = 120.25555 65.40090 58.52305
#
# Poissons Ratio (x) = 0.13183 0.13509
# Poissons Ratio (y) = 0.24240 0.10631
# Poissons Ratio (z) = 0.27759 0.11881
#
# Static dielectric constant tensor:
#      x y z
#    x 1.789650 -0.072030 -0.135150 
#    y -0.072030 1.990850 0.038830 
#    z -0.135150 0.038830 2.067340 
# 
# From -- ./inp_files/448022.got.cif
#   From: 2010.05.17/outbox.cif.g08.bks.cpg/sg2_225_cif.got.tgz:448022.got - 2010.06.03 11:33:40.
