data_PCOD9077994
_publ_section_title
;
Structure prediction by ZEFSAII (Michael W. Deem and Ramdas Pophale) SiO2 
 PCOD9077994
Probable space group: P -1
;
_chemical_formula_sum "Si O2"
_cell_formula_units_Z 16
_cell_length_a 9.308402
_cell_length_b 11.770157
_cell_length_c 8.600388
_cell_angle_alpha 98.017789
_cell_angle_beta 64.997744
_cell_angle_gamma 99.065254
_cell_volume 840.503263
_symmetry_space_group_name_H-M "P -1"
_symmetry_group_IT_number 2
_symmetry_cell_setting 'triclinic'
loop_
_space_group_symop_operation_xyz
x,y,z
-x,-y,-z
loop_
_atom_site_type_symbol
_atom_site_label
_atom_site_fract_x
_atom_site_fract_y
_atom_site_fract_z
Si Si1 0.000481 0.804351 0.046087
Si Si2 0.119730 0.443571 0.320387
Si Si3 0.680074 0.166997 0.688485
Si Si4 0.059872 0.810587 0.674466
Si Si5 0.839228 0.993413 0.782966
Si Si6 0.210020 0.634922 0.066866
Si Si7 0.665522 0.819632 0.069272
Si Si8 0.545909 0.599864 0.871776
O O1 0.811985 0.788901 0.100978
O O2 0.076939 0.690147 0.040136
O O3 0.049624 0.901900 0.168905
O O4 0.075528 0.846959 0.853888
O O5 0.143645 0.519328 0.166596
O O6 0.301313 0.436539 0.298409
O O7 0.000000 0.500000 0.500000
O O8 0.038304 0.315085 0.303238
O O9 0.776723 0.191127 0.491110
O O10 0.735000 0.271133 0.804475
O O11 0.490891 0.159524 0.760340
O O12 0.733285 0.050420 0.716649
O O13 0.951348 0.898518 0.657465
O O14 0.728639 0.928735 0.954809
O O15 0.371023 0.620089 0.891986
O O16 0.614456 0.714759 0.954538
O O17 0.500000 0.500000 0.000000
#
# Coordination Sequence:
#
# PCOD9077994 Si02
#       8
#     2   2   2   2   2   2   2   2
#     4  10  21  38  58  81 114 147 182 223 274 336
#     4  11  19  34  58  83 111 142 185 232 273 317
#     4  10  20  34  57  85 110 139 187 234 270 320
#     4  11  20  35  56  81 113 147 181 227 283 319
#     4  10  20  37  58  80 110 148 188 224 268 332
#     4   9  20  36  57  83 111 144 186 225 270 328
#     4  10  18  35  57  83 109 146 185 221 276 328
#     4   9  18  34  55  81 107 144 184 225 263 324
#
# _framework density 19.036213
#
# number of rings (size 3 to 8) (size 9 to 14) (size 15 to 20)
#    0.000    2.000    3.750    2.250    0.000    0.500 
#    0.000    3.750    0.000    1.500    0.000    0.000 
#    0.000    0.000    0.000    0.000    0.000    0.000 
#
# Total GULP energy -89210.830777 kJ/mol
# GULP energy per Si atom -5575.676924 kJ/mol
# Density = 1.899289 g / cm^3
# Si number density = 19.036213 Si / 1000 Ang^3
#
#
#
# Elastic Constant Matrix: (Units=GPa)
#
#
# Indices 1 2 3 4 5 6 
#
# 1 126.2260 32.8111 52.3497 -15.1587 -34.9560 -20.4072
# 2 32.8111 82.8433 6.4338 -4.5430 -12.5856 -16.4583
# 3 52.3497 6.4338 79.5670 -4.1815 -46.3254 -4.9503
# 4 -15.1587 -4.5430 -4.1815 22.3604 3.3117 -1.4591
# 5 -34.9560 -12.5856 -46.3254 3.3117 37.7417 1.6387
# 6 -20.4072 -16.4583 -4.9503 -1.4591 1.6387 25.5178
#
#
#
# Elastic Compliance Matrix: (Units=1/GPa)
#
#
# Indices 1 2 3 4 5 6 
#
# 1 0.014723 -0.002383 -0.005824 0.008339 0.004558 0.009291
# 2 -0.002383 0.016393 0.008754 0.001993 0.013412 0.009618
# 3 -0.005824 0.008754 0.050834 -0.001053 0.059711 0.006955
# 4 0.008339 0.001993 -0.001053 0.050949 0.002168 0.010524
# 5 0.004558 0.013412 0.059711 0.002168 0.107549 0.017096
# 6 0.009291 0.009618 0.006955 0.010524 0.017096 0.053675
#
#
# Mechanical properties :
#
#
# Convention : Reuss Voigt Hill
#
# Bulk Modulus (GPa) = 12.04185 52.42506 32.23345
# Shear Modulus (GPa) = 15.59038 30.26009 22.92523
#
# Velocity S-wave (km/s) = 2.86490 3.99131 3.47406
# Velocity P-wave (km/s) = 4.15728 6.98858 5.74992
#
# Compressibility (1/GPa) = 0.08304375
#
# Stress axis : x y z
#
# Youngs Moduli (GPa) = 67.92066 61.00305 19.67171
#
# Poissons Ratio (x) = 0.14539 0.11457
# Poissons Ratio (y) = 0.16188 -0.17221
# Poissons Ratio (z) = 0.39558 -0.53404
#
# Static dielectric constant tensor:
#      x y z
#    x 1.683480 -0.019060 -0.021380 
#    y -0.019060 1.693890 0.027010 
#    z -0.021380 0.027010 1.674530 
# 
# From -- ./inp_files/178722.got.cif
#   From: 2010.05.17/outbox.cif.g08.bks.cpg/sg2_90_cif.got.tgz:178722.got - 2010.06.03 11:33:40.
