data_PCOD9077783
_publ_section_title
;
Structure prediction by ZEFSAII (Michael W. Deem and Ramdas Pophale) SiO2 
 PCOD9077783
Probable space group: P -1
;
_chemical_formula_sum "Si O2"
_cell_formula_units_Z 13
_cell_length_a 11.541975
_cell_length_b 7.825153
_cell_length_c 9.094248
_cell_angle_alpha 58.041144
_cell_angle_beta 72.809172
_cell_angle_gamma 47.471012
_cell_volume 511.001211
_symmetry_space_group_name_H-M "P -1"
_symmetry_group_IT_number 2
_symmetry_cell_setting 'triclinic'
loop_
_space_group_symop_operation_xyz
x,y,z
-x,-y,-z
loop_
_atom_site_type_symbol
_atom_site_label
_atom_site_fract_x
_atom_site_fract_y
_atom_site_fract_z
Si Si1 0.081121 0.112260 0.550009
Si Si2 0.673597 0.136488 0.987600
Si Si3 0.366967 0.233350 0.147994
Si Si4 0.195800 0.313131 0.663071
Si Si5 0.353130 0.779019 0.357554
Si Si6 0.868304 0.209959 0.068806
Si Si7 0.500000 0.000000 0.500000
O O1 0.135801 0.219788 0.602510
O O2 0.919402 0.375000 0.429672
O O3 0.215048 0.938590 0.457106
O O4 0.073282 0.917946 0.735747
O O5 0.499898 0.227358 0.024180
O O6 0.715856 0.241093 0.058368
O O7 0.787420 0.826108 0.126713
O O8 0.692966 0.235846 0.783120
O O9 0.387538 0.977495 0.221852
O O10 0.384459 0.230077 0.318496
O O11 0.193722 0.498562 0.050692
O O12 0.370017 0.177299 0.601021
O O13 0.500000 0.500000 0.500000
O O14 0.000000 0.000000 0.000000
#
# Coordination Sequence:
#
# PCOD9077783 Si02
#       7
#     2   2   2   2   2   2   1
#     4  10  21  41  64  94 133 172 222 275 328 400
#     4  10  24  42  67 101 137 174 228 276 340 409
#     4  11  23  41  70  95 136 180 228 279 332 403
#     4   9  19  38  66  94 128 169 224 269 328 390
#     4  12  26  43  68 101 141 180 225 282 346 401
#     4  11  24  43  70 100 133 176 230 280 335 407
#     4  10  18  34  66 100 114 168 228 270 322 388
#
# _framework density 25.440253999999999
#
# number of rings (size 3 to 8) (size 9 to 14) (size 15 to 20)
#    0.000    1.538    1.538    2.769    6.462    0.615 
#    0.000    0.769    0.000    0.000    0.000    0.000 
#    0.000    0.000    0.000    0.000    0.000    0.000 
#
# Total GULP energy -72463.838811 kJ/mol
# GULP energy per Si atom -5574.141447 kJ/mol
# Density = 2.538235 g / cm^3
# Si number density = 25.440254 Si / 1000 Ang^3
#
#
#
# Elastic Constant Matrix: (Units=GPa)
#
#
# Indices 1 2 3 4 5 6 
#
# 1 42.6139 32.4178 -3.1343 -14.8272 -2.4519 -0.7541
# 2 32.4178 135.6937 91.6640 -42.8520 7.6083 -17.1762
# 3 -3.1343 91.6640 202.9443 -26.9639 25.4353 -9.3414
# 4 -14.8272 -42.8520 -26.9639 59.6233 -6.4227 5.8689
# 5 -2.4519 7.6083 25.4353 -6.4227 25.9798 -0.4096
# 6 -0.7541 -17.1762 -9.3414 5.8689 -0.4096 34.5049
#
#
#
# Elastic Compliance Matrix: (Units=1/GPa)
#
#
# Indices 1 2 3 4 5 6 
#
# 1 0.033856 -0.011552 0.005787 0.003306 0.001667 -0.003986
# 2 -0.011552 0.017628 -0.007390 0.006193 0.002601 0.005499
# 3 0.005787 -0.007390 0.009040 -0.000346 -0.006243 -0.001120
# 4 0.003306 0.006193 -0.000346 0.022429 0.004371 -0.000702
# 5 0.001667 0.002601 -0.006243 0.004371 0.045071 -0.000568
# 6 -0.003986 0.005499 -0.001120 -0.000702 -0.000568 0.031441
#
#
# Mechanical properties :
#
#
# Convention : Reuss Voigt Hill
#
# Bulk Modulus (GPa) = 29.22807 69.23853 49.23330
# Shear Modulus (GPa) = 25.35791 41.37523 33.36657
#
# Velocity S-wave (km/s) = 3.16058 4.03720 3.62548
# Velocity P-wave (km/s) = 4.98326 7.00051 6.07619
#
# Compressibility (1/GPa) = 0.03421369
#
# Stress axis : x y z
#
# Youngs Moduli (GPa) = 29.53725 56.72917 110.62364
#
# Poissons Ratio (x) = 0.65531 -0.64021
# Poissons Ratio (y) = 0.34120 0.81754
# Poissons Ratio (z) = -0.17094 0.41924
#
# Static dielectric constant tensor:
#      x y z
#    x 2.176800 0.067780 0.002240 
#    y 0.067780 1.999340 -0.040540 
#    z 0.002240 -0.040540 2.037670 
# 
# From -- ./inp_files/160217.got.cif
#   From: 2010.05.17/outbox.cif.g08.bks.cpg/sg2_81_cif.got.tgz:160217.got - 2010.06.03 11:33:40.
