data_PCOD9077270
_publ_section_title
;
Structure prediction by ZEFSAII (Michael W. Deem and Ramdas Pophale) SiO2 
 PCOD9077270
Probable space group: P -1
;
_chemical_formula_sum "Si O2"
_cell_formula_units_Z 16
_cell_length_a 18.653878
_cell_length_b 11.214945
_cell_length_c 7.052357
_cell_angle_alpha 94.783980
_cell_angle_beta 57.204194
_cell_angle_gamma 138.511783
_cell_volume 669.957097
_symmetry_space_group_name_H-M "P -1"
_symmetry_group_IT_number 2
_symmetry_cell_setting 'triclinic'
loop_
_space_group_symop_operation_xyz
x,y,z
-x,-y,-z
loop_
_atom_site_type_symbol
_atom_site_label
_atom_site_fract_x
_atom_site_fract_y
_atom_site_fract_z
Si Si1 0.517107 0.159789 0.553497
Si Si2 0.471840 0.327158 0.004265
Si Si3 0.411645 0.270976 0.640675
Si Si4 0.340861 0.849083 0.099345
Si Si5 0.198448 0.311721 0.270570
Si Si6 0.103898 0.944187 0.217105
Si Si7 0.171574 0.460888 0.011606
Si Si8 0.844489 0.157966 0.521979
O O1 0.457712 0.191542 0.493639
O O2 0.500000 0.000000 0.500000
O O3 0.409024 0.025963 0.876574
O O4 0.705475 0.400642 0.318338
O O5 0.461539 0.305080 0.790768
O O6 0.626797 0.451599 0.886063
O O7 0.500000 0.500000 0.000000
O O8 0.315799 0.105943 0.311907
O O9 0.500000 0.500000 0.500000
O O10 0.224333 0.069233 0.889353
O O11 0.254409 0.644275 0.076227
O O12 0.210981 0.770062 0.393056
O O13 0.500000 0.000000 0.000000
O O14 0.172872 0.139317 0.263967
O O15 0.160767 0.322116 0.118675
O O16 0.073489 0.222921 0.581300
O O17 0.106237 0.830863 0.334859
O O18 0.998190 0.307365 0.200424
#
# Coordination Sequence:
#
# PCOD9077270 Si02
#       8
#     2   2   2   2   2   2   2   2
#     4  10  22  40  60  88 126 163 204 248 309 372
#     4  11  20  35  61  87 122 155 206 255 303 360
#     4  11  21  38  61  88 124 165 202 246 314 377
#     4  11  21  39  63  89 116 158 208 255 306 361
#     4  10  18  34  57  93 113 153 198 253 299 360
#     4   9  18  33  59  84 120 151 199 246 302 362
#     4  10  22  35  63  86 118 159 205 245 307 363
#     4  10  19  37  58  88 116 157 204 253 294 370
#
# _framework density 23.882124999999998
#
# number of rings (size 3 to 8) (size 9 to 14) (size 15 to 20)
#    0.000    1.750    5.000    1.875    0.000    0.000 
#    0.000    1.250    0.000    1.500    0.000    0.000 
#    0.000    0.000    0.000    0.000    0.000    0.000 
#
# Total GULP energy -89184.977615 kJ/mol
# GULP energy per Si atom -5574.061101 kJ/mol
# Density = 2.382777 g / cm^3
# Si number density = 23.882125 Si / 1000 Ang^3
#
#
#
# Elastic Constant Matrix: (Units=GPa)
#
#
# Indices 1 2 3 4 5 6 
#
# 1 92.6136 30.0275 30.2278 -3.0338 -26.1518 -16.9464
# 2 30.0275 56.8612 -3.4723 -17.9635 -5.6127 -10.5330
# 3 30.2278 -3.4723 148.6434 -29.5943 -42.3600 3.2063
# 4 -3.0338 -17.9635 -29.5943 28.7999 1.8029 -6.0246
# 5 -26.1518 -5.6127 -42.3600 1.8029 52.6712 -8.8686
# 6 -16.9464 -10.5330 3.2063 -6.0246 -8.8686 41.9564
#
#
#
# Elastic Compliance Matrix: (Units=1/GPa)
#
#
# Indices 1 2 3 4 5 6 
#
# 1 0.017812 -0.010972 -0.004144 -0.008588 0.005422 0.004669
# 2 -0.010972 0.040553 0.014134 0.040658 0.011010 0.012834
# 3 -0.004144 0.014134 0.016739 0.026250 0.013217 0.007159
# 4 -0.008588 0.040658 0.026250 0.089426 0.021855 0.022193
# 5 0.005422 0.011010 0.013217 0.021855 0.035177 0.014518
# 6 0.004669 0.012834 0.007159 0.022193 0.014518 0.034651
#
#
# Mechanical properties :
#
#
# Convention : Reuss Voigt Hill
#
# Bulk Modulus (GPa) = 13.67250 45.74271 29.70761
# Shear Modulus (GPa) = 19.17907 40.77451 29.97679
#
# Velocity S-wave (km/s) = 2.83693 4.13646 3.54672
# Velocity P-wave (km/s) = 4.05811 6.48142 5.40727
#
# Compressibility (1/GPa) = 0.07313949
#
# Stress axis : x y z
#
# Youngs Moduli (GPa) = 56.14342 24.65920 59.74086
#
# Poissons Ratio (x) = 0.27056 0.24756
# Poissons Ratio (y) = 0.61601 -0.84439
# Poissons Ratio (z) = 0.23265 -0.34854
#
# Static dielectric constant tensor:
#      x y z
#    x 1.940110 -0.028800 -0.066060 
#    y -0.028800 2.231680 0.188050 
#    z -0.066060 0.188050 2.059520 
# 
# From -- ./inp_files/345309.got.cif
#   From: 2010.05.17/outbox.cif.g08.bks.cpg/sg2_173_cif.got.tgz:345309.got - 2010.06.03 11:33:40.
