data_PCOD9077806
_publ_section_title
;
Structure prediction by ZEFSAII (Michael W. Deem and Ramdas Pophale) SiO2 
 PCOD9077806
Probable space group: P -1
;
_chemical_formula_sum "Si O2"
_cell_formula_units_Z 16
_cell_length_a 11.293864
_cell_length_b 9.539887
_cell_length_c 9.120078
_cell_angle_alpha 91.364649
_cell_angle_beta 44.904295
_cell_angle_gamma 86.852405
_cell_volume 689.861024
_symmetry_space_group_name_H-M "P -1"
_symmetry_group_IT_number 2
_symmetry_cell_setting 'triclinic'
loop_
_space_group_symop_operation_xyz
x,y,z
-x,-y,-z
loop_
_atom_site_type_symbol
_atom_site_label
_atom_site_fract_x
_atom_site_fract_y
_atom_site_fract_z
Si Si1 0.461682 0.418951 0.677879
Si Si2 0.855841 0.798109 0.700260
Si Si3 0.524029 0.157983 0.029592
Si Si4 0.641236 0.871939 0.349617
Si Si5 0.658157 0.409566 0.781866
Si Si6 0.800179 0.046991 0.978046
Si Si7 0.122821 0.479572 0.169351
Si Si8 0.074878 0.240226 0.692764
O O1 0.500000 0.500000 0.500000
O O2 0.439903 0.256629 0.658269
O O3 0.619432 0.432599 0.647285
O O4 0.286019 0.471625 0.917948
O O5 0.663807 0.768154 0.825368
O O6 0.922418 0.675517 0.752486
O O7 0.937425 0.795746 0.469406
O O8 0.850907 0.946865 0.790903
O O9 0.640129 0.246285 0.829501
O O10 0.623734 0.140094 0.094465
O O11 0.500000 0.000000 0.000000
O O12 0.744412 0.812496 0.399671
O O13 0.500000 0.000000 0.500000
O O14 0.770514 0.938516 0.128886
O O15 0.817323 0.458797 0.725982
O O16 0.500000 0.500000 0.000000
O O17 0.937098 0.153422 0.889081
O O18 0.978249 0.593363 0.238503
#
# Coordination Sequence:
#
# PCOD9077806 Si02
#       8
#     2   2   2   2   2   2   2   2
#     4  11  25  45  72 105 137 186 234 281 349 416
#     4  11  22  43  67 103 139 180 235 284 344 409
#     4  10  18  34  69  94 132 176 224 279 335 388
#     4  12  28  50  69  99 142 188 237 283 349 425
#     4  10  19  38  68  97 132 170 227 281 339 396
#     4  11  23  46  67 101 142 183 233 291 345 404
#     4  11  23  45  69 101 143 178 227 292 346 406
#     4  12  27  42  71 103 140 187 231 285 355 414
#
# _framework density 23.193076999999999
#
# number of rings (size 3 to 8) (size 9 to 14) (size 15 to 20)
#    0.000    1.000    5.000    2.625    3.500    1.500 
#    2.250    0.000    0.000    0.000    0.000    0.000 
#    0.000    0.000    0.000    0.000    0.000    0.000 
#
# Total GULP energy -89448.585083 kJ/mol
# GULP energy per Si atom -5590.536568 kJ/mol
# Density = 2.314029 g / cm^3
# Si number density = 23.193077 Si / 1000 Ang^3
#
#
#
# Elastic Constant Matrix: (Units=GPa)
#
#
# Indices 1 2 3 4 5 6 
#
# 1 93.9727 43.4134 17.9861 12.0908 -0.7514 -21.8878
# 2 43.4134 129.5782 38.5813 3.2517 3.1177 -18.5234
# 3 17.9861 38.5813 78.2680 -0.6575 12.3631 -12.8481
# 4 12.0908 3.2517 -0.6575 37.8996 -12.0619 -5.9391
# 5 -0.7514 3.1177 12.3631 -12.0619 30.8961 -6.9103
# 6 -21.8878 -18.5234 -12.8481 -5.9391 -6.9103 39.7155
#
#
#
# Elastic Compliance Matrix: (Units=1/GPa)
#
#
# Indices 1 2 3 4 5 6 
#
# 1 0.014182 -0.003687 -0.000718 -0.002996 0.001089 0.005605
# 2 -0.003687 0.010404 -0.004178 0.000911 0.001297 0.001831
# 3 -0.000718 -0.004178 0.016229 -0.000766 -0.005998 0.001747
# 4 -0.002996 0.000911 -0.000766 0.032700 0.014226 0.005891
# 5 0.001089 0.001297 -0.005998 0.014226 0.042168 0.008729
# 6 0.005605 0.001831 0.001747 0.005891 0.008729 0.032087
#
#
# Mechanical properties :
#
#
# Convention : Reuss Voigt Hill
#
# Bulk Modulus (GPa) = 42.28720 55.75339 49.02029
# Shear Modulus (GPa) = 28.93150 35.15810 32.04480
#
# Velocity S-wave (km/s) = 3.53571 3.89766 3.72109
# Velocity P-wave (km/s) = 5.91106 6.65933 6.29632
#
# Compressibility (1/GPa) = 0.02364782
#
# Stress axis : x y z
#
# Youngs Moduli (GPa) = 70.51170 96.11315 61.61755
#
# Poissons Ratio (x) = 0.35440 0.04427
# Poissons Ratio (y) = 0.26000 0.25745
# Poissons Ratio (z) = 0.05066 0.40157
#
# Static dielectric constant tensor:
#      x y z
#    x 1.895590 -0.036130 -0.024200 
#    y -0.036130 1.847150 0.014760 
#    z -0.024200 0.014760 1.918700 
# 
# From -- ./inp_files/243831.got.cif
#   From: 2010.05.17/outbox.cif.g08.bks.cpg/sg2_122_cif.got.tgz:243831.got - 2010.06.03 11:33:40.
