data_PCOD9077092
_publ_section_title
;
Structure prediction by ZEFSAII (Michael W. Deem and Ramdas Pophale) SiO2 
 PCOD9077092
Probable space group: P -1
;
_chemical_formula_sum "Si O2"
_cell_formula_units_Z 16
_cell_length_a 15.154913
_cell_length_b 11.852989
_cell_length_c 7.176265
_cell_angle_alpha 41.180983
_cell_angle_beta 60.176222
_cell_angle_gamma 72.518916
_cell_volume 730.176680
_symmetry_space_group_name_H-M "P -1"
_symmetry_group_IT_number 2
_symmetry_cell_setting 'triclinic'
loop_
_space_group_symop_operation_xyz
x,y,z
-x,-y,-z
loop_
_atom_site_type_symbol
_atom_site_label
_atom_site_fract_x
_atom_site_fract_y
_atom_site_fract_z
Si Si1 0.901645 0.361773 0.100667
Si Si2 0.244116 0.353888 0.112407
Si Si3 0.445071 0.484723 0.880487
Si Si4 0.387071 0.633324 0.414996
Si Si5 0.870901 0.993087 0.467901
Si Si6 0.092332 0.434839 0.600929
Si Si7 0.794240 0.250618 0.730001
Si Si8 0.103522 0.054918 0.055890
O O1 0.856092 0.195412 0.231202
O O2 0.871208 0.307407 0.408224
O O3 0.846833 0.529008 0.904903
O O4 0.023904 0.382183 0.924410
O O5 0.207000 0.158187 0.347734
O O6 0.331883 0.380747 0.143120
O O7 0.307840 0.454668 0.745566
O O8 0.424779 0.653198 0.566685
O O9 0.517700 0.390647 0.784431
O O10 0.500000 0.500000 0.000000
O O11 0.317806 0.760991 0.230327
O O12 0.872451 0.951125 0.740302
O O13 0.982105 0.988786 0.261715
O O14 0.181173 0.590765 0.350694
O O15 0.000000 0.500000 0.500000
O O16 0.122643 0.253645 0.726852
O O17 0.830016 0.069029 0.972344
#
# Coordination Sequence:
#
# PCOD9077092 Si02
#       8
#     2   2   2   2   2   2   2   2
#     4   9  18  32  53  78 103 146 186 223 267 319
#     4   9  16  31  55  78 106 142 182 230 278 336
#     4   9  18  34  58  84 111 143 186 236 297 343
#     4   8  18  33  55  85 107 144 189 237 284 339
#     4   9  16  29  53  81 104 139 194 225 256 326
#     4  11  22  32  48  81 117 148 185 224 270 332
#     4  10  18  34  56  74 106 145 192 227 268 337
#     4   9  18  31  51  78 110 150 183 229 266 319
#
# _framework density 21.912506
#
# number of rings (size 3 to 8) (size 9 to 14) (size 15 to 20)
#    0.750    2.000    0.000    3.375    0.000    1.500 
#    0.000    0.000    0.000   17.250    0.000    0.000 
#    0.000    0.000    0.000    0.000    0.000    0.000 
#
# Total GULP energy -89182.572010 kJ/mol
# GULP energy per Si atom -5573.910751 kJ/mol
# Density = 2.186263 g / cm^3
# Si number density = 21.912506 Si / 1000 Ang^3
#
#
#
# Elastic Constant Matrix: (Units=GPa)
#
#
# Indices 1 2 3 4 5 6 
#
# 1 96.7002 29.7127 29.9553 -20.8769 4.1321 15.7292
# 2 29.7127 63.4645 33.4073 -24.8505 -7.5786 3.6834
# 3 29.9553 33.4073 81.8345 -23.0516 11.3530 2.3948
# 4 -20.8769 -24.8505 -23.0516 41.5850 0.1114 0.1598
# 5 4.1321 -7.5786 11.3530 0.1114 27.1895 3.1234
# 6 15.7292 3.6834 2.3948 0.1598 3.1234 33.2065
#
#
#
# Elastic Compliance Matrix: (Units=1/GPa)
#
#
# Indices 1 2 3 4 5 6 
#
# 1 0.013995 -0.003900 -0.002130 0.003542 -0.001661 -0.005904
# 2 -0.003900 0.027461 -0.008696 0.009606 0.012040 -0.001750
# 3 -0.002130 -0.008696 0.019167 0.004381 -0.010298 0.001539
# 4 0.003542 0.009606 0.004381 0.034005 0.000547 -0.003274
# 5 -0.001661 0.012040 -0.010298 0.000547 0.045151 -0.004056
# 6 -0.005904 -0.001750 0.001539 -0.003274 -0.004056 0.033392
#
#
# Mechanical properties :
#
#
# Convention : Reuss Voigt Hill
#
# Bulk Modulus (GPa) = 32.08027 47.57219 39.82623
# Shear Modulus (GPa) = 23.47273 30.32447 26.89860
#
# Velocity S-wave (km/s) = 3.27647 3.72410 3.50744
# Velocity P-wave (km/s) = 5.38383 6.34422 5.88365
#
# Compressibility (1/GPa) = 0.03117181
#
# Stress axis : x y z
#
# Youngs Moduli (GPa) = 71.45230 36.41529 52.17306
#
# Poissons Ratio (x) = 0.14201 0.11113
# Poissons Ratio (y) = 0.27865 0.45369
# Poissons Ratio (z) = 0.15219 0.31666
#
# Static dielectric constant tensor:
#      x y z
#    x 1.872620 0.077770 0.076880 
#    y 0.077770 1.935490 0.054840 
#    z 0.076880 0.054840 1.939280 
# 
# From -- ./inp_files/302082.got.cif
#   From: 2010.05.17/outbox.cif.g08.bks.cpg/sg2_152_cif.got.tgz:302082.got - 2010.06.03 11:33:40.
