data_PCOD9077423
_publ_section_title
;
Structure prediction by ZEFSAII (Michael W. Deem and Ramdas Pophale) SiO2 
 PCOD9077423
Probable space group: P -1
;
_chemical_formula_sum "Si O2"
_cell_formula_units_Z 16
_cell_length_a 14.819591
_cell_length_b 14.806942
_cell_length_c 10.024673
_cell_angle_alpha 54.435096
_cell_angle_beta 55.037330
_cell_angle_gamma 27.818998
_cell_volume 825.053016
_symmetry_space_group_name_H-M "P -1"
_symmetry_group_IT_number 2
_symmetry_cell_setting 'triclinic'
loop_
_space_group_symop_operation_xyz
x,y,z
-x,-y,-z
loop_
_atom_site_type_symbol
_atom_site_label
_atom_site_fract_x
_atom_site_fract_y
_atom_site_fract_z
Si Si1 0.329393 0.272362 0.285479
Si Si2 0.927731 0.911184 0.254003
Si Si3 0.114824 0.233541 0.396299
Si Si4 0.353789 0.892995 0.028810
Si Si5 0.049444 0.281679 0.833469
Si Si6 0.579252 0.044589 0.823434
Si Si7 0.715598 0.683854 0.402164
Si Si8 0.316517 0.716239 0.033150
O O1 0.239192 0.225253 0.376775
O O2 0.353541 0.271627 0.423960
O O3 0.172233 0.490952 0.171961
O O4 0.522367 0.133437 0.156301
O O5 0.861078 0.911625 0.446719
O O6 0.925335 0.807764 0.246449
O O7 0.784627 0.123283 0.133345
O O8 0.146483 0.777087 0.178081
O O9 0.888477 0.453783 0.418309
O O10 0.202622 0.163701 0.234176
O O11 0.426721 0.854093 0.148727
O O12 0.368690 0.758260 0.071344
O O13 0.133557 0.126184 0.004501
O O14 0.175560 0.288309 0.721528
O O15 0.451473 0.178220 0.686147
O O16 0.500000 0.000000 0.000000
O O17 0.500000 0.500000 0.000000
#
# Coordination Sequence:
#
# PCOD9077423 Si02
#       8
#     2   2   2   2   2   2   2   2
#     4  11  20  34  62  96 120 153 203 253 304 359
#     4  10  20  38  60  93 114 149 206 261 305 347
#     4  11  22  37  62  89 128 158 204 250 303 364
#     4  11  24  40  60  87 128 164 197 248 306 366
#     4  10  18  34  59  88 122 148 196 251 304 352
#     4  12  25  40  54  91 136 173 195 228 309 386
#     4  11  22  34  61  94 127 161 199 245 305 366
#     4  10  23  40  64  88 118 153 207 265 308 342
#
# _framework density 19.392692
#
# number of rings (size 3 to 8) (size 9 to 14) (size 15 to 20)
#    0.000    1.250    5.000    1.500    3.500    2.500 
#    0.000    0.625    0.000    1.500    0.000    0.000 
#    0.000    0.000    0.000    0.000    0.000    0.000 
#
# Total GULP energy -89324.307140 kJ/mol
# GULP energy per Si atom -5582.769196 kJ/mol
# Density = 1.934855 g / cm^3
# Si number density = 19.392692 Si / 1000 Ang^3
#
#
#
# Elastic Constant Matrix: (Units=GPa)
#
#
# Indices 1 2 3 4 5 6 
#
# 1 100.6454 42.5119 32.3358 -3.7575 16.5798 8.2482
# 2 42.5119 107.8020 42.6885 1.9356 7.7699 3.9630
# 3 32.3358 42.6885 70.5376 11.0959 5.0157 8.2892
# 4 -3.7575 1.9356 11.0959 20.6541 6.5412 2.7924
# 5 16.5798 7.7699 5.0157 6.5412 32.2940 -2.9133
# 6 8.2482 3.9630 8.2892 2.7924 -2.9133 21.3663
#
#
#
# Elastic Compliance Matrix: (Units=1/GPa)
#
#
# Indices 1 2 3 4 5 6 
#
# 1 0.015224 -0.003290 -0.005182 0.009358 -0.008625 -0.005656
# 2 -0.003290 0.013291 -0.006925 0.001952 -0.000726 0.001137
# 3 -0.005182 -0.006925 0.023004 -0.013163 0.003104 -0.003496
# 4 0.009358 0.001952 -0.013163 0.063671 -0.016984 -0.009505
# 5 -0.008625 -0.000726 0.003104 -0.016984 0.039415 0.009854
# 6 -0.005656 0.001137 -0.003496 -0.009505 0.009854 0.052717
#
#
# Mechanical properties :
#
#
# Convention : Reuss Voigt Hill
#
# Bulk Modulus (GPa) = 48.24926 57.11747 52.68337
# Shear Modulus (GPa) = 20.40605 25.62614 23.01609
#
# Velocity S-wave (km/s) = 3.24737 3.63910 3.44880
# Velocity P-wave (km/s) = 6.24457 6.86836 6.56388
#
# Compressibility (1/GPa) = 0.02072570
#
# Stress axis : x y z
#
# Youngs Moduli (GPa) = 65.68434 75.23750 43.47126
#
# Poissons Ratio (x) = 0.24754 0.22528
# Poissons Ratio (y) = 0.21611 0.30102
# Poissons Ratio (z) = 0.34039 0.52098
#
# Static dielectric constant tensor:
#      x y z
#    x 1.689720 -0.028950 0.018190 
#    y -0.028950 1.736530 -0.021920 
#    z 0.018190 -0.021920 1.698750 
# 
# From -- ./inp_files/274185.got.cif
#   From: 2010.05.17/outbox.cif.g08.bks.cpg/sg2_138_cif.got.tgz:274185.got - 2010.06.03 11:33:40.
