data_PCOD9077686
_publ_section_title
;
Structure prediction by ZEFSAII (Michael W. Deem and Ramdas Pophale) SiO2 
 PCOD9077686
Probable space group: P -1
;
_chemical_formula_sum "Si O2"
_cell_formula_units_Z 16
_cell_length_a 9.811304
_cell_length_b 13.543242
_cell_length_c 11.504297
_cell_angle_alpha 80.500598
_cell_angle_beta 51.395315
_cell_angle_gamma 46.534997
_cell_volume 767.240178
_symmetry_space_group_name_H-M "P -1"
_symmetry_group_IT_number 2
_symmetry_cell_setting 'triclinic'
loop_
_space_group_symop_operation_xyz
x,y,z
-x,-y,-z
loop_
_atom_site_type_symbol
_atom_site_label
_atom_site_fract_x
_atom_site_fract_y
_atom_site_fract_z
Si Si1 0.469532 0.525786 0.687752
Si Si2 0.252577 0.655805 0.036112
Si Si3 0.511864 0.864523 0.161921
Si Si4 0.973978 0.175726 0.477886
Si Si5 0.314505 0.791383 0.589408
Si Si6 0.204839 0.304975 0.710842
Si Si7 0.857980 0.119241 0.785082
Si Si8 0.982473 0.430112 0.131627
O O1 0.781263 0.356670 0.555644
O O2 0.414153 0.642657 0.611693
O O3 0.295394 0.506833 0.742373
O O4 0.338319 0.611190 0.865027
O O5 0.219777 0.778029 0.086821
O O6 0.990425 0.703503 0.195813
O O7 0.500000 0.500000 0.000000
O O8 0.635316 0.784794 0.236665
O O9 0.380900 0.828915 0.168872
O O10 0.785943 0.755097 0.962025
O O11 0.267046 0.047657 0.284546
O O12 0.801098 0.176164 0.486578
O O13 0.998924 0.122488 0.606032
O O14 0.549094 0.770336 0.486249
O O15 0.053057 0.948045 0.759993
O O16 0.027551 0.484288 0.777239
O O17 0.000000 0.500000 0.000000
#
# Coordination Sequence:
#
# PCOD9077686 Si02
#       8
#     2   2   2   2   2   2   2   2
#     4  12  23  39  66  98 131 165 213 265 328 374
#     4  12  25  40  65  94 126 175 221 257 309 393
#     4  10  18  36  66  92 121 158 216 267 299 362
#     4  11  19  38  64  96 126 162 214 263 311 374
#     4  11  23  39  66  98 129 169 204 273 329 369
#     4  11  20  38  66  96 123 167 221 259 312 385
#     4  11  21  39  64  93 131 166 217 257 315 380
#     4  10  18  34  62  93 123 162 213 258 300 377
#
# _framework density 20.853967000000001
#
# number of rings (size 3 to 8) (size 9 to 14) (size 15 to 20)
#    0.000    1.000    7.500    2.625    0.000    1.000 
#    0.000    3.125    2.750    0.000    0.000    0.000 
#    0.000    0.000    0.000    0.000    0.000    0.000 
#
# Total GULP energy -89082.390165 kJ/mol
# GULP energy per Si atom -5567.649385 kJ/mol
# Density = 2.080650 g / cm^3
# Si number density = 20.853967 Si / 1000 Ang^3
#
#
#
# Elastic Constant Matrix: (Units=GPa)
#
#
# Indices 1 2 3 4 5 6 
#
# 1 69.6154 18.7655 23.8845 1.7438 -7.7864 4.2756
# 2 18.7655 92.6162 30.0478 27.9128 -5.7049 -0.7139
# 3 23.8845 30.0478 65.0977 25.8287 -3.3264 -3.6897
# 4 1.7438 27.9128 25.8287 39.7252 -3.1476 2.4012
# 5 -7.7864 -5.7049 -3.3264 -3.1476 33.3422 14.1766
# 6 4.2756 -0.7139 -3.6897 2.4012 14.1766 18.0132
#
#
#
# Elastic Compliance Matrix: (Units=1/GPa)
#
#
# Indices 1 2 3 4 5 6 
#
# 1 0.021187 -0.003351 -0.010820 0.010519 0.012055 -0.018267
# 2 -0.003351 0.014865 -0.001816 -0.009302 -0.000385 0.002555
# 3 -0.010820 -0.001816 0.027964 -0.018277 -0.009477 0.018119
# 4 0.010519 -0.009302 -0.018277 0.045562 0.013128 -0.023014
# 5 0.012055 -0.000385 -0.009477 0.013128 0.053846 -0.048945
# 6 -0.018267 0.002555 0.018119 -0.023014 -0.048945 0.105251
#
#
# Mechanical properties :
#
#
# Convention : Reuss Voigt Hill
#
# Bulk Modulus (GPa) = 31.20860 41.41386 36.31123
# Shear Modulus (GPa) = 16.06022 28.52489 22.29255
#
# Velocity S-wave (km/s) = 2.77813 3.70244 3.27308
# Velocity P-wave (km/s) = 5.02876 6.17896 5.63329
#
# Compressibility (1/GPa) = 0.03204245
#
# Stress axis : x y z
#
# Youngs Moduli (GPa) = 47.19909 67.27340 35.76038
#
# Poissons Ratio (x) = 0.22543 0.38691
# Poissons Ratio (y) = 0.15816 0.06494
# Poissons Ratio (z) = 0.51068 0.12217
#
# Static dielectric constant tensor:
#      x y z
#    x 2.565890 0.163090 0.602370 
#    y 0.163090 1.790750 0.148250 
#    z 0.602370 0.148250 2.333870 
# 
# From -- ./inp_files/392582.got.cif
#   From: 2010.05.17/outbox.cif.g08.bks.cpg/sg2_197_cif.got.tgz:392582.got - 2010.06.03 11:33:40.
