data_PCOD9077338
_publ_section_title
;
Structure prediction by ZEFSAII (Michael W. Deem and Ramdas Pophale) SiO2 
 PCOD9077338
Probable space group: P -1
;
_chemical_formula_sum "Si O2"
_cell_formula_units_Z 14
_cell_length_a 8.015778
_cell_length_b 10.926179
_cell_length_c 8.459361
_cell_angle_alpha 122.967769
_cell_angle_beta 104.667734
_cell_angle_gamma 66.185778
_cell_volume 568.122530
_symmetry_space_group_name_H-M "P -1"
_symmetry_group_IT_number 2
_symmetry_cell_setting 'triclinic'
loop_
_space_group_symop_operation_xyz
x,y,z
-x,-y,-z
loop_
_atom_site_type_symbol
_atom_site_label
_atom_site_fract_x
_atom_site_fract_y
_atom_site_fract_z
Si Si1 0.516473 0.127782 0.216397
Si Si2 0.339610 0.146576 0.512226
Si Si3 0.918083 0.365277 0.334921
Si Si4 0.202894 0.336732 0.125102
Si Si5 0.824631 0.319221 0.633697
Si Si6 0.439908 0.442134 0.781509
Si Si7 0.861014 0.897067 0.292087
O O1 0.371430 0.143401 0.332943
O O2 0.410487 0.287387 0.210846
O O3 0.722510 0.055025 0.290564
O O4 0.500000 0.000000 0.000000
O O5 0.358281 0.304096 0.690877
O O6 0.177979 0.112336 0.537938
O O7 0.500000 0.000000 0.500000
O O8 0.879627 0.296701 0.444666
O O9 0.723389 0.426725 0.247690
O O10 0.000000 0.500000 0.500000
O O11 0.063651 0.290259 0.178713
O O12 0.134886 0.519615 0.204911
O O13 0.203507 0.232183 0.901481
O O14 0.609144 0.368720 0.652132
O O15 0.920679 0.184392 0.691437
O O16 0.500000 0.500000 0.000000
#
# Coordination Sequence:
#
# PCOD9077338 Si02
#       7
#     2   2   2   2   2   2   2
#     4   9  19  34  58  86 117 158 210 256 296 360
#     4  10  20  38  60  85 121 170 212 246 303 387
#     4  10  21  37  60  88 123 168 211 256 311 380
#     4  10  18  34  58  87 120 163 211 255 304 376
#     4  11  21  34  57  89 123 159 203 264 320 361
#     4  12  24  39  61  97 134 162 204 272 327 364
#     4  10  19  34  58  88 119 162 210 251 303 380
#
# _framework density 24.642572999999999
#
# number of rings (size 3 to 8) (size 9 to 14) (size 15 to 20)
#    0.000    1.714    0.000    6.857    0.000    0.000 
#    0.000    2.857    0.000    5.143    0.000   36.000 
#    0.000    0.000    0.000    0.000    0.000    0.000 
#
# Total GULP energy -77954.711559 kJ/mol
# GULP energy per Si atom -5568.193683 kJ/mol
# Density = 2.458649 g / cm^3
# Si number density = 24.642573 Si / 1000 Ang^3
#
#
#
# Elastic Constant Matrix: (Units=GPa)
#
#
# Indices 1 2 3 4 5 6 
#
# 1 95.9296 61.3631 19.8357 -18.6936 -0.9030 -15.9442
# 2 61.3631 154.2490 47.7302 -27.0241 19.1517 -33.9907
# 3 19.8357 47.7302 102.9487 -17.1625 -7.4795 -1.4288
# 4 -18.6936 -27.0241 -17.1625 37.9472 -15.2338 20.9131
# 5 -0.9030 19.1517 -7.4795 -15.2338 30.2731 -10.8950
# 6 -15.9442 -33.9907 -1.4288 20.9131 -10.8950 52.5523
#
#
#
# Elastic Compliance Matrix: (Units=1/GPa)
#
#
# Indices 1 2 3 4 5 6 
#
# 1 0.015897 -0.006898 0.002117 0.008006 0.009071 -0.000886
# 2 -0.006898 0.012796 -0.005886 -0.003920 -0.009724 0.005567
# 3 0.002117 -0.005886 0.014483 0.010321 0.010896 -0.004620
# 4 0.008006 -0.003920 0.010321 0.050424 0.025377 -0.014630
# 5 0.009071 -0.009724 0.010896 0.025377 0.054157 -0.002112
# 6 -0.000886 0.005567 -0.004620 -0.014630 -0.002112 0.027619
#
#
# Mechanical properties :
#
#
# Convention : Reuss Voigt Hill
#
# Bulk Modulus (GPa) = 45.78551 67.88728 56.83640
# Shear Modulus (GPa) = 24.51073 39.10107 31.80590
#
# Velocity S-wave (km/s) = 3.15723 3.98770 3.59651
# Velocity P-wave (km/s) = 5.64898 6.98648 6.35303
#
# Compressibility (1/GPa) = 0.02184097
#
# Stress axis : x y z
#
# Youngs Moduli (GPa) = 62.90350 78.14864 69.04651
#
# Poissons Ratio (x) = 0.53908 -0.14614
# Poissons Ratio (y) = 0.43392 0.40642
# Poissons Ratio (z) = -0.13314 0.46000
#
# Static dielectric constant tensor:
#      x y z
#    x 2.262020 -0.079650 -0.251050 
#    y -0.079650 2.000720 0.064500 
#    z -0.251050 0.064500 2.173880 
# 
# From -- ./inp_files/168494.got.cif
#   From: 2010.05.17/outbox.cif.g08.bks.cpg/sg2_85_cif.got.tgz:168494.got - 2010.06.03 11:33:40.
