data_PCOD9077681
_publ_section_title
;
Structure prediction by ZEFSAII (Michael W. Deem and Ramdas Pophale) SiO2 
 PCOD9077681
Probable space group: P -1
;
_chemical_formula_sum "Si O2"
_cell_formula_units_Z 14
_cell_length_a 13.381586
_cell_length_b 10.087754
_cell_length_c 25.346926
_cell_angle_alpha 29.494568
_cell_angle_beta 21.746574
_cell_angle_gamma 36.390585
_cell_volume 624.029953
_symmetry_space_group_name_H-M "P -1"
_symmetry_group_IT_number 2
_symmetry_cell_setting 'triclinic'
loop_
_space_group_symop_operation_xyz
x,y,z
-x,-y,-z
loop_
_atom_site_type_symbol
_atom_site_label
_atom_site_fract_x
_atom_site_fract_y
_atom_site_fract_z
Si Si1 0.665846 0.084385 0.470569
Si Si2 0.158097 0.698607 0.587061
Si Si3 0.728399 0.274551 0.959203
Si Si4 0.666344 0.123474 0.669041
Si Si5 0.183030 0.758744 0.329983
Si Si6 0.248751 0.690819 0.758664
Si Si7 0.747069 0.871676 0.995278
O O1 0.637974 0.192308 0.505972
O O2 0.644125 0.278721 0.363764
O O3 0.470378 0.831018 0.640225
O O4 0.978743 0.001500 0.344710
O O5 0.013485 0.426138 0.772925
O O6 0.910213 0.906407 0.627251
O O7 0.293169 0.693634 0.465183
O O8 0.500000 0.500000 0.000000
O O9 0.618199 0.040001 0.133216
O O10 0.733757 0.137461 0.945897
O O11 0.702308 0.264362 0.659005
O O12 0.441614 0.804159 0.150494
O O13 0.000000 0.500000 0.500000
O O14 0.182666 0.384871 0.913024
O O15 0.980117 0.865307 0.839918
#
# Coordination Sequence:
#
# PCOD9077681 Si02
#       7
#     2   2   2   2   2   2   2
#     4  10  21  39  62  89 123 165 211 256 309 378
#     4   9  17  35  57  86 114 158 205 246 306 368
#     4   9  18  36  61  90 121 155 204 261 308 364
#     4   8  17  32  56  86 120 151 192 260 314 345
#     4  10  18  34  62  92 115 156 214 261 302 364
#     4  10  22  41  60  87 132 167 197 256 324 379
#     4  10  21  40  63  89 126 163 205 257 319 371
#
# _framework density 22.434819999999998
#
# number of rings (size 3 to 8) (size 9 to 14) (size 15 to 20)
#    0.000    2.571    1.429    0.857    0.000    1.714 
#    7.714    5.714    0.000    0.000    0.000    0.000 
#    0.000    0.000    0.000    0.000    0.000    0.000 
#
# Total GULP energy -78071.038002 kJ/mol
# GULP energy per Si atom -5576.502714 kJ/mol
# Density = 2.238376 g / cm^3
# Si number density = 22.434820 Si / 1000 Ang^3
#
#
#
# Elastic Constant Matrix: (Units=GPa)
#
#
# Indices 1 2 3 4 5 6 
#
# 1 97.1822 18.9286 48.5729 -3.6452 0.6439 17.8775
# 2 18.9286 72.5884 16.3087 12.8928 -4.1378 1.7701
# 3 48.5729 16.3087 92.2188 11.2176 3.2474 19.1094
# 4 -3.6452 12.8928 11.2176 37.7890 -1.6148 -6.1707
# 5 0.6439 -4.1378 3.2474 -1.6148 26.9789 5.1953
# 6 17.8775 1.7701 19.1094 -6.1707 5.1953 34.0285
#
#
#
# Elastic Compliance Matrix: (Units=1/GPa)
#
#
# Indices 1 2 3 4 5 6 
#
# 1 0.015305 -0.002940 -0.007450 0.004228 0.000926 -0.003079
# 2 -0.002940 0.015782 -0.000606 -0.005435 0.002291 -0.000271
# 3 -0.007450 -0.000606 0.017128 -0.006742 -0.001084 -0.006730
# 4 0.004228 -0.005435 -0.006742 0.031981 0.000328 0.007597
# 5 0.000926 0.002291 -0.001084 0.000328 0.038670 -0.005841
# 6 -0.003079 -0.000271 -0.006730 0.007597 -0.005841 0.037067
#
#
# Mechanical properties :
#
#
# Convention : Reuss Voigt Hill
#
# Bulk Modulus (GPa) = 38.13582 47.73441 42.93511
# Shear Modulus (GPa) = 26.78575 31.63787 29.21181
#
# Velocity S-wave (km/s) = 3.45909 3.75935 3.61234
# Velocity P-wave (km/s) = 5.74361 6.33773 6.04797
#
# Compressibility (1/GPa) = 0.02622207
#
# Stress axis : x y z
#
# Youngs Moduli (GPa) = 65.33685 63.36511 58.38410
#
# Poissons Ratio (x) = 0.18631 0.43499
# Poissons Ratio (y) = 0.19211 0.03536
# Poissons Ratio (z) = 0.48679 0.03838
#
# Static dielectric constant tensor:
#      x y z
#    x 1.803400 -0.030730 -0.005250 
#    y -0.030730 1.967090 0.063470 
#    z -0.005250 0.063470 1.872450 
# 
# From -- ./inp_files/593386.got.cif
#   From: 2010.05.17/outbox.cif.g08.bks.cpg/sg2_297_cif.got.tgz:593386.got - 2010.06.03 11:33:40.
