data_PCOD9077307
_publ_section_title
;
Structure prediction by ZEFSAII (Michael W. Deem and Ramdas Pophale) SiO2 
 PCOD9077307
Probable space group: P -1
;
_chemical_formula_sum "Si O2"
_cell_formula_units_Z 14
_cell_length_a 8.674407
_cell_length_b 11.561775
_cell_length_c 9.087999
_cell_angle_alpha 132.391498
_cell_angle_beta 102.703858
_cell_angle_gamma 97.054271
_cell_volume 608.425420
_symmetry_space_group_name_H-M "P -1"
_symmetry_group_IT_number 2
_symmetry_cell_setting 'triclinic'
loop_
_space_group_symop_operation_xyz
x,y,z
-x,-y,-z
loop_
_atom_site_type_symbol
_atom_site_label
_atom_site_fract_x
_atom_site_fract_y
_atom_site_fract_z
Si Si1 0.142031 0.261527 0.696386
Si Si2 0.253849 0.966090 0.506235
Si Si3 0.744778 0.189593 0.912252
Si Si4 0.454409 0.113000 0.963142
Si Si5 0.900680 0.557678 0.901002
Si Si6 0.951495 0.363692 0.503752
Si Si7 0.820790 0.002788 0.006710
O O1 0.112795 0.361038 0.633507
O O2 0.944221 0.143563 0.591001
O O3 0.244969 0.140370 0.591731
O O4 0.207435 0.369268 0.953477
O O5 0.313355 0.861630 0.309730
O O6 0.364817 0.007768 0.710807
O O7 0.623897 0.249503 0.042462
O O8 0.736129 0.022478 0.853431
O O9 0.944616 0.302292 0.035739
O O10 0.303924 0.147619 0.047508
O O11 0.500000 0.000000 0.000000
O O12 0.833072 0.411880 0.639686
O O13 0.000000 0.500000 0.000000
O O14 0.000000 0.500000 0.500000
O O15 0.864786 0.178523 0.256612
O O16 0.000000 0.000000 0.000000
#
# Coordination Sequence:
#
# PCOD9077307 Si02
#       7
#     2   2   2   2   2   2   2
#     4   9  19  32  55  88 112 146 197 242 290 330
#     4  10  18  34  58  83 119 146 190 251 291 336
#     4  10  20  35  55  87 114 154 192 236 293 350
#     4  10  22  36  55  86 120 153 191 243 295 351
#     4   9  19  33  53  83 113 150 194 233 283 350
#     4  11  19  33  55  86 118 152 190 243 286 346
#     4  11  22  36  58  89 116 148 199 248 290 333
#
# _framework density 23.010216
#
# number of rings (size 3 to 8) (size 9 to 14) (size 15 to 20)
#    0.000    2.000    2.857    1.286    4.000    0.000 
#    0.000    0.000    0.000    4.286   14.857    0.000 
#    0.000    0.000    0.000    0.000    0.000    0.000 
#
# Total GULP energy -77938.111955 kJ/mol
# GULP energy per Si atom -5567.007997 kJ/mol
# Density = 2.295784 g / cm^3
# Si number density = 23.010216 Si / 1000 Ang^3
#
#
#
# Elastic Constant Matrix: (Units=GPa)
#
#
# Indices 1 2 3 4 5 6 
#
# 1 79.1430 18.8841 9.5881 -8.2528 -14.6204 15.6234
# 2 18.8841 108.2184 22.5448 -22.7297 -9.6959 2.9865
# 3 9.5881 22.5448 108.1913 -18.1658 -11.9991 -4.9812
# 4 -8.2528 -22.7297 -18.1658 37.9398 -1.0729 -2.1120
# 5 -14.6204 -9.6959 -11.9991 -1.0729 25.1917 -11.3365
# 6 15.6234 2.9865 -4.9812 -2.1120 -11.3365 25.4677
#
#
#
# Elastic Compliance Matrix: (Units=1/GPa)
#
#
# Indices 1 2 3 4 5 6 
#
# 1 0.015611 -0.001550 -0.000477 0.001994 0.005159 -0.007026
# 2 -0.001550 0.011308 -0.000573 0.006396 0.004342 0.001976
# 3 -0.000477 -0.000573 0.011605 0.005725 0.008342 0.006818
# 4 0.001994 0.006396 0.005725 0.034050 0.010858 0.006804
# 5 0.005159 0.004342 0.008342 0.010858 0.060377 0.025734
# 6 -0.007026 0.001976 0.006818 0.006804 0.025734 0.056697
#
#
# Mechanical properties :
#
#
# Convention : Reuss Voigt Hill
#
# Bulk Modulus (GPa) = 30.00752 44.17628 37.09190
# Shear Modulus (GPa) = 24.27704 34.02222 29.14963
#
# Velocity S-wave (km/s) = 3.25168 3.84939 3.56309
# Velocity P-wave (km/s) = 5.21222 6.24478 5.75172
#
# Compressibility (1/GPa) = 0.03332498
#
# Stress axis : x y z
#
# Youngs Moduli (GPa) = 64.05738 88.43131 86.17086
#
# Poissons Ratio (x) = 0.13706 0.04111
# Poissons Ratio (y) = 0.09928 0.04934
# Poissons Ratio (z) = 0.03056 0.05064
#
# Static dielectric constant tensor:
#      x y z
#    x 2.051670 0.017670 -0.020650 
#    y 0.017670 1.927540 0.056340 
#    z -0.020650 0.056340 1.960420 
# 
# From -- ./inp_files/184224.got.cif
#   From: 2010.05.17/outbox.cif.g08.bks.cpg/sg2_93_cif.got.tgz:184224.got - 2010.06.03 11:33:40.
