data_PCOD9077413
_publ_section_title
;
Structure prediction by ZEFSAII (Michael W. Deem and Ramdas Pophale) SiO2 
 PCOD9077413
Probable space group: P -1
;
_chemical_formula_sum "Si O2"
_cell_formula_units_Z 16
_cell_length_a 9.251671
_cell_length_b 22.288274
_cell_length_c 21.600918
_cell_angle_alpha 162.043760
_cell_angle_beta 144.497882
_cell_angle_gamma 32.485788
_cell_volume 735.694888
_symmetry_space_group_name_H-M "P -1"
_symmetry_group_IT_number 2
_symmetry_cell_setting 'triclinic'
loop_
_space_group_symop_operation_xyz
x,y,z
-x,-y,-z
loop_
_atom_site_type_symbol
_atom_site_label
_atom_site_fract_x
_atom_site_fract_y
_atom_site_fract_z
Si Si1 0.490596 0.215895 0.558740
Si Si2 0.505454 0.978910 0.211910
Si Si3 0.869055 0.887933 0.572650
Si Si4 0.894759 0.859082 0.022954
Si Si5 0.331056 0.474801 0.358400
Si Si6 0.982297 0.913085 0.504514
Si Si7 0.636833 0.042430 0.993063
Si Si8 0.732184 0.511228 0.881676
O O1 0.308494 0.204162 0.539894
O O2 0.543857 0.427727 0.775593
O O3 0.392025 0.145300 0.391415
O O4 0.781046 0.033683 0.497910
O O5 0.799671 0.984545 0.305697
O O6 0.338518 0.028667 0.138735
O O7 0.568710 0.743181 0.026470
O O8 0.163762 0.697607 0.489161
O O9 0.805786 0.934477 0.524955
O O10 0.882769 0.088748 0.810954
O O11 0.874366 0.937666 0.022288
O O12 0.878092 0.631353 0.796566
O O13 0.614071 0.990361 0.091657
O O14 0.500000 0.500000 0.500000
O O15 0.535043 0.296765 0.210065
O O16 0.149464 0.670628 0.307310
O O17 0.000000 0.500000 0.000000
#
# Coordination Sequence:
#
# PCOD9077413 Si02
#       8
#     2   2   2   2   2   2   2   2
#     4  11  25  38  56  86 124 157 185 241 293 344
#     4  11  20  39  62  83 114 151 203 235 281 347
#     4  12  22  38  58  90 122 149 190 240 303 339
#     4   9  19  35  57  88 115 142 184 249 289 327
#     4  10  18  34  59  87 118 145 189 243 282 341
#     4  11  21  38  62  86 110 158 197 240 279 343
#     4   9  17  35  61  88 104 148 196 241 279 330
#     4  11  20  40  62  80 116 157 200 237 278 340
#
# _framework density 21.748145999999998
#
# number of rings (size 3 to 8) (size 9 to 14) (size 15 to 20)
#    0.750    0.750    5.000    1.875    0.000    1.000 
#    0.000    1.250    0.000    1.500    0.000    0.000 
#    0.000    0.000    0.000    0.000    0.000    0.000 
#
# Total GULP energy -89264.775052 kJ/mol
# GULP energy per Si atom -5579.048441 kJ/mol
# Density = 2.169865 g / cm^3
# Si number density = 21.748146 Si / 1000 Ang^3
#
#
#
# Elastic Constant Matrix: (Units=GPa)
#
#
# Indices 1 2 3 4 5 6 
#
# 1 89.9839 4.7880 28.7483 -14.3038 14.5550 23.0747
# 2 4.7880 42.2522 16.6211 -2.1898 -12.9763 25.1479
# 3 28.7483 16.6211 123.4756 0.1099 17.9010 12.7397
# 4 -14.3038 -2.1898 0.1099 26.7695 5.8604 -5.5289
# 5 14.5550 -12.9763 17.9010 5.8604 23.6397 -5.8721
# 6 23.0747 25.1479 12.7397 -5.5289 -5.8721 32.2860
#
#
#
# Elastic Compliance Matrix: (Units=1/GPa)
#
#
# Indices 1 2 3 4 5 6 
#
# 1 0.020618 0.005113 -0.001083 0.011070 -0.016636 -0.019421
# 2 0.005113 0.060787 -0.008914 -0.007398 0.027956 -0.043666
# 3 -0.001083 -0.008914 0.011296 0.001721 -0.012907 0.001207
# 4 0.011070 -0.007398 0.001721 0.048099 -0.023837 0.001072
# 5 -0.016636 0.027956 -0.012907 -0.023837 0.085219 0.006625
# 6 -0.019421 -0.043666 0.001207 0.001072 0.006625 0.079778
#
#
# Mechanical properties :
#
#
# Convention : Reuss Voigt Hill
#
# Bulk Modulus (GPa) = 12.05798 39.55851 25.80824
# Shear Modulus (GPa) = 14.56845 30.24266 22.40555
#
# Velocity S-wave (km/s) = 2.59099 3.73310 3.21320
# Velocity P-wave (km/s) = 3.80886 6.06715 5.06545
#
# Compressibility (1/GPa) = 0.08293260
#
# Stress axis : x y z
#
# Youngs Moduli (GPa) = 48.50186 16.45099 88.52757
#
# Poissons Ratio (x) = -0.08412 0.09586
# Poissons Ratio (y) = -0.24799 0.78914
# Poissons Ratio (z) = 0.05252 0.14664
#
# Static dielectric constant tensor:
#      x y z
#    x 1.840090 -0.027610 -0.004580 
#    y -0.027610 1.786390 -0.009110 
#    z -0.004580 -0.009110 1.802360 
# 
# From -- ./inp_files/591809.got.cif
#   From: 2010.05.17/outbox.cif.g08.bks.cpg/sg2_296_cif.got.tgz:591809.got - 2010.06.03 11:33:40.
