data_PCOD9077536
_publ_section_title
;
Structure prediction by ZEFSAII (Michael W. Deem and Ramdas Pophale) SiO2 
 PCOD9077536
Probable space group: P -1
;
_chemical_formula_sum "Si O2"
_cell_formula_units_Z 16
_cell_length_a 12.275956
_cell_length_b 12.414388
_cell_length_c 7.799417
_cell_angle_alpha 128.305860
_cell_angle_beta 69.337832
_cell_angle_gamma 134.261522
_cell_volume 661.219292
_symmetry_space_group_name_H-M "P -1"
_symmetry_group_IT_number 2
_symmetry_cell_setting 'triclinic'
loop_
_space_group_symop_operation_xyz
x,y,z
-x,-y,-z
loop_
_atom_site_type_symbol
_atom_site_label
_atom_site_fract_x
_atom_site_fract_y
_atom_site_fract_z
Si Si1 0.877393 0.343453 0.284815
Si Si2 0.927106 0.942329 0.793137
Si Si3 0.583108 0.203441 0.700857
Si Si4 0.747099 0.771891 0.171409
Si Si5 0.308350 0.055204 0.901922
Si Si6 0.106507 0.482469 0.032943
Si Si7 0.766505 0.543921 0.380710
Si Si8 0.556213 0.430272 0.679411
O O1 0.804453 0.420496 0.311069
O O2 0.000000 0.500000 0.500000
O O3 0.986683 0.336078 0.093558
O O4 0.754221 0.145608 0.235087
O O5 0.880739 0.752419 0.583854
O O6 0.073877 0.107397 0.765429
O O7 0.227145 0.084585 0.123391
O O8 0.000000 0.000000 0.000000
O O9 0.760936 0.325677 0.764874
O O10 0.573123 0.300357 0.643699
O O11 0.500000 0.000000 0.500000
O O12 0.491639 0.192300 0.908020
O O13 0.620775 0.665347 0.286208
O O14 0.740172 0.916671 0.226818
O O15 0.672332 0.617718 0.910461
O O16 0.198570 0.446968 0.830220
O O17 0.000000 0.500000 0.000000
O O18 0.609595 0.461134 0.484768
#
# Coordination Sequence:
#
# PCOD9077536 Si02
#       8
#     2   2   2   2   2   2   2   2
#     4  11  21  37  65  94 121 167 221 264 314 381
#     4  10  18  34  60  89 124 165 213 259 308 377
#     4  11  23  41  64  96 128 166 221 274 312 384
#     4   9  19  33  58  94 125 159 212 269 303 368
#     4  10  20  35  59  93 124 155 216 272 308 362
#     4  10  25  43  62  94 137 169 209 267 337 386
#     4  11  21  39  60  91 128 170 207 265 329 377
#     4  10  19  35  63  91 121 167 221 254 314 380
#
# _framework density 24.197718999999999
#
# number of rings (size 3 to 8) (size 9 to 14) (size 15 to 20)
#    0.000    1.750    2.500    3.750    1.750    4.000 
#    0.000    8.125    0.000    0.000    0.000    0.000 
#    0.000    0.000    0.000    0.000    0.000    0.000 
#
# Total GULP energy -89335.048964 kJ/mol
# GULP energy per Si atom -5583.440560 kJ/mol
# Density = 2.414264 g / cm^3
# Si number density = 24.197719 Si / 1000 Ang^3
#
#
#
# Elastic Constant Matrix: (Units=GPa)
#
#
# Indices 1 2 3 4 5 6 
#
# 1 88.7817 39.4450 12.1751 12.0166 -20.4657 13.6876
# 2 39.4450 194.0342 47.7433 -11.8721 -24.2462 31.7286
# 3 12.1751 47.7433 84.8850 -6.9879 -29.4903 4.5830
# 4 12.0166 -11.8721 -6.9879 48.9328 1.9217 -22.6935
# 5 -20.4657 -24.2462 -29.4903 1.9217 25.4895 1.8053
# 6 13.6876 31.7286 4.5830 -22.6935 1.8053 53.3392
#
#
#
# Elastic Compliance Matrix: (Units=1/GPa)
#
#
# Indices 1 2 3 4 5 6 
#
# 1 0.018653 -0.001570 0.005144 -0.009169 0.020757 -0.008898
# 2 -0.001570 0.007052 -0.002614 -0.000099 0.002692 -0.003700
# 3 0.005144 -0.002614 0.022172 -0.001276 0.027615 -0.003148
# 4 -0.009169 -0.000099 -0.001276 0.030310 -0.012338 0.015834
# 5 0.020757 0.002692 0.027615 -0.012338 0.092590 -0.017684
# 6 -0.008898 -0.003700 -0.003148 0.015834 -0.017684 0.030838
#
#
# Mechanical properties :
#
#
# Convention : Reuss Voigt Hill
#
# Bulk Modulus (GPa) = 20.08135 62.93641 41.50888
# Shear Modulus (GPa) = 23.11684 43.44149 33.27916
#
# Velocity S-wave (km/s) = 3.09420 4.24166 3.71253
# Velocity P-wave (km/s) = 4.59154 7.07493 5.96393
#
# Compressibility (1/GPa) = 0.04979744
#
# Stress axis : x y z
#
# Youngs Moduli (GPa) = 53.60978 141.81358 45.10253
#
# Poissons Ratio (x) = 0.22266 -0.23203
# Poissons Ratio (y) = 0.08417 0.11789
# Poissons Ratio (z) = -0.27579 0.37069
#
# Static dielectric constant tensor:
#      x y z
#    x 2.023300 0.037590 -0.040900 
#    y 0.037590 1.961480 -0.091560 
#    z -0.040900 -0.091560 1.950560 
# 
# From -- ./inp_files/311927.got.cif
#   From: 2010.05.17/outbox.cif.g08.bks.cpg/sg2_156_cif.got.tgz:311927.got - 2010.06.03 11:33:40.
