data_PCOD9077564
_publ_section_title
;
Structure prediction by ZEFSAII (Michael W. Deem and Ramdas Pophale) SiO2 
 PCOD9077564
Probable space group: P -1
;
_chemical_formula_sum "Si O2"
_cell_formula_units_Z 16
_cell_length_a 12.337504
_cell_length_b 10.909716
_cell_length_c 8.825386
_cell_angle_alpha 100.136192
_cell_angle_beta 126.241095
_cell_angle_gamma 117.677541
_cell_volume 658.306964
_symmetry_space_group_name_H-M "P -1"
_symmetry_group_IT_number 2
_symmetry_cell_setting 'triclinic'
loop_
_space_group_symop_operation_xyz
x,y,z
-x,-y,-z
loop_
_atom_site_type_symbol
_atom_site_label
_atom_site_fract_x
_atom_site_fract_y
_atom_site_fract_z
Si Si1 0.869455 0.289412 0.371298
Si Si2 0.931632 0.856065 0.034684
Si Si3 0.696156 0.319695 0.768587
Si Si4 0.213042 0.141828 0.777051
Si Si5 0.093961 0.730944 0.259847
Si Si6 0.648040 0.502295 0.551905
Si Si7 0.748463 0.586345 0.309240
Si Si8 0.541667 0.209108 0.930257
O O1 0.826525 0.249163 0.504800
O O2 0.673768 0.183911 0.095110
O O3 0.000000 0.500000 0.500000
O O4 0.020386 0.280631 0.451007
O O5 0.801659 0.837847 0.051266
O O6 0.074672 0.866236 0.254770
O O7 0.843249 0.688541 0.821174
O O8 0.000000 0.000000 0.000000
O O9 0.776315 0.243367 0.756906
O O10 0.620546 0.349719 0.570468
O O11 0.540898 0.201728 0.746612
O O12 0.885070 0.521357 0.030686
O O13 0.295751 0.317888 0.796575
O O14 0.344323 0.111316 0.832475
O O15 0.000000 0.000000 0.500000
O O16 0.500000 0.500000 0.500000
O O17 0.655554 0.515743 0.382141
O O18 0.667501 0.416413 0.113491
#
# Coordination Sequence:
#
# PCOD9077564 Si02
#       8
#     2   2   2   2   2   2   2   2
#     4  10  18  34  60  96 124 156 200 259 325 375
#     4  11  24  43  64  87 124 174 221 257 321 383
#     4  10  19  33  60  97 132 157 206 262 329 374
#     4  12  25  44  63  87 126 172 218 264 311 378
#     4  10  19  36  60  95 130 166 203 267 322 384
#     4  11  22  36  62  97 129 164 210 267 321 382
#     4  11  20  38  65  93 129 161 208 258 325 380
#     4  11  22  37  66  98 126 161 209 265 321 385
#
# _framework density 24.304769
#
# number of rings (size 3 to 8) (size 9 to 14) (size 15 to 20)
#    0.000    1.250    3.750    4.875    3.500    0.000 
#    0.000    0.625    0.000    2.250    0.000    0.000 
#    0.000    0.000    0.000    0.000    0.000    0.000 
#
# Total GULP energy -89490.052733 kJ/mol
# GULP energy per Si atom -5593.128296 kJ/mol
# Density = 2.424945 g / cm^3
# Si number density = 24.304769 Si / 1000 Ang^3
#
#
#
# Elastic Constant Matrix: (Units=GPa)
#
#
# Indices 1 2 3 4 5 6 
#
# 1 172.6989 56.1873 20.2090 -22.0385 12.3037 36.4469
# 2 56.1873 116.6913 34.8631 -38.4001 -0.3962 21.3002
# 3 20.2090 34.8631 49.7435 -12.8669 6.9841 9.9954
# 4 -22.0385 -38.4001 -12.8669 40.4326 7.4540 -7.3906
# 5 12.3037 -0.3962 6.9841 7.4540 45.9934 -11.8243
# 6 36.4469 21.3002 9.9954 -7.3906 -11.8243 47.1762
#
#
#
# Elastic Compliance Matrix: (Units=1/GPa)
#
#
# Indices 1 2 3 4 5 6 
#
# 1 0.008411 -0.002412 0.000714 0.002170 -0.004353 -0.006311
# 2 -0.002412 0.015862 -0.006663 0.011331 -0.000626 -0.002269
# 3 0.000714 -0.006663 0.026932 0.002941 -0.005913 -0.004271
# 4 0.002170 0.011331 0.002941 0.038472 -0.008040 -0.003403
# 5 -0.004353 -0.000626 -0.005913 -0.008040 0.027831 0.010615
# 6 -0.006311 -0.002269 -0.004271 -0.003403 0.010615 0.030130
#
#
# Mechanical properties :
#
#
# Convention : Reuss Voigt Hill
#
# Bulk Modulus (GPa) = 28.99913 62.40581 45.70247
# Shear Modulus (GPa) = 28.43294 41.91208 35.17251
#
# Velocity S-wave (km/s) = 3.42402 4.15714 3.80826
# Velocity P-wave (km/s) = 5.25254 6.98388 6.17915
#
# Compressibility (1/GPa) = 0.03448379
#
# Stress axis : x y z
#
# Youngs Moduli (GPa) = 118.89866 63.04367 37.13094
#
# Poissons Ratio (x) = 0.15204 -0.02651
# Poissons Ratio (y) = 0.28675 0.24739
# Poissons Ratio (z) = -0.08490 0.42004
#
# Static dielectric constant tensor:
#      x y z
#    x 1.924470 -0.006140 0.008000 
#    y -0.006140 1.952900 0.070810 
#    z 0.008000 0.070810 1.980470 
# 
# From -- ./inp_files/208327.got.cif
#   From: 2010.05.17/outbox.cif.g08.bks.cpg/sg2_105_cif.got.tgz:208327.got - 2010.06.03 11:33:40.
