data_PCOD9077229
_publ_section_title
;
Structure prediction by ZEFSAII (Michael W. Deem and Ramdas Pophale) SiO2 
 PCOD9077229
Probable space group: P -1
;
_chemical_formula_sum "Si O2"
_cell_formula_units_Z 12
_cell_length_a 10.314556
_cell_length_b 9.042395
_cell_length_c 17.243316
_cell_angle_alpha 124.785418
_cell_angle_beta 32.048977
_cell_angle_gamma 116.535700
_cell_volume 698.398021
_symmetry_space_group_name_H-M "P -1"
_symmetry_group_IT_number 2
_symmetry_cell_setting 'triclinic'
loop_
_space_group_symop_operation_xyz
x,y,z
-x,-y,-z
loop_
_atom_site_type_symbol
_atom_site_label
_atom_site_fract_x
_atom_site_fract_y
_atom_site_fract_z
Si Si1 0.221820 0.785555 0.582635
Si Si2 0.071561 0.330790 0.858497
Si Si3 0.283691 0.935557 0.859277
Si Si4 0.737864 0.008033 0.933535
Si Si5 0.428396 0.513673 0.630494
Si Si6 0.520290 0.944793 0.357620
O O1 0.336760 0.579427 0.468500
O O2 0.277504 0.881828 0.501738
O O3 0.387325 0.883808 0.591722
O O4 0.943010 0.842730 0.762796
O O5 0.200462 0.401062 0.737492
O O6 0.276527 0.212208 0.767722
O O7 0.863538 0.195162 0.909405
O O8 0.000000 0.500000 0.000000
O O9 0.344263 0.719938 0.756536
O O10 0.458846 0.020420 0.733037
O O11 0.320325 0.991958 0.945717
O O12 0.000000 0.000000 0.000000
O O13 0.500000 0.000000 0.000000
O O14 0.500000 0.500000 0.500000
#
# Coordination Sequence:
#
# PCOD9077229 Si02
#       6
#     2   2   2   2   2   2
#     4   9  18  34  53  81 113 148 183 233 283 330
#     4  10  18  34  57  85 109 145 191 234 273 331
#     4  12  19  34  58  89 110 147 194 231 273 341
#     4  11  23  38  57  83 120 154 182 233 294 337
#     4  11  19  30  59  91 110 136 197 245 271 317
#     4   9  17  30  56  83 109 140 191 235 273 322
#
# _framework density 17.182179999999999
#
# number of rings (size 3 to 8) (size 9 to 14) (size 15 to 20)
#    0.000    1.667    6.667    1.000    0.000    0.000 
#    0.000    1.667    0.000    7.000    0.000    0.000 
#    0.000    0.000    0.000    0.000    0.000    0.000 
#
# Total GULP energy -66856.281734 kJ/mol
# GULP energy per Si atom -5571.356811 kJ/mol
# Density = 1.714307 g / cm^3
# Si number density = 17.182180 Si / 1000 Ang^3
#
#
#
# Elastic Constant Matrix: (Units=GPa)
#
#
# Indices 1 2 3 4 5 6 
#
# 1 89.8171 33.3149 53.8022 -14.1452 11.4885 -12.5119
# 2 33.3149 80.0537 47.6140 -2.9382 4.6711 -23.0364
# 3 53.8022 47.6140 126.0439 -0.0231 10.9600 -13.6473
# 4 -14.1452 -2.9382 -0.0231 48.4304 -20.6610 7.0036
# 5 11.4885 4.6711 10.9600 -20.6610 23.2370 -7.6929
# 6 -12.5119 -23.0364 -13.6473 7.0036 -7.6929 20.8128
#
#
#
# Elastic Compliance Matrix: (Units=1/GPa)
#
#
# Indices 1 2 3 4 5 6 
#
# 1 0.016609 -0.002900 -0.005785 0.004153 -0.000778 0.001296
# 2 -0.002900 0.023254 -0.005715 0.000405 0.007375 0.022837
# 3 -0.005785 -0.005715 0.012918 -0.004690 -0.007034 -0.002354
# 4 0.004153 0.000405 -0.004690 0.035313 0.031333 -0.000433
# 5 -0.000778 0.007375 -0.007034 0.031333 0.080494 0.022292
# 6 0.001296 0.022837 -0.002354 -0.000433 0.022292 0.080945
#
#
# Mechanical properties :
#
#
# Convention : Reuss Voigt Hill
#
# Bulk Modulus (GPa) = 41.70149 62.81965 52.26057
# Shear Modulus (GPa) = 17.46257 29.24163 23.35210
#
# Velocity S-wave (km/s) = 3.19143 4.12983 3.69058
# Velocity P-wave (km/s) = 6.15656 7.70591 6.97439
#
# Compressibility (1/GPa) = 0.02397996
#
# Stress axis : x y z
#
# Youngs Moduli (GPa) = 60.20782 43.00367 77.41206
#
# Poissons Ratio (x) = 0.12472 0.44785
# Poissons Ratio (y) = 0.17462 0.44240
# Poissons Ratio (z) = 0.34832 0.24576
#
# Static dielectric constant tensor:
#      x y z
#    x 1.544580 -0.017070 0.017480 
#    y -0.017070 1.659600 0.013010 
#    z 0.017480 0.013010 1.660580 
# 
# From -- ./inp_files/145327.got.cif
#   From: 2010.05.17/outbox.cif.g08.bks.cpg/sg2_73_cif.got.tgz:145327.got - 2010.06.03 11:33:40.
