data_PCOD9077195
_publ_section_title
;
Structure prediction by ZEFSAII (Michael W. Deem and Ramdas Pophale) SiO2 
 PCOD9077195
Probable space group: P -1
;
_chemical_formula_sum "Si O2"
_cell_formula_units_Z 16
_cell_length_a 8.665202
_cell_length_b 23.941830
_cell_length_c 24.506192
_cell_angle_alpha 160.480373
_cell_angle_beta 29.126236
_cell_angle_gamma 140.213702
_cell_volume 778.288513
_symmetry_space_group_name_H-M "P -1"
_symmetry_group_IT_number 2
_symmetry_cell_setting 'triclinic'
loop_
_space_group_symop_operation_xyz
x,y,z
-x,-y,-z
loop_
_atom_site_type_symbol
_atom_site_label
_atom_site_fract_x
_atom_site_fract_y
_atom_site_fract_z
Si Si1 0.721496 0.460878 0.976817
Si Si2 0.816218 0.967520 0.412538
Si Si3 0.889465 0.581019 0.915963
Si Si4 0.224301 0.189399 0.445080
Si Si5 0.409217 0.667795 0.897384
Si Si6 0.252891 0.088459 0.031399
Si Si7 0.603587 0.770682 0.384122
Si Si8 0.253424 0.754218 0.579061
O O1 0.456336 0.358545 0.954622
O O2 0.578814 0.631191 0.217238
O O3 0.797753 0.535619 0.964095
O O4 0.066492 0.334799 0.779694
O O5 0.675585 0.932756 0.481760
O O6 0.500000 0.000000 0.500000
O O7 0.951056 0.126481 0.502807
O O8 0.144842 0.791253 0.136456
O O9 0.086034 0.390305 0.653945
O O10 0.157083 0.679257 0.934213
O O11 0.502539 0.182258 0.398207
O O12 0.384111 0.061391 0.227471
O O13 0.694990 0.750822 0.871015
O O14 0.589984 0.461703 0.667125
O O15 0.105710 0.164248 0.205324
O O16 0.000000 0.000000 0.000000
O O17 0.293332 0.817269 0.564184
#
# Coordination Sequence:
#
# PCOD9077195 Si02
#       8
#     2   2   2   2   2   2   2   2
#     4  10  19  31  55  82 116 146 183 229 275 324
#     4  11  22  33  52  82 119 150 178 224 295 342
#     4  10  18  34  57  82 110 153 190 222 274 340
#     4   9  19  33  51  79 113 146 188 227 276 335
#     4  10  18  34  57  81 107 148 198 229 263 341
#     4   9  19  34  54  83 116 146 189 241 277 319
#     4  11  19  34  53  84 118 145 185 239 272 334
#     4  10  19  34  55  81 108 149 192 234 276 315
#
# _framework density 20.557929999999999
#
# number of rings (size 3 to 8) (size 9 to 14) (size 15 to 20)
#    0.000    2.000    3.750    1.875    1.750    0.500 
#    0.000    0.000    0.000    7.500    0.000    3.500 
#    0.000    0.000    0.000    0.000    0.000    0.000 
#
# Total GULP energy -89204.456171 kJ/mol
# GULP energy per Si atom -5575.278511 kJ/mol
# Density = 2.051114 g / cm^3
# Si number density = 20.557930 Si / 1000 Ang^3
#
#
#
# Elastic Constant Matrix: (Units=GPa)
#
#
# Indices 1 2 3 4 5 6 
#
# 1 47.1763 16.4143 -2.3492 -1.3320 -4.0185 5.0426
# 2 16.4143 125.8485 28.6854 -9.2548 8.1640 6.3597
# 3 -2.3492 28.6854 97.9478 -17.4832 19.1437 -20.4119
# 4 -1.3320 -9.2548 -17.4832 29.1485 -2.5385 16.8222
# 5 -4.0185 8.1640 19.1437 -2.5385 7.5025 -2.8966
# 6 5.0426 6.3597 -20.4119 16.8222 -2.8966 28.6586
#
#
#
# Elastic Compliance Matrix: (Units=1/GPa)
#
#
# Indices 1 2 3 4 5 6 
#
# 1 0.025253 -0.003543 -0.004339 0.003183 0.027269 -0.005860
# 2 -0.003543 0.010133 -0.001705 0.005141 -0.009465 -0.006814
# 3 -0.004339 -0.001705 0.024943 0.002446 -0.058837 0.011525
# 4 0.003183 0.005141 0.002446 0.056583 -0.003946 -0.033571
# 5 0.027269 -0.009465 -0.058837 -0.003946 0.302469 -0.011716
# 6 -0.005860 -0.006814 0.011525 -0.033571 -0.011716 0.064167
#
#
# Mechanical properties :
#
#
# Convention : Reuss Voigt Hill
#
# Bulk Modulus (GPa) = 24.29944 39.60819 31.95382
# Shear Modulus (GPa) = 9.68167 28.27672 18.97920
#
# Velocity S-wave (km/s) = 2.17248 3.71275 3.04173
# Velocity P-wave (km/s) = 4.25894 6.13904 5.28329
#
# Compressibility (1/GPa) = 0.04115321
#
# Stress axis : x y z
#
# Youngs Moduli (GPa) = 39.59943 98.68441 40.09211
#
# Poissons Ratio (x) = 0.34968 0.17397
# Poissons Ratio (y) = 0.14032 0.06836
# Poissons Ratio (z) = 0.17183 0.16826
#
# Static dielectric constant tensor:
#      x y z
#    x 1.737970 0.025510 0.019600 
#    y 0.025510 1.758500 -0.002060 
#    z 0.019600 -0.002060 1.834840 
# 
# From -- ./inp_files/397902.got.cif
#   From: 2010.05.17/outbox.cif.g08.bks.cpg/sg2_199_cif.got.tgz:397902.got - 2010.06.03 11:33:40.
