data_PCOD9077527
_publ_section_title
;
Structure prediction by ZEFSAII (Michael W. Deem and Ramdas Pophale) SiO2 
 PCOD9077527
Probable space group: P -1
;
_chemical_formula_sum "Si O2"
_cell_formula_units_Z 16
_cell_length_a 12.938863
_cell_length_b 8.652745
_cell_length_c 18.653503
_cell_angle_alpha 113.568595
_cell_angle_beta 21.600338
_cell_angle_gamma 105.587786
_cell_volume 670.996702
_symmetry_space_group_name_H-M "P -1"
_symmetry_group_IT_number 2
_symmetry_cell_setting 'triclinic'
loop_
_space_group_symop_operation_xyz
x,y,z
-x,-y,-z
loop_
_atom_site_type_symbol
_atom_site_label
_atom_site_fract_x
_atom_site_fract_y
_atom_site_fract_z
Si Si1 0.377022 0.554550 0.711173
Si Si2 0.173271 0.587202 0.332896
Si Si3 0.188696 0.391281 0.667062
Si Si4 0.697419 0.734493 0.024762
Si Si5 0.263484 0.073892 0.367840
Si Si6 0.154409 0.139802 0.894329
Si Si7 0.119311 0.665991 0.550408
Si Si8 0.211669 0.030720 0.562722
O O1 0.276507 0.430842 0.696976
O O2 0.531963 0.658770 0.575658
O O3 0.604466 0.438333 0.599091
O O4 0.097772 0.703191 0.951560
O O5 0.443752 0.653256 0.147548
O O6 0.193887 0.607102 0.408864
O O7 0.854251 0.724563 0.543040
O O8 0.164687 0.403124 0.270657
O O9 0.055795 0.228804 0.726937
O O10 0.993786 0.576238 0.791517
O O11 0.574741 0.939304 0.115860
O O12 0.735747 0.765121 0.091387
O O13 0.250469 0.060503 0.458799
O O14 0.000000 0.000000 0.500000
O O15 0.449060 0.044451 0.642351
O O16 0.000000 0.000000 0.000000
O O17 0.066558 0.873981 0.634443
#
# Coordination Sequence:
#
# PCOD9077527 Si02
#       8
#     2   2   2   2   2   2   2   2
#     4  10  22  38  59  87 117 154 187 245 291 340
#     4  10  20  38  62  87 115 150 194 251 281 333
#     4  10  21  39  60  81 121 154 194 232 287 351
#     4   9  19  36  61  88 112 146 198 240 283 339
#     4   9  16  35  62  85 106 146 201 237 275 327
#     4  10  18  34  60  89 110 142 202 242 276 338
#     4  11  22  36  60  87 121 147 194 240 297 334
#     4  11  20  36  60  90 116 155 190 238 288 349
#
# _framework density 23.845124999999999
#
# number of rings (size 3 to 8) (size 9 to 14) (size 15 to 20)
#    0.000    2.000    5.000    0.750    1.750    1.000 
#    0.000    6.250    5.500    0.000    0.000    0.000 
#    0.000    0.000    0.000    0.000    0.000    0.000 
#
# Total GULP energy -89182.101783 kJ/mol
# GULP energy per Si atom -5573.881361 kJ/mol
# Density = 2.379085 g / cm^3
# Si number density = 23.845125 Si / 1000 Ang^3
#
#
#
# Elastic Constant Matrix: (Units=GPa)
#
#
# Indices 1 2 3 4 5 6 
#
# 1 76.0798 33.9834 27.2162 12.1338 -25.1694 -1.4054
# 2 33.9834 142.7091 12.7194 11.4919 -12.5893 32.0265
# 3 27.2162 12.7194 68.9862 16.7722 -16.6564 -1.5832
# 4 12.1338 11.4919 16.7722 25.0367 -4.9862 -6.0095
# 5 -25.1694 -12.5893 -16.6564 -4.9862 21.4252 -0.6886
# 6 -1.4054 32.0265 -1.5832 -6.0095 -0.6886 33.6646
#
#
#
# Elastic Compliance Matrix: (Units=1/GPa)
#
#
# Indices 1 2 3 4 5 6 
#
# 1 0.024285 -0.004494 -0.002393 -0.002114 0.023705 0.005284
# 2 -0.004494 0.011211 0.001073 -0.006509 0.000243 -0.011960
# 3 -0.002393 0.001073 0.020671 -0.011427 0.011167 -0.001960
# 4 -0.002114 -0.006509 -0.011427 0.054905 -0.001921 0.015328
# 5 0.023705 0.000243 0.011167 -0.001921 0.082983 0.002638
# 6 0.005284 -0.011960 -0.001960 0.015328 0.002638 0.044002
#
#
# Mechanical properties :
#
#
# Convention : Reuss Voigt Hill
#
# Bulk Modulus (GPa) = 22.45291 48.40146 35.42719
# Shear Modulus (GPa) = 18.90119 30.28237 24.59178
#
# Velocity S-wave (km/s) = 2.81848 3.56752 3.21489
# Velocity P-wave (km/s) = 4.47531 6.10835 5.35445
#
# Compressibility (1/GPa) = 0.04453766
#
# Stress axis : x y z
#
# Youngs Moduli (GPa) = 41.17799 89.19440 48.37591
#
# Poissons Ratio (x) = 0.40085 0.11579
# Poissons Ratio (y) = 0.18506 -0.05188
# Poissons Ratio (z) = 0.09856 -0.09566
#
# Static dielectric constant tensor:
#      x y z
#    x 1.917400 -0.003250 -0.006000 
#    y -0.003250 2.049340 -0.001950 
#    z -0.006000 -0.001950 2.043880 
# 
# From -- ./inp_files/611769.got.cif
#   From: 2010.05.17/outbox.cif.g08.bks.cpg/sg2_306_cif.got.tgz:611769.got - 2010.06.03 11:33:40.
