data_PCOD9077602
_publ_section_title
;
Structure prediction by ZEFSAII (Michael W. Deem and Ramdas Pophale) SiO2 
 PCOD9077602
Probable space group: P -1
;
_chemical_formula_sum "Si O2"
_cell_formula_units_Z 14
_cell_length_a 13.909479
_cell_length_b 9.491777
_cell_length_c 9.877658
_cell_angle_alpha 137.001167
_cell_angle_beta 51.088962
_cell_angle_gamma 120.090748
_cell_volume 689.874643
_symmetry_space_group_name_H-M "P -1"
_symmetry_group_IT_number 2
_symmetry_cell_setting 'triclinic'
loop_
_space_group_symop_operation_xyz
x,y,z
-x,-y,-z
loop_
_atom_site_type_symbol
_atom_site_label
_atom_site_fract_x
_atom_site_fract_y
_atom_site_fract_z
Si Si1 0.971395 0.756599 0.346816
Si Si2 0.193468 0.501665 0.896881
Si Si3 0.369118 0.579576 0.332438
Si Si4 0.580375 0.001905 0.793237
Si Si5 0.334826 0.811680 0.775529
Si Si6 0.740000 0.813634 0.722378
Si Si7 0.362430 0.517252 0.001289
O O1 0.896378 0.668951 0.219730
O O2 0.872083 0.718938 0.528873
O O3 0.000000 0.000000 0.500000
O O4 0.099623 0.651645 0.155545
O O5 0.279389 0.629881 0.798759
O O6 0.278334 0.429603 0.891173
O O7 0.313730 0.751632 0.595638
O O8 0.358091 0.375978 0.292323
O O9 0.305773 0.520157 0.203823
O O10 0.515179 0.610165 0.191528
O O11 0.484491 0.860586 0.687276
O O12 0.703553 0.909053 0.676267
O O13 0.606113 0.235984 0.883645
O O14 0.500000 0.000000 0.000000
O O15 0.272967 0.012148 0.029729
#
# Coordination Sequence:
#
# PCOD9077602 Si02
#       7
#     2   2   2   2   2   2   2
#     4  11  22  37  64  91 112 150 208 261 287 335
#     4  11  22  38  63  90 115 155 205 245 295 346
#     4  11  24  37  61  88 128 163 186 238 308 359
#     4  10  18  34  61  88 120 150 198 244 285 350
#     4  11  20  36  62  89 116 159 197 238 299 353
#     4  11  20  39  59  89 119 154 199 254 288 355
#     4  11  22  42  56  92 129 156 194 243 295 360
#
# _framework density 20.293543
#
# number of rings (size 3 to 8) (size 9 to 14) (size 15 to 20)
#    0.000    1.143    8.571    0.000    2.000    1.714 
#    0.000    0.714    0.000    1.714    0.000    0.000 
#    0.000    0.000    0.000    0.000    0.000    0.000 
#
# Total GULP energy -77998.097100 kJ/mol
# GULP energy per Si atom -5571.292650 kJ/mol
# Density = 2.024735 g / cm^3
# Si number density = 20.293543 Si / 1000 Ang^3
#
#
#
# Elastic Constant Matrix: (Units=GPa)
#
#
# Indices 1 2 3 4 5 6 
#
# 1 48.3590 3.0029 12.7281 -5.0337 7.1909 8.3247
# 2 3.0029 19.2158 2.8127 5.9614 -0.9916 5.4187
# 3 12.7281 2.8127 114.1335 -14.7124 5.2834 -5.8036
# 4 -5.0337 5.9614 -14.7124 25.8915 2.6233 5.5990
# 5 7.1909 -0.9916 5.2834 2.6233 30.1262 3.2017
# 6 8.3247 5.4187 -5.8036 5.5990 3.2017 22.6557
#
#
#
# Elastic Compliance Matrix: (Units=1/GPa)
#
#
# Indices 1 2 3 4 5 6 
#
# 1 0.024598 -0.003238 -0.002015 0.007025 -0.005197 -0.009782
# 2 -0.003238 0.061413 -0.003973 -0.015124 0.006044 -0.011633
# 3 -0.002015 -0.003973 0.010098 0.005807 -0.002263 0.003162
# 4 0.007025 -0.015124 0.005807 0.049325 -0.006559 -0.008739
# 5 -0.005197 0.006044 -0.002263 -0.006559 0.035981 -0.003580
# 6 -0.009782 -0.011633 0.003162 -0.008739 -0.003580 0.053991
#
#
# Mechanical properties :
#
#
# Convention : Reuss Voigt Hill
#
# Bulk Modulus (GPa) = 12.87724 24.31063 18.59393
# Shear Modulus (GPa) = 17.87350 26.61232 22.24291
#
# Velocity S-wave (km/s) = 2.97096 3.62521 3.31427
# Velocity P-wave (km/s) = 4.25771 5.43400 4.88142
#
# Compressibility (1/GPa) = 0.07765642
#
# Stress axis : x y z
#
# Youngs Moduli (GPa) = 40.65404 16.28331 99.02653
#
# Poissons Ratio (x) = 0.05273 0.19950
# Poissons Ratio (y) = 0.13165 0.39345
# Poissons Ratio (z) = 0.08190 0.06470
#
# Static dielectric constant tensor:
#      x y z
#    x 1.857670 0.060510 -0.033840 
#    y 0.060510 1.754000 -0.006930 
#    z -0.033840 -0.006930 1.801880 
# 
# From -- ./inp_files/220419.got.cif
#   From: 2010.05.17/outbox.cif.g08.bks.cpg/sg2_111_cif.got.tgz:220419.got - 2010.06.03 11:33:40.
