data_PCOD9077399
_publ_section_title
;
Structure prediction by ZEFSAII (Michael W. Deem and Ramdas Pophale) SiO2 
 PCOD9077399
Probable space group: P -1
;
_chemical_formula_sum "Si O2"
_cell_formula_units_Z 14
_cell_length_a 7.405193
_cell_length_b 12.305489
_cell_length_c 8.064571
_cell_angle_alpha 80.118568
_cell_angle_beta 104.940441
_cell_angle_gamma 92.440967
_cell_volume 699.502604
_symmetry_space_group_name_H-M "P -1"
_symmetry_group_IT_number 2
_symmetry_cell_setting 'triclinic'
loop_
_space_group_symop_operation_xyz
x,y,z
-x,-y,-z
loop_
_atom_site_type_symbol
_atom_site_label
_atom_site_fract_x
_atom_site_fract_y
_atom_site_fract_z
Si Si1 0.617182 0.848194 0.023256
Si Si2 0.241181 0.924413 0.055899
Si Si3 0.632886 0.435599 0.171565
Si Si4 0.541836 0.625840 0.526852
Si Si5 0.740885 0.201693 0.225880
Si Si6 0.190163 0.774531 0.384065
Si Si7 0.815055 0.648298 0.308233
O O1 0.478505 0.829695 0.840250
O O2 0.763887 0.944101 0.993895
O O3 0.465160 0.894471 0.108614
O O4 0.706339 0.736762 0.143422
O O5 0.166155 0.870698 0.219297
O O6 0.165959 0.867033 0.884029
O O7 0.490961 0.380336 0.284242
O O8 0.748206 0.332607 0.154316
O O9 0.767828 0.525816 0.264504
O O10 0.500000 0.500000 0.000000
O O11 0.500000 0.500000 0.500000
O O12 0.381824 0.709764 0.407707
O O13 0.731364 0.657369 0.471882
O O14 0.805564 0.185166 0.434029
O O15 0.027929 0.684366 0.350537
#
# Coordination Sequence:
#
# PCOD9077399 Si02
#       7
#     2   2   2   2   2   2   2
#     4   9  18  38  63  79 117 159 189 242 291 339
#     4   9  19  39  61  83 117 154 197 240 288 337
#     4  10  18  34  59  85 112 152 195 229 288 354
#     4   9  20  35  57  78 118 153 186 235 283 338
#     4   9  19  36  59  86 114 149 199 237 280 356
#     4  11  22  37  61  89 117 154 194 241 291 346
#     4  11  21  38  60  87 119 153 194 236 296 341
#
# _framework density 20.014220000000002
#
# number of rings (size 3 to 8) (size 9 to 14) (size 15 to 20)
#    0.857    1.429    2.857    0.000    2.000    6.286 
#    2.571    1.429    0.000    0.000    0.000    0.000 
#    0.000    0.000    0.000    0.000    0.000    0.000 
#
# Total GULP energy -77944.931423 kJ/mol
# GULP energy per Si atom -5567.495102 kJ/mol
# Density = 1.996867 g / cm^3
# Si number density = 20.014220 Si / 1000 Ang^3
#
#
#
# Elastic Constant Matrix: (Units=GPa)
#
#
# Indices 1 2 3 4 5 6 
#
# 1 29.2364 21.4465 18.5787 -8.2754 -5.7986 8.2834
# 2 21.4465 113.8375 49.9303 -1.3626 -11.0472 13.3391
# 3 18.5787 49.9303 96.0592 4.5958 -9.9568 16.0725
# 4 -8.2754 -1.3626 4.5958 28.3761 5.4181 -4.0934
# 5 -5.7986 -11.0472 -9.9568 5.4181 13.7865 -8.3296
# 6 8.2834 13.3391 16.0725 -4.0934 -8.3296 21.5915
#
#
#
# Elastic Compliance Matrix: (Units=1/GPa)
#
#
# Indices 1 2 3 4 5 6 
#
# 1 0.047991 -0.005306 -0.005664 0.013165 0.002062 -0.007626
# 2 -0.005306 0.012363 -0.004809 -0.001074 0.004276 -0.000577
# 3 -0.005664 -0.004809 0.015729 -0.006044 0.003704 -0.006282
# 4 0.013165 -0.001074 -0.006044 0.043265 -0.015215 0.002445
# 5 0.002062 0.004276 0.003704 -0.015215 0.104314 0.031168
# 6 -0.007626 -0.000577 -0.006282 0.002445 0.031168 0.066760
#
#
# Mechanical properties :
#
#
# Convention : Reuss Voigt Hill
#
# Bulk Modulus (GPa) = 22.45873 46.56047 34.50960
# Shear Modulus (GPa) = 14.84463 22.69600 18.77031
#
# Velocity S-wave (km/s) = 2.72638 3.37114 3.06575
# Velocity P-wave (km/s) = 4.59963 6.20217 5.46002
#
# Compressibility (1/GPa) = 0.04452612
#
# Stress axis : x y z
#
# Youngs Moduli (GPa) = 20.83709 80.88742 63.57482
#
# Poissons Ratio (x) = 0.42917 0.36011
# Poissons Ratio (y) = 0.11056 0.30572
# Poissons Ratio (z) = 0.11803 0.38897
#
# Static dielectric constant tensor:
#      x y z
#    x 1.732360 -0.031700 -0.011380 
#    y -0.031700 1.760430 0.011640 
#    z -0.011380 0.011640 1.733100 
# 
# From -- ./inp_files/168822.got.cif
#   From: 2010.05.17/outbox.cif.g08.bks.cpg/sg2_85_cif.got.tgz:168822.got - 2010.06.03 11:33:40.
