data_PCOD9077986
_publ_section_title
;
Structure prediction by ZEFSAII (Michael W. Deem and Ramdas Pophale) SiO2 
 PCOD9077986
Probable space group: P -1
;
_chemical_formula_sum "Si O2"
_cell_formula_units_Z 16
_cell_length_a 9.155051
_cell_length_b 19.411854
_cell_length_c 19.610456
_cell_angle_alpha 159.212678
_cell_angle_beta 145.649629
_cell_angle_gamma 36.383480
_cell_volume 688.241049
_symmetry_space_group_name_H-M "P -1"
_symmetry_group_IT_number 2
_symmetry_cell_setting 'triclinic'
loop_
_space_group_symop_operation_xyz
x,y,z
-x,-y,-z
loop_
_atom_site_type_symbol
_atom_site_label
_atom_site_fract_x
_atom_site_fract_y
_atom_site_fract_z
Si Si1 0.022646 0.131106 0.390706
Si Si2 0.834511 0.741257 0.582709
Si Si3 0.574681 0.138775 0.864941
Si Si4 0.426888 0.369291 0.788825
Si Si5 0.140418 0.475529 0.958677
Si Si6 0.276504 0.523373 0.325916
Si Si7 0.707439 0.357630 0.237307
Si Si8 0.001948 0.260589 0.053543
O O1 0.024888 0.220280 0.397721
O O2 0.296238 0.177762 0.570890
O O3 0.793932 0.263209 0.468110
O O4 0.023392 0.900321 0.164659
O O5 0.762363 0.526045 0.362529
O O6 0.025777 0.755859 0.733539
O O7 0.579319 0.908588 0.645534
O O8 0.354851 0.273713 0.860080
O O9 0.872171 0.161816 0.975881
O O10 0.548976 0.216464 0.003897
O O11 0.500000 0.500000 0.000000
O O12 0.678489 0.355745 0.825457
O O13 0.182307 0.528448 0.817968
O O14 0.943037 0.478908 0.821621
O O15 0.000000 0.500000 0.000000
O O16 0.548461 0.472480 0.344431
O O17 0.262991 0.346064 0.211336
#
# Coordination Sequence:
#
# PCOD9077986 Si02
#       8
#     2   2   2   2   2   2   2   2
#     4  10  21  39  59  87 121 150 205 242 286 355
#     4  10  23  42  62  90 110 164 208 240 293 352
#     4  10  21  40  63  85 119 159 201 243 286 361
#     4  10  18  35  57  81 113 159 194 227 287 352
#     4  11  20  36  58  87 123 153 190 237 304 356
#     4  11  22  38  58  91 121 158 189 244 309 343
#     4  11  22  40  65  84 124 155 199 253 296 343
#     4   9  20  37  59  84 119 157 198 238 286 352
#
# _framework density 23.247668000000001
#
# number of rings (size 3 to 8) (size 9 to 14) (size 15 to 20)
#    0.000    1.750    3.750    2.625    0.000    2.000 
#    2.250    3.125    0.000    0.000    0.000    0.000 
#    0.000    0.000    0.000    0.000    0.000    0.000 
#
# Total GULP energy -89083.456648 kJ/mol
# GULP energy per Si atom -5567.716041 kJ/mol
# Density = 2.319476 g / cm^3
# Si number density = 23.247668 Si / 1000 Ang^3
#
#
#
# Elastic Constant Matrix: (Units=GPa)
#
#
# Indices 1 2 3 4 5 6 
#
# 1 98.2439 0.3499 -4.6080 12.4432 -14.7907 -7.9204
# 2 0.3499 56.0876 23.2335 19.0432 -2.9451 2.1888
# 3 -4.6080 23.2335 74.1678 15.8607 -22.2480 2.5826
# 4 12.4432 19.0432 15.8607 22.3375 -3.1481 -0.1157
# 5 -14.7907 -2.9451 -22.2480 -3.1481 28.7057 0.2149
# 6 -7.9204 2.1888 2.5826 -0.1157 0.2149 22.6794
#
#
#
# Elastic Compliance Matrix: (Units=1/GPa)
#
#
# Indices 1 2 3 4 5 6 
#
# 1 0.013867 0.001995 0.005842 -0.012071 0.010525 0.003824
# 2 0.001995 0.026705 -0.004206 -0.021153 -0.001801 -0.001492
# 3 0.005842 -0.004206 0.024092 -0.013998 0.019719 -0.000555
# 4 -0.012071 -0.021153 -0.013998 0.077958 -0.010689 -0.000081
# 5 0.010525 -0.001801 0.019719 -0.010689 0.054178 0.001036
# 6 0.003824 -0.001492 -0.000555 -0.000081 0.001036 0.045625
#
#
# Mechanical properties :
#
#
# Convention : Reuss Voigt Hill
#
# Bulk Modulus (GPa) = 13.90317 29.60556 21.75436
# Shear Modulus (GPa) = 19.29475 28.71276 24.00375
#
# Velocity S-wave (km/s) = 2.88404 3.51819 3.21678
# Velocity P-wave (km/s) = 4.13324 5.40981 4.81402
#
# Compressibility (1/GPa) = 0.07192606
#
# Stress axis : x y z
#
# Youngs Moduli (GPa) = 72.11172 37.44651 41.50832
#
# Poissons Ratio (x) = -0.07472 -0.24249
# Poissons Ratio (y) = -0.14389 0.17459
# Poissons Ratio (z) = -0.42127 0.15750
#
# Static dielectric constant tensor:
#      x y z
#    x 1.980760 0.021820 0.034750 
#    y 0.021820 1.917460 -0.060570 
#    z 0.034750 -0.060570 1.931440 
# 
# From -- ./inp_files/528708.got.cif
#   From: 2010.05.17/outbox.cif.g08.bks.cpg/sg2_265_cif.got.tgz:528708.got - 2010.06.03 11:33:40.
