data_PCOD9077485
_publ_section_title
;
Structure prediction by ZEFSAII (Michael W. Deem and Ramdas Pophale) SiO2 
 PCOD9077485
Probable space group: P -1
;
_chemical_formula_sum "Si O2"
_cell_formula_units_Z 16
_cell_length_a 7.003277
_cell_length_b 8.790100
_cell_length_c 17.335485
_cell_angle_alpha 144.384662
_cell_angle_beta 75.486072
_cell_angle_gamma 106.197865
_cell_volume 596.241193
_symmetry_space_group_name_H-M "P -1"
_symmetry_group_IT_number 2
_symmetry_cell_setting 'triclinic'
loop_
_space_group_symop_operation_xyz
x,y,z
-x,-y,-z
loop_
_atom_site_type_symbol
_atom_site_label
_atom_site_fract_x
_atom_site_fract_y
_atom_site_fract_z
Si Si1 0.132747 0.817264 0.285742
Si Si2 0.536901 0.840310 0.171181
Si Si3 0.081405 0.571697 0.748547
Si Si4 0.960228 0.689164 0.515129
Si Si5 0.391176 0.183165 0.532009
Si Si6 0.225832 0.108040 0.124694
Si Si7 0.403065 0.338192 0.362208
Si Si8 0.460544 0.632951 0.925322
O O1 0.299698 0.797640 0.197475
O O2 0.034405 0.539936 0.210438
O O3 0.968196 0.002903 0.355953
O O4 0.235953 0.974539 0.414984
O O5 0.560203 0.737760 0.040196
O O6 0.580034 0.158342 0.287107
O O7 0.612732 0.668670 0.162951
O O8 0.001792 0.852148 0.856569
O O9 0.998642 0.419926 0.616505
O O10 0.285193 0.433940 0.678091
O O11 0.725310 0.685192 0.556781
O O12 0.000000 0.500000 0.500000
O O13 0.561072 0.357018 0.537801
O O14 0.500000 0.000000 0.500000
O O15 0.283829 0.201398 0.244439
O O16 0.290936 0.814995 0.994471
O O17 0.375322 0.295564 0.129234
#
# Coordination Sequence:
#
# PCOD9077485 Si02
#       8
#     2   2   2   2   2   2   2   2
#     4  10  21  36  57  82 113 151 187 227 276 333
#     4   9  18  34  57  86 111 137 183 241 281 320
#     4  11  21  36  56  80 116 152 189 230 275 327
#     4  10  19  30  53  79 111 144 181 226 266 334
#     4  11  24  36  54  83 117 154 189 221 274 353
#     4  10  18  34  60  85 109 141 190 236 278 331
#     4  10  21  35  55  83 118 149 180 223 287 335
#     4   9  18  32  58  91 104 136 190 246 278 318
#
# _framework density 26.834776000000002
#
# number of rings (size 3 to 8) (size 9 to 14) (size 15 to 20)
#    0.000    2.000    2.500    2.250    1.750    4.500 
#    0.000    0.000    0.000    7.500    0.000    0.000 
#    0.000    0.000    0.000    0.000    0.000    0.000 
#
# Total GULP energy -89154.335521 kJ/mol
# GULP energy per Si atom -5572.145970 kJ/mol
# Density = 2.677370 g / cm^3
# Si number density = 26.834776 Si / 1000 Ang^3
#
#
#
# Elastic Constant Matrix: (Units=GPa)
#
#
# Indices 1 2 3 4 5 6 
#
# 1 73.6660 35.7738 34.4124 18.6195 -15.4777 -23.2834
# 2 35.7738 179.9372 36.1680 20.4965 -7.4289 -34.4883
# 3 34.4124 36.1680 97.4743 10.9921 -14.9292 -14.7614
# 4 18.6195 20.4965 10.9921 66.8887 -15.6991 -26.4712
# 5 -15.4777 -7.4289 -14.9292 -15.6991 46.5386 19.0075
# 6 -23.2834 -34.4883 -14.7614 -26.4712 19.0075 32.0263
#
#
#
# Elastic Compliance Matrix: (Units=1/GPa)
#
#
# Indices 1 2 3 4 5 6 
#
# 1 0.019868 -0.000815 -0.004982 -0.000003 0.000365 0.011052
# 2 -0.000815 0.007668 -0.001700 0.001308 -0.003172 0.009846
# 3 -0.004982 -0.001700 0.012890 -0.000026 0.002649 -0.001106
# 4 -0.000003 0.001308 -0.000026 0.022450 -0.000496 0.020245
# 5 0.000365 -0.003172 0.002649 -0.000496 0.030017 -0.020155
# 6 0.011052 0.009846 -0.001106 0.020245 -0.020155 0.078048
#
#
# Mechanical properties :
#
#
# Convention : Reuss Voigt Hill
#
# Bulk Modulus (GPa) = 39.31952 62.64288 50.98120
# Shear Modulus (GPa) = 25.71844 45.40561 35.56202
#
# Velocity S-wave (km/s) = 3.09916 4.11791 3.64431
# Velocity P-wave (km/s) = 5.24315 6.78264 6.06196
#
# Compressibility (1/GPa) = 0.02543266
#
# Stress axis : x y z
#
# Youngs Moduli (GPa) = 50.33136 130.40517 77.57896
#
# Poissons Ratio (x) = 0.10628 0.38650
# Poissons Ratio (y) = 0.04102 0.13188
# Poissons Ratio (z) = 0.25075 0.22169
#
# Static dielectric constant tensor:
#      x y z
#    x 2.334520 0.050220 -0.095960 
#    y 0.050220 2.146810 0.093770 
#    z -0.095960 0.093770 2.194180 
# 
# From -- ./inp_files/507052.got.cif
#   From: 2010.05.17/outbox.cif.g08.bks.cpg/sg2_254_cif.got.tgz:507052.got - 2010.06.03 11:33:40.
