data_PCOD9077667
_publ_section_title
;
Structure prediction by ZEFSAII (Michael W. Deem and Ramdas Pophale) SiO2 
 PCOD9077667
Probable space group: P -1
;
_chemical_formula_sum "Si O2"
_cell_formula_units_Z 16
_cell_length_a 7.633825
_cell_length_b 7.128907
_cell_length_c 16.519683
_cell_angle_alpha 120.125869
_cell_angle_beta 67.311308
_cell_angle_gamma 115.430504
_cell_volume 685.365359
_symmetry_space_group_name_H-M "P -1"
_symmetry_group_IT_number 2
_symmetry_cell_setting 'triclinic'
loop_
_space_group_symop_operation_xyz
x,y,z
-x,-y,-z
loop_
_atom_site_type_symbol
_atom_site_label
_atom_site_fract_x
_atom_site_fract_y
_atom_site_fract_z
Si Si1 0.521416 0.903974 0.735956
Si Si2 0.143874 0.192290 0.424708
Si Si3 0.241049 0.546647 0.613499
Si Si4 0.401462 0.298637 0.767169
Si Si5 0.587388 0.372615 0.027118
Si Si6 0.158148 0.397331 0.291112
Si Si7 0.291600 0.971041 0.575014
Si Si8 0.714919 0.969629 0.884606
O O1 0.728934 0.967815 0.663378
O O2 0.403415 0.651566 0.674124
O O3 0.562714 0.907420 0.823118
O O4 0.408046 0.081437 0.771626
O O5 0.250278 0.334999 0.513252
O O6 0.159721 0.356925 0.378784
O O7 0.908397 0.085932 0.455071
O O8 0.268191 0.755408 0.591041
O O9 0.019903 0.503533 0.676945
O O10 0.329261 0.460032 0.876016
O O11 0.629089 0.441865 0.738040
O O12 0.299525 0.186091 0.677823
O O13 0.395120 0.172347 0.049977
O O14 0.500000 0.500000 0.000000
O O15 0.744560 0.236760 0.946358
O O16 0.122604 0.150228 0.200811
O O17 0.500000 0.000000 0.500000
#
# Coordination Sequence:
#
# PCOD9077667 Si02
#       8
#     2   2   2   2   2   2   2   2
#     4  10  20  34  53  84 117 150 198 246 290 350
#     4  10  19  34  54  80 114 157 201 241 288 350
#     4  10  19  33  55  79 114 164 196 238 301 344
#     4  10  19  33  55  84 113 157 190 241 301 343
#     4  10  18  34  62  89 117 152 196 243 299 354
#     4   9  18  34  55  79 114 154 200 236 292 352
#     4  10  19  33  55  81 115 153 200 238 289 354
#     4   9  19  34  58  90 113 152 197 238 298 359
#
# _framework density 23.345213999999999
#
# number of rings (size 3 to 8) (size 9 to 14) (size 15 to 20)
#    0.000    2.250    1.250    3.375    0.000    0.000 
#    0.000   10.625    0.000   20.250    0.000    0.000 
#    0.000    0.000    0.000    0.000    0.000    0.000 
#
# Total GULP energy -89364.938640 kJ/mol
# GULP energy per Si atom -5585.308665 kJ/mol
# Density = 2.329208 g / cm^3
# Si number density = 23.345214 Si / 1000 Ang^3
#
#
#
# Elastic Constant Matrix: (Units=GPa)
#
#
# Indices 1 2 3 4 5 6 
#
# 1 50.2643 10.6060 26.9210 9.0208 3.5119 10.4521
# 2 10.6060 89.5424 29.2990 6.7001 2.1031 -9.6553
# 3 26.9210 29.2990 148.0105 22.7285 4.4657 3.5842
# 4 9.0208 6.7001 22.7285 24.5506 2.0437 -3.8364
# 5 3.5119 2.1031 4.4657 2.0437 17.6591 7.9438
# 6 10.4521 -9.6553 3.5842 -3.8364 7.9438 30.4433
#
#
#
# Elastic Compliance Matrix: (Units=1/GPa)
#
#
# Indices 1 2 3 4 5 6 
#
# 1 0.025438 -0.002747 -0.002652 -0.007961 0.001690 -0.010737
# 2 -0.002747 0.012919 -0.002233 0.000811 -0.003346 0.006279
# 3 -0.002652 -0.002233 0.008764 -0.006811 0.000141 -0.001725
# 4 -0.007961 0.000811 -0.006811 0.052425 -0.008538 0.012627
# 5 0.001690 -0.003346 0.000141 -0.008538 0.066702 -0.020139
# 6 -0.010737 0.006279 -0.001725 0.012627 -0.020139 0.045575
#
#
# Mechanical properties :
#
#
# Convention : Reuss Voigt Hill
#
# Bulk Modulus (GPa) = 31.39034 46.82992 39.11013
# Shear Modulus (GPa) = 21.03431 29.26334 25.14883
#
# Velocity S-wave (km/s) = 3.00494 3.54433 3.28572
# Velocity P-wave (km/s) = 5.05123 6.07067 5.58426
#
# Compressibility (1/GPa) = 0.03185693
#
# Stress axis : x y z
#
# Youngs Moduli (GPa) = 39.31141 77.40551 114.10233
#
# Poissons Ratio (x) = 0.21265 0.30254
# Poissons Ratio (y) = 0.10800 0.25482
# Poissons Ratio (z) = 0.10423 0.17287
#
# Static dielectric constant tensor:
#      x y z
#    x 1.902230 -0.021610 -0.029540 
#    y -0.021610 1.934620 0.016640 
#    z -0.029540 0.016640 1.926490 
# 
# From -- ./inp_files/527072.got.cif
#   From: 2010.05.17/outbox.cif.g08.bks.cpg/sg2_264_cif.got.tgz:527072.got - 2010.06.03 11:33:40.
