data_PCOD9077416
_publ_section_title
;
Structure prediction by ZEFSAII (Michael W. Deem and Ramdas Pophale) SiO2 
 PCOD9077416
Probable space group: P -1
;
_chemical_formula_sum "Si O2"
_cell_formula_units_Z 16
_cell_length_a 11.944727
_cell_length_b 11.105944
_cell_length_c 19.519664
_cell_angle_alpha 118.903895
_cell_angle_beta 157.129860
_cell_angle_gamma 49.246429
_cell_volume 698.267467
_symmetry_space_group_name_H-M "P -1"
_symmetry_group_IT_number 2
_symmetry_cell_setting 'triclinic'
loop_
_space_group_symop_operation_xyz
x,y,z
-x,-y,-z
loop_
_atom_site_type_symbol
_atom_site_label
_atom_site_fract_x
_atom_site_fract_y
_atom_site_fract_z
Si Si1 0.709165 0.904558 0.023213
Si Si2 0.766494 0.228796 0.523516
Si Si3 0.346780 0.551291 0.004641
Si Si4 0.007974 0.616455 0.212569
Si Si5 0.625805 0.437910 0.826714
Si Si6 0.479839 0.250885 0.227135
Si Si7 0.593079 0.173708 0.647934
Si Si8 0.409625 0.126166 0.384680
O O1 0.982039 0.705131 0.151012
O O2 0.972662 0.945690 0.156153
O O3 0.464379 0.902051 0.828173
O O4 0.500000 0.000000 0.000000
O O5 0.380002 0.423404 0.370459
O O6 0.027963 0.267020 0.713036
O O7 0.751856 0.194667 0.427277
O O8 0.722909 0.109581 0.514175
O O9 0.298778 0.406221 0.958650
O O10 0.965043 0.740976 0.830119
O O11 0.500000 0.500000 0.000000
O O12 0.506142 0.557573 0.168808
O O13 0.494485 0.619361 0.768946
O O14 0.527675 0.333733 0.696270
O O15 0.067863 0.338911 0.048158
O O16 0.397246 0.209767 0.473985
O O17 0.516042 0.055526 0.611886
#
# Coordination Sequence:
#
# PCOD9077416 Si02
#       8
#     2   2   2   2   2   2   2   2
#     4  11  22  36  57  85 117 154 184 235 292 341
#     4  10  18  34  63  86 109 142 195 250 267 333
#     4  11  23  38  59  85 122 150 185 239 288 343
#     4  10  19  35  59  86 109 145 194 229 287 336
#     4  10  19  35  59  87 111 146 194 239 280 332
#     4  10  18  34  59  88 111 141 196 244 274 327
#     4  10  22  37  60  82 115 156 193 234 281 346
#     4  10  21  38  56  86 116 153 193 230 290 338
#
# _framework density 22.913855000000002
#
# number of rings (size 3 to 8) (size 9 to 14) (size 15 to 20)
#    0.000    1.750    5.000    1.500    5.250    0.500 
#    0.000    1.250    5.500    0.000    0.000    0.000 
#    0.000    0.000    0.000    0.000    0.000    0.000 
#
# Total GULP energy -89291.076190 kJ/mol
# GULP energy per Si atom -5580.692262 kJ/mol
# Density = 2.286170 g / cm^3
# Si number density = 22.913855 Si / 1000 Ang^3
#
#
#
# Elastic Constant Matrix: (Units=GPa)
#
#
# Indices 1 2 3 4 5 6 
#
# 1 96.5823 27.4191 14.9441 8.8436 -28.4287 2.1461
# 2 27.4191 77.8802 28.2819 31.5561 -13.4312 0.1687
# 3 14.9441 28.2819 73.2631 31.4113 -36.5111 7.0021
# 4 8.8436 31.5561 31.4113 38.1509 -12.2257 -7.6138
# 5 -28.4287 -13.4312 -36.5111 -12.2257 41.6157 3.3141
# 6 2.1461 0.1687 7.0021 -7.6138 3.3141 34.9115
#
#
#
# Elastic Compliance Matrix: (Units=1/GPa)
#
#
# Indices 1 2 3 4 5 6 
#
# 1 0.015313 -0.004764 0.007506 -0.001722 0.015342 -0.004256
# 2 -0.004764 0.021532 0.000054 -0.017859 -0.001218 -0.003601
# 3 0.007506 0.000054 0.047305 -0.032443 0.038766 -0.020705
# 4 -0.001722 -0.017859 -0.032443 0.067064 -0.017532 0.022989
# 5 0.015342 -0.001218 0.038766 -0.017532 0.064463 -0.018656
# 6 -0.004256 -0.003601 -0.020705 0.022989 -0.018656 0.039860
#
#
# Mechanical properties :
#
#
# Convention : Reuss Voigt Hill
#
# Bulk Modulus (GPa) = 11.14292 43.22399 27.18345
# Shear Modulus (GPa) = 17.86616 34.74099 26.30357
#
# Velocity S-wave (km/s) = 2.79536 3.89801 3.39179
# Velocity P-wave (km/s) = 3.91053 6.25811 5.21805
#
# Compressibility (1/GPa) = 0.08974308
#
# Stress axis : x y z
#
# Youngs Moduli (GPa) = 65.30400 46.44239 21.13936
#
# Poissons Ratio (x) = 0.22126 -0.15868
# Poissons Ratio (y) = 0.31113 -0.00115
# Poissons Ratio (z) = -0.49020 -0.00252
#
# Static dielectric constant tensor:
#      x y z
#    x 1.892660 -0.096980 -0.000610 
#    y -0.096980 1.949220 -0.068000 
#    z -0.000610 -0.068000 1.926980 
# 
# From -- ./inp_files/414544.got.cif
#   From: 2010.05.17/outbox.cif.g08.bks.cpg/sg2_208_cif.got.tgz:414544.got - 2010.06.03 11:33:40.
