data_PCOD9077336
_publ_section_title
;
Structure prediction by ZEFSAII (Michael W. Deem and Ramdas Pophale) SiO2 
 PCOD9077336
Probable space group: P -1
;
_chemical_formula_sum "Si O2"
_cell_formula_units_Z 16
_cell_length_a 19.727817
_cell_length_b 22.768606
_cell_length_c 14.521834
_cell_angle_alpha 160.315372
_cell_angle_beta 24.799814
_cell_angle_gamma 161.789824
_cell_volume 681.059467
_symmetry_space_group_name_H-M "P -1"
_symmetry_group_IT_number 2
_symmetry_cell_setting 'triclinic'
loop_
_space_group_symop_operation_xyz
x,y,z
-x,-y,-z
loop_
_atom_site_type_symbol
_atom_site_label
_atom_site_fract_x
_atom_site_fract_y
_atom_site_fract_z
Si Si1 0.637415 0.615637 0.196937
Si Si2 0.375278 0.143039 0.903643
Si Si3 0.039817 0.942711 0.656055
Si Si4 0.092119 0.868208 0.678545
Si Si5 0.564042 0.276939 0.053671
Si Si6 0.298983 0.641668 0.637414
Si Si7 0.715453 0.186541 0.899246
Si Si8 0.250045 0.223200 0.504509
O O1 0.842263 0.802532 0.156072
O O2 0.428989 0.559431 0.328661
O O3 0.655385 0.729632 0.440308
O O4 0.577456 0.378060 0.947568
O O5 0.243301 0.950558 0.702607
O O6 0.461393 0.117307 0.852696
O O7 0.209015 0.180248 0.198277
O O8 0.160935 0.957376 0.619616
O O9 0.099962 0.829902 0.345829
O O10 0.934527 0.584113 0.448894
O O11 0.000000 0.000000 0.000000
O O12 0.363053 0.189744 0.238073
O O13 0.692342 0.539405 0.246592
O O14 0.718690 0.288335 0.949222
O O15 0.474070 0.918257 0.801958
O O16 0.260542 0.663751 0.824308
O O17 0.000000 0.000000 0.500000
#
# Coordination Sequence:
#
# PCOD9077336 Si02
#       8
#     2   2   2   2   2   2   2   2
#     4  10  18  34  58  87 120 147 193 254 299 341
#     4  10  21  40  60  87 120 158 205 252 291 348
#     4  10  21  36  61  91 115 158 203 242 303 359
#     4  10  20  38  60  89 118 158 207 254 290 346
#     4  10  21  39  59  83 125 163 193 246 307 353
#     4  10  19  38  59  85 127 155 191 252 306 350
#     4  10  22  38  59  92 123 161 193 246 316 368
#     4  10  20  34  58  87 120 157 205 244 293 361
#
# _framework density 23.492809999999999
#
# number of rings (size 3 to 8) (size 9 to 14) (size 15 to 20)
#    0.000    2.000    3.750    0.750    0.000    2.000 
#    4.500    1.250    0.000    0.000    0.000    0.000 
#    0.000    0.000    0.000    0.000    0.000    0.000 
#
# Total GULP energy -89166.762069 kJ/mol
# GULP energy per Si atom -5572.922629 kJ/mol
# Density = 2.343934 g / cm^3
# Si number density = 23.492810 Si / 1000 Ang^3
#
#
#
# Elastic Constant Matrix: (Units=GPa)
#
#
# Indices 1 2 3 4 5 6 
#
# 1 73.1374 18.4967 13.8596 14.4078 18.9528 -5.7926
# 2 18.4967 128.9683 30.7399 17.1645 4.6755 -15.1792
# 3 13.8596 30.7399 75.4178 -0.3661 16.0105 10.8021
# 4 14.4078 17.1645 -0.3661 30.7141 12.6151 2.5815
# 5 18.9528 4.6755 16.0105 12.6151 31.3942 11.1982
# 6 -5.7926 -15.1792 10.8021 2.5815 11.1982 28.8732
#
#
#
# Elastic Compliance Matrix: (Units=1/GPa)
#
#
# Indices 1 2 3 4 5 6 
#
# 1 0.018875 0.000109 -0.002463 -0.004990 -0.011616 0.009717
# 2 0.000109 0.011126 -0.006097 -0.007660 0.001523 0.008246
# 3 -0.002463 -0.006097 0.019126 0.008713 -0.007788 -0.008613
# 4 -0.004990 -0.007660 0.008713 0.046752 -0.016978 -0.005883
# 5 -0.011616 0.001523 -0.007788 -0.016978 0.056168 -0.018882
# 6 0.009717 0.008246 -0.008613 -0.005883 -0.018882 0.051990
#
#
# Mechanical properties :
#
#
# Convention : Reuss Voigt Hill
#
# Bulk Modulus (GPa) = 31.03112 44.85732 37.94422
# Shear Modulus (GPa) = 21.58145 32.49146 27.03645
#
# Velocity S-wave (km/s) = 3.03420 3.72296 3.39608
# Velocity P-wave (km/s) = 5.05100 6.13319 5.61821
#
# Compressibility (1/GPa) = 0.03222572
#
# Stress axis : x y z
#
# Youngs Moduli (GPa) = 52.98084 89.87794 52.28382
#
# Poissons Ratio (x) = -0.00979 0.12878
# Poissons Ratio (y) = -0.00577 0.31875
# Poissons Ratio (z) = 0.13049 0.54795
#
# Static dielectric constant tensor:
#      x y z
#    x 1.939060 0.031600 0.011530 
#    y 0.031600 1.967900 -0.013380 
#    z 0.011530 -0.013380 1.941440 
# 
# From -- ./inp_files/541773.got.cif
#   From: 2010.05.17/outbox.cif.g08.bks.cpg/sg2_271_cif.got.tgz:541773.got - 2010.06.03 11:33:40.
