data_PCOD9077342
_publ_section_title
;
Structure prediction by ZEFSAII (Michael W. Deem and Ramdas Pophale) SiO2 
 PCOD9077342
Probable space group: P -1
;
_chemical_formula_sum "Si O2"
_cell_formula_units_Z 16
_cell_length_a 12.874855
_cell_length_b 8.842699
_cell_length_c 17.647000
_cell_angle_alpha 150.171609
_cell_angle_beta 123.863177
_cell_angle_gamma 61.088697
_cell_volume 829.811015
_symmetry_space_group_name_H-M "P -1"
_symmetry_group_IT_number 2
_symmetry_cell_setting 'triclinic'
loop_
_space_group_symop_operation_xyz
x,y,z
-x,-y,-z
loop_
_atom_site_type_symbol
_atom_site_label
_atom_site_fract_x
_atom_site_fract_y
_atom_site_fract_z
Si Si1 0.707358 0.504810 0.231446
Si Si2 0.168731 0.298361 0.207688
Si Si3 0.380382 0.328389 0.409669
Si Si4 0.474176 0.684594 0.145322
Si Si5 0.729542 0.762267 0.084389
Si Si6 0.379880 0.583935 0.680857
Si Si7 0.335749 0.200024 0.091057
Si Si8 0.113525 0.573318 0.867728
O O1 0.606116 0.742839 0.263274
O O2 0.703385 0.530464 0.331827
O O3 0.824848 0.515669 0.227301
O O4 0.651970 0.162954 0.048129
O O5 0.246514 0.427555 0.366173
O O6 0.260206 0.336030 0.189544
O O7 0.035522 0.454377 0.208624
O O8 0.141956 0.934603 0.048067
O O9 0.500000 0.500000 0.500000
O O10 0.382581 0.354398 0.512172
O O11 0.400231 0.991982 0.239177
O O12 0.500000 0.500000 0.000000
O O13 0.387160 0.464985 0.061835
O O14 0.825392 0.620854 0.122941
O O15 0.681613 0.097634 0.233091
O O16 0.752527 0.778623 0.010420
O O17 0.523818 0.663540 0.797353
#
# Coordination Sequence:
#
# PCOD9077342 Si02
#       8
#     2   2   2   2   2   2   2   2
#     4  10  19  34  58  85 113 152 193 236 279 340
#     4  10  21  39  55  83 118 151 196 239 279 339
#     4  12  24  36  58  88 121 149 184 245 301 328
#     4  12  19  33  60  87 112 146 198 232 277 348
#     4  11  19  34  62  87 110 153 196 235 278 344
#     4  11  21  35  56  90 121 145 182 247 300 324
#     4  10  18  34  58  88 119 145 187 245 291 326
#     4  10  21  36  62  82 108 159 203 230 271 342
#
# _framework density 19.281497000000002
#
# number of rings (size 3 to 8) (size 9 to 14) (size 15 to 20)
#    0.000    1.250    6.250    2.250    0.000    1.000 
#    0.000    1.250    0.000    0.000    0.000    0.000 
#    0.000    0.000    0.000    0.000    0.000    0.000 
#
# Total GULP energy -89166.380050 kJ/mol
# GULP energy per Si atom -5572.898753 kJ/mol
# Density = 1.923761 g / cm^3
# Si number density = 19.281497 Si / 1000 Ang^3
#
#
#
# Elastic Constant Matrix: (Units=GPa)
#
#
# Indices 1 2 3 4 5 6 
#
# 1 77.8598 59.5471 16.8207 -18.5887 -11.2215 -14.2867
# 2 59.5471 129.0328 20.4834 -15.3711 -8.2420 -15.0021
# 3 16.8207 20.4834 41.8459 -18.6209 -14.2963 -0.0622
# 4 -18.5887 -15.3711 -18.6209 23.6894 5.2525 -1.1621
# 5 -11.2215 -8.2420 -14.2963 5.2525 19.5265 -5.1955
# 6 -14.2867 -15.0021 -0.0622 -1.1621 -5.1955 30.9555
#
#
#
# Elastic Compliance Matrix: (Units=1/GPa)
#
#
# Indices 1 2 3 4 5 6 
#
# 1 0.026614 -0.009026 0.006409 0.017406 0.014420 0.010995
# 2 -0.009026 0.012378 -0.003755 -0.001506 -0.001922 0.001446
# 3 0.006409 -0.003755 0.049175 0.034797 0.030793 0.007711
# 4 0.017406 -0.001506 0.034797 0.079107 0.017079 0.013210
# 5 0.014420 -0.001922 0.030793 0.017079 0.082011 0.020191
# 6 0.010995 0.001446 0.007711 0.013210 0.020191 0.041980
#
#
# Mechanical properties :
#
#
# Convention : Reuss Voigt Hill
#
# Bulk Modulus (GPa) = 13.25886 49.16008 31.20947
# Shear Modulus (GPa) = 15.19060 24.96011 20.07535
#
# Velocity S-wave (km/s) = 2.80988 3.60183 3.23022
# Velocity P-wave (km/s) = 4.17356 6.54591 5.48943
#
# Compressibility (1/GPa) = 0.07542125
#
# Stress axis : x y z
#
# Youngs Moduli (GPa) = 37.57435 80.79123 20.33543
#
# Poissons Ratio (x) = 0.72926 -0.13033
# Poissons Ratio (y) = 0.33916 0.07637
# Poissons Ratio (z) = -0.24081 0.30340
#
# Static dielectric constant tensor:
#      x y z
#    x 1.654080 0.002970 0.013950 
#    y 0.002970 1.688240 0.022680 
#    z 0.013950 0.022680 1.675670 
# 
# From -- ./inp_files/180092.got.cif
#   From: 2010.05.17/outbox.cif.g08.bks.cpg/sg2_91_cif.got.tgz:180092.got - 2010.06.03 11:33:40.
