data_PCOD9077613
_publ_section_title
;
Structure prediction by ZEFSAII (Michael W. Deem and Ramdas Pophale) SiO2 
 PCOD9077613
Probable space group: P -1
;
_chemical_formula_sum "Si O2"
_cell_formula_units_Z 14
_cell_length_a 10.915790
_cell_length_b 9.077520
_cell_length_c 18.599759
_cell_angle_alpha 34.173625
_cell_angle_beta 143.327670
_cell_angle_gamma 140.948027
_cell_volume 582.149276
_symmetry_space_group_name_H-M "P -1"
_symmetry_group_IT_number 2
_symmetry_cell_setting 'triclinic'
loop_
_space_group_symop_operation_xyz
x,y,z
-x,-y,-z
loop_
_atom_site_type_symbol
_atom_site_label
_atom_site_fract_x
_atom_site_fract_y
_atom_site_fract_z
Si Si1 0.742260 0.845221 0.483156
Si Si2 0.395517 0.912145 0.408425
Si Si3 0.334151 0.700669 0.262828
Si Si4 0.279913 0.206223 0.970053
Si Si5 0.491269 0.482070 0.162467
Si Si6 0.770839 0.308272 0.939542
Si Si7 0.053087 0.525292 0.659696
O O1 0.568676 0.847163 0.463866
O O2 0.591441 0.808364 0.356909
O O3 0.778601 0.554870 0.633981
O O4 0.920056 0.151249 0.447305
O O5 0.172027 0.655361 0.408075
O O6 0.500000 0.000000 0.500000
O O7 0.347258 0.172334 0.243158
O O8 0.281462 0.581391 0.206175
O O9 0.277242 0.987190 0.118961
O O10 0.508471 0.427146 0.958097
O O11 0.114508 0.374656 0.819731
O O12 0.223817 0.991888 0.961055
O O13 0.411325 0.680933 0.094644
O O14 0.737007 0.474073 0.290320
O O15 0.000000 0.500000 0.000000
#
# Coordination Sequence:
#
# PCOD9077613 Si02
#       7
#     2   2   2   2   2   2   2
#     4  10  21  42  62  84 126 159 203 244 305 368
#     4  11  22  39  62  90 121 158 205 254 300 363
#     4   9  21  39  61  88 122 164 195 251 304 360
#     4   8  19  36  59  86 119 154 198 245 302 353
#     4   9  19  36  58  87 120 153 198 249 301 353
#     4  10  18  34  61  90 125 154 200 250 301 355
#     4   9  21  39  61  87 120 154 202 251 301 358
#
# _framework density 24.048815999999999
#
# number of rings (size 3 to 8) (size 9 to 14) (size 15 to 20)
#    1.714    0.857    0.000    2.143    0.000    2.857 
#    2.571    5.000    0.000    0.000    0.000    0.000 
#    0.000    0.000    0.000    0.000    0.000    0.000 
#
# Total GULP energy -78032.738005 kJ/mol
# GULP energy per Si atom -5573.767000 kJ/mol
# Density = 2.399408 g / cm^3
# Si number density = 24.048816 Si / 1000 Ang^3
#
#
#
# Elastic Constant Matrix: (Units=GPa)
#
#
# Indices 1 2 3 4 5 6 
#
# 1 55.3085 24.7027 36.1153 3.8165 3.0638 -1.4650
# 2 24.7027 180.7572 71.8197 -12.9524 -8.3529 22.0869
# 3 36.1153 71.8197 136.2595 -19.3309 0.5119 -2.0719
# 4 3.8165 -12.9524 -19.3309 55.5877 -13.1953 -3.1279
# 5 3.0638 -8.3529 0.5119 -13.1953 46.5782 -6.1190
# 6 -1.4650 22.0869 -2.0719 -3.1279 -6.1190 33.4434
#
#
#
# Elastic Compliance Matrix: (Units=1/GPa)
#
#
# Indices 1 2 3 4 5 6 
#
# 1 0.023134 -0.001266 -0.006110 -0.004678 -0.002942 0.000495
# 2 -0.001266 0.007984 -0.003882 0.000537 0.001009 -0.005334
# 3 -0.006110 -0.003882 0.011629 0.004047 0.001199 0.003614
# 4 -0.004678 0.000537 0.004047 0.021644 0.006882 0.002975
# 5 -0.002942 0.001009 0.001199 0.006882 0.024355 0.004379
# 6 0.000495 -0.005334 0.003614 0.002975 0.004379 0.034749
#
#
# Mechanical properties :
#
#
# Convention : Reuss Voigt Hill
#
# Bulk Modulus (GPa) = 49.42353 70.84452 60.13402
# Shear Modulus (GPa) = 32.73218 43.10104 37.91661
#
# Velocity S-wave (km/s) = 3.69327 4.23807 3.97502
# Velocity P-wave (km/s) = 6.22760 7.31238 6.79168
#
# Compressibility (1/GPa) = 0.02023328
#
# Stress axis : x y z
#
# Youngs Moduli (GPa) = 43.22626 125.24314 85.99282
#
# Poissons Ratio (x) = 0.15852 0.52539
# Poissons Ratio (y) = 0.05471 0.33380
# Poissons Ratio (z) = 0.26410 0.48616
#
# Static dielectric constant tensor:
#      x y z
#    x 1.993010 0.019300 0.013080 
#    y 0.019300 1.993370 -0.068320 
#    z 0.013080 -0.068320 1.962010 
# 
# From -- ./inp_files/611860.got.cif
#   From: 2010.05.17/outbox.cif.g08.bks.cpg/sg2_306_cif.got.tgz:611860.got - 2010.06.03 11:33:40.
