data_PCOD9077230
_publ_section_title
;
Structure prediction by ZEFSAII (Michael W. Deem and Ramdas Pophale) SiO2 
 PCOD9077230
Probable space group: P -1
;
_chemical_formula_sum "Si O2"
_cell_formula_units_Z 16
_cell_length_a 12.880277
_cell_length_b 12.077094
_cell_length_c 9.662909
_cell_angle_alpha 131.679793
_cell_angle_beta 70.773552
_cell_angle_gamma 133.718829
_cell_volume 787.397830
_symmetry_space_group_name_H-M "P -1"
_symmetry_group_IT_number 2
_symmetry_cell_setting 'triclinic'
loop_
_space_group_symop_operation_xyz
x,y,z
-x,-y,-z
loop_
_atom_site_type_symbol
_atom_site_label
_atom_site_fract_x
_atom_site_fract_y
_atom_site_fract_z
Si Si1 0.158572 0.575706 0.537675
Si Si2 0.069668 0.409679 0.938804
Si Si3 0.288226 0.680943 0.850490
Si Si4 0.123560 0.060367 0.711320
Si Si5 0.844793 0.929082 0.607591
Si Si6 0.091681 0.306879 0.127701
Si Si7 0.616635 0.889125 0.855884
Si Si8 0.230225 0.958576 0.811715
O O1 0.169372 0.551828 0.673995
O O2 0.187202 0.457036 0.335511
O O3 0.261042 0.810711 0.663571
O O4 0.000000 0.500000 0.500000
O O5 0.223692 0.546637 0.903512
O O6 0.957728 0.173538 0.758559
O O7 0.090413 0.427493 0.108245
O O8 0.000000 0.500000 0.000000
O O9 0.442610 0.747949 0.794029
O O10 0.315874 0.884292 0.017468
O O11 0.946606 0.901682 0.622500
O O12 0.187322 0.140504 0.595367
O O13 0.200369 0.994735 0.702517
O O14 0.140906 0.206404 0.939338
O O15 0.702497 0.851634 0.690174
O O16 0.925051 0.144194 0.125149
O O17 0.650102 0.880095 0.994569
#
# Coordination Sequence:
#
# PCOD9077230 Si02
#       8
#     2   2   2   2   2   2   2   2
#     4   9  19  33  54  87 111 139 188 235 279 329
#     4  11  18  32  56  85 113 144 183 234 284 318
#     4  10  21  34  58  86 119 149 179 237 289 338
#     4  10  21  34  56  86 111 151 194 238 275 321
#     4  10  21  35  56  84 116 146 193 237 273 342
#     4  10  20  33  52  86 114 137 190 242 275 323
#     4  10  19  38  55  84 119 149 189 226 288 346
#     4  10  18  34  57  85 109 152 186 238 279 333
#
# _framework density 20.320097000000001
#
# number of rings (size 3 to 8) (size 9 to 14) (size 15 to 20)
#    0.000    2.000    3.750    1.875    5.250    0.000 
#    0.000    1.250    0.000   20.250    0.000    0.000 
#    0.000    0.000    0.000    0.000    0.000    0.000 
#
# Total GULP energy -89142.090902 kJ/mol
# GULP energy per Si atom -5571.380681 kJ/mol
# Density = 2.027385 g / cm^3
# Si number density = 20.320097 Si / 1000 Ang^3
#
#
#
# Elastic Constant Matrix: (Units=GPa)
#
#
# Indices 1 2 3 4 5 6 
#
# 1 60.2364 11.0981 5.2792 -10.3974 5.8352 4.9500
# 2 11.0981 43.4893 7.4564 -10.3435 9.4681 2.1329
# 3 5.2792 7.4564 90.6086 -20.2922 -0.6735 10.9636
# 4 -10.3974 -10.3435 -20.2922 20.6829 -6.8512 -1.1339
# 5 5.8352 9.4681 -0.6735 -6.8512 27.1105 -7.8616
# 6 4.9500 2.1329 10.9636 -1.1339 -7.8616 31.4677
#
#
#
# Elastic Compliance Matrix: (Units=1/GPa)
#
#
# Indices 1 2 3 4 5 6 
#
# 1 0.018931 -0.002355 0.001512 0.008980 -0.001964 -0.003512
# 2 -0.002355 0.027801 0.000561 0.010637 -0.007423 -0.003181
# 3 0.001512 0.000561 0.015159 0.016614 0.002820 -0.004254
# 4 0.008980 0.010637 0.016614 0.079150 0.014336 -0.001488
# 5 -0.001964 -0.007423 0.002820 0.014336 0.047107 0.012115
# 6 -0.003512 -0.003181 -0.004254 -0.001488 0.012115 0.037002
#
#
# Mechanical properties :
#
#
# Convention : Reuss Voigt Hill
#
# Bulk Modulus (GPa) = 16.30570 26.88909 21.59739
# Shear Modulus (GPa) = 20.31234 27.21891 23.76562
#
# Velocity S-wave (km/s) = 3.16510 3.66390 3.42360
# Velocity P-wave (km/s) = 4.62591 5.58215 5.12637
#
# Compressibility (1/GPa) = 0.06132824
#
# Stress axis : x y z
#
# Youngs Moduli (GPa) = 52.82205 35.97031 65.96867
#
# Poissons Ratio (x) = 0.08470 -0.09976
# Poissons Ratio (y) = 0.12439 -0.03703
# Poissons Ratio (z) = -0.07988 -0.02019
#
# Static dielectric constant tensor:
#      x y z
#    x 1.767900 -0.035740 -0.014800 
#    y -0.035740 1.778570 0.023340 
#    z -0.014800 0.023340 1.800410 
# 
# From -- ./inp_files/260099.got.cif
#   From: 2010.05.17/outbox.cif.g08.bks.cpg/sg2_131_cif.got.tgz:260099.got - 2010.06.03 11:33:40.
