data_PCOD9077482
_publ_section_title
;
Structure prediction by ZEFSAII (Michael W. Deem and Ramdas Pophale) SiO2 
 PCOD9077482
Probable space group: P -1
;
_chemical_formula_sum "Si O2"
_cell_formula_units_Z 16
_cell_length_a 11.046303
_cell_length_b 10.904845
_cell_length_c 14.180177
_cell_angle_alpha 28.778891
_cell_angle_beta 111.513639
_cell_angle_gamma 91.768192
_cell_volume 582.199953
_symmetry_space_group_name_H-M "P -1"
_symmetry_group_IT_number 2
_symmetry_cell_setting 'triclinic'
loop_
_space_group_symop_operation_xyz
x,y,z
-x,-y,-z
loop_
_atom_site_type_symbol
_atom_site_label
_atom_site_fract_x
_atom_site_fract_y
_atom_site_fract_z
Si Si1 0.604562 0.135207 0.740038
Si Si2 0.219647 0.779782 0.009370
Si Si3 0.036272 0.235675 0.808980
Si Si4 0.287745 0.801721 0.618988
Si Si5 0.803344 0.808461 0.850210
Si Si6 0.159185 0.330968 0.379154
Si Si7 0.521778 0.792789 0.052927
Si Si8 0.628769 0.624256 0.841022
O O1 0.500000 0.500000 0.500000
O O2 0.779469 0.901141 0.009528
O O3 0.666678 0.128904 0.657987
O O4 0.492056 0.029942 0.799292
O O5 0.257636 0.469741 0.288015
O O6 0.382502 0.755320 0.061996
O O7 0.212195 0.671699 0.976193
O O8 0.066229 0.129451 0.779219
O O9 0.893818 0.594759 0.575579
O O10 0.000000 0.000000 0.000000
O O11 0.304543 0.552110 0.712948
O O12 0.489329 0.586386 0.839364
O O13 0.197587 0.117788 0.308426
O O14 0.217520 0.996468 0.569157
O O15 0.717562 0.636352 0.948224
O O16 0.979356 0.608770 0.086947
O O17 0.500000 0.000000 0.000000
O O18 0.500000 0.000000 0.500000
#
# Coordination Sequence:
#
# PCOD9077482 Si02
#       8
#     2   2   2   2   2   2   2   2
#     4  11  23  38  61  87 115 151 202 251 301 342
#     4  10  18  34  60  84 121 152 202 235 292 346
#     4   9  20  35  59  87 118 157 192 245 281 361
#     4  10  20  35  62  90 117 159 203 236 288 360
#     4  10  20  34  57  91 124 150 195 243 294 348
#     4  10  19  34  59  94 122 156 196 238 298 346
#     4  11  22  38  62  88 118 156 201 250 290 350
#     4   9  17  29  55  86 111 155 196 238 278 346
#
# _framework density 27.481971000000001
#
# number of rings (size 3 to 8) (size 9 to 14) (size 15 to 20)
#    0.000    2.000    3.750    1.125    3.500    0.000 
#    0.000    5.000    2.750    3.000    0.000    0.000 
#    0.000    0.000    0.000    0.000    0.000    0.000 
#
# Total GULP energy -89107.982568 kJ/mol
# GULP energy per Si atom -5569.248911 kJ/mol
# Density = 2.741942 g / cm^3
# Si number density = 27.481971 Si / 1000 Ang^3
#
#
#
# Elastic Constant Matrix: (Units=GPa)
#
#
# Indices 1 2 3 4 5 6 
#
# 1 104.7484 33.3973 36.4588 -4.7820 3.5092 2.4108
# 2 33.3973 157.0453 54.7651 -55.6232 12.8121 -40.5096
# 3 36.4588 54.7651 101.7691 -43.3511 8.2429 -11.7880
# 4 -4.7820 -55.6232 -43.3511 79.7642 -7.7173 17.2079
# 5 3.5092 12.8121 8.2429 -7.7173 34.8834 -15.0614
# 6 2.4108 -40.5096 -11.7880 17.2079 -15.0614 66.8212
#
#
#
# Elastic Compliance Matrix: (Units=1/GPa)
#
#
# Indices 1 2 3 4 5 6 
#
# 1 0.011811 -0.002570 -0.004332 -0.003055 -0.000824 -0.002147
# 2 -0.002570 0.010728 -0.002103 0.005129 0.000075 0.004921
# 3 -0.004332 -0.002103 0.015368 0.006595 -0.001119 -0.000358
# 4 -0.003055 0.005129 0.006595 0.019714 0.001027 -0.000462
# 5 -0.000824 0.000075 -0.001119 0.001027 0.032178 0.006866
# 6 -0.002147 0.004921 -0.000358 -0.000462 0.006866 0.019630
#
#
# Mechanical properties :
#
#
# Convention : Reuss Voigt Hill
#
# Bulk Modulus (GPa) = 50.25763 68.08948 59.17355
# Shear Modulus (GPa) = 37.29354 52.22321 44.75837
#
# Velocity S-wave (km/s) = 3.68777 4.36394 4.04003
# Velocity P-wave (km/s) = 6.03822 7.08673 6.58338
#
# Compressibility (1/GPa) = 0.01989748
#
# Stress axis : x y z
#
# Youngs Moduli (GPa) = 84.66480 93.21822 65.06881
#
# Poissons Ratio (x) = 0.23955 0.28186
# Poissons Ratio (y) = 0.21757 0.13686
# Poissons Ratio (z) = 0.36674 0.19607
#
# Static dielectric constant tensor:
#      x y z
#    x 2.265330 0.002610 -0.097980 
#    y 0.002610 2.212600 -0.048720 
#    z -0.097980 -0.048720 2.167780 
# 
# From -- ./inp_files/568482.got.cif
#   From: 2010.05.17/outbox.cif.g08.bks.cpg/sg2_285_cif.got.tgz:568482.got - 2010.06.03 11:33:40.
