data_PCOD9077068
_publ_section_title
;
Structure prediction by ZEFSAII (Michael W. Deem and Ramdas Pophale) SiO2 
 PCOD9077068
Probable space group: P -1
;
_chemical_formula_sum "Si O2"
_cell_formula_units_Z 16
_cell_length_a 15.239461
_cell_length_b 11.825600
_cell_length_c 21.245256
_cell_angle_alpha 23.171647
_cell_angle_beta 155.504275
_cell_angle_gamma 148.564962
_cell_volume 621.395267
_symmetry_space_group_name_H-M "P -1"
_symmetry_group_IT_number 2
_symmetry_cell_setting 'triclinic'
loop_
_space_group_symop_operation_xyz
x,y,z
-x,-y,-z
loop_
_atom_site_type_symbol
_atom_site_label
_atom_site_fract_x
_atom_site_fract_y
_atom_site_fract_z
Si Si1 0.706791 0.313742 0.959261
Si Si2 0.753032 0.419034 0.574164
Si Si3 0.644516 0.987904 0.284439
Si Si4 0.975136 0.242854 0.697435
Si Si5 0.606726 0.744081 0.110853
Si Si6 0.307441 0.101694 0.405364
Si Si7 0.912478 0.882381 0.619971
Si Si8 0.800351 0.229216 0.837413
O O1 0.852028 0.159226 0.182065
O O2 0.661265 0.079127 0.995235
O O3 0.503573 0.382305 0.833062
O O4 0.792924 0.610846 0.831390
O O5 0.677937 0.714278 0.401830
O O6 0.551749 0.206780 0.525910
O O7 0.844778 0.269669 0.771717
O O8 0.908989 0.463582 0.593724
O O9 0.850237 0.044487 0.433715
O O10 0.556809 0.102289 0.755506
O O11 0.572410 0.253294 0.061439
O O12 0.772657 0.127897 0.581962
O O13 0.175987 0.341409 0.733399
O O14 0.051405 0.976129 0.924588
O O15 0.204494 0.007379 0.452580
O O16 0.822553 0.548664 0.718135
#
# Coordination Sequence:
#
# PCOD9077068 Si02
#       8
#     2   2   2   2   2   2   2   2
#     4  11  21  35  59  80 112 146 189 225 268 326
#     4  11  20  33  54  87 115 140 177 230 279 326
#     4  10  19  35  59  81 112 141 183 232 271 318
#     4  11  22  34  56  84 114 145 180 224 278 329
#     4  10  22  38  56  81 109 151 187 222 271 326
#     4  12  19  35  55  88 114 139 177 233 277 322
#     4  11  18  32  60  85 108 137 184 234 277 307
#     4  10  18  34  55  84 109 142 179 229 275 317
#
# _framework density 25.748508000000001
#
# number of rings (size 3 to 8) (size 9 to 14) (size 15 to 20)
#    0.000    1.250    6.250    2.625    0.000    0.500 
#    0.000    0.625    0.000    3.000    0.000    0.000 
#    0.000    0.000    0.000    0.000    0.000    0.000 
#
# Total GULP energy -89596.698848 kJ/mol
# GULP energy per Si atom -5599.793678 kJ/mol
# Density = 2.568990 g / cm^3
# Si number density = 25.748508 Si / 1000 Ang^3
#
#
#
# Elastic Constant Matrix: (Units=GPa)
#
#
# Indices 1 2 3 4 5 6 
#
# 1 173.4694 37.6186 13.3306 7.2578 17.3956 -19.7141
# 2 37.6186 76.5650 40.8393 19.1715 -8.6677 -25.4467
# 3 13.3306 40.8393 88.4782 13.8334 -4.8881 -21.2870
# 4 7.2578 19.1715 13.8334 27.4110 0.3992 -8.7004
# 5 17.3956 -8.6677 -4.8881 0.3992 32.7905 1.6701
# 6 -19.7141 -25.4467 -21.2870 -8.7004 1.6701 35.1157
#
#
#
# Elastic Compliance Matrix: (Units=1/GPa)
#
#
# Indices 1 2 3 4 5 6 
#
# 1 0.007306 -0.004260 0.000891 0.001343 -0.004994 0.002125
# 2 -0.004260 0.025160 -0.006822 -0.010349 0.007573 0.008780
# 3 0.000891 -0.006822 0.015721 -0.001931 -0.000144 0.004615
# 4 0.001343 -0.010349 -0.001931 0.045541 -0.004473 0.003579
# 5 -0.004994 0.007573 -0.000144 -0.004473 0.035190 -0.000185
# 6 0.002125 0.008780 0.004615 0.003579 -0.000185 0.039726
#
#
# Mechanical properties :
#
#
# Convention : Reuss Voigt Hill
#
# Bulk Modulus (GPa) = 35.96596 58.00996 46.98796
# Shear Modulus (GPa) = 25.21486 35.51171 30.36329
#
# Velocity S-wave (km/s) = 3.13273 3.71775 3.43771
# Velocity P-wave (km/s) = 5.20421 6.40369 5.83486
#
# Compressibility (1/GPa) = 0.02780407
#
# Stress axis : x y z
#
# Youngs Moduli (GPa) = 136.86930 39.74564 63.60788
#
# Poissons Ratio (x) = 0.16933 -0.05668
# Poissons Ratio (y) = 0.58313 0.43396
# Poissons Ratio (z) = -0.12196 0.27116
#
# Static dielectric constant tensor:
#      x y z
#    x 1.998520 0.034810 -0.006620 
#    y 0.034810 1.980140 0.025840 
#    z -0.006620 0.025840 2.044790 
# 
# From -- ./inp_files/597804.got.cif
#   From: 2010.05.17/outbox.cif.g08.bks.cpg/sg2_299_cif.got.tgz:597804.got - 2010.06.03 11:33:40.
