data_PCOD9077465
_publ_section_title
;
Structure prediction by ZEFSAII (Michael W. Deem and Ramdas Pophale) SiO2 
 PCOD9077465
Probable space group: P -1
;
_chemical_formula_sum "Si O2"
_cell_formula_units_Z 16
_cell_length_a 17.433681
_cell_length_b 19.409768
_cell_length_c 10.764604
_cell_angle_alpha 46.488089
_cell_angle_beta 124.132231
_cell_angle_gamma 159.254487
_cell_volume 885.849173
_symmetry_space_group_name_H-M "P -1"
_symmetry_group_IT_number 2
_symmetry_cell_setting 'triclinic'
loop_
_space_group_symop_operation_xyz
x,y,z
-x,-y,-z
loop_
_atom_site_type_symbol
_atom_site_label
_atom_site_fract_x
_atom_site_fract_y
_atom_site_fract_z
Si Si1 0.730981 0.012434 0.668472
Si Si2 0.909584 0.135735 0.270219
Si Si3 0.473065 0.163623 0.563168
Si Si4 0.556547 0.664583 0.556290
Si Si5 0.053935 0.177640 0.611428
Si Si6 0.943700 0.553582 0.420840
Si Si7 0.764499 0.519493 0.080805
Si Si8 0.275295 0.303688 0.123345
O O1 0.926053 0.120352 0.671331
O O2 0.844891 0.197433 0.628876
O O3 0.636750 0.962851 0.512336
O O4 0.505209 0.753229 0.843084
O O5 0.008567 0.186052 0.426786
O O6 0.097179 0.350500 0.082678
O O7 0.717158 0.033140 0.260728
O O8 0.758061 0.905782 0.363364
O O9 0.494696 0.299762 0.430613
O O10 0.722206 0.352492 0.560050
O O11 0.322597 0.425312 0.571849
O O12 0.651188 0.661309 0.715331
O O13 0.927608 0.958085 0.771650
O O14 0.867497 0.541988 0.244901
O O15 0.000000 0.500000 0.500000
O O16 0.791575 0.650083 0.998551
O O17 0.500000 0.500000 0.000000
#
# Coordination Sequence:
#
# PCOD9077465 Si02
#       8
#     2   2   2   2   2   2   2   2
#     4  10  18  36  59  81 108 145 185 228 284 327
#     4   8  19  37  54  80 116 154 183 225 276 325
#     4   8  17  36  59  78 107 147 185 223 269 335
#     4   9  18  33  56  79 113 153 188 215 266 326
#     4  10  18  34  60  81 111 160 191 215 270 336
#     4  11  23  39  62  85 106 141 189 241 287 332
#     4  11  23  37  55  84 122 143 183 241 276 326
#     4  11  20  33  51  87 119 151 186 226 272 322
#
# _framework density 18.061767
#
# number of rings (size 3 to 8) (size 9 to 14) (size 15 to 20)
#    0.750    1.500    3.750    0.750    0.000    6.500 
#    0.000    1.875    0.000    3.750    0.000    0.000 
#    0.000    0.000    0.000    0.000    0.000    0.000 
#
# Total GULP energy -89102.635131 kJ/mol
# GULP energy per Si atom -5568.914696 kJ/mol
# Density = 1.802066 g / cm^3
# Si number density = 18.061767 Si / 1000 Ang^3
#
#
#
# Elastic Constant Matrix: (Units=GPa)
#
#
# Indices 1 2 3 4 5 6 
#
# 1 53.7193 -7.5793 57.9996 1.6081 26.9844 13.8063
# 2 -7.5793 72.9269 38.9009 -10.3657 24.1531 -2.8018
# 3 57.9996 38.9009 58.4394 -14.1403 -14.3248 -0.9517
# 4 1.6081 -10.3657 -14.1403 19.2001 9.6682 2.2606
# 5 26.9844 24.1531 -14.3248 9.6682 29.0696 -14.5617
# 6 13.8063 -2.8018 -0.9517 2.2606 -14.5617 16.4476
#
#
#
# Elastic Compliance Matrix: (Units=1/GPa)
#
#
# Indices 1 2 3 4 5 6 
#
# 1 0.002793 -0.008018 0.003924 -0.010840 0.015469 0.011702
# 2 -0.008018 0.010615 0.003508 0.005118 0.004808 0.012294
# 3 0.003924 0.003508 0.011025 0.022519 -0.020117 -0.022964
# 4 -0.010840 0.005118 0.022519 0.085036 -0.020813 -0.018840
# 5 0.015469 0.004808 -0.020117 -0.020813 0.014034 0.001955
# 6 0.011702 0.012294 -0.022964 -0.018840 0.001955 0.056062
#
#
# Mechanical properties :
#
#
# Convention : Reuss Voigt Hill
#
# Bulk Modulus (GPa) = 42.98579 40.41421 41.70000
# Shear Modulus (GPa) = 26.52639 19.32778 22.92708
#
# Velocity S-wave (km/s) = 3.83645 3.27478 3.56669
# Velocity P-wave (km/s) = 6.59359 6.05995 6.33240
#
# Compressibility (1/GPa) = 0.02326350
#
# Stress axis : x y z
#
# Youngs Moduli (GPa) = 357.99720 94.20292 90.70020
#
# Poissons Ratio (x) = 0.75528 -0.35594
# Poissons Ratio (y) = 2.87028 -0.31817
# Poissons Ratio (z) = -1.40492 -0.33046
#
# Static dielectric constant tensor:
#      x y z
#    x 1.643920 0.012150 -0.025810 
#    y 0.012150 1.625020 -0.014180 
#    z -0.025810 -0.014180 1.620150 
# 
# From -- ./inp_files/466873.got.cif
#   From: 2010.05.17/outbox.cif.g08.bks.cpg/sg2_234_cif.got.tgz:466873.got - 2010.06.03 11:33:40.
