data_PCOD9077846
_publ_section_title
;
Structure prediction by ZEFSAII (Michael W. Deem and Ramdas Pophale) SiO2 
 PCOD9077846
Probable space group: P -1
;
_chemical_formula_sum "Si O2"
_cell_formula_units_Z 16
_cell_length_a 28.784098
_cell_length_b 9.818907
_cell_length_c 11.587968
_cell_angle_alpha 28.144407
_cell_angle_beta 23.410731
_cell_angle_gamma 30.245047
_cell_volume 587.067829
_symmetry_space_group_name_H-M "P -1"
_symmetry_group_IT_number 2
_symmetry_cell_setting 'triclinic'
loop_
_space_group_symop_operation_xyz
x,y,z
-x,-y,-z
loop_
_atom_site_type_symbol
_atom_site_label
_atom_site_fract_x
_atom_site_fract_y
_atom_site_fract_z
Si Si1 0.788937 0.690950 0.553661
Si Si2 0.446949 0.772267 0.016483
Si Si3 0.443214 0.282731 0.827868
Si Si4 0.961666 0.230892 0.622446
Si Si5 0.815840 0.266238 0.411173
Si Si6 0.866428 0.720449 0.115587
Si Si7 0.192374 0.695874 0.857051
Si Si8 0.536090 0.690482 0.493741
O O1 0.927368 0.530689 0.399373
O O2 0.778301 0.678596 0.450603
O O3 0.763000 0.035861 0.390690
O O4 0.694792 0.554981 0.934617
O O5 0.324538 0.737277 0.265167
O O6 0.507859 0.485924 0.170851
O O7 0.411792 0.053199 0.974068
O O8 0.517530 0.947855 0.641952
O O9 0.505876 0.552347 0.540052
O O10 0.500000 0.000000 0.000000
O O11 0.095079 0.006272 0.512884
O O12 0.898682 0.342883 0.806616
O O13 0.892507 0.036499 0.846290
O O14 0.822805 0.590509 0.198252
O O15 0.860968 0.213203 0.215710
O O16 0.000000 0.500000 0.000000
O O17 0.315922 0.430305 0.745888
#
# Coordination Sequence:
#
# PCOD9077846 Si02
#       8
#     2   2   2   2   2   2   2   2
#     4  11  20  38  55  83 119 149 197 251 288 356
#     4   9  19  36  53  85 116 147 192 242 294 347
#     4  10  20  35  59  89 115 150 193 249 308 350
#     4  10  20  35  55  80 116 152 196 239 293 343
#     4  10  19  36  53  82 112 159 195 237 287 354
#     4   9  22  39  53  79 116 161 201 233 286 356
#     4  10  18  35  54  80 116 144 195 242 295 340
#     4   9  17  35  53  84 117 143 186 244 294 350
#
# _framework density 27.254092
#
# number of rings (size 3 to 8) (size 9 to 14) (size 15 to 20)
#    0.750    1.500    3.750    0.375    0.000    3.000 
#   18.000    0.000    0.000    0.750    0.000    4.375 
#    0.000    0.000    0.000    0.000    0.000    0.000 
#
# Total GULP energy -89282.118369 kJ/mol
# GULP energy per Si atom -5580.132398 kJ/mol
# Density = 2.719206 g / cm^3
# Si number density = 27.254092 Si / 1000 Ang^3
#
#
#
# Elastic Constant Matrix: (Units=GPa)
#
#
# Indices 1 2 3 4 5 6 
#
# 1 112.5910 35.3558 48.0810 -11.1635 -6.2507 -3.4214
# 2 35.3558 89.0679 27.0849 -12.6957 0.9662 11.2104
# 3 48.0810 27.0849 127.7261 -10.2401 -4.8860 7.4319
# 4 -11.1635 -12.6957 -10.2401 17.6572 -6.6645 5.4720
# 5 -6.2507 0.9662 -4.8860 -6.6645 47.7101 -5.7415
# 6 -3.4214 11.2104 7.4319 5.4720 -5.7415 50.8006
#
#
#
# Elastic Compliance Matrix: (Units=1/GPa)
#
#
# Indices 1 2 3 4 5 6 
#
# 1 0.011977 -0.003500 -0.003558 0.003114 0.001949 0.001984
# 2 -0.003500 0.014731 -0.000815 0.009232 -0.000077 -0.004370
# 3 -0.003558 -0.000815 0.009776 0.003712 0.000854 -0.001793
# 4 0.003114 0.009232 0.003712 0.073960 0.009822 -0.009227
# 5 0.001949 -0.000077 0.000854 0.009822 0.022863 0.001549
# 6 0.001984 -0.004370 -0.001793 -0.009227 0.001549 0.022214
#
#
# Mechanical properties :
#
#
# Convention : Reuss Voigt Hill
#
# Bulk Modulus (GPa) = 48.21646 61.15873 54.68760
# Shear Modulus (GPa) = 28.06155 37.82448 32.94301
#
# Velocity S-wave (km/s) = 3.21226 3.72942 3.48046
# Velocity P-wave (km/s) = 5.61142 6.40576 6.02170
#
# Compressibility (1/GPa) = 0.02073981
#
# Stress axis : x y z
#
# Youngs Moduli (GPa) = 83.49172 67.88302 102.29112
#
# Poissons Ratio (x) = 0.23756 0.36394
# Poissons Ratio (y) = 0.29219 0.08336
# Poissons Ratio (z) = 0.29705 0.05532
#
# Static dielectric constant tensor:
#      x y z
#    x 2.391390 -0.043590 0.319470 
#    y -0.043590 2.177610 0.032840 
#    z 0.319470 0.032840 2.508720 
# 
# From -- ./inp_files/476351.got.cif
#   From: 2010.05.17/outbox.cif.g08.bks.cpg/sg2_239_cif.got.tgz:476351.got - 2010.06.03 11:33:40.
