data_PCOD9077353
_publ_section_title
;
Structure prediction by ZEFSAII (Michael W. Deem and Ramdas Pophale) SiO2 
 PCOD9077353
Probable space group: P -1
;
_chemical_formula_sum "Si O2"
_cell_formula_units_Z 14
_cell_length_a 9.868709
_cell_length_b 19.411067
_cell_length_c 14.270639
_cell_angle_alpha 29.003811
_cell_angle_beta 150.070533
_cell_angle_gamma 138.506550
_cell_volume 660.881631
_symmetry_space_group_name_H-M "P -1"
_symmetry_group_IT_number 2
_symmetry_cell_setting 'triclinic'
loop_
_space_group_symop_operation_xyz
x,y,z
-x,-y,-z
loop_
_atom_site_type_symbol
_atom_site_label
_atom_site_fract_x
_atom_site_fract_y
_atom_site_fract_z
Si Si1 0.592923 0.014260 0.664147
Si Si2 0.322885 0.696094 0.718826
Si Si3 0.852079 0.509077 0.298792
Si Si4 0.820253 0.076218 0.923983
Si Si5 0.219140 0.723796 0.166897
Si Si6 0.779346 0.798074 0.355768
Si Si7 0.015988 0.997607 0.401483
O O1 0.575698 0.144967 0.426402
O O2 0.306745 0.948289 0.591592
O O3 0.667765 0.080823 0.729969
O O4 0.856665 0.919304 0.907104
O O5 0.232322 0.631951 0.640017
O O6 0.051141 0.706231 0.606016
O O7 0.569711 0.602505 0.021798
O O8 0.000000 0.500000 0.500000
O O9 0.052272 0.587258 0.253472
O O10 0.765095 0.922358 0.120332
O O11 0.739786 0.200331 0.798621
O O12 0.509572 0.709845 0.306979
O O13 0.047255 0.843342 0.863341
O O14 0.809563 0.891034 0.357699
O O15 0.000000 0.000000 0.500000
#
# Coordination Sequence:
#
# PCOD9077353 Si02
#       7
#     2   2   2   2   2   2   2
#     4  10  18  34  58  90 119 155 195 245 294 364
#     4  10  23  43  61  90 119 157 210 254 291 355
#     4  11  24  43  67  85 115 160 212 256 298 345
#     4   9  19  32  59  88 124 153 192 237 305 365
#     4  11  21  38  59  85 120 159 192 246 301 354
#     4  10  22  38  58  88 127 154 194 246 301 367
#     4  11  21  34  59  91 126 156 190 236 307 367
#
# _framework density 21.183824999999999
#
# number of rings (size 3 to 8) (size 9 to 14) (size 15 to 20)
#    0.000    1.714    1.429    4.286    2.000    2.286 
#    2.571    0.714    0.000    0.000    0.000    0.000 
#    0.000    0.000    0.000    0.000    0.000    0.000 
#
# Total GULP energy -78225.652122 kJ/mol
# GULP energy per Si atom -5587.546580 kJ/mol
# Density = 2.113561 g / cm^3
# Si number density = 21.183825 Si / 1000 Ang^3
#
#
#
# Elastic Constant Matrix: (Units=GPa)
#
#
# Indices 1 2 3 4 5 6 
#
# 1 100.1652 12.9350 24.6314 13.8419 -1.4052 5.9210
# 2 12.9350 64.9093 17.9879 9.1777 1.5348 19.3388
# 3 24.6314 17.9879 52.5702 17.7800 -1.9251 1.0274
# 4 13.8419 9.1777 17.7800 24.7748 -1.1368 2.9100
# 5 -1.4052 1.5348 -1.9251 -1.1368 34.5959 21.3185
# 6 5.9210 19.3388 1.0274 2.9100 21.3185 40.7487
#
#
#
# Elastic Compliance Matrix: (Units=1/GPa)
#
#
# Indices 1 2 3 4 5 6 
#
# 1 0.011614 -0.000126 -0.004267 -0.003078 0.001387 -0.002026
# 2 -0.000126 0.021175 -0.006182 -0.001447 0.006914 -0.013389
# 3 -0.004267 -0.006182 0.028545 -0.016493 -0.001955 0.005035
# 4 -0.003078 -0.001447 -0.016493 0.055100 0.003397 -0.004162
# 5 0.001387 0.006914 -0.001955 0.003397 0.045635 -0.027551
# 6 -0.002026 -0.013389 0.005035 -0.004162 -0.027551 0.045774
#
#
# Mechanical properties :
#
#
# Convention : Reuss Voigt Hill
#
# Bulk Modulus (GPa) = 24.88588 36.52814 30.70701
# Shear Modulus (GPa) = 20.62824 30.82990 25.72907
#
# Velocity S-wave (km/s) = 3.12392 3.81905 3.48884
# Velocity P-wave (km/s) = 4.97845 6.06033 5.54584
#
# Compressibility (1/GPa) = 0.04018342
#
# Stress axis : x y z
#
# Youngs Moduli (GPa) = 86.10564 47.22643 35.03259
#
# Poissons Ratio (x) = 0.00594 0.14948
# Poissons Ratio (y) = 0.01083 0.21657
# Poissons Ratio (z) = 0.36741 0.29196
#
# Static dielectric constant tensor:
#      x y z
#    x 1.761170 0.004620 0.005500 
#    y 0.004620 1.788330 0.011160 
#    z 0.005500 0.011160 1.761460 
# 
# From -- ./inp_files/214647.got.cif
#   From: 2010.05.17/outbox.cif.g08.bks.cpg/sg2_108_cif.got.tgz:214647.got - 2010.06.03 11:33:40.
