data_PCOD9077447
_publ_section_title
;
Structure prediction by ZEFSAII (Michael W. Deem and Ramdas Pophale) SiO2 
 PCOD9077447
Probable space group: P -1
;
_chemical_formula_sum "Si O2"
_cell_formula_units_Z 14
_cell_length_a 16.758104
_cell_length_b 23.885076
_cell_length_c 8.473184
_cell_angle_alpha 143.907669
_cell_angle_beta 154.785322
_cell_angle_gamma 23.283408
_cell_volume 565.776559
_symmetry_space_group_name_H-M "P -1"
_symmetry_group_IT_number 2
_symmetry_cell_setting 'triclinic'
loop_
_space_group_symop_operation_xyz
x,y,z
-x,-y,-z
loop_
_atom_site_type_symbol
_atom_site_label
_atom_site_fract_x
_atom_site_fract_y
_atom_site_fract_z
Si Si1 0.830450 0.931584 0.779051
Si Si2 0.028247 0.643375 0.103700
Si Si3 0.659565 0.365582 0.095671
Si Si4 0.622576 0.073158 0.062081
Si Si5 0.397353 0.930172 0.640363
Si Si6 0.208524 0.388047 0.978980
Si Si7 0.122114 0.547302 0.740338
O O1 0.614769 0.922072 0.359271
O O2 0.153198 0.776527 0.992239
O O3 0.785055 0.997085 0.016327
O O4 0.755325 0.020413 0.688679
O O5 0.110350 0.680187 0.475628
O O6 0.231829 0.476778 0.127686
O O7 0.098142 0.638821 0.036082
O O8 0.690345 0.758709 0.771309
O O9 0.500000 0.500000 0.000000
O O10 0.425867 0.415078 0.909747
O O11 0.474876 0.231625 0.155824
O O12 0.763989 0.018780 0.365151
O O13 0.500000 0.000000 0.000000
O O14 0.066049 0.367471 0.556585
O O15 0.000000 0.500000 0.000000
O O16 0.000000 0.500000 0.500000
#
# Coordination Sequence:
#
# PCOD9077447 Si02
#       7
#     2   2   2   2   2   2   2
#     4  10  21  37  60  95 136 171 227 271 336 400
#     4  11  21  39  63  99 128 171 222 276 330 398
#     4  12  23  41  65 101 134 171 226 285 331 394
#     4  10  19  35  60  95 129 179 212 270 334 403
#     4  10  18  34  59  91 130 168 217 265 330 403
#     4  11  19  37  65  93 131 169 223 267 330 400
#     4  10  24  39  63  96 131 175 218 276 342 395
#
# _framework density 24.744751999999998
#
# number of rings (size 3 to 8) (size 9 to 14) (size 15 to 20)
#    0.000    1.429    4.286    3.000    0.000    2.286 
#    2.571    0.000    0.000   17.143    0.000    0.000 
#    0.000    0.000    0.000    0.000    0.000    0.000 
#
# Total GULP energy -78154.707041 kJ/mol
# GULP energy per Si atom -5582.479074 kJ/mol
# Density = 2.468843 g / cm^3
# Si number density = 24.744752 Si / 1000 Ang^3
#
#
#
# Elastic Constant Matrix: (Units=GPa)
#
#
# Indices 1 2 3 4 5 6 
#
# 1 177.0826 80.5521 58.1944 -7.1474 -45.1612 -52.3238
# 2 80.5521 129.1558 33.0982 -6.1815 -22.4152 -32.1569
# 3 58.1944 33.0982 77.4181 -1.0803 -34.9734 -16.8816
# 4 -7.1474 -6.1815 -1.0803 32.2171 -5.7838 -4.2939
# 5 -45.1612 -22.4152 -34.9734 -5.7838 47.3370 3.0870
# 6 -52.3238 -32.1569 -16.8816 -4.2939 3.0870 47.1520
#
#
#
# Elastic Compliance Matrix: (Units=1/GPa)
#
#
# Indices 1 2 3 4 5 6 
#
# 1 0.014717 -0.003156 -0.001597 0.006423 0.011274 0.013454
# 2 -0.003156 0.011339 -0.000725 0.002323 0.001842 0.004062
# 3 -0.001597 -0.000725 0.022184 0.003548 0.014628 0.005041
# 4 0.006423 0.002323 0.003548 0.037128 0.013572 0.012475
# 5 0.011274 0.001842 0.014628 0.013572 0.044087 0.017353
# 6 0.013454 0.004062 0.005041 0.012475 0.017353 0.040713
#
#
# Mechanical properties :
#
#
# Convention : Reuss Voigt Hill
#
# Bulk Modulus (GPa) = 26.82131 80.81621 53.81876
# Shear Modulus (GPa) = 25.83260 39.46200 32.64730
#
# Velocity S-wave (km/s) = 3.23455 3.99778 3.63624
# Velocity P-wave (km/s) = 4.98121 7.35122 6.27905
#
# Compressibility (1/GPa) = 0.03728379
#
# Stress axis : x y z
#
# Youngs Moduli (GPa) = 67.94679 88.19205 45.07670
#
# Poissons Ratio (x) = 0.27831 0.07200
# Poissons Ratio (y) = 0.21442 0.03270
# Poissons Ratio (z) = 0.10854 0.06397
#
# Static dielectric constant tensor:
#      x y z
#    x 2.088370 0.019870 -0.003180 
#    y 0.019870 2.069950 0.072120 
#    z -0.003180 0.072120 2.068680 
# 
# From -- ./inp_files/182767.got.cif
#   From: 2010.05.17/outbox.cif.g08.bks.cpg/sg2_92_cif.got.tgz:182767.got - 2010.06.03 11:33:40.
