data_PCOD9077777
_publ_section_title
;
Structure prediction by ZEFSAII (Michael W. Deem and Ramdas Pophale) SiO2 
 PCOD9077777
Probable space group: P -1
;
_chemical_formula_sum "Si O2"
_cell_formula_units_Z 14
_cell_length_a 12.651449
_cell_length_b 7.794020
_cell_length_c 8.783860
_cell_angle_alpha 53.693880
_cell_angle_beta 71.280460
_cell_angle_gamma 83.689016
_cell_volume 657.416707
_symmetry_space_group_name_H-M "P -1"
_symmetry_group_IT_number 2
_symmetry_cell_setting 'triclinic'
loop_
_space_group_symop_operation_xyz
x,y,z
-x,-y,-z
loop_
_atom_site_type_symbol
_atom_site_label
_atom_site_fract_x
_atom_site_fract_y
_atom_site_fract_z
Si Si1 0.664685 0.820276 0.291665
Si Si2 0.720339 0.934659 0.860625
Si Si3 0.034563 0.185096 0.268398
Si Si4 0.104813 0.915240 0.909918
Si Si5 0.492374 0.870989 0.907861
Si Si6 0.093060 0.515626 0.316228
Si Si7 0.680392 0.423610 0.687925
O O1 0.636445 0.584871 0.499488
O O2 0.783023 0.927354 0.247623
O O3 0.567408 0.981751 0.260522
O O4 0.687959 0.826730 0.096129
O O5 0.841943 0.862868 0.813498
O O6 0.622649 0.847800 0.832612
O O7 0.717975 0.195821 0.725161
O O8 0.040567 0.395549 0.256438
O O9 0.946970 0.175414 0.176579
O O10 0.000000 0.000000 0.500000
O O11 0.135976 0.745610 0.108295
O O12 0.000000 0.000000 0.000000
O O13 0.412439 0.657908 0.100083
O O14 0.500000 0.000000 0.000000
O O15 0.208325 0.445793 0.363162
O O16 0.000000 0.500000 0.500000
#
# Coordination Sequence:
#
# PCOD9077777 Si02
#       7
#     2   2   2   2   2   2   2
#     4  10  18  34  65  91 123 166 203 244 314 365
#     4  10  21  39  59  91 127 159 206 260 304 364
#     4  12  25  40  60  92 127 161 210 257 310 375
#     4  12  21  40  63  91 128 161 203 258 310 372
#     4   8  18  34  58  90 124 160 208 254 296 368
#     4  12  24  40  63  90 121 170 207 256 319 370
#     4  10  18  36  63  89 120 166 206 247 310 367
#
# _framework density 21.295473000000001
#
# number of rings (size 3 to 8) (size 9 to 14) (size 15 to 20)
#    0.000    1.714    4.286    3.857    0.000    5.143 
#    2.571    0.714    0.000    1.714    0.000    0.000 
#    0.000    0.000    0.000    0.000    0.000    0.000 
#
# Total GULP energy -77995.913295 kJ/mol
# GULP energy per Si atom -5571.136664 kJ/mol
# Density = 2.124700 g / cm^3
# Si number density = 21.295473 Si / 1000 Ang^3
#
#
#
# Elastic Constant Matrix: (Units=GPa)
#
#
# Indices 1 2 3 4 5 6 
#
# 1 142.3145 14.6836 31.6270 7.8936 15.2866 15.3716
# 2 14.6836 40.2544 18.0660 1.2946 11.4858 14.1909
# 3 31.6270 18.0660 128.6122 -25.4109 33.8002 -6.1181
# 4 7.8936 1.2946 -25.4109 27.6010 -6.2145 2.9611
# 5 15.2866 11.4858 33.8002 -6.2145 28.6190 -5.1779
# 6 15.3716 14.1909 -6.1181 2.9611 -5.1779 23.5034
#
#
#
# Elastic Compliance Matrix: (Units=1/GPa)
#
#
# Indices 1 2 3 4 5 6 
#
# 1 0.009230 0.002828 -0.002692 -0.005574 -0.005725 -0.009004
# 2 0.002828 0.044013 -0.004341 -0.008216 -0.021862 -0.033335
# 3 -0.002692 -0.004341 0.014198 0.011244 -0.010354 0.004380
# 4 -0.005574 -0.008216 0.011244 0.048951 0.004786 0.006420
# 5 -0.005725 -0.021862 -0.010354 0.004786 0.065106 0.027989
# 6 -0.009004 -0.033335 0.004380 0.006420 0.027989 0.075060
#
#
# Mechanical properties :
#
#
# Convention : Reuss Voigt Hill
#
# Bulk Modulus (GPa) = 16.94037 48.88159 32.91098
# Shear Modulus (GPa) = 17.56575 32.39831 24.98203
#
# Velocity S-wave (km/s) = 2.87515 3.90471 3.42879
# Velocity P-wave (km/s) = 4.35823 6.58276 5.58243
#
# Compressibility (1/GPa) = 0.05903057
#
# Stress axis : x y z
#
# Youngs Moduli (GPa) = 108.34536 22.72072 70.43124
#
# Poissons Ratio (x) = -0.06426 0.18960
# Poissons Ratio (y) = -0.30644 0.30578
# Poissons Ratio (z) = 0.29166 0.09864
#
# Static dielectric constant tensor:
#      x y z
#    x 1.886110 -0.003530 -0.012880 
#    y -0.003530 1.733920 0.076500 
#    z -0.012880 0.076500 1.674280 
# 
# From -- ./inp_files/242020.got.cif
#   From: 2010.05.17/outbox.cif.g08.bks.cpg/sg2_122_cif.got.tgz:242020.got - 2010.06.03 11:33:40.
