data_PCOD9077258
_publ_section_title
;
Structure prediction by ZEFSAII (Michael W. Deem and Ramdas Pophale) SiO2 
 PCOD9077258
Probable space group: P -1
;
_chemical_formula_sum "Si O2"
_cell_formula_units_Z 14
_cell_length_a 21.225138
_cell_length_b 20.839891
_cell_length_c 9.156232
_cell_angle_alpha 29.370775
_cell_angle_beta 30.592432
_cell_angle_gamma 21.908312
_cell_volume 710.279745
_symmetry_space_group_name_H-M "P -1"
_symmetry_group_IT_number 2
_symmetry_cell_setting 'triclinic'
loop_
_space_group_symop_operation_xyz
x,y,z
-x,-y,-z
loop_
_atom_site_type_symbol
_atom_site_label
_atom_site_fract_x
_atom_site_fract_y
_atom_site_fract_z
Si Si1 0.041052 0.433223 0.883384
Si Si2 0.192556 0.609713 0.715126
Si Si3 0.012039 0.704106 0.196276
Si Si4 0.437988 0.037386 0.884848
Si Si5 0.387351 0.973465 0.698523
Si Si6 0.431693 0.764224 0.282064
Si Si7 0.964352 0.026865 0.342593
O O1 0.046801 0.556460 0.524156
O O2 0.231982 0.222839 0.912236
O O3 0.000000 0.500000 0.000000
O O4 0.893828 0.445581 0.090426
O O5 0.402626 0.453436 0.590995
O O6 0.143703 0.619788 0.963609
O O7 0.096569 0.814459 0.448199
O O8 0.817006 0.837668 0.252706
O O9 0.005819 0.846041 0.014270
O O10 0.550188 0.059553 0.525744
O O11 0.500000 0.000000 0.000000
O O12 0.466587 0.871344 0.090464
O O13 0.500000 0.000000 0.500000
O O14 0.424303 0.812960 0.029504
O O15 0.237160 0.858236 0.516723
O O16 0.000000 0.000000 0.500000
#
# Coordination Sequence:
#
# PCOD9077258 Si02
#       7
#     2   2   2   2   2   2   2
#     4  12  23  40  63  90 120 161 209 254 305 361
#     4  11  21  39  66  91 122 164 202 249 308 359
#     4  11  22  39  61  92 125 157 204 251 306 363
#     4  11  22  38  60  90 122 156 207 259 299 358
#     4  10  18  34  57  88 119 152 196 254 297 344
#     4  11  20  38  63  89 125 161 200 250 305 360
#     4  10  21  40  60  91 132 157 201 251 308 363
#
# _framework density 19.710543999999999
#
# number of rings (size 3 to 8) (size 9 to 14) (size 15 to 20)
#    0.000    1.143    4.286    5.571    0.000    2.286 
#    2.571    0.714    0.000    1.714    0.000    0.000 
#    0.000    0.000    0.000    0.000    0.000    0.000 
#
# Total GULP energy -78194.275077 kJ/mol
# GULP energy per Si atom -5585.305363 kJ/mol
# Density = 1.966568 g / cm^3
# Si number density = 19.710544 Si / 1000 Ang^3
#
#
#
# Elastic Constant Matrix: (Units=GPa)
#
#
# Indices 1 2 3 4 5 6 
#
# 1 73.1931 27.3031 32.6129 -13.8828 3.3661 -1.5662
# 2 27.3031 158.6288 24.2425 -6.1285 -11.4266 -22.4225
# 3 32.6129 24.2425 42.4061 -19.9572 -12.8809 -3.1721
# 4 -13.8828 -6.1285 -19.9572 22.2943 2.9942 -2.4161
# 5 3.3661 -11.4266 -12.8809 2.9942 26.2981 4.4068
# 6 -1.5662 -22.4225 -3.1721 -2.4161 4.4068 35.0099
#
#
#
# Elastic Compliance Matrix: (Units=1/GPa)
#
#
# Indices 1 2 3 4 5 6 
#
# 1 0.025863 -0.001899 -0.026830 -0.006324 -0.016413 -0.000861
# 2 -0.001899 0.007729 -0.002701 -0.001235 0.001695 0.004322
# 3 -0.026830 -0.002701 0.080294 0.050045 0.035329 0.003352
# 4 -0.006324 -0.001235 0.050045 0.084322 0.013923 0.007527
# 5 -0.016413 0.001695 0.035329 0.013923 0.057028 -0.002665
# 6 -0.000861 0.004322 0.003352 0.007527 -0.002665 0.032451
#
#
# Mechanical properties :
#
#
# Convention : Reuss Voigt Hill
#
# Bulk Modulus (GPa) = 19.59832 49.17166 34.38499
# Shear Modulus (GPa) = 13.60337 29.39177 21.49757
#
# Velocity S-wave (km/s) = 2.62993 3.86576 3.30610
# Velocity P-wave (km/s) = 4.38026 6.70272 5.66185
#
# Compressibility (1/GPa) = 0.05102479
#
# Stress axis : x y z
#
# Youngs Moduli (GPa) = 38.66564 129.38302 12.45429
#
# Poissons Ratio (x) = 0.24576 0.33415
# Poissons Ratio (y) = 0.07344 0.03364
# Poissons Ratio (z) = 1.03740 0.34944
#
# Static dielectric constant tensor:
#      x y z
#    x 1.688160 0.018290 -0.016470 
#    y 0.018290 1.716120 0.002820 
#    z -0.016470 0.002820 1.704750 
# 
# From -- ./inp_files/261051.got.cif
#   From: 2010.05.17/outbox.cif.g08.bks.cpg/sg2_131_cif.got.tgz:261051.got - 2010.06.03 11:33:40.
