data_PCOD9077511
_publ_section_title
;
Structure prediction by ZEFSAII (Michael W. Deem and Ramdas Pophale) SiO2 
 PCOD9077511
Probable space group: P -1
;
_chemical_formula_sum "Si O2"
_cell_formula_units_Z 14
_cell_length_a 10.936821
_cell_length_b 8.715583
_cell_length_c 10.353694
_cell_angle_alpha 119.831373
_cell_angle_beta 43.632469
_cell_angle_gamma 118.410504
_cell_volume 579.619374
_symmetry_space_group_name_H-M "P -1"
_symmetry_group_IT_number 2
_symmetry_cell_setting 'triclinic'
loop_
_space_group_symop_operation_xyz
x,y,z
-x,-y,-z
loop_
_atom_site_type_symbol
_atom_site_label
_atom_site_fract_x
_atom_site_fract_y
_atom_site_fract_z
Si Si1 0.926026 0.793523 0.370568
Si Si2 0.406490 0.599757 0.280710
Si Si3 0.851302 0.127967 0.004877
Si Si4 0.681372 0.432761 0.367986
Si Si5 0.747868 0.061868 0.483155
Si Si6 0.761286 0.816662 0.137961
Si Si7 0.085751 0.322672 0.374085
O O1 0.844305 0.599765 0.290994
O O2 0.943010 0.757329 0.492823
O O3 0.783973 0.924460 0.508814
O O4 0.099923 0.872458 0.183896
O O5 0.328168 0.604675 0.487704
O O6 0.360720 0.783422 0.331530
O O7 0.621556 0.631229 0.144668
O O8 0.296838 0.411499 0.228783
O O9 0.716461 0.261292 0.193063
O O10 0.774452 0.938679 0.051868
O O11 0.041997 0.198579 0.965062
O O12 0.500000 0.500000 0.500000
O O13 0.947363 0.174986 0.337455
O O14 0.682209 0.932133 0.358425
O O15 0.000000 0.500000 0.500000
#
# Coordination Sequence:
#
# PCOD9077511 Si02
#       7
#     2   2   2   2   2   2   2
#     4  10  21  34  56  88 113 161 195 239 301 346
#     4  10  20  35  58  88 115 151 207 242 288 340
#     4  10  21  35  55  89 128 154 188 245 300 359
#     4  11  21  34  55  91 122 151 195 248 298 342
#     4  10  18  34  60  87 116 153 204 244 281 350
#     4  10  20  35  61  92 115 159 193 245 298 338
#     4   9  20  37  58  87 116 160 202 245 288 350
#
# _framework density 24.153780999999999
#
# number of rings (size 3 to 8) (size 9 to 14) (size 15 to 20)
#    0.000    2.000    1.429    3.000    2.000    0.000 
#    0.000    0.000    0.000   11.143   22.286    0.000 
#    0.000    0.000    0.000    0.000    0.000    0.000 
#
# Total GULP energy -78199.847281 kJ/mol
# GULP energy per Si atom -5585.703377 kJ/mol
# Density = 2.409881 g / cm^3
# Si number density = 24.153781 Si / 1000 Ang^3
#
#
#
# Elastic Constant Matrix: (Units=GPa)
#
#
# Indices 1 2 3 4 5 6 
#
# 1 82.9313 36.8365 31.8781 -7.6796 0.2239 -8.5007
# 2 36.8365 89.2790 12.1806 -19.2182 1.7891 -0.9620
# 3 31.8781 12.1806 66.2202 1.4962 0.7916 -10.9812
# 4 -7.6796 -19.2182 1.4962 37.2897 -2.8539 -11.9276
# 5 0.2239 1.7891 0.7916 -2.8539 36.8699 -10.3558
# 6 -8.5007 -0.9620 -10.9812 -11.9276 -10.3558 66.7172
#
#
#
# Elastic Compliance Matrix: (Units=1/GPa)
#
#
# Indices 1 2 3 4 5 6 
#
# 1 0.017810 -0.006073 -0.007273 0.001324 0.000824 0.001349
# 2 -0.006073 0.015159 0.000094 0.006774 0.000013 0.000673
# 3 -0.007273 0.000094 0.018938 -0.001593 0.000047 0.001914
# 4 0.001324 0.006774 -0.001593 0.033053 0.004095 0.006549
# 5 0.000824 0.000013 0.000047 0.004095 0.028931 0.005336
# 6 0.001349 0.000673 0.001914 0.006549 0.005336 0.017484
#
#
# Mechanical properties :
#
#
# Convention : Reuss Voigt Hill
#
# Bulk Modulus (GPa) = 39.36577 44.46899 41.91738
# Shear Modulus (GPa) = 30.05754 38.67773 34.36764
#
# Velocity S-wave (km/s) = 3.53147 4.00598 3.77618
# Velocity P-wave (km/s) = 5.74123 6.31252 6.03364
#
# Compressibility (1/GPa) = 0.02540278
#
# Stress axis : x y z
#
# Youngs Moduli (GPa) = 56.14839 65.96700 52.80457
#
# Poissons Ratio (x) = 0.40062 0.38402
# Poissons Ratio (y) = 0.34099 -0.00494
# Poissons Ratio (z) = 0.40834 -0.00617
#
# Static dielectric constant tensor:
#      x y z
#    x 1.984210 0.039380 -0.019800 
#    y 0.039380 1.960650 -0.015750 
#    z -0.019800 -0.015750 1.940470 
# 
# From -- ./inp_files/257489.got.cif
#   From: 2010.05.17/outbox.cif.g08.bks.cpg/sg2_129_cif.got.tgz:257489.got - 2010.06.03 11:33:40.
