data_PCOD9077530
_publ_section_title
;
Structure prediction by ZEFSAII (Michael W. Deem and Ramdas Pophale) SiO2 
 PCOD9077530
Probable space group: P -1
;
_chemical_formula_sum "Si O2"
_cell_formula_units_Z 16
_cell_length_a 27.100253
_cell_length_b 7.970448
_cell_length_c 5.522430
_cell_angle_alpha 58.092504
_cell_angle_beta 126.843342
_cell_angle_gamma 133.902809
_cell_volume 674.538603
_symmetry_space_group_name_H-M "P -1"
_symmetry_group_IT_number 2
_symmetry_cell_setting 'triclinic'
loop_
_space_group_symop_operation_xyz
x,y,z
-x,-y,-z
loop_
_atom_site_type_symbol
_atom_site_label
_atom_site_fract_x
_atom_site_fract_y
_atom_site_fract_z
Si Si1 0.300421 0.416626 0.269408
Si Si2 0.434948 0.389730 0.200153
Si Si3 0.274457 0.151207 0.905937
Si Si4 0.535077 0.269143 0.343393
Si Si5 0.107164 0.810644 0.700055
Si Si6 0.091039 0.263232 0.322467
Si Si7 0.934326 0.190477 0.920354
Si Si8 0.162018 0.370802 0.948159
O O1 0.284395 0.248335 0.585557
O O2 0.389390 0.582353 0.392355
O O3 0.272769 0.304440 0.006760
O O4 0.251039 0.521554 0.104283
O O5 0.500000 0.500000 0.500000
O O6 0.466324 0.292967 0.170483
O O7 0.351534 0.178919 0.174909
O O8 0.435685 0.612696 0.923763
O O9 0.193811 0.913286 0.862683
O O10 0.500000 0.000000 0.500000
O O11 0.069935 0.692171 0.427124
O O12 0.096367 0.032621 0.507449
O O13 0.073954 0.694512 0.950053
O O14 0.132925 0.402127 0.584302
O O15 0.126528 0.391647 0.073374
O O16 0.006257 0.179448 0.146712
O O17 0.866030 0.910702 0.924135
#
# Coordination Sequence:
#
# PCOD9077530 Si02
#       8
#     2   2   2   2   2   2   2   2
#     4  11  18  32  50  71 102 143 184 230 281 343
#     4  10  21  38  61  85 115 155 197 238 299 355
#     4  11  18  31  50  71 102 140 189 227 275 347
#     4  10  23  40  60  88 118 152 199 247 295 351
#     4  10  15  24  35  57  87 129 176 214 266 326
#     4  10  16  22  34  55  88 133 172 217 266 325
#     4  10  16  22  34  55  89 130 176 214 268 324
#     4  10  15  24  36  57  87 129 180 207 270 333
#
# _framework density 23.719916000000001
#
# number of rings (size 3 to 8) (size 9 to 14) (size 15 to 20)
#    0.000    1.750    6.250    3.750    0.000    0.500 
#    0.000    0.000    0.000    0.000    0.000    0.000 
#    0.000    0.000    0.000   12.375    2.000    0.000 
#
# Total GULP energy -89276.869783 kJ/mol
# GULP energy per Si atom -5579.804361 kJ/mol
# Density = 2.366593 g / cm^3
# Si number density = 23.719916 Si / 1000 Ang^3
#
#
#
# Elastic Constant Matrix: (Units=GPa)
#
#
# Indices 1 2 3 4 5 6 
#
# 1 149.9803 15.2881 33.5763 15.0047 -4.3451 31.6274
# 2 15.2881 64.9679 24.8920 -2.0499 3.9773 12.6563
# 3 33.5763 24.8920 122.8751 22.5448 -13.4875 9.2702
# 4 15.0047 -2.0499 22.5448 36.9070 6.4876 10.9895
# 5 -4.3451 3.9773 -13.4875 6.4876 60.3505 18.6700
# 6 31.6274 12.6563 9.2702 10.9895 18.6700 28.5842
#
#
#
# Elastic Compliance Matrix: (Units=1/GPa)
#
#
# Indices 1 2 3 4 5 6 
#
# 1 0.009973 0.000589 -0.001292 0.000106 0.004708 -0.013993
# 2 0.000589 0.019174 -0.004432 0.006587 0.000309 -0.010439
# 3 -0.001292 -0.004432 0.011037 -0.007165 0.003311 0.000405
# 4 0.000106 0.006587 -0.007165 0.036107 -0.001749 -0.013450
# 5 0.004708 0.000309 0.003311 -0.001749 0.024556 -0.021787
# 6 -0.013993 -0.010439 0.000405 -0.013450 -0.021787 0.074358
#
#
# Mechanical properties :
#
#
# Convention : Reuss Voigt Hill
#
# Bulk Modulus (GPa) = 33.42871 53.92625 43.67748
# Shear Modulus (GPa) = 25.58238 42.77279 34.17759
#
# Velocity S-wave (km/s) = 3.28764 4.25107 3.80001
# Velocity P-wave (km/s) = 5.34183 6.84685 6.14063
#
# Compressibility (1/GPa) = 0.02991440
#
# Stress axis : x y z
#
# Youngs Moduli (GPa) = 100.26916 52.15334 90.60646
#
# Poissons Ratio (x) = -0.03072 0.11702
# Poissons Ratio (y) = -0.05906 0.40160
# Poissons Ratio (z) = 0.12950 0.23116
#
# Static dielectric constant tensor:
#      x y z
#    x 1.952820 0.033020 -0.141440 
#    y 0.033020 1.965660 -0.032580 
#    z -0.141440 -0.032580 1.870400 
# 
# From -- ./inp_files/126253.got.cif
#   From: 2010.05.17/outbox.cif.g08.bks.cpg/sg2_64_cif.got.tgz:126253.got - 2010.06.03 11:33:40.
