data_PCOD9077592
_publ_section_title
;
Structure prediction by ZEFSAII (Michael W. Deem and Ramdas Pophale) SiO2 
 PCOD9077592
Probable space group: P -1
;
_chemical_formula_sum "Si O2"
_cell_formula_units_Z 16
_cell_length_a 8.158431
_cell_length_b 11.372492
_cell_length_c 8.375561
_cell_angle_alpha 106.877726
_cell_angle_beta 111.364272
_cell_angle_gamma 94.267517
_cell_volume 678.224456
_symmetry_space_group_name_H-M "P -1"
_symmetry_group_IT_number 2
_symmetry_cell_setting 'triclinic'
loop_
_space_group_symop_operation_xyz
x,y,z
-x,-y,-z
loop_
_atom_site_type_symbol
_atom_site_label
_atom_site_fract_x
_atom_site_fract_y
_atom_site_fract_z
Si Si1 0.571816 0.192160 0.753314
Si Si2 0.038541 0.915521 0.632534
Si Si3 0.716062 0.184711 0.114612
Si Si4 0.838511 0.648214 0.070463
Si Si5 0.785377 0.443549 0.417689
Si Si6 0.730685 0.694553 0.378604
Si Si7 0.099611 0.891469 0.154978
Si Si8 0.207349 0.570661 0.231415
O O1 0.394307 0.204778 0.603606
O O2 0.706539 0.110247 0.696060
O O3 0.692800 0.332827 0.826618
O O4 0.548606 0.156731 0.919492
O O5 0.930887 0.774245 0.506759
O O6 0.237149 0.898529 0.752906
O O7 0.951279 0.978053 0.773633
O O8 0.000000 0.000000 0.500000
O O9 0.735334 0.327125 0.234522
O O10 0.863760 0.161870 0.026602
O O11 0.705225 0.651450 0.168447
O O12 0.937269 0.788616 0.125178
O O13 0.997440 0.579479 0.159998
O O14 0.766312 0.567243 0.859713
O O15 0.697740 0.565055 0.409143
O O16 0.731552 0.392854 0.554980
O O17 0.000000 0.500000 0.500000
#
# Coordination Sequence:
#
# PCOD9077592 Si02
#       8
#     2   2   2   2   2   2   2   2
#     4   9  24  42  59  92 131 169 193 253 331 367
#     4  12  23  40  69  95 116 162 222 261 291 364
#     4  10  22  40  65  91 123 163 204 257 309 369
#     4  10  18  34  61  86 120 163 211 242 299 370
#     4  12  21  35  64  99 123 155 212 266 300 359
#     4  12  24  39  64  96 126 164 207 255 316 372
#     4   9  21  41  62  87 120 166 209 249 303 362
#     4  10  20  35  59  91 127 164 199 257 308 367
#
# _framework density 23.591011000000002
#
# number of rings (size 3 to 8) (size 9 to 14) (size 15 to 20)
#    0.750    0.750    3.750    1.875    1.750    3.000 
#    0.000    0.625    0.000    0.000    0.000    0.000 
#    0.000    0.000    0.000    0.000    0.000    0.000 
#
# Total GULP energy -89107.040270 kJ/mol
# GULP energy per Si atom -5569.190017 kJ/mol
# Density = 2.353732 g / cm^3
# Si number density = 23.591011 Si / 1000 Ang^3
#
#
#
# Elastic Constant Matrix: (Units=GPa)
#
#
# Indices 1 2 3 4 5 6 
#
# 1 28.2604 16.6978 6.3486 -2.2628 4.7599 -5.0466
# 2 16.6978 100.4553 37.0203 -8.9888 1.9093 -24.0189
# 3 6.3486 37.0203 74.8699 1.1787 -21.7767 -1.6506
# 4 -2.2628 -8.9888 1.1787 44.9156 -12.7289 -1.9891
# 5 4.7599 1.9093 -21.7767 -12.7289 26.7270 -3.3512
# 6 -5.0466 -24.0189 -1.6506 -1.9891 -3.3512 24.2998
#
#
#
# Elastic Compliance Matrix: (Units=1/GPa)
#
#
# Indices 1 2 3 4 5 6 
#
# 1 0.041239 -0.004772 -0.004314 -0.001846 -0.011164 0.001864
# 2 -0.004772 0.018741 -0.010057 0.003030 -0.005186 0.016383
# 3 -0.004314 -0.010057 0.025168 0.003338 0.022869 -0.005700
# 4 -0.001846 0.003030 0.003338 0.027847 0.017030 0.007467
# 5 -0.011164 -0.005186 0.022869 0.017030 0.067114 0.004759
# 6 0.001864 0.016383 -0.005700 0.007467 0.004759 0.058614
#
#
# Mechanical properties :
#
#
# Convention : Reuss Voigt Hill
#
# Bulk Modulus (GPa) = 21.33921 35.96878 28.65400
# Shear Modulus (GPa) = 17.08634 28.75639 22.92136
#
# Velocity S-wave (km/s) = 2.69415 3.49514 3.12045
# Velocity P-wave (km/s) = 4.32933 5.61854 5.01553
#
# Compressibility (1/GPa) = 0.04686209
#
# Stress axis : x y z
#
# Youngs Moduli (GPa) = 24.24861 53.35881 39.73234
#
# Poissons Ratio (x) = 0.25465 0.17141
# Poissons Ratio (y) = 0.11572 0.39959
# Poissons Ratio (z) = 0.10461 0.53663
#
# Static dielectric constant tensor:
#      x y z
#    x 1.965910 -0.056760 0.074420 
#    y -0.056760 1.892880 -0.084820 
#    z 0.074420 -0.084820 1.966530 
# 
# From -- ./inp_files/181874.got.cif
#   From: 2010.05.17/outbox.cif.g08.bks.cpg/sg2_91_cif.got.tgz:181874.got - 2010.06.03 11:33:40.
