data_PCOD9077515
_publ_section_title
;
Structure prediction by ZEFSAII (Michael W. Deem and Ramdas Pophale) SiO2 
 PCOD9077515
Probable space group: P -1
;
_chemical_formula_sum "Si O2"
_cell_formula_units_Z 16
_cell_length_a 7.587184
_cell_length_b 10.598232
_cell_length_c 9.781566
_cell_angle_alpha 67.800338
_cell_angle_beta 61.885836
_cell_angle_gamma 99.452810
_cell_volume 583.170699
_symmetry_space_group_name_H-M "P -1"
_symmetry_group_IT_number 2
_symmetry_cell_setting 'triclinic'
loop_
_space_group_symop_operation_xyz
x,y,z
-x,-y,-z
loop_
_atom_site_type_symbol
_atom_site_label
_atom_site_fract_x
_atom_site_fract_y
_atom_site_fract_z
Si Si1 0.293366 0.760276 0.612495
Si Si2 0.302399 0.691492 0.054869
Si Si3 0.252886 0.096426 0.160951
Si Si4 0.796954 0.638622 0.262312
Si Si5 0.251314 0.588257 0.416835
Si Si6 0.741657 0.932094 0.130379
Si Si7 0.752337 0.953262 0.420801
Si Si8 0.823336 0.597714 0.967078
O O1 0.263167 0.693620 0.498200
O O2 0.532960 0.799429 0.575066
O O3 0.087010 0.659843 0.823537
O O4 0.267747 0.915738 0.540287
O O5 0.351288 0.662236 0.206393
O O6 0.278283 0.543256 0.039996
O O7 0.066685 0.703323 0.138310
O O8 0.514217 0.840984 0.870984
O O9 0.214401 0.250895 0.108712
O O10 0.313934 0.047073 0.012112
O O11 0.004081 0.970813 0.338373
O O12 0.706423 0.542694 0.470426
O O13 0.693320 0.758017 0.243505
O O14 0.746978 0.556919 0.167673
O O15 0.000000 0.500000 0.500000
O O16 0.714458 0.993087 0.261105
O O17 0.000000 0.000000 0.000000
#
# Coordination Sequence:
#
# PCOD9077515 Si02
#       8
#     2   2   2   2   2   2   2   2
#     4  10  18  34  60  87 117 157 209 247 302 359
#     4  11  20  35  60  92 126 158 196 253 319 364
#     4   9  19  34  58  87 120 160 201 251 305 363
#     4  10  21  36  62  91 123 159 206 255 303 373
#     4  10  20  35  58  93 126 153 195 258 315 360
#     4   9  18  38  59  84 119 161 212 249 296 364
#     4   9  19  34  58  83 115 162 208 246 289 365
#     4  10  19  35  59  90 121 158 204 248 305 369
#
# _framework density 27.436222000000001
#
# number of rings (size 3 to 8) (size 9 to 14) (size 15 to 20)
#    0.000    2.250    2.500    2.250    0.000    0.000 
#    0.000    8.125    2.750   12.750    0.000    0.000 
#    0.000    0.000    0.000    0.000    0.000    0.000 
#
# Total GULP energy -89326.225883 kJ/mol
# GULP energy per Si atom -5582.889118 kJ/mol
# Density = 2.737378 g / cm^3
# Si number density = 27.436222 Si / 1000 Ang^3
#
#
#
# Elastic Constant Matrix: (Units=GPa)
#
#
# Indices 1 2 3 4 5 6 
#
# 1 112.5847 28.6566 51.1589 10.0875 -13.3102 17.5544
# 2 28.6566 116.5066 30.9938 13.6030 2.0816 29.9571
# 3 51.1589 30.9938 156.0087 5.9960 -16.6004 29.2245
# 4 10.0875 13.6030 5.9960 41.8314 16.2450 -8.9100
# 5 -13.3102 2.0816 -16.6004 16.2450 60.9262 -1.3179
# 6 17.5544 29.9571 29.2245 -8.9100 -1.3179 49.6061
#
#
#
# Elastic Compliance Matrix: (Units=1/GPa)
#
#
# Indices 1 2 3 4 5 6 
#
# 1 0.011373 -0.001123 -0.002641 -0.003548 0.002698 -0.002356
# 2 -0.001123 0.011379 -0.000293 -0.005114 0.000494 -0.007207
# 3 -0.002641 -0.000293 0.008448 -0.002246 0.002242 -0.004209
# 4 -0.003548 -0.005114 -0.002246 0.032946 -0.009752 0.011326
# 5 0.002698 0.000494 0.002242 -0.009752 0.020115 -0.003791
# 6 -0.002356 -0.007207 -0.004209 0.011326 -0.003791 0.029758
#
#
# Mechanical properties :
#
#
# Convention : Reuss Voigt Hill
#
# Bulk Modulus (GPa) = 43.31943 67.41316 55.36629
# Shear Modulus (GPa) = 38.51271 48.75879 43.63575
#
# Velocity S-wave (km/s) = 3.75069 4.22022 3.99236
# Velocity P-wave (km/s) = 5.88050 6.95494 6.44017
#
# Compressibility (1/GPa) = 0.02308433
#
# Stress axis : x y z
#
# Youngs Moduli (GPa) = 87.93117 87.88249 118.37558
#
# Poissons Ratio (x) = 0.09866 0.31268
# Poissons Ratio (y) = 0.09872 0.03471
# Poissons Ratio (z) = 0.23227 0.02577
#
# Static dielectric constant tensor:
#      x y z
#    x 2.197510 0.018500 0.015090 
#    y 0.018500 2.231140 -0.071170 
#    z 0.015090 -0.071170 2.351330 
# 
# From -- ./inp_files/497919.got.cif
#   From: 2010.05.17/outbox.cif.g08.bks.cpg/sg2_249_cif.got.tgz:497919.got - 2010.06.03 11:33:40.
