data_PCOD9077899
_publ_section_title
;
Structure prediction by ZEFSAII (Michael W. Deem and Ramdas Pophale) SiO2 
 PCOD9077899
Probable space group: P -1
;
_chemical_formula_sum "Si O2"
_cell_formula_units_Z 16
_cell_length_a 20.677898
_cell_length_b 8.154694
_cell_length_c 9.907316
_cell_angle_alpha 49.890908
_cell_angle_beta 41.407432
_cell_angle_gamma 31.004651
_cell_volume 569.160460
_symmetry_space_group_name_H-M "P -1"
_symmetry_group_IT_number 2
_symmetry_cell_setting 'triclinic'
loop_
_space_group_symop_operation_xyz
x,y,z
-x,-y,-z
loop_
_atom_site_type_symbol
_atom_site_label
_atom_site_fract_x
_atom_site_fract_y
_atom_site_fract_z
Si Si1 0.191855 0.523305 0.845862
Si Si2 0.456959 0.308707 0.061585
Si Si3 0.821288 0.405902 0.742013
Si Si4 0.229167 0.111208 0.293054
Si Si5 0.367008 0.896989 0.746693
Si Si6 0.086389 0.182676 0.944937
Si Si7 0.205756 0.715264 0.430205
Si Si8 0.620044 0.429704 0.434547
O O1 0.177009 0.664935 0.647632
O O2 0.267264 0.577736 0.794123
O O3 0.032605 0.697012 0.042788
O O4 0.291351 0.167116 0.831163
O O5 0.355872 0.301437 0.145985
O O6 0.376404 0.442981 0.261804
O O7 0.412634 0.603044 0.902972
O O8 0.627923 0.022249 0.932256
O O9 0.865149 0.541331 0.686176
O O10 0.860728 0.318624 0.568267
O O11 0.873102 0.098140 0.887037
O O12 0.164254 0.033162 0.338691
O O13 0.292095 0.878097 0.446858
O O14 0.509977 0.751194 0.528070
O O15 0.242181 0.041524 0.753481
O O16 0.000000 0.500000 0.000000
O O17 0.500000 0.500000 0.500000
#
# Coordination Sequence:
#
# PCOD9077899 Si02
#       8
#     2   2   2   2   2   2   2   2
#     4  10  20  37  61  86 116 155 205 246 295 354
#     4   8  17  33  52  85 119 154 193 237 298 353
#     4   9  19  33  57  84 114 156 196 237 304 342
#     4  10  18  35  55  85 125 153 197 248 295 358
#     4   9  18  37  59  84 116 156 195 243 294 358
#     4   9  19  39  65  82 119 158 198 245 296 363
#     4   9  20  32  55  88 117 150 202 239 296 350
#     4  10  22  36  56  87 123 154 196 251 300 349
#
# _framework density 28.111583
#
# number of rings (size 3 to 8) (size 9 to 14) (size 15 to 20)
#    0.750    2.000    0.000    1.125    1.750    0.500 
#    0.000    5.625    5.500    0.000    0.000    0.000 
#    0.000    0.000    0.000    0.000    0.000    0.000 
#
# Total GULP energy -89458.089183 kJ/mol
# GULP energy per Si atom -5591.130574 kJ/mol
# Density = 2.804760 g / cm^3
# Si number density = 28.111583 Si / 1000 Ang^3
#
#
#
# Elastic Constant Matrix: (Units=GPa)
#
#
# Indices 1 2 3 4 5 6 
#
# 1 176.2284 38.0921 32.3704 -6.5632 -17.7918 22.7730
# 2 38.0921 107.9143 38.3301 5.1047 -7.3011 28.7776
# 3 32.3704 38.3301 72.4007 8.8952 -3.1090 -6.8164
# 4 -6.5632 5.1047 8.8952 44.7045 -2.9000 -14.0168
# 5 -17.7918 -7.3011 -3.1090 -2.9000 35.0684 2.1928
# 6 22.7730 28.7776 -6.8164 -14.0168 2.1928 33.3300
#
#
#
# Elastic Compliance Matrix: (Units=1/GPa)
#
#
# Indices 1 2 3 4 5 6 
#
# 1 0.007646 0.001261 -0.004596 -0.000225 0.004192 -0.007623
# 2 0.001261 0.020439 -0.012617 -0.006959 0.004722 -0.024326
# 3 -0.004596 -0.012617 0.024018 0.002020 -0.003916 0.020053
# 4 -0.000225 -0.006959 0.002020 0.028546 -0.000186 0.018593
# 5 0.004192 0.004722 -0.003916 -0.000186 0.031883 -0.009918
# 6 -0.007623 -0.024326 0.020053 0.018593 -0.009918 0.068788
#
#
# Mechanical properties :
#
#
# Convention : Reuss Voigt Hill
#
# Bulk Modulus (GPa) = 49.50818 63.79209 56.65014
# Shear Modulus (GPa) = 22.73168 39.13729 30.93448
#
# Velocity S-wave (km/s) = 2.84672 3.73528 3.32085
# Velocity P-wave (km/s) = 5.33428 6.43000 5.90760
#
# Compressibility (1/GPa) = 0.02019868
#
# Stress axis : x y z
#
# Youngs Moduli (GPa) = 130.78477 48.92693 41.63551
#
# Poissons Ratio (x) = -0.06168 0.19136
# Poissons Ratio (y) = -0.16488 0.52530
# Poissons Ratio (z) = 0.60109 0.61729
#
# Static dielectric constant tensor:
#      x y z
#    x 2.309900 -0.032860 -0.003110 
#    y -0.032860 2.171230 0.036970 
#    z -0.003110 0.036970 2.190500 
# 
# From -- ./inp_files/474125.got.cif
#   From: 2010.05.17/outbox.cif.g08.bks.cpg/sg2_238_cif.got.tgz:474125.got - 2010.06.03 11:33:40.
