data_PCOD9077663
_publ_section_title
;
Structure prediction by ZEFSAII (Michael W. Deem and Ramdas Pophale) SiO2 
 PCOD9077663
Probable space group: P -1
;
_chemical_formula_sum "Si O2"
_cell_formula_units_Z 16
_cell_length_a 9.209350
_cell_length_b 20.192689
_cell_length_c 9.210753
_cell_angle_alpha 27.930021
_cell_angle_beta 91.939844
_cell_angle_gamma 94.176404
_cell_volume 798.447633
_symmetry_space_group_name_H-M "P -1"
_symmetry_group_IT_number 2
_symmetry_cell_setting 'triclinic'
loop_
_space_group_symop_operation_xyz
x,y,z
-x,-y,-z
loop_
_atom_site_type_symbol
_atom_site_label
_atom_site_fract_x
_atom_site_fract_y
_atom_site_fract_z
Si Si1 0.667251 0.509640 0.233367
Si Si2 0.032578 0.538566 0.588597
Si Si3 0.044116 0.161938 0.999995
Si Si4 0.273982 0.956405 0.842934
Si Si5 0.913124 0.616015 0.853038
Si Si6 0.466029 0.241545 0.761638
Si Si7 0.190809 0.120244 0.806335
Si Si8 0.306327 0.201875 0.140848
O O1 0.794843 0.418583 0.474683
O O2 0.521413 0.407308 0.424164
O O3 0.742961 0.560778 0.984706
O O4 0.668883 0.646893 0.069903
O O5 0.000000 0.500000 0.500000
O O6 0.014646 0.396894 0.960517
O O7 0.946497 0.671463 0.372255
O O8 0.143111 0.165544 0.139838
O O9 0.874583 0.112342 0.103820
O O10 0.107981 0.071738 0.046411
O O11 0.228355 0.012969 0.889904
O O12 0.332966 0.084739 0.489468
O O13 0.398334 0.851621 0.072949
O O14 0.908877 0.767961 0.489013
O O15 0.000000 0.500000 0.000000
O O16 0.341219 0.196094 0.728818
O O17 0.404151 0.210896 0.981450
#
# Coordination Sequence:
#
# PCOD9077663 Si02
#       8
#     2   2   2   2   2   2   2   2
#     4  10  20  39  62  88 117 159 195 247 303 352
#     4  10  18  34  62  87 120 147 191 244 312 340
#     4  11  21  38  64  89 117 159 197 249 303 358
#     4  12  22  43  61  87 122 164 203 246 295 356
#     4  10  19  36  62  90 121 150 194 254 303 342
#     4  11  25  40  63  84 123 168 201 240 300 358
#     4  11  23  40  61  89 124 159 202 245 296 359
#     4  11  23  40  62  90 120 154 205 255 297 350
#
# _framework density 20.038886000000002
#
# number of rings (size 3 to 8) (size 9 to 14) (size 15 to 20)
#    0.750    0.500    5.000    1.875    0.000    0.500 
#    0.000    0.000    0.000    0.000    0.000    0.000 
#    0.000    0.000    0.000    0.000    0.000    0.000 
#
# Total GULP energy -89100.568118 kJ/mol
# GULP energy per Si atom -5568.785507 kJ/mol
# Density = 1.999328 g / cm^3
# Si number density = 20.038886 Si / 1000 Ang^3
#
#
#
# Elastic Constant Matrix: (Units=GPa)
#
#
# Indices 1 2 3 4 5 6 
#
# 1 55.6464 29.1830 1.3185 -11.4265 3.0071 2.7525
# 2 29.1830 90.0352 25.9275 -13.2745 8.2246 -9.9618
# 3 1.3185 25.9275 55.4193 -3.4400 14.4599 1.9550
# 4 -11.4265 -13.2745 -3.4400 24.2897 0.1165 6.6390
# 5 3.0071 8.2246 14.4599 0.1165 27.8268 -4.2084
# 6 2.7525 -9.9618 1.9550 6.6390 -4.2084 32.0130
#
#
#
# Elastic Compliance Matrix: (Units=1/GPa)
#
#
# Indices 1 2 3 4 5 6 
#
# 1 0.025071 -0.008714 0.005471 0.009964 -0.004201 -0.007820
# 2 -0.008714 0.017251 -0.008203 0.002455 0.001040 0.006246
# 3 0.005471 -0.008203 0.025482 0.003667 -0.012479 -0.006980
# 4 0.009964 0.002455 0.003667 0.050922 -0.005679 -0.011624
# 5 -0.004201 0.001040 -0.012479 -0.005679 0.043861 0.008390
# 6 -0.007820 0.006246 -0.006980 -0.011624 0.008390 0.037793
#
#
# Mechanical properties :
#
#
# Convention : Reuss Voigt Hill
#
# Bulk Modulus (GPa) = 22.26600 34.88433 28.57517
# Shear Modulus (GPa) = 20.98701 26.47070 23.72886
#
# Velocity S-wave (km/s) = 3.23973 3.63845 3.44487
# Velocity P-wave (km/s) = 5.01299 5.92429 5.48759
#
# Compressibility (1/GPa) = 0.04491152
#
# Stress axis : x y z
#
# Youngs Moduli (GPa) = 39.88712 57.96612 39.24404
#
# Poissons Ratio (x) = 0.50512 -0.21469
# Poissons Ratio (y) = 0.34758 0.32191
# Poissons Ratio (z) = -0.21821 0.47549
#
# Static dielectric constant tensor:
#      x y z
#    x 1.751840 -0.025360 -0.032750 
#    y -0.025360 1.734680 0.011490 
#    z -0.032750 0.011490 1.729100 
# 
# From -- ./inp_files/216332.got.cif
#   From: 2010.05.17/outbox.cif.g08.bks.cpg/sg2_109_cif.got.tgz:216332.got - 2010.06.03 11:33:40.
