data_PCOD9077540
_publ_section_title
;
Structure prediction by ZEFSAII (Michael W. Deem and Ramdas Pophale) SiO2 
 PCOD9077540
Probable space group: P -1
;
_chemical_formula_sum "Si O2"
_cell_formula_units_Z 16
_cell_length_a 18.051275
_cell_length_b 11.522231
_cell_length_c 18.101098
_cell_angle_alpha 150.504368
_cell_angle_beta 30.436335
_cell_angle_gamma 151.937529
_cell_volume 796.770827
_symmetry_space_group_name_H-M "P -1"
_symmetry_group_IT_number 2
_symmetry_cell_setting 'triclinic'
loop_
_space_group_symop_operation_xyz
x,y,z
-x,-y,-z
loop_
_atom_site_type_symbol
_atom_site_label
_atom_site_fract_x
_atom_site_fract_y
_atom_site_fract_z
Si Si1 0.117395 0.384254 0.031941
Si Si2 0.503621 0.407926 0.232021
Si Si3 0.877971 0.216199 0.524636
Si Si4 0.909601 0.671275 0.383392
Si Si5 0.754785 0.575516 0.622321
Si Si6 0.642400 0.713124 0.552722
Si Si7 0.318418 0.962547 0.559181
Si Si8 0.026148 0.207980 0.178978
O O1 0.114311 0.312475 0.081718
O O2 0.037983 0.574373 0.197799
O O3 0.310941 0.536196 0.918343
O O4 0.986544 0.073208 0.938959
O O5 0.358160 0.291988 0.228786
O O6 0.434963 0.260368 0.288185
O O7 0.537657 0.717713 0.386294
O O8 0.782658 0.092636 0.461379
O O9 0.900197 0.516155 0.682563
O O10 0.067707 0.259481 0.391970
O O11 0.760492 0.007864 0.574763
O O12 0.827566 0.549848 0.466315
O O13 0.764357 0.598973 0.407782
O O14 0.000000 0.000000 0.500000
O O15 0.641107 0.275592 0.593364
O O16 0.500000 0.500000 0.500000
O O17 0.178629 0.909965 0.712847
#
# Coordination Sequence:
#
# PCOD9077540 Si02
#       8
#     2   2   2   2   2   2   2   2
#     4  10  19  37  59  91 120 152 191 248 301 345
#     4  10  22  34  59  92 121 150 197 250 293 338
#     4  11  19  36  63  85 122 157 202 237 288 355
#     4  11  20  38  65  84 112 156 204 237 283 361
#     4  10  19  34  58  93 112 149 205 241 285 345
#     4  11  22  39  59  88 118 158 199 240 291 353
#     4  10  18  34  60  90 117 156 198 245 284 351
#     4   9  18  33  58  86 120 151 190 239 300 342
#
# _framework density 20.081056
#
# number of rings (size 3 to 8) (size 9 to 14) (size 15 to 20)
#    0.000    1.750    5.000    1.875    0.000    0.000 
#    0.000    6.250    0.000    6.750    0.000    0.000 
#    0.000    0.000    0.000    0.000    0.000    0.000 
#
# Total GULP energy -89163.620510 kJ/mol
# GULP energy per Si atom -5572.726282 kJ/mol
# Density = 2.003535 g / cm^3
# Si number density = 20.081056 Si / 1000 Ang^3
#
#
#
# Elastic Constant Matrix: (Units=GPa)
#
#
# Indices 1 2 3 4 5 6 
#
# 1 117.4459 26.0815 32.1839 -9.0325 -16.4791 4.5061
# 2 26.0815 92.5314 35.0232 -7.8431 -10.1031 -12.8364
# 3 32.1839 35.0232 89.6056 -15.0052 -24.4254 0.0210
# 4 -9.0325 -7.8431 -15.0052 33.8209 -4.1949 7.6112
# 5 -16.4791 -10.1031 -24.4254 -4.1949 22.7946 -2.0921
# 6 4.5061 -12.8364 0.0210 7.6112 -2.0921 39.9635
#
#
#
# Elastic Compliance Matrix: (Units=1/GPa)
#
#
# Indices 1 2 3 4 5 6 
#
# 1 0.010355 -0.001989 -0.000687 0.003249 0.006274 -0.002097
# 2 -0.001989 0.013783 -0.004807 -0.000555 -0.000145 0.004752
# 3 -0.000687 -0.004807 0.021164 0.011371 0.021915 -0.002496
# 4 0.003249 -0.000555 0.011371 0.039518 0.020920 -0.006982
# 5 0.006274 -0.000145 0.021915 0.020920 0.075601 -0.000792
# 6 -0.002097 0.004752 -0.002496 -0.006982 -0.000792 0.028075
#
#
# Mechanical properties :
#
#
# Convention : Reuss Voigt Hill
#
# Bulk Modulus (GPa) = 32.96284 54.01778 43.49031
# Shear Modulus (GPa) = 23.41106 33.06877 28.23991
#
# Velocity S-wave (km/s) = 3.41813 4.06244 3.75413
# Velocity P-wave (km/s) = 5.65939 6.99734 6.36362
#
# Compressibility (1/GPa) = 0.03033719
#
# Stress axis : x y z
#
# Youngs Moduli (GPa) = 96.56974 72.55067 47.25015
#
# Poissons Ratio (x) = 0.14431 0.03246
# Poissons Ratio (y) = 0.19209 0.22711
# Poissons Ratio (z) = 0.06634 0.34872
#
# Static dielectric constant tensor:
#      x y z
#    x 1.749760 -0.006190 -0.016840 
#    y -0.006190 1.782090 0.038320 
#    z -0.016840 0.038320 1.765100 
# 
# From -- ./inp_files/378410.got.cif
#   From: 2010.05.17/outbox.cif.g08.bks.cpg/sg2_190_cif.got.tgz:378410.got - 2010.06.03 11:33:40.
