data_PCOD9077408
_publ_section_title
;
Structure prediction by ZEFSAII (Michael W. Deem and Ramdas Pophale) SiO2 
 PCOD9077408
Probable space group: P -1
;
_chemical_formula_sum "Si O2"
_cell_formula_units_Z 16
_cell_length_a 12.698079
_cell_length_b 8.200881
_cell_length_c 22.703388
_cell_angle_alpha 140.127578
_cell_angle_beta 27.943879
_cell_angle_gamma 121.108747
_cell_volume 599.144703
_symmetry_space_group_name_H-M "P -1"
_symmetry_group_IT_number 2
_symmetry_cell_setting 'triclinic'
loop_
_space_group_symop_operation_xyz
x,y,z
-x,-y,-z
loop_
_atom_site_type_symbol
_atom_site_label
_atom_site_fract_x
_atom_site_fract_y
_atom_site_fract_z
Si Si1 0.129212 0.554063 0.038805
Si Si2 0.985617 0.072701 0.630749
Si Si3 0.917657 0.641026 0.849005
Si Si4 0.239820 0.309015 0.193679
Si Si5 0.345473 0.844653 0.282094
Si Si6 0.483586 0.709529 0.513926
Si Si7 0.070641 0.796324 0.018106
Si Si8 0.832638 0.218204 0.422206
O O1 0.349434 0.278893 0.893525
O O2 0.934657 0.442582 0.087646
O O3 0.246251 0.604399 0.934402
O O4 0.007112 0.870914 0.218295
O O5 0.812049 0.411265 0.836443
O O6 0.777063 0.023506 0.684380
O O7 0.176886 0.057190 0.478812
O O8 0.169788 0.825124 0.518984
O O9 0.210698 0.387236 0.660654
O O10 0.866765 0.716375 0.824434
O O11 0.875102 0.968397 0.975844
O O12 0.315542 0.558258 0.225100
O O13 0.000143 0.369978 0.370919
O O14 0.500000 0.000000 0.000000
O O15 0.500000 0.500000 0.500000
O O16 0.406805 0.654016 0.471466
O O17 0.226186 0.019871 0.752334
#
# Coordination Sequence:
#
# PCOD9077408 Si02
#       8
#     2   2   2   2   2   2   2   2
#     4  10  18  34  59  87 111 149 203 235 288 340
#     4  10  24  37  56  87 121 150 197 244 289 344
#     4  10  18  36  56  86 115 160 188 228 298 350
#     4  11  19  36  63  84 114 154 202 233 291 353
#     4  10  21  40  58  81 115 163 190 237 295 355
#     4   9  16  32  58  85 111 150 191 234 287 345
#     4   9  17  30  58  88 106 149 201 236 273 359
#     4  11  21  37  58  93 115 149 199 247 285 337
#
# _framework density 26.704734999999999
#
# number of rings (size 3 to 8) (size 9 to 14) (size 15 to 20)
#    0.000    2.000    5.000    0.750    0.000    1.500 
#    0.000    0.625    0.000    0.000    0.000    0.875 
#    0.000    0.000    0.000    0.000    0.000    0.000 
#
# Total GULP energy -89164.371177 kJ/mol
# GULP energy per Si atom -5572.773199 kJ/mol
# Density = 2.664395 g / cm^3
# Si number density = 26.704735 Si / 1000 Ang^3
#
#
#
# Elastic Constant Matrix: (Units=GPa)
#
#
# Indices 1 2 3 4 5 6 
#
# 1 167.0816 41.3172 41.1987 5.0338 -33.1306 -21.0361
# 2 41.3172 97.4934 7.5754 36.3468 5.7439 8.8020
# 3 41.1987 7.5754 77.1985 16.4355 -9.7437 7.5153
# 4 5.0338 36.3468 16.4355 34.6409 1.8723 0.0361
# 5 -33.1306 5.7439 -9.7437 1.8723 39.6382 13.1803
# 6 -21.0361 8.8020 7.5153 0.0361 13.1803 39.5745
#
#
#
# Elastic Compliance Matrix: (Units=1/GPa)
#
#
# Indices 1 2 3 4 5 6 
#
# 1 0.012793 -0.010860 -0.008576 0.013235 0.006670 0.008611
# 2 -0.010860 0.027246 0.010426 -0.031677 -0.004929 -0.012142
# 3 -0.008576 0.010426 0.022152 -0.020277 0.001579 -0.011591
# 4 0.013235 -0.031677 -0.020277 0.069696 0.001614 0.017330
# 5 0.006670 -0.004929 0.001579 0.001614 0.034170 -0.007040
# 6 0.008611 -0.012142 -0.011591 0.017330 -0.007040 0.037077
#
#
# Mechanical properties :
#
#
# Convention : Reuss Voigt Hill
#
# Bulk Modulus (GPa) = 22.63930 57.99513 40.31721
# Shear Modulus (GPa) = 21.19747 39.54952 30.37349
#
# Velocity S-wave (km/s) = 2.82045 3.85254 3.37617
# Velocity P-wave (km/s) = 4.37066 6.44622 5.50710
#
# Compressibility (1/GPa) = 0.04417098
#
# Stress axis : x y z
#
# Youngs Moduli (GPa) = 78.16596 36.70320 45.14313
#
# Poissons Ratio (x) = 0.39860 0.38714
# Poissons Ratio (y) = 0.84888 -0.47067
# Poissons Ratio (z) = 0.67034 -0.38267
#
# Static dielectric constant tensor:
#      x y z
#    x 2.253350 -0.186080 -0.030290 
#    y -0.186080 2.555690 -0.248790 
#    z -0.030290 -0.248790 2.383460 
# 
# From -- ./inp_files/609918.got.cif
#   From: 2010.05.17/outbox.cif.g08.bks.cpg/sg2_305_cif.got.tgz:609918.got - 2010.06.03 11:33:40.
