data_PCOD9077225
_publ_section_title
;
Structure prediction by ZEFSAII (Michael W. Deem and Ramdas Pophale) SiO2 
 PCOD9077225
Probable space group: P -1
;
_chemical_formula_sum "Si O2"
_cell_formula_units_Z 16
_cell_length_a 6.830897
_cell_length_b 16.145484
_cell_length_c 10.409666
_cell_angle_alpha 52.570300
_cell_angle_beta 47.349747
_cell_angle_gamma 80.558264
_cell_volume 607.228608
_symmetry_space_group_name_H-M "P -1"
_symmetry_group_IT_number 2
_symmetry_cell_setting 'triclinic'
loop_
_space_group_symop_operation_xyz
x,y,z
-x,-y,-z
loop_
_atom_site_type_symbol
_atom_site_label
_atom_site_fract_x
_atom_site_fract_y
_atom_site_fract_z
Si Si1 0.092110 0.279754 0.805627
Si Si2 0.690271 0.575431 0.680644
Si Si3 0.292308 0.906881 0.016177
Si Si4 0.750066 0.162301 0.606336
Si Si5 0.762348 0.873870 0.692590
Si Si6 0.850476 0.574760 0.064947
Si Si7 0.309711 0.621246 0.479795
Si Si8 0.387406 0.714888 0.827604
O O1 0.943232 0.148727 0.941006
O O2 0.251948 0.348401 0.544107
O O3 0.259215 0.504358 0.683819
O O4 0.830429 0.316182 0.923038
O O5 0.439217 0.451096 0.866689
O O6 0.552341 0.635617 0.788139
O O7 0.010971 0.585986 0.564400
O O8 0.186696 0.866475 0.246438
O O9 0.528778 0.854489 0.927033
O O10 0.472607 0.044699 0.800144
O O11 0.695563 0.274956 0.530507
O O12 0.030803 0.189364 0.366700
O O13 0.595443 0.845141 0.655135
O O14 0.000000 0.000000 0.500000
O O15 0.657744 0.685411 0.227261
O O16 0.000000 0.500000 0.000000
O O17 0.135875 0.692022 0.856182
#
# Coordination Sequence:
#
# PCOD9077225 Si02
#       8
#     2   2   2   2   2   2   2   2
#     4  10  21  37  58  86 119 151 192 242 288 343
#     4  10  20  40  59  82 121 150 191 243 287 338
#     4   9  18  33  58  82 114 154 189 230 292 347
#     4  10  18  34  57  84 114 151 190 238 289 337
#     4   9  17  31  57  86 111 148 192 233 285 347
#     4   9  22  39  59  86 117 155 195 240 290 343
#     4  11  21  36  61  87 118 149 197 245 284 345
#     4  10  19  38  60  80 117 158 192 231 296 346
#
# _framework density 26.349219000000002
#
# number of rings (size 3 to 8) (size 9 to 14) (size 15 to 20)
#    0.000    2.250    2.500    0.000    0.000    4.500 
#    0.000   10.000    0.000    0.000    0.000   34.125 
#    0.000    0.000    0.000    0.000    0.000    0.000 
#
# Total GULP energy -89074.612350 kJ/mol
# GULP energy per Si atom -5567.163272 kJ/mol
# Density = 2.628925 g / cm^3
# Si number density = 26.349219 Si / 1000 Ang^3
#
#
#
# Elastic Constant Matrix: (Units=GPa)
#
#
# Indices 1 2 3 4 5 6 
#
# 1 122.9620 35.2082 47.9608 -21.5874 -42.8273 21.3059
# 2 35.2082 123.3656 28.2787 -13.6150 -19.9916 23.7987
# 3 47.9608 28.2787 77.6141 -4.1357 -39.3148 14.4971
# 4 -21.5874 -13.6150 -4.1357 51.3759 11.5546 -31.6127
# 5 -42.8273 -19.9916 -39.3148 11.5546 47.0741 -12.0931
# 6 21.3059 23.7987 14.4971 -31.6127 -12.0931 41.1765
#
#
#
# Elastic Compliance Matrix: (Units=1/GPa)
#
#
# Indices 1 2 3 4 5 6 
#
# 1 0.013119 -0.001319 -0.003587 0.003049 0.007581 -0.000196
# 2 -0.001319 0.009818 -0.001437 -0.001633 0.000752 -0.005519
# 3 -0.003587 -0.001437 0.025477 -0.008486 0.017520 -0.007653
# 4 0.003049 -0.001633 -0.008486 0.040527 -0.006876 0.031449
# 5 0.007581 0.000752 0.017520 -0.006876 0.044043 -0.002870
# 6 -0.000196 -0.005519 -0.007653 0.031449 -0.002870 0.053573
#
#
# Mechanical properties :
#
#
# Convention : Reuss Voigt Hill
#
# Bulk Modulus (GPa) = 27.99015 60.75968 44.37491
# Shear Modulus (GPa) = 23.67964 42.09156 32.88560
#
# Velocity S-wave (km/s) = 3.00106 4.00115 3.53663
# Velocity P-wave (km/s) = 4.75965 6.66746 5.79264
#
# Compressibility (1/GPa) = 0.03572686
#
# Stress axis : x y z
#
# Youngs Moduli (GPa) = 76.22557 101.85102 39.25183
#
# Poissons Ratio (x) = 0.13436 0.14080
# Poissons Ratio (y) = 0.10055 0.05641
# Poissons Ratio (z) = 0.27343 0.14638
#
# Static dielectric constant tensor:
#      x y z
#    x 2.130190 0.117280 -0.093630 
#    y 0.117280 2.455690 0.055920 
#    z -0.093630 0.055920 2.226460 
# 
# From -- ./inp_files/505404.got.cif
#   From: 2010.05.17/outbox.cif.g08.bks.cpg/sg2_253_cif.got.tgz:505404.got - 2010.06.03 11:33:40.
