data_PCOD9077802
_publ_section_title
;
Structure prediction by ZEFSAII (Michael W. Deem and Ramdas Pophale) SiO2 
 PCOD9077802
Probable space group: P -1
;
_chemical_formula_sum "Si O2"
_cell_formula_units_Z 14
_cell_length_a 16.420440
_cell_length_b 8.038764
_cell_length_c 14.245440
_cell_angle_alpha 122.269634
_cell_angle_beta 155.355226
_cell_angle_gamma 48.605657
_cell_volume 574.528100
_symmetry_space_group_name_H-M "P -1"
_symmetry_group_IT_number 2
_symmetry_cell_setting 'triclinic'
loop_
_space_group_symop_operation_xyz
x,y,z
-x,-y,-z
loop_
_atom_site_type_symbol
_atom_site_label
_atom_site_fract_x
_atom_site_fract_y
_atom_site_fract_z
Si Si1 0.094189 0.012967 0.892004
Si Si2 0.356409 0.600948 0.533021
Si Si3 0.260582 0.883998 0.763770
Si Si4 0.615655 0.774525 0.939244
Si Si5 0.288373 0.223997 0.302379
Si Si6 0.569254 0.607428 0.242031
Si Si7 0.946358 0.688438 0.722332
O O1 0.983290 0.899618 0.807122
O O2 0.312950 0.794626 0.014934
O O3 0.894718 0.186650 0.668972
O O4 0.185329 0.151154 0.088466
O O5 0.529632 0.694895 0.735367
O O6 0.361417 0.410740 0.412665
O O7 0.414117 0.474027 0.656071
O O8 0.405230 0.871782 0.819441
O O9 0.343763 0.622455 0.794270
O O10 0.000000 0.000000 0.500000
O O11 0.311135 0.037408 0.933411
O O12 0.829231 0.548789 0.136055
O O13 0.110096 0.320321 0.230282
O O14 0.500000 0.000000 0.500000
O O15 0.742355 0.702869 0.450598
#
# Coordination Sequence:
#
# PCOD9077802 Si02
#       7
#     2   2   2   2   2   2   2
#     4  12  22  41  63  89 126 163 206 250 300 365
#     4  10  22  40  62  89 128 162 196 257 304 357
#     4  10  18  34  68  91 113 164 204 242 308 365
#     4  10  20  37  61  93 122 154 206 250 300 367
#     4  11  21  41  65  86 124 165 206 249 301 357
#     4  10  21  41  62  89 127 159 203 252 305 359
#     4  11  20  38  64  88 123 163 200 253 302 353
#
# _framework density 24.367823999999999
#
# number of rings (size 3 to 8) (size 9 to 14) (size 15 to 20)
#    0.000    1.429    7.143    0.857    0.000    0.000 
#    5.143    2.143    0.000    4.286    0.000    0.000 
#    0.000    0.000    0.000    0.000    0.000    0.000 
#
# Total GULP energy -78302.616070 kJ/mol
# GULP energy per Si atom -5593.044005 kJ/mol
# Density = 2.431236 g / cm^3
# Si number density = 24.367824 Si / 1000 Ang^3
#
#
#
# Elastic Constant Matrix: (Units=GPa)
#
#
# Indices 1 2 3 4 5 6 
#
# 1 47.6997 12.2122 10.3536 3.3054 0.4171 1.3997
# 2 12.2122 169.6261 65.1102 40.0904 1.2040 -8.8291
# 3 10.3536 65.1102 139.4891 6.0658 17.2769 3.5704
# 4 3.3054 40.0904 6.0658 76.4416 0.2159 1.1472
# 5 0.4171 1.2040 17.2769 0.2159 29.3510 -4.4833
# 6 1.3997 -8.8291 3.5704 1.1472 -4.4833 15.9615
#
#
#
# Elastic Compliance Matrix: (Units=1/GPa)
#
#
# Indices 1 2 3 4 5 6 
#
# 1 0.021576 -0.001290 -0.000922 -0.000147 -0.000078 -0.002411
# 2 -0.001290 0.009209 -0.004641 -0.004529 0.003562 0.007571
# 3 -0.000922 -0.004641 0.010365 0.001774 -0.006963 -0.006888
# 4 -0.000147 -0.004529 0.001774 0.015394 -0.001651 -0.004460
# 5 -0.000078 0.003562 -0.006963 -0.001651 0.040324 0.014980
# 6 -0.002411 0.007571 -0.006888 -0.004460 0.014980 0.073119
#
#
# Mechanical properties :
#
#
# Convention : Reuss Voigt Hill
#
# Bulk Modulus (GPa) = 36.43523 59.12968 47.78245
# Shear Modulus (GPa) = 25.92809 42.29341 34.11075
#
# Velocity S-wave (km/s) = 3.26549 4.17060 3.74549
# Velocity P-wave (km/s) = 5.40394 6.89275 6.19325
#
# Compressibility (1/GPa) = 0.02744596
#
# Stress axis : x y z
#
# Youngs Moduli (GPa) = 46.34704 108.59221 96.47673
#
# Poissons Ratio (x) = 0.14006 0.08892
# Poissons Ratio (y) = 0.05978 0.44772
# Poissons Ratio (z) = 0.04272 0.50395
#
# Static dielectric constant tensor:
#      x y z
#    x 1.985710 -0.016620 -0.007050 
#    y -0.016620 1.987210 0.051300 
#    z -0.007050 0.051300 1.920490 
# 
# From -- ./inp_files/348555.got.cif
#   From: 2010.05.17/outbox.cif.g08.bks.cpg/sg2_175_cif.got.tgz:348555.got - 2010.06.03 11:33:40.
