data_PCOD9077848
_publ_section_title
;
Structure prediction by ZEFSAII (Michael W. Deem and Ramdas Pophale) SiO2 
 PCOD9077848
Probable space group: P -1
;
_chemical_formula_sum "Si O2"
_cell_formula_units_Z 14
_cell_length_a 11.247535
_cell_length_b 20.465559
_cell_length_c 8.168948
_cell_angle_alpha 141.712630
_cell_angle_beta 126.536397
_cell_angle_gamma 31.301174
_cell_volume 588.502476
_symmetry_space_group_name_H-M "P -1"
_symmetry_group_IT_number 2
_symmetry_cell_setting 'triclinic'
loop_
_space_group_symop_operation_xyz
x,y,z
-x,-y,-z
loop_
_atom_site_type_symbol
_atom_site_label
_atom_site_fract_x
_atom_site_fract_y
_atom_site_fract_z
Si Si1 0.399331 0.372862 0.142196
Si Si2 0.785233 0.434549 0.958005
Si Si3 0.078820 0.067878 0.854727
Si Si4 0.795118 0.895793 0.680411
Si Si5 0.261566 0.248058 0.911596
Si Si6 0.200048 0.786169 0.593333
Si Si7 0.618860 0.201077 0.668195
O O1 0.266949 0.519620 0.192071
O O2 0.586978 0.322261 0.315710
O O3 0.228225 0.390342 0.132854
O O4 0.540260 0.220876 0.827865
O O5 0.746951 0.331545 0.732409
O O6 0.051159 0.318851 0.987268
O O7 0.603084 0.619334 0.246130
O O8 0.156167 0.923601 0.745511
O O9 0.261529 0.961532 0.646367
O O10 0.819771 0.178641 0.806394
O O11 0.084942 0.166789 0.166545
O O12 0.763885 0.804427 0.380117
O O13 0.963041 0.877268 0.669650
O O14 0.529688 0.084279 0.864397
#
# Coordination Sequence:
#
# PCOD9077848 Si02
#       7
#     2   2   2   2   2   2   2
#     4  10  18  35  54  81 102 139 177 222 260 305
#     4   9  21  35  51  82 110 136 175 221 260 317
#     4  11  19  36  55  82 106 141 173 224 262 313
#     4  10  19  32  54  86 102 134 181 225 251 315
#     4  10  19  32  55  80 109 136 175 220 266 302
#     4  11  19  33  62  79 102 136 187 221 260 301
#     4   9  22  34  55  77 115 134 176 217 271 307
#
# _framework density 23.789196
#
# number of rings (size 3 to 8) (size 9 to 14) (size 15 to 20)
#    0.857    1.143    2.857    2.143    0.000    0.571 
#    0.000    1.429    0.000    0.000    0.000    0.000 
#    0.000    0.000    0.000    0.000    0.000    0.000 
#
# Total GULP energy -78112.975522 kJ/mol
# GULP energy per Si atom -5579.498252 kJ/mol
# Density = 2.373505 g / cm^3
# Si number density = 23.789196 Si / 1000 Ang^3
#
#
#
# Elastic Constant Matrix: (Units=GPa)
#
#
# Indices 1 2 3 4 5 6 
#
# 1 47.1047 18.6294 2.5196 -11.2572 13.0921 -8.3966
# 2 18.6294 87.1991 -12.7470 0.1069 8.9802 -11.6891
# 3 2.5196 -12.7470 32.0271 -9.3140 5.1708 -16.4561
# 4 -11.2572 0.1069 -9.3140 30.4936 -6.9510 1.2511
# 5 13.0921 8.9802 5.1708 -6.9510 29.1788 -0.1845
# 6 -8.3966 -11.6891 -16.4561 1.2511 -0.1845 28.7877
#
#
#
# Elastic Compliance Matrix: (Units=1/GPa)
#
#
# Indices 1 2 3 4 5 6 
#
# 1 0.029337 -0.002643 0.006976 0.009981 -0.011139 0.010966
# 2 -0.002643 0.017256 0.016759 0.001950 -0.006531 0.015689
# 3 0.006976 0.016759 0.069821 0.018228 -0.016016 0.047857
# 4 0.009981 0.001950 0.018228 0.041935 0.001759 0.012312
# 5 -0.011139 -0.006531 -0.016016 0.001759 0.044442 -0.014848
# 6 0.010966 0.015689 0.047857 0.012312 -0.014848 0.071033
#
#
# Mechanical properties :
#
#
# Convention : Reuss Voigt Hill
#
# Bulk Modulus (GPa) = 6.30528 20.34835 13.32681
# Shear Modulus (GPa) = 17.57419 28.22061 22.89740
#
# Velocity S-wave (km/s) = 2.72094 3.44798 3.10580
# Velocity P-wave (km/s) = 3.53943 4.94202 4.29832
#
# Compressibility (1/GPa) = 0.15859725
#
# Stress axis : x y z
#
# Youngs Moduli (GPa) = 34.08609 57.95150 14.32226
#
# Poissons Ratio (x) = 0.15317 -0.09991
# Poissons Ratio (y) = 0.09009 -0.24002
# Poissons Ratio (z) = -0.23777 -0.97119
#
# Static dielectric constant tensor:
#      x y z
#    x 1.908990 0.023190 -0.054340 
#    y 0.023190 1.921850 0.047850 
#    z -0.054340 0.047850 1.933040 
# 
# From -- ./inp_files/167731.got.cif
#   From: 2010.05.17/outbox.cif.g08.bks.cpg/sg2_84_cif.got.tgz:167731.got - 2010.06.03 11:33:40.
