data_PCOD9077746
_publ_section_title
;
Structure prediction by ZEFSAII (Michael W. Deem and Ramdas Pophale) SiO2 
 PCOD9077746
Probable space group: P -1
;
_chemical_formula_sum "Si O2"
_cell_formula_units_Z 16
_cell_length_a 7.433047
_cell_length_b 16.888656
_cell_length_c 9.164348
_cell_angle_alpha 75.458451
_cell_angle_beta 108.561574
_cell_angle_gamma 56.329929
_cell_volume 762.798171
_symmetry_space_group_name_H-M "P -1"
_symmetry_group_IT_number 2
_symmetry_cell_setting 'triclinic'
loop_
_space_group_symop_operation_xyz
x,y,z
-x,-y,-z
loop_
_atom_site_type_symbol
_atom_site_label
_atom_site_fract_x
_atom_site_fract_y
_atom_site_fract_z
Si Si1 0.896299 0.220887 0.351449
Si Si2 0.816105 0.986511 0.026413
Si Si3 0.105389 0.184547 0.097987
Si Si4 0.359746 0.980142 0.580641
Si Si5 0.755655 0.137869 0.565783
Si Si6 0.378113 0.644845 0.279129
Si Si7 0.575725 0.770382 0.276320
Si Si8 0.816887 0.380091 0.472577
O O1 0.958574 0.202490 0.203553
O O2 0.694934 0.219721 0.381860
O O3 0.836746 0.327802 0.347757
O O4 0.163232 0.103379 0.543818
O O5 0.542598 0.117667 0.898607
O O6 0.816859 0.912877 0.945704
O O7 0.000000 0.000000 0.000000
O O8 0.988195 0.916181 0.245544
O O9 0.392885 0.136575 0.224572
O O10 0.882965 0.300566 0.902851
O O11 0.197953 0.961784 0.457346
O O12 0.500000 0.000000 0.500000
O O13 0.522261 0.191932 0.597415
O O14 0.454012 0.716895 0.232910
O O15 0.620038 0.514830 0.361724
O O16 0.298511 0.650066 0.424059
O O17 0.888109 0.679920 0.385456
#
# Coordination Sequence:
#
# PCOD9077746 Si02
#       8
#     2   2   2   2   2   2   2   2
#     4  11  21  38  61  89 129 165 204 242 314 365
#     4  10  18  34  64  88 126 159 200 247 309 360
#     4  11  21  40  61  92 129 159 198 261 302 367
#     4  10  21  34  57  91 129 162 197 239 313 374
#     4  11  21  38  62  93 129 167 196 247 306 380
#     4  11  24  43  64  88 124 157 218 259 302 355
#     4  11  20  39  68  90 123 156 207 257 306 355
#     4  11  24  43  65  90 115 170 210 257 306 363
#
# _framework density 20.975403
#
# number of rings (size 3 to 8) (size 9 to 14) (size 15 to 20)
#    0.000    1.250    3.750    6.000    0.000    1.500 
#    2.250    2.500    0.000    1.500    0.000    0.000 
#    0.000    0.000    0.000    0.000    0.000    0.000 
#
# Total GULP energy -89074.161154 kJ/mol
# GULP energy per Si atom -5567.135072 kJ/mol
# Density = 2.092766 g / cm^3
# Si number density = 20.975403 Si / 1000 Ang^3
#
#
#
# Elastic Constant Matrix: (Units=GPa)
#
#
# Indices 1 2 3 4 5 6 
#
# 1 61.8087 16.2262 11.9577 -10.4312 2.2794 6.9423
# 2 16.2262 139.6071 54.8018 2.8462 2.0932 -20.9978
# 3 11.9577 54.8018 79.0249 -3.7780 2.9397 -7.1436
# 4 -10.4312 2.8462 -3.7780 59.7533 -18.1794 -3.4990
# 5 2.2794 2.0932 2.9397 -18.1794 35.0055 5.6791
# 6 6.9423 -20.9978 -7.1436 -3.4990 5.6791 32.8744
#
#
#
# Elastic Compliance Matrix: (Units=1/GPa)
#
#
# Indices 1 2 3 4 5 6 
#
# 1 0.018274 -0.002516 -0.001440 0.003428 0.001791 -0.005723
# 2 -0.002516 0.011119 -0.006769 -0.001566 -0.001768 0.006301
# 3 -0.001440 -0.006769 0.017633 0.001054 -0.000435 -0.000001
# 4 0.003428 -0.001566 0.001054 0.020663 0.010698 -0.001144
# 5 0.001791 -0.001768 -0.000435 0.010698 0.035211 -0.006546
# 6 -0.005723 0.006301 -0.000001 -0.001144 -0.006546 0.036661
#
#
# Mechanical properties :
#
#
# Convention : Reuss Voigt Hill
#
# Bulk Modulus (GPa) = 39.10247 49.60136 44.35191
# Shear Modulus (GPa) = 29.49223 38.69032 34.09127
#
# Velocity S-wave (km/s) = 3.75379 4.29949 4.03587
# Velocity P-wave (km/s) = 6.12131 6.95314 6.55044
#
# Compressibility (1/GPa) = 0.02557383
#
# Stress axis : x y z
#
# Youngs Moduli (GPa) = 54.72397 89.93759 56.71154
#
# Poissons Ratio (x) = 0.22629 0.08168
# Poissons Ratio (y) = 0.13769 0.38390
# Poissons Ratio (z) = 0.07882 0.60882
#
# Static dielectric constant tensor:
#      x y z
#    x 1.747660 -0.033340 0.013940 
#    y -0.033340 1.801950 0.026530 
#    z 0.013940 0.026530 1.893660 
# 
# From -- ./inp_files/217706.got.cif
#   From: 2010.05.17/outbox.cif.g08.bks.cpg/sg2_109_cif.got.tgz:217706.got - 2010.06.03 11:33:40.
