data_PCOD9077265
_publ_section_title
;
Structure prediction by ZEFSAII (Michael W. Deem and Ramdas Pophale) SiO2 
 PCOD9077265
Probable space group: P -1
;
_chemical_formula_sum "Si O2"
_cell_formula_units_Z 16
_cell_length_a 9.151866
_cell_length_b 14.647491
_cell_length_c 13.187871
_cell_angle_alpha 39.277175
_cell_angle_beta 103.543623
_cell_angle_gamma 131.919229
_cell_volume 665.771180
_symmetry_space_group_name_H-M "P -1"
_symmetry_group_IT_number 2
_symmetry_cell_setting 'triclinic'
loop_
_space_group_symop_operation_xyz
x,y,z
-x,-y,-z
loop_
_atom_site_type_symbol
_atom_site_label
_atom_site_fract_x
_atom_site_fract_y
_atom_site_fract_z
Si Si1 0.534388 0.649586 0.617783
Si Si2 0.366784 0.826832 0.941109
Si Si3 0.389325 0.596145 0.852015
Si Si4 0.259227 0.039187 0.238440
Si Si5 0.904130 0.185955 0.252481
Si Si6 0.726178 0.352426 0.593368
Si Si7 0.868979 0.320165 0.338553
Si Si8 0.714469 0.602031 0.516200
O O1 0.416473 0.527188 0.812501
O O2 0.354627 0.605136 0.551484
O O3 0.637789 0.590747 0.625652
O O4 0.760305 0.928006 0.439591
O O5 0.252319 0.809729 0.834654
O O6 0.546908 0.835214 0.928268
O O7 0.530579 0.075007 0.804415
O O8 0.121954 0.597716 0.157633
O O9 0.329619 0.712782 0.700617
O O10 0.623514 0.784490 0.801068
O O11 0.162078 0.377273 0.072371
O O12 0.219589 0.845488 0.441852
O O13 0.984065 0.874544 0.305512
O O14 0.925557 0.255234 0.310810
O O15 0.717549 0.441967 0.615556
O O16 0.000000 0.500000 0.500000
O O17 0.500000 0.500000 0.500000
#
# Coordination Sequence:
#
# PCOD9077265 Si02
#       8
#     2   2   2   2   2   2   2   2
#     4  10  22  39  60  85 128 163 190 246 304 354
#     4  10  19  33  58  93 122 152 189 253 302 343
#     4  11  20  33  61  96 127 154 190 240 311 368
#     4  12  20  34  64  87 121 161 195 237 305 363
#     4  10  18  34  57  91 132 155 184 240 307 368
#     4  10  19  37  68  86 107 161 214 247 293 340
#     4  11  19  32  57  99 130 146 189 250 306 359
#     4  10  24  43  61  83 119 166 210 248 290 348
#
# _framework density 24.032278999999999
#
# number of rings (size 3 to 8) (size 9 to 14) (size 15 to 20)
#    0.000    1.500    5.000    2.625    0.000    0.500 
#    0.000    2.500    5.500   13.500    0.000    0.000 
#    0.000    0.000    0.000    0.000    0.000    0.000 
#
# Total GULP energy -89589.763348 kJ/mol
# GULP energy per Si atom -5599.360209 kJ/mol
# Density = 2.397758 g / cm^3
# Si number density = 24.032279 Si / 1000 Ang^3
#
#
#
# Elastic Constant Matrix: (Units=GPa)
#
#
# Indices 1 2 3 4 5 6 
#
# 1 122.6651 58.3482 24.5782 -11.5277 -14.6795 -16.7553
# 2 58.3482 101.2096 22.4723 -36.1761 -1.9175 1.9327
# 3 24.5782 22.4723 87.7407 -15.5506 -9.3424 12.7173
# 4 -11.5277 -36.1761 -15.5506 33.6161 14.0896 -5.4409
# 5 -14.6795 -1.9175 -9.3424 14.0896 29.8291 -0.6427
# 6 -16.7553 1.9327 12.7173 -5.4409 -0.6427 53.7874
#
#
#
# Elastic Compliance Matrix: (Units=1/GPa)
#
#
# Indices 1 2 3 4 5 6 
#
# 1 0.016512 -0.014615 -0.003023 -0.016627 0.014198 0.004871
# 2 -0.014615 0.031581 0.000708 0.038694 -0.023265 -0.002219
# 3 -0.003023 0.000708 0.013554 0.005318 0.000213 -0.003631
# 4 -0.016627 0.038694 0.005318 0.087160 -0.045189 0.000450
# 5 0.014198 -0.023265 0.000213 -0.045189 0.060457 0.001360
# 6 0.004871 -0.002219 -0.003631 0.000450 0.001360 0.021109
#
#
# Mechanical properties :
#
#
# Convention : Reuss Voigt Hill
#
# Bulk Modulus (GPa) = 35.98891 58.04587 47.01739
# Shear Modulus (GPa) = 18.28172 37.19429 27.73800
#
# Velocity S-wave (km/s) = 2.76110 3.93832 3.40103
# Velocity P-wave (km/s) = 5.01723 6.69972 5.91857
#
# Compressibility (1/GPa) = 0.02778634
#
# Stress axis : x y z
#
# Youngs Moduli (GPa) = 60.56216 31.66420 73.77677
#
# Poissons Ratio (x) = 0.46277 0.22305
# Poissons Ratio (y) = 0.88512 -0.05220
# Poissons Ratio (z) = 0.18310 -0.02240
#
# Static dielectric constant tensor:
#      x y z
#    x 1.968440 0.024580 0.040260 
#    y 0.024580 1.921890 0.005470 
#    z 0.040260 0.005470 1.923190 
# 
# From -- ./inp_files/315896.got.cif
#   From: 2010.05.17/outbox.cif.g08.bks.cpg/sg2_158_cif.got.tgz:315896.got - 2010.06.03 11:33:40.
