data_PCOD9077254
_publ_section_title
;
Structure prediction by ZEFSAII (Michael W. Deem and Ramdas Pophale) SiO2 
 PCOD9077254
Probable space group: P -1
;
_chemical_formula_sum "Si O2"
_cell_formula_units_Z 16
_cell_length_a 15.920396
_cell_length_b 13.319799
_cell_length_c 21.844002
_cell_angle_alpha 153.769865
_cell_angle_beta 154.530921
_cell_angle_gamma 26.551437
_cell_volume 788.176111
_symmetry_space_group_name_H-M "P -1"
_symmetry_group_IT_number 2
_symmetry_cell_setting 'triclinic'
loop_
_space_group_symop_operation_xyz
x,y,z
-x,-y,-z
loop_
_atom_site_type_symbol
_atom_site_label
_atom_site_fract_x
_atom_site_fract_y
_atom_site_fract_z
Si Si1 0.326351 0.184638 0.135109
Si Si2 0.860941 0.691392 0.567413
Si Si3 0.032470 0.603359 0.398924
Si Si4 0.556423 0.807622 0.989398
Si Si5 0.007278 0.585539 0.232047
Si Si6 0.514111 0.458037 0.617102
Si Si7 0.383624 0.753141 0.307589
Si Si8 0.689196 0.142748 0.444667
O O1 0.126057 0.335648 0.131008
O O2 0.343162 0.389434 0.211450
O O3 0.540642 0.110913 0.277589
O O4 0.360874 0.946143 0.985856
O O5 0.948862 0.571302 0.626379
O O6 0.611796 0.728903 0.418072
O O7 0.000000 0.500000 0.500000
O O8 0.820346 0.984875 0.701733
O O9 0.997678 0.522096 0.262707
O O10 0.262446 0.620655 0.557867
O O11 0.835830 0.878113 0.428109
O O12 0.778319 0.760246 0.144728
O O13 0.601407 0.523456 0.846589
O O14 0.500000 0.000000 0.000000
O O15 0.148771 0.743944 0.409247
O O16 0.608100 0.239463 0.609380
O O17 0.529865 0.336054 0.494804
#
# Coordination Sequence:
#
# PCOD9077254 Si02
#       8
#     2   2   2   2   2   2   2   2
#     4  11  20  36  57  91 127 161 198 244 304 367
#     4  10  23  43  67  89 112 158 215 267 302 346
#     4  11  19  33  62  87 113 153 204 259 308 339
#     4  12  25  40  59  89 136 169 195 238 311 386
#     4  11  22  35  58  92 124 166 201 247 305 365
#     4  10  18  34  57  87 120 156 198 254 296 355
#     4  10  23  42  61  88 124 159 204 253 306 364
#     4  11  19  32  60  93 124 152 205 252 300 357
#
# _framework density 20.300031000000001
#
# number of rings (size 3 to 8) (size 9 to 14) (size 15 to 20)
#    0.000    1.250    5.000    2.625    1.750    1.500 
#    0.000    0.625    0.000    1.500    0.000    0.000 
#    0.000    0.000    0.000    0.000    0.000    0.000 
#
# Total GULP energy -89207.577881 kJ/mol
# GULP energy per Si atom -5575.473618 kJ/mol
# Density = 2.025383 g / cm^3
# Si number density = 20.300031 Si / 1000 Ang^3
#
#
#
# Elastic Constant Matrix: (Units=GPa)
#
#
# Indices 1 2 3 4 5 6 
#
# 1 104.8000 59.3107 28.3825 6.7876 -25.6964 5.2197
# 2 59.3107 158.6558 28.1042 14.1601 -9.8768 7.6845
# 3 28.3825 28.1042 38.1663 15.5336 -14.8277 -1.1673
# 4 6.7876 14.1601 15.5336 32.9063 -6.9250 -4.8938
# 5 -25.6964 -9.8768 -14.8277 -6.9250 25.2033 4.2156
# 6 5.2197 7.6845 -1.1673 -4.8938 4.2156 32.4389
#
#
#
# Elastic Compliance Matrix: (Units=1/GPa)
#
#
# Indices 1 2 3 4 5 6 
#
# 1 0.016943 -0.004700 -0.005288 0.003469 0.013789 -0.003072
# 2 -0.004700 0.008704 -0.003612 -0.002070 -0.003866 -0.001246
# 3 -0.005288 -0.003612 0.045176 -0.015537 0.015677 -0.001049
# 4 0.003469 -0.002070 -0.015537 0.039376 0.003593 0.004846
# 5 0.013789 -0.003866 0.015677 0.003593 0.063852 -0.008495
# 6 -0.003072 -0.001246 -0.001049 0.004846 -0.008495 0.033414
#
#
# Mechanical properties :
#
#
# Convention : Reuss Voigt Hill
#
# Bulk Modulus (GPa) = 22.92339 59.24631 41.08485
# Shear Modulus (GPa) = 20.06383 30.49801 25.28092
#
# Velocity S-wave (km/s) = 3.14724 3.88024 3.53280
# Velocity P-wave (km/s) = 4.95213 7.02308 6.07648
#
# Compressibility (1/GPa) = 0.04362356
#
# Stress axis : x y z
#
# Youngs Moduli (GPa) = 59.02139 114.88930 22.13584
#
# Poissons Ratio (x) = 0.53993 0.11705
# Poissons Ratio (y) = 0.27737 0.07996
# Poissons Ratio (z) = 0.31210 0.41499
#
# Static dielectric constant tensor:
#      x y z
#    x 1.741830 -0.002010 -0.015530 
#    y -0.002010 1.745420 0.018690 
#    z -0.015530 0.018690 1.762530 
# 
# From -- ./inp_files/427558.got.cif
#   From: 2010.05.17/outbox.cif.g08.bks.cpg/sg2_214_cif.got.tgz:427558.got - 2010.06.03 11:33:40.
