data_PCOD9077949
_publ_section_title
;
Structure prediction by ZEFSAII (Michael W. Deem and Ramdas Pophale) SiO2 
 PCOD9077949
Probable space group: P -1
;
_chemical_formula_sum "Si O2"
_cell_formula_units_Z 16
_cell_length_a 6.833991
_cell_length_b 11.494426
_cell_length_c 16.993043
_cell_angle_alpha 129.201278
_cell_angle_beta 51.541234
_cell_angle_gamma 105.668555
_cell_volume 793.183184
_symmetry_space_group_name_H-M "P -1"
_symmetry_group_IT_number 2
_symmetry_cell_setting 'triclinic'
loop_
_space_group_symop_operation_xyz
x,y,z
-x,-y,-z
loop_
_atom_site_type_symbol
_atom_site_label
_atom_site_fract_x
_atom_site_fract_y
_atom_site_fract_z
Si Si1 0.669345 0.852914 0.347540
Si Si2 0.143109 0.259830 0.592680
Si Si3 0.411702 0.949646 0.693966
Si Si4 0.387707 0.569826 0.273032
Si Si5 0.152843 0.685030 0.673190
Si Si6 0.309570 0.980995 0.917214
Si Si7 0.516850 0.501707 0.608450
Si Si8 0.565718 0.757018 0.894615
O O1 0.885915 0.798667 0.336097
O O2 0.544030 0.705094 0.300600
O O3 0.500000 0.000000 0.500000
O O4 0.703839 0.912816 0.277126
O O5 0.301837 0.124603 0.440158
O O6 0.333542 0.378681 0.599727
O O7 0.878646 0.348644 0.662760
O O8 0.229590 0.828324 0.672861
O O9 0.402753 0.973515 0.799913
O O10 0.359760 0.512197 0.344098
O O11 0.508108 0.405249 0.132744
O O12 0.327019 0.655916 0.695543
O O13 0.263211 0.539941 0.529114
O O14 0.861560 0.711045 0.775695
O O15 0.410390 0.845401 0.897646
O O16 0.417967 0.122624 0.988675
O O17 0.000000 0.000000 0.000000
#
# Coordination Sequence:
#
# PCOD9077949 Si02
#       8
#     2   2   2   2   2   2   2   2
#     4   9  21  40  56  87 124 156 196 235 297 352
#     4   9  19  36  59  90 118 150 194 240 294 359
#     4  10  20  38  60  81 120 163 192 238 299 347
#     4  11  21  36  62  88 119 158 191 243 294 356
#     4  10  18  35  56  87 123 149 188 242 296 364
#     4  11  24  43  60  85 120 158 201 249 296 346
#     4   9  19  32  53  90 126 148 179 237 307 360
#     4  11  24  38  60  90 115 156 202 245 295 347
#
# _framework density 20.171886000000001
#
# number of rings (size 3 to 8) (size 9 to 14) (size 15 to 20)
#    0.000    2.000    2.500    1.500    1.750    2.500 
#    2.250    0.625    0.000    1.500    0.000    0.000 
#    0.000    0.000    0.000    0.000    0.000    0.000 
#
# Total GULP energy -89094.655145 kJ/mol
# GULP energy per Si atom -5568.415947 kJ/mol
# Density = 2.012597 g / cm^3
# Si number density = 20.171886 Si / 1000 Ang^3
#
#
#
# Elastic Constant Matrix: (Units=GPa)
#
#
# Indices 1 2 3 4 5 6 
#
# 1 124.8848 48.6679 51.4097 6.1951 7.0420 -39.9616
# 2 48.6679 116.1628 35.2199 17.6570 8.4310 -28.5090
# 3 51.4097 35.2199 60.3162 8.9770 10.5130 -14.5963
# 4 6.1951 17.6570 8.9770 24.8250 -3.7136 7.2468
# 5 7.0420 8.4310 10.5130 -3.7136 30.6066 7.6165
# 6 -39.9616 -28.5090 -14.5963 7.2468 7.6165 40.4968
#
#
#
# Elastic Compliance Matrix: (Units=1/GPa)
#
#
# Indices 1 2 3 4 5 6 
#
# 1 0.017854 0.001641 -0.009232 -0.008677 -0.006999 0.018315
# 2 0.001641 0.016448 -0.002151 -0.018104 -0.010767 0.017687
# 3 -0.009232 -0.002151 0.029568 -0.009280 -0.009428 0.003466
# 4 -0.008677 -0.018104 -0.009280 0.076053 0.030340 -0.043968
# 5 -0.006999 -0.010767 -0.009428 0.030340 0.052424 -0.033174
# 6 0.018315 0.017687 0.003466 -0.043968 -0.033174 0.070574
#
#
# Mechanical properties :
#
#
# Convention : Reuss Voigt Hill
#
# Bulk Modulus (GPa) = 22.53057 63.55096 43.04077
# Shear Modulus (GPa) = 16.82365 30.25678 23.54022
#
# Velocity S-wave (km/s) = 2.89106 3.87712 3.41982
# Velocity P-wave (km/s) = 4.72630 7.18442 6.08086
#
# Compressibility (1/GPa) = 0.04438414
#
# Stress axis : x y z
#
# Youngs Moduli (GPa) = 56.00931 60.79940 33.82059
#
# Poissons Ratio (x) = -0.09976 0.31224
# Poissons Ratio (y) = -0.09190 0.07275
# Poissons Ratio (z) = 0.51710 0.13079
#
# Static dielectric constant tensor:
#      x y z
#    x 1.733710 0.011650 0.057250 
#    y 0.011650 1.771380 0.061920 
#    z 0.057250 0.061920 1.800730 
# 
# From -- ./inp_files/549233.got.cif
#   From: 2010.05.17/outbox.cif.g08.bks.cpg/sg2_275_cif.got.tgz:549233.got - 2010.06.03 11:33:40.
