data_PCOD9077357
_publ_section_title
;
Structure prediction by ZEFSAII (Michael W. Deem and Ramdas Pophale) SiO2 
 PCOD9077357
Probable space group: P -1
;
_chemical_formula_sum "Si O2"
_cell_formula_units_Z 16
_cell_length_a 12.089404
_cell_length_b 13.899038
_cell_length_c 8.523330
_cell_angle_alpha 135.887848
_cell_angle_beta 72.583109
_cell_angle_gamma 126.428606
_cell_volume 781.193511
_symmetry_space_group_name_H-M "P -1"
_symmetry_group_IT_number 2
_symmetry_cell_setting 'triclinic'
loop_
_space_group_symop_operation_xyz
x,y,z
-x,-y,-z
loop_
_atom_site_type_symbol
_atom_site_label
_atom_site_fract_x
_atom_site_fract_y
_atom_site_fract_z
Si Si1 0.252700 0.025117 0.320553
Si Si2 0.971074 0.781910 0.712950
Si Si3 0.377397 0.844532 0.970369
Si Si4 0.052801 0.269700 0.959123
Si Si5 0.927802 0.452674 0.306975
Si Si6 0.648324 0.623355 0.171706
Si Si7 0.478594 0.610872 0.762609
Si Si8 0.229274 0.101776 0.066813
O O1 0.322805 0.197855 0.585827
O O2 0.276129 0.067839 0.172828
O O3 0.327223 0.929034 0.213380
O O4 0.081858 0.900180 0.259640
O O5 0.929540 0.613500 0.447064
O O6 0.871987 0.840240 0.774873
O O7 0.953656 0.756901 0.880416
O O8 0.134378 0.934819 0.808294
O O9 0.228808 0.712181 0.793952
O O10 0.425194 0.724729 0.863079
O O11 0.500000 0.000000 0.000000
O O12 0.207961 0.332557 0.916236
O O13 0.014766 0.405295 0.108542
O O14 0.000000 0.500000 0.500000
O O15 0.624785 0.519661 0.217788
O O16 0.500000 0.500000 0.000000
O O17 0.500000 0.500000 0.500000
O O18 0.638524 0.751369 0.912928
#
# Coordination Sequence:
#
# PCOD9077357 Si02
#       8
#     2   2   2   2   2   2   2   2
#     4  10  21  40  62  87 120 170 203 254 313 372
#     4   9  18  33  62  92 121 155 208 260 302 364
#     4  11  21  37  63  93 126 160 208 260 311 367
#     4   9  20  39  61  86 123 165 207 244 318 376
#     4   9  19  34  59  91 121 161 204 251 311 361
#     4  12  25  42  63  90 128 165 209 262 314 373
#     4  12  23  39  65  95 123 160 215 256 313 372
#     4  10  18  34  58  92 121 155 209 256 305 365
#
# _framework density 20.481483000000001
#
# number of rings (size 3 to 8) (size 9 to 14) (size 15 to 20)
#    0.000    1.750    2.500    2.625    0.000    3.000 
#    0.000    3.125    8.250    0.000    0.000    0.000 
#    0.000    0.000    0.000    0.000    0.000    0.000 
#
# Total GULP energy -89201.476519 kJ/mol
# GULP energy per Si atom -5575.092282 kJ/mol
# Density = 2.043487 g / cm^3
# Si number density = 20.481483 Si / 1000 Ang^3
#
#
#
# Elastic Constant Matrix: (Units=GPa)
#
#
# Indices 1 2 3 4 5 6 
#
# 1 119.5785 40.9213 69.1201 16.9656 -21.6240 15.8420
# 2 40.9213 83.7230 50.9864 27.3583 -8.9875 28.0416
# 3 69.1201 50.9864 130.2911 46.9042 -12.4347 14.6021
# 4 16.9656 27.3583 46.9042 28.5895 -2.7067 4.8199
# 5 -21.6240 -8.9875 -12.4347 -2.7067 30.3886 15.2912
# 6 15.8420 28.0416 14.6021 4.8199 15.2912 42.9351
#
#
#
# Elastic Compliance Matrix: (Units=1/GPa)
#
#
# Indices 1 2 3 4 5 6 
#
# 1 0.016007 -0.002037 -0.009721 0.010505 0.010938 -0.006344
# 2 -0.002037 0.029103 0.003765 -0.027297 0.017733 -0.022788
# 3 -0.009721 0.003765 0.027076 -0.041035 0.004104 -0.004936
# 4 0.010505 -0.027297 -0.041035 0.116982 -0.017550 0.021026
# 5 0.010938 0.017733 0.004104 -0.017550 0.065328 -0.038310
# 6 -0.006344 -0.022788 -0.004936 0.021026 -0.038310 0.053477
#
#
# Mechanical properties :
#
#
# Convention : Reuss Voigt Hill
#
# Bulk Modulus (GPa) = 17.79376 72.84981 45.32179
# Shear Modulus (GPa) = 14.59030 31.88696 23.23863
#
# Velocity S-wave (km/s) = 2.67191 3.95000 3.37206
# Velocity P-wave (km/s) = 4.26912 7.51326 6.11042
#
# Compressibility (1/GPa) = 0.05619947
#
# Stress axis : x y z
#
# Youngs Moduli (GPa) = 62.47158 34.36101 36.93276
#
# Poissons Ratio (x) = 0.07000 0.35904
# Poissons Ratio (y) = 0.12726 -0.13906
# Poissons Ratio (z) = 0.60731 -0.12937
#
# Static dielectric constant tensor:
#      x y z
#    x 1.809180 -0.048260 -0.025920 
#    y -0.048260 1.763320 0.032940 
#    z -0.025920 0.032940 1.764020 
# 
# From -- ./inp_files/263441.got.cif
#   From: 2010.05.17/outbox.cif.g08.bks.cpg/sg2_132_cif.got.tgz:263441.got - 2010.06.03 11:33:40.
