data_PCOD9077073
_publ_section_title
;
Structure prediction by ZEFSAII (Michael W. Deem and Ramdas Pophale) SiO2 
 PCOD9077073
Probable space group: P -1
;
_chemical_formula_sum "Si O2"
_cell_formula_units_Z 14
_cell_length_a 14.672577
_cell_length_b 10.918178
_cell_length_c 9.252578
_cell_angle_alpha 76.987946
_cell_angle_beta 48.327025
_cell_angle_gamma 117.462991
_cell_volume 586.342251
_symmetry_space_group_name_H-M "P -1"
_symmetry_group_IT_number 2
_symmetry_cell_setting 'triclinic'
loop_
_space_group_symop_operation_xyz
x,y,z
-x,-y,-z
loop_
_atom_site_type_symbol
_atom_site_label
_atom_site_fract_x
_atom_site_fract_y
_atom_site_fract_z
Si Si1 0.280942 0.273654 0.205397
Si Si2 0.780877 0.550933 0.992658
Si Si3 0.132612 0.658239 0.669560
Si Si4 0.388321 0.016359 0.522778
Si Si5 0.807345 0.749901 0.189068
Si Si6 0.935381 0.664985 0.271116
Si Si7 0.835615 0.957464 0.877435
O O1 0.226368 0.347225 0.144807
O O2 0.066151 0.074291 0.588294
O O3 0.280591 0.157748 0.123979
O O4 0.500000 0.500000 0.000000
O O5 0.973592 0.613712 0.761248
O O6 0.550502 0.274808 0.292983
O O7 0.819014 0.651957 0.079271
O O8 0.341695 0.917700 0.440535
O O9 0.000000 0.500000 0.000000
O O10 0.171213 0.564389 0.564967
O O11 0.500000 0.000000 0.500000
O O12 0.148712 0.846903 0.887921
O O13 0.759539 0.617586 0.412258
O O14 0.697234 0.766632 0.201567
O O15 0.063678 0.822873 0.237311
O O16 0.000000 0.000000 0.000000
#
# Coordination Sequence:
#
# PCOD9077073 Si02
#       7
#     2   2   2   2   2   2   2
#     4  10  23  41  58  77 107 154 198 227 267 320
#     4  11  20  35  57  85 110 149 188 221 280 338
#     4  10  18  34  55  84 117 147 171 221 292 336
#     4  11  19  31  56  88 119 142 175 223 279 342
#     4   9  17  33  55  82 111 143 176 224 287 332
#     4  10  18  35  58  86 117 142 175 229 291 332
#     4   9  21  40  57  77 113 148 188 231 270 331
#
# _framework density 23.876839
#
# number of rings (size 3 to 8) (size 9 to 14) (size 15 to 20)
#    0.000    2.000    5.714    0.000    2.000    1.143 
#    7.714    2.857    0.000    1.714    0.000    0.000 
#    0.000    0.000    0.000    0.000    0.000    0.000 
#
# Total GULP energy -77994.099893 kJ/mol
# GULP energy per Si atom -5571.007135 kJ/mol
# Density = 2.382249 g / cm^3
# Si number density = 23.876839 Si / 1000 Ang^3
#
#
#
# Elastic Constant Matrix: (Units=GPa)
#
#
# Indices 1 2 3 4 5 6 
#
# 1 73.1173 27.8616 13.7427 -1.4444 -2.3209 21.5192
# 2 27.8616 231.8926 41.6926 -43.8004 -0.4732 8.3275
# 3 13.7427 41.6926 74.7319 -24.8261 -8.1341 5.9318
# 4 -1.4444 -43.8004 -24.8261 31.1222 3.5951 0.8597
# 5 -2.3209 -0.4732 -8.1341 3.5951 26.2455 -11.4830
# 6 21.5192 8.3275 5.9318 0.8597 -11.4830 35.6759
#
#
#
# Elastic Compliance Matrix: (Units=1/GPa)
#
#
# Indices 1 2 3 4 5 6 
#
# 1 0.018015 -0.001898 -0.002921 -0.003431 -0.003711 -0.011050
# 2 -0.001898 0.006285 -0.000386 0.008690 -0.001826 -0.001055
# 3 -0.002921 -0.000386 0.019328 0.014351 0.003506 -0.000579
# 4 -0.003431 0.008690 0.014351 0.056485 -0.005887 -0.005601
# 5 -0.003711 -0.001826 0.003506 -0.005887 0.047262 0.017436
# 6 -0.011050 -0.001055 -0.000579 -0.005601 0.017436 0.040785
#
#
# Mechanical properties :
#
#
# Convention : Reuss Voigt Hill
#
# Bulk Modulus (GPa) = 30.10220 60.70394 45.40307
# Shear Modulus (GPa) = 23.85002 38.37172 31.11087
#
# Velocity S-wave (km/s) = 3.16393 4.01318 3.61359
# Velocity P-wave (km/s) = 5.09725 6.85223 6.03883
#
# Compressibility (1/GPa) = 0.03322016
#
# Stress axis : x y z
#
# Youngs Moduli (GPa) = 55.50807 159.10059 51.73735
#
# Poissons Ratio (x) = 0.30202 0.15110
# Poissons Ratio (y) = 0.10537 0.01995
# Poissons Ratio (z) = 0.16212 0.06135
#
# Static dielectric constant tensor:
#      x y z
#    x 1.981500 -0.006430 0.025320 
#    y -0.006430 1.982920 0.029130 
#    z 0.025320 0.029130 2.045720 
# 
# From -- ./inp_files/304946.got.cif
#   From: 2010.05.17/outbox.cif.g08.bks.cpg/sg2_153_cif.got.tgz:304946.got - 2010.06.03 11:33:40.
