data_PCOD9077272
_publ_section_title
;
Structure prediction by ZEFSAII (Michael W. Deem and Ramdas Pophale) SiO2 
 PCOD9077272
Probable space group: P -1
;
_chemical_formula_sum "Si O2"
_cell_formula_units_Z 16
_cell_length_a 9.850138
_cell_length_b 27.500239
_cell_length_c 13.783270
_cell_angle_alpha 160.112712
_cell_angle_beta 145.250139
_cell_angle_gamma 33.126531
_cell_volume 682.286230
_symmetry_space_group_name_H-M "P -1"
_symmetry_group_IT_number 2
_symmetry_cell_setting 'triclinic'
loop_
_space_group_symop_operation_xyz
x,y,z
-x,-y,-z
loop_
_atom_site_type_symbol
_atom_site_label
_atom_site_fract_x
_atom_site_fract_y
_atom_site_fract_z
Si Si1 0.605718 0.797204 0.668297
Si Si2 0.500803 0.189866 0.592073
Si Si3 0.767276 0.471182 0.860537
Si Si4 0.446790 0.400126 0.367881
Si Si5 0.894762 0.213598 0.609378
Si Si6 0.951138 0.804942 0.051372
Si Si7 0.891868 0.451754 0.212235
Si Si8 0.404181 0.086705 0.766317
O O1 0.581956 0.835370 0.612414
O O2 0.325656 0.857850 0.663243
O O3 0.812444 0.838762 0.930986
O O4 0.689295 0.615290 0.391605
O O5 0.426067 0.084817 0.431070
O O6 0.384601 0.369096 0.878804
O O7 0.805824 0.143530 0.696759
O O8 0.593157 0.427939 0.599099
O O9 0.875039 0.331134 0.733162
O O10 0.000000 0.500000 0.000000
O O11 0.500000 0.500000 0.500000
O O12 0.148889 0.456182 0.321909
O O13 0.517048 0.218456 0.050677
O O14 0.177065 0.101509 0.584930
O O15 0.826103 0.322919 0.869541
O O16 0.060955 0.624538 0.797582
O O17 0.737858 0.860264 0.113396
#
# Coordination Sequence:
#
# PCOD9077272 Si02
#       8
#     2   2   2   2   2   2   2   2
#     4  12  20  34  65  94 137 169 214 261 321 384
#     4  12  24  42  64  99 137 167 212 266 328 385
#     4  12  24  42  68  94 121 169 230 271 312 379
#     4  10  22  43  67  87 124 171 219 269 321 375
#     4  10  19  37  62  91 127 171 211 259 315 381
#     4  10  21  36  60  97 136 173 205 255 332 388
#     4  10  18  34  57  94 126 164 215 262 310 376
#     4  10  23  43  62  96 139 168 203 268 331 385
#
# _framework density 23.450569000000002
#
# number of rings (size 3 to 8) (size 9 to 14) (size 15 to 20)
#    0.000    1.500    3.750    5.625    0.000    0.500 
#    2.250    3.125    0.000    0.000    0.000    0.000 
#    0.000    0.000    0.000    0.000    0.000    0.000 
#
# Total GULP energy -89459.994927 kJ/mol
# GULP energy per Si atom -5591.249683 kJ/mol
# Density = 2.339719 g / cm^3
# Si number density = 23.450569 Si / 1000 Ang^3
#
#
#
# Elastic Constant Matrix: (Units=GPa)
#
#
# Indices 1 2 3 4 5 6 
#
# 1 65.6596 44.1444 19.9940 -6.0676 23.9964 22.4439
# 2 44.1444 159.2214 59.7081 -9.4773 15.2218 51.1040
# 3 19.9940 59.7081 59.9973 -7.0687 15.7100 20.4898
# 4 -6.0676 -9.4773 -7.0687 58.2990 9.7740 10.0854
# 5 23.9964 15.2218 15.7100 9.7740 27.4453 4.9154
# 6 22.4439 51.1040 20.4898 10.0854 4.9154 46.0999
#
#
#
# Elastic Compliance Matrix: (Units=1/GPa)
#
#
# Indices 1 2 3 4 5 6 
#
# 1 0.033755 -0.003412 0.007487 0.012089 -0.033516 -0.015050
# 2 -0.003412 0.014132 -0.009508 0.002326 0.001633 -0.010462
# 3 0.007487 -0.009508 0.032636 0.008026 -0.021546 -0.007069
# 4 0.012089 0.002326 0.008026 0.026280 -0.023069 -0.015320
# 5 -0.033516 0.001633 -0.021546 -0.023069 0.081727 0.020416
# 6 -0.015050 -0.010462 -0.007069 -0.015320 0.020416 0.044934
#
#
# Mechanical properties :
#
#
# Convention : Reuss Voigt Hill
#
# Bulk Modulus (GPa) = 14.35604 59.17460 36.76532
# Shear Modulus (GPa) = 18.68823 37.10428 27.89625
#
# Velocity S-wave (km/s) = 2.82604 3.98205 3.45277
# Velocity P-wave (km/s) = 4.09680 6.81401 5.62204
#
# Compressibility (1/GPa) = 0.06965709
#
# Stress axis : x y z
#
# Youngs Moduli (GPa) = 29.62554 70.76058 30.64115
#
# Poissons Ratio (x) = 0.24142 -0.22940
# Poissons Ratio (y) = 0.10108 0.29133
# Poissons Ratio (z) = -0.22180 0.67277
#
# Static dielectric constant tensor:
#      x y z
#    x 1.920210 -0.013070 0.070140 
#    y -0.013070 1.949010 0.001170 
#    z 0.070140 0.001170 2.176360 
# 
# From -- ./inp_files/524649.got.cif
#   From: 2010.05.17/outbox.cif.g08.bks.cpg/sg2_263_cif.got.tgz:524649.got - 2010.06.03 11:33:40.
