data_PCOD9077053
_publ_section_title
;
Structure prediction by ZEFSAII (Michael W. Deem and Ramdas Pophale) SiO2 
 PCOD9077053
Probable space group: P -1
;
_chemical_formula_sum "Si O2"
_cell_formula_units_Z 14
_cell_length_a 11.565389
_cell_length_b 23.486127
_cell_length_c 19.242400
_cell_angle_alpha 24.654940
_cell_angle_beta 146.380753
_cell_angle_gamma 160.262106
_cell_volume 726.716529
_symmetry_space_group_name_H-M "P -1"
_symmetry_group_IT_number 2
_symmetry_cell_setting 'triclinic'
loop_
_space_group_symop_operation_xyz
x,y,z
-x,-y,-z
loop_
_atom_site_type_symbol
_atom_site_label
_atom_site_fract_x
_atom_site_fract_y
_atom_site_fract_z
Si Si1 0.814659 0.254312 0.346075
Si Si2 0.807513 0.810812 0.452770
Si Si3 0.310333 0.143069 0.441579
Si Si4 0.778081 0.133146 0.705803
Si Si5 0.713857 0.494319 0.574104
Si Si6 0.626156 0.324553 0.042601
Si Si7 0.671455 0.530269 0.282679
O O1 0.666546 0.285233 0.183626
O O2 0.055884 0.269149 0.410714
O O3 0.032550 0.431961 0.321804
O O4 0.500000 0.000000 0.500000
O O5 0.579325 0.745918 0.346211
O O6 0.545030 0.654357 0.558934
O O7 0.134894 0.064299 0.365449
O O8 0.457427 0.067691 0.606642
O O9 0.616308 0.405062 0.327213
O O10 0.000000 0.000000 0.500000
O O11 0.049293 0.313937 0.579990
O O12 0.953380 0.251297 0.737221
O O13 0.646089 0.911718 0.873284
O O14 0.500000 0.500000 0.500000
O O15 0.501487 0.414321 0.879724
O O16 0.000000 0.500000 0.000000
#
# Coordination Sequence:
#
# PCOD9077053 Si02
#       7
#     2   2   2   2   2   2   2
#     4  11  18  33  55  80 109 148 192 224 276 335
#     4   9  17  33  53  79 109 142 188 231 267 333
#     4  10  18  34  55  80 113 153 189 223 280 341
#     4  11  20  36  56  84 115 148 189 234 275 343
#     4   9  19  32  56  87 107 141 192 237 268 325
#     4  12  21  35  55  83 120 146 182 241 289 322
#     4  10  21  33  52  84 116 145 180 234 289 327
#
# _framework density 19.264733
#
# number of rings (size 3 to 8) (size 9 to 14) (size 15 to 20)
#    0.000    1.714    4.286    1.714    0.000    0.000 
#    0.000    0.000    0.000    4.286    0.000    0.000 
#    0.000    0.000    0.000    0.000    0.000    0.000 
#
# Total GULP energy -78033.313666 kJ/mol
# GULP energy per Si atom -5573.808119 kJ/mol
# Density = 1.922089 g / cm^3
# Si number density = 19.264733 Si / 1000 Ang^3
#
#
#
# Elastic Constant Matrix: (Units=GPa)
#
#
# Indices 1 2 3 4 5 6 
#
# 1 40.2458 23.8235 2.7972 -1.6947 -0.5535 -18.7124
# 2 23.8235 133.9908 11.8803 0.7609 -4.5609 -57.8025
# 3 2.7972 11.8803 33.9239 2.1408 1.1964 -19.1544
# 4 -1.6947 0.7609 2.1408 18.3416 -5.5600 9.6335
# 5 -0.5535 -4.5609 1.1964 -5.5600 22.1139 -4.5626
# 6 -18.7124 -57.8025 -19.1544 9.6335 -4.5626 56.6704
#
#
#
# Elastic Compliance Matrix: (Units=1/GPa)
#
#
# Indices 1 2 3 4 5 6 
#
# 1 0.030155 -0.000810 0.004262 -0.002996 0.001922 0.011236
# 2 -0.000810 0.016158 0.006629 -0.011037 0.004447 0.020689
# 3 0.004262 0.006629 0.042429 -0.018331 -0.000146 0.025614
# 4 -0.002996 -0.011037 -0.018331 0.076358 0.011547 -0.030493
# 5 0.001922 0.004447 -0.000146 0.011547 0.050589 0.007231
# 6 0.011236 0.020689 0.025614 -0.030493 0.007231 0.056881
#
#
# Mechanical properties :
#
#
# Convention : Reuss Voigt Hill
#
# Bulk Modulus (GPa) = 9.18229 31.68472 20.43350
# Shear Modulus (GPa) = 17.31846 30.73580 24.02713
#
# Velocity S-wave (km/s) = 3.00154 3.99863 3.53541
# Velocity P-wave (km/s) = 4.09744 6.14829 5.22449
#
# Compressibility (1/GPa) = 0.10890535
#
# Stress axis : x y z
#
# Youngs Moduli (GPa) = 33.16216 61.88739 23.56863
#
# Poissons Ratio (x) = 0.05014 -0.10046
# Poissons Ratio (y) = 0.02686 -0.15624
# Poissons Ratio (z) = -0.14135 -0.41025
#
# Static dielectric constant tensor:
#      x y z
#    x 1.698320 -0.039330 0.005130 
#    y -0.039330 1.773450 -0.023800 
#    z 0.005130 -0.023800 1.628510 
# 
# From -- ./inp_files/154084.got.cif
#   From: 2010.05.17/outbox.cif.g08.bks.cpg/sg2_78_cif.got.tgz:154084.got - 2010.06.03 11:33:40.
