data_PCOD9077162
_publ_section_title
;
Structure prediction by ZEFSAII (Michael W. Deem and Ramdas Pophale) SiO2 
 PCOD9077162
Probable space group: P -1
;
_chemical_formula_sum "Si O2"
_cell_formula_units_Z 12
_cell_length_a 9.251977
_cell_length_b 8.051679
_cell_length_c 12.741027
_cell_angle_alpha 97.044581
_cell_angle_beta 46.833132
_cell_angle_gamma 126.004068
_cell_volume 493.195812
_symmetry_space_group_name_H-M "P -1"
_symmetry_group_IT_number 2
_symmetry_cell_setting 'triclinic'
loop_
_space_group_symop_operation_xyz
x,y,z
-x,-y,-z
loop_
_atom_site_type_symbol
_atom_site_label
_atom_site_fract_x
_atom_site_fract_y
_atom_site_fract_z
Si Si1 0.907150 0.815523 0.900571
Si Si2 0.687536 0.572399 0.624404
Si Si3 0.046621 0.328411 0.697056
Si Si4 0.294686 0.566337 0.185951
Si Si5 0.527354 0.823244 0.441159
Si Si6 0.076361 0.356252 0.918821
O O1 0.809802 0.583651 0.879143
O O2 0.623324 0.748753 0.041388
O O3 0.026952 0.832447 0.954937
O O4 0.152165 0.027171 0.722465
O O5 0.867358 0.740266 0.448626
O O6 0.815816 0.614436 0.677328
O O7 0.603173 0.331054 0.612933
O O8 0.407090 0.513311 0.769199
O O9 0.335837 0.600946 0.595061
O O10 0.960210 0.245745 0.852530
O O11 0.827776 0.322245 0.750399
O O12 0.500000 0.000000 0.500000
O O13 0.000000 0.500000 0.000000
#
# Coordination Sequence:
#
# PCOD9077162 Si02
#       6
#     2   2   2   2   2   2
#     4  10  20  34  59  84 111 144 187 230 277 327
#     4   9  22  33  62  83 111 143 193 227 273 326
#     4  10  20  35  59  84 110 143 190 228 274 325
#     4  10  18  34  56  88 107 143 187 234 270 327
#     4  10  19  36  56  85 111 147 185 230 274 329
#     4  11  19  35  55  87 113 147 184 228 274 334
#
# _framework density 24.331105999999998
#
# number of rings (size 3 to 8) (size 9 to 14) (size 15 to 20)
#    1.000    1.000    3.333    1.000    0.000    2.667 
#    0.000    0.000    0.000   17.000    0.000    0.000 
#    0.000    0.000    0.000    0.000    0.000    0.000 
#
# Total GULP energy -66873.671255 kJ/mol
# GULP energy per Si atom -5572.805938 kJ/mol
# Density = 2.427573 g / cm^3
# Si number density = 24.331106 Si / 1000 Ang^3
#
#
#
# Elastic Constant Matrix: (Units=GPa)
#
#
# Indices 1 2 3 4 5 6 
#
# 1 118.2694 0.6768 36.8371 22.0115 10.0489 1.8396
# 2 0.6768 37.3853 24.6697 10.4029 5.8896 -8.8708
# 3 36.8371 24.6697 107.8666 22.9528 -1.5387 -4.9168
# 4 22.0115 10.4029 22.9528 42.8616 -5.9779 -7.7703
# 5 10.0489 5.8896 -1.5387 -5.9779 46.7911 14.1782
# 6 1.8396 -8.8708 -4.9168 -7.7703 14.1782 26.3322
#
#
#
# Elastic Compliance Matrix: (Units=1/GPa)
#
#
# Indices 1 2 3 4 5 6 
#
# 1 0.010829 0.004367 -0.003640 -0.005098 -0.003825 0.000590
# 2 0.004367 0.039799 -0.008764 -0.005946 -0.011875 0.016106
# 3 -0.003640 -0.008764 0.013100 -0.003118 0.002715 -0.002634
# 4 -0.005098 -0.005946 -0.003118 0.030467 0.004283 0.004455
# 5 -0.003825 -0.011875 0.002715 0.004283 0.029777 -0.017996
# 6 0.000590 0.016106 -0.002634 0.004455 -0.017996 0.053873
#
#
# Mechanical properties :
#
#
# Convention : Reuss Voigt Hill
#
# Bulk Modulus (GPa) = 20.98407 43.09872 32.04139
# Shear Modulus (GPa) = 23.83189 36.61950 30.22569
#
# Velocity S-wave (km/s) = 3.13306 3.88370 3.52840
# Velocity P-wave (km/s) = 4.66168 6.15327 5.45866
#
# Compressibility (1/GPa) = 0.04765521
#
# Stress axis : x y z
#
# Youngs Moduli (GPa) = 92.34816 25.12609 76.33541
#
# Poissons Ratio (x) = -0.10972 0.27783
# Poissons Ratio (y) = -0.40328 0.66898
# Poissons Ratio (z) = 0.33611 0.22020
#
# Static dielectric constant tensor:
#      x y z
#    x 1.953430 -0.033720 0.058900 
#    y -0.033720 1.948590 0.011050 
#    z 0.058900 0.011050 2.011770 
# 
# From -- ./inp_files/212809.got.cif
#   From: 2010.05.17/outbox.cif.g08.bks.cpg/sg2_107_cif.got.tgz:212809.got - 2010.06.03 11:33:40.
