data_PCOD9077878
_publ_section_title
;
Structure prediction by ZEFSAII (Michael W. Deem and Ramdas Pophale) SiO2 
 PCOD9077878
Probable space group: P -1
;
_chemical_formula_sum "Si O2"
_cell_formula_units_Z 16
_cell_length_a 19.939404
_cell_length_b 9.351942
_cell_length_c 14.635111
_cell_angle_alpha 112.415140
_cell_angle_beta 159.553397
_cell_angle_gamma 56.641174
_cell_volume 707.447191
_symmetry_space_group_name_H-M "P -1"
_symmetry_group_IT_number 2
_symmetry_cell_setting 'triclinic'
loop_
_space_group_symop_operation_xyz
x,y,z
-x,-y,-z
loop_
_atom_site_type_symbol
_atom_site_label
_atom_site_fract_x
_atom_site_fract_y
_atom_site_fract_z
Si Si1 0.438947 0.407190 0.820015
Si Si2 0.947812 0.030721 0.660497
Si Si3 0.310405 0.683661 0.363150
Si Si4 0.041823 0.411761 0.367769
Si Si5 0.179176 0.032426 0.787625
Si Si6 0.494834 0.427474 0.228482
Si Si7 0.102539 0.080843 0.247824
Si Si8 0.770987 0.821948 0.285609
O O1 0.525054 0.434205 0.840462
O O2 0.158679 0.500853 0.487178
O O3 0.500000 0.500000 0.000000
O O4 0.576517 0.181106 0.957282
O O5 0.670165 0.216014 0.356195
O O6 0.026682 0.964060 0.849574
O O7 0.938930 0.872097 0.558249
O O8 0.094924 0.076262 0.795760
O O9 0.500000 0.500000 0.500000
O O10 0.350959 0.591742 0.492174
O O11 0.320867 0.865741 0.441281
O O12 0.062612 0.796756 0.018842
O O13 0.139764 0.218296 0.386034
O O14 0.163788 0.354308 0.610716
O O15 0.759253 0.514696 0.046187
O O16 0.191169 0.177654 0.774186
O O17 0.000000 0.000000 0.500000
O O18 0.500000 0.000000 0.000000
#
# Coordination Sequence:
#
# PCOD9077878 Si02
#       8
#     2   2   2   2   2   2   2   2
#     4  12  25  41  60  93 132 174 222 272 325 383
#     4   9  20  37  58  86 122 164 214 260 324 383
#     4  10  19  37  72 100 129 167 217 271 337 399
#     4  11  23  41  63  91 133 174 221 269 326 394
#     4  10  19  36  57  78 116 165 215 269 310 379
#     4  11  23  41  62  97 130 169 215 277 327 393
#     4   9  19  38  65  99 128 169 216 268 333 396
#     4  10  18  35  55  80 113 167 217 258 311 376
#
# _framework density 22.616530999999998
#
# number of rings (size 3 to 8) (size 9 to 14) (size 15 to 20)
#    0.000    1.750    2.500    3.750    0.000    0.500 
#    6.750    0.625    0.000    0.750    0.000    0.000 
#    0.000    0.000    0.000    0.000    0.000    0.000 
#
# Total GULP energy -89198.763400 kJ/mol
# GULP energy per Si atom -5574.922713 kJ/mol
# Density = 2.256506 g / cm^3
# Si number density = 22.616531 Si / 1000 Ang^3
#
#
#
# Elastic Constant Matrix: (Units=GPa)
#
#
# Indices 1 2 3 4 5 6 
#
# 1 143.7152 38.8798 61.6581 8.3842 -5.6419 1.3538
# 2 38.8798 72.7919 20.6318 -3.8127 6.7366 -18.5888
# 3 61.6581 20.6318 95.2839 -16.2781 -0.1913 7.5472
# 4 8.3842 -3.8127 -16.2781 27.8515 0.2191 5.9570
# 5 -5.6419 6.7366 -0.1913 0.2191 47.7628 -9.8394
# 6 1.3538 -18.5888 7.5472 5.9570 -9.8394 41.6199
#
#
#
# Elastic Compliance Matrix: (Units=1/GPa)
#
#
# Indices 1 2 3 4 5 6 
#
# 1 0.012794 -0.004730 -0.009056 -0.010051 0.002420 0.001124
# 2 -0.004730 0.019038 -0.001491 0.001381 -0.001533 0.008367
# 3 -0.009056 -0.001491 0.019871 0.015594 -0.002239 -0.006736
# 4 -0.010051 0.001381 0.015594 0.050390 -0.003600 -0.009947
# 5 0.002420 -0.001533 -0.002239 -0.003600 0.022579 0.005496
# 6 0.001124 0.008367 -0.006736 -0.009947 0.005496 0.031672
#
#
# Mechanical properties :
#
#
# Convention : Reuss Voigt Hill
#
# Bulk Modulus (GPa) = 47.28581 61.57005 54.42793
# Shear Modulus (GPa) = 25.78013 36.15491 30.96752
#
# Velocity S-wave (km/s) = 3.37987 4.00259 3.70434
# Velocity P-wave (km/s) = 6.01535 6.97450 6.51260
#
# Compressibility (1/GPa) = 0.02114799
#
# Stress axis : x y z
#
# Youngs Moduli (GPa) = 78.16172 52.52692 50.32401
#
# Poissons Ratio (x) = 0.24846 0.45574
# Poissons Ratio (y) = 0.36971 0.07505
# Poissons Ratio (z) = 0.70784 0.07834
#
# Static dielectric constant tensor:
#      x y z
#    x 1.918120 -0.001510 0.012350 
#    y -0.001510 1.972870 -0.029140 
#    z 0.012350 -0.029140 1.875910 
# 
# From -- ./inp_files/540525.got.cif
#   From: 2010.05.17/outbox.cif.g08.bks.cpg/sg2_271_cif.got.tgz:540525.got - 2010.06.03 11:33:40.
