data_PCOD9077397
_publ_section_title
;
Structure prediction by ZEFSAII (Michael W. Deem and Ramdas Pophale) SiO2 
 PCOD9077397
Probable space group: P -1
;
_chemical_formula_sum "Si O2"
_cell_formula_units_Z 16
_cell_length_a 8.174306
_cell_length_b 6.964995
_cell_length_c 26.332704
_cell_angle_alpha 75.155258
_cell_angle_beta 130.613182
_cell_angle_gamma 66.656110
_cell_volume 705.506386
_symmetry_space_group_name_H-M "P -1"
_symmetry_group_IT_number 2
_symmetry_cell_setting 'triclinic'
loop_
_space_group_symop_operation_xyz
x,y,z
-x,-y,-z
loop_
_atom_site_type_symbol
_atom_site_label
_atom_site_fract_x
_atom_site_fract_y
_atom_site_fract_z
Si Si1 0.537212 0.312749 0.463132
Si Si2 0.752137 0.681422 0.831650
Si Si3 0.737839 0.918111 0.612347
Si Si4 0.816214 0.283578 0.726431
Si Si5 0.745313 0.225615 0.334738
Si Si6 0.100991 0.827184 0.895209
Si Si7 0.920784 0.503463 0.199632
Si Si8 0.142156 0.047661 0.984786
O O1 0.458744 0.148693 0.433891
O O2 0.312810 0.617977 0.363785
O O3 0.517434 0.259571 0.522395
O O4 0.925114 0.101229 0.550268
O O5 0.407071 0.811736 0.737455
O O6 0.834660 0.845017 0.856402
O O7 0.910009 0.586447 0.814071
O O8 0.973757 0.381110 0.931901
O O9 0.080670 0.707814 0.662506
O O10 0.874717 0.798280 0.704769
O O11 0.511179 0.536172 0.688318
O O12 0.052166 0.308551 0.777416
O O13 0.012456 0.960855 0.811689
O O14 0.052155 0.040496 0.910308
O O15 0.500000 0.500000 0.000000
O O16 0.535026 0.751425 0.092484
O O17 0.000000 0.000000 0.000000
#
# Coordination Sequence:
#
# PCOD9077397 Si02
#       8
#     2   2   2   2   2   2   2   2
#     4   8  16  31  55  90 119 153 202 248 300 363
#     4  11  22  38  61  87 122 160 205 245 302 365
#     4   8  16  29  56  90 117 149 200 248 301 354
#     4  10  19  33  59  87 116 161 207 243 303 363
#     4   9  16  32  56  86 120 155 197 257 294 357
#     4  12  24  41  62  90 125 163 206 251 299 368
#     4  10  18  34  59  84 114 163 198 244 301 362
#     4  12  24  41  64  89 121 160 204 254 310 358
#
# _framework density 22.678744999999999
#
# number of rings (size 3 to 8) (size 9 to 14) (size 15 to 20)
#    0.750    1.250    3.750    2.250    0.000    0.500 
#    0.000    0.625    0.000    0.750    0.000    0.000 
#    0.000    0.000    0.000    0.000    0.000    0.000 
#
# Total GULP energy -89081.739570 kJ/mol
# GULP energy per Si atom -5567.608723 kJ/mol
# Density = 2.262713 g / cm^3
# Si number density = 22.678745 Si / 1000 Ang^3
#
#
#
# Elastic Constant Matrix: (Units=GPa)
#
#
# Indices 1 2 3 4 5 6 
#
# 1 60.9483 1.4553 32.2314 -26.7470 -17.2740 -4.3801
# 2 1.4553 34.3157 22.4769 -4.6646 1.7786 10.7163
# 3 32.2314 22.4769 145.9103 -22.6522 -22.0005 -4.1651
# 4 -26.7470 -4.6646 -22.6522 9.1609 12.6056 -31.4116
# 5 -17.2740 1.7786 -22.0005 12.6056 58.2982 -7.0225
# 6 -4.3801 10.7163 -4.1651 -31.4116 -7.0225 5.9671
#
#
#
# Elastic Compliance Matrix: (Units=1/GPa)
#
#
# Indices 1 2 3 4 5 6 
#
# 1 0.017685 0.005981 -0.005232 -0.002504 0.002175 -0.012031
# 2 0.005981 0.036035 -0.005789 0.012424 -0.004746 -0.004551
# 3 -0.005232 -0.005789 0.008764 -0.003141 0.002503 -0.000918
# 4 -0.002504 0.012424 -0.003141 0.000376 -0.006202 -0.031662
# 5 0.002175 -0.004746 0.002503 -0.006202 0.020653 0.003527
# 6 -0.012031 -0.004551 -0.000918 -0.031662 0.003527 0.003763
#
#
# Mechanical properties :
#
#
# Convention : Reuss Voigt Hill
#
# Bulk Modulus (GPa) = 19.08240 39.27794 29.18017
# Shear Modulus (GPa) = 43.54464 27.01929 35.28196
#
# Velocity S-wave (km/s) = 4.38661 3.45540 3.94855
# Velocity P-wave (km/s) = 5.83857 5.76859 5.80368
#
# Compressibility (1/GPa) = 0.05240431
#
# Stress axis : x y z
#
# Youngs Moduli (GPa) = 56.54636 27.75054 114.09665
#
# Poissons Ratio (x) = -0.16597 0.59695
# Poissons Ratio (y) = -0.33820 0.66051
# Poissons Ratio (z) = 0.29585 0.16065
#
# Static dielectric constant tensor:
#      x y z
#    x 1.798960 0.024780 -0.030980 
#    y 0.024780 1.924710 0.007130 
#    z -0.030980 0.007130 1.827880 
# 
# From -- ./inp_files/616500.got.cif
#   From: 2010.05.17/outbox.cif.g08.bks.cpg/sg2_309_cif.got.tgz:616500.got - 2010.06.03 11:33:40.
