data_PCOD9077839
_publ_section_title
;
Structure prediction by ZEFSAII (Michael W. Deem and Ramdas Pophale) SiO2 
 PCOD9077839
Probable space group: P -1
;
_chemical_formula_sum "Si O2"
_cell_formula_units_Z 14
_cell_length_a 10.780397
_cell_length_b 16.065896
_cell_length_c 7.898951
_cell_angle_alpha 62.131522
_cell_angle_beta 104.570728
_cell_angle_gamma 153.558958
_cell_volume 487.673482
_symmetry_space_group_name_H-M "P -1"
_symmetry_group_IT_number 2
_symmetry_cell_setting 'triclinic'
loop_
_space_group_symop_operation_xyz
x,y,z
-x,-y,-z
loop_
_atom_site_type_symbol
_atom_site_label
_atom_site_fract_x
_atom_site_fract_y
_atom_site_fract_z
Si Si1 0.365241 0.629355 0.004609
Si Si2 0.694168 0.543875 0.317588
Si Si3 0.167413 0.758657 0.023574
Si Si4 0.549338 0.803779 0.257277
Si Si5 0.565490 0.133964 0.560554
Si Si6 0.968579 0.236154 0.472962
Si Si7 0.177611 0.179440 0.249501
O O1 0.462160 0.759890 0.073271
O O2 0.220781 0.441446 0.232030
O O3 0.647112 0.771740 0.865022
O O4 0.101286 0.489376 0.914826
O O5 0.529663 0.351987 0.554036
O O6 0.434795 0.406533 0.230691
O O7 0.946078 0.663863 0.169319
O O8 0.869706 0.714450 0.366294
O O9 0.500000 0.000000 0.000000
O O10 0.302200 0.887638 0.772003
O O11 0.366255 0.749867 0.373840
O O12 0.911286 0.059479 0.176864
O O13 0.839493 0.250120 0.490196
O O14 0.341497 0.026341 0.441252
O O15 0.000000 0.000000 0.500000
#
# Coordination Sequence:
#
# PCOD9077839 Si02
#       7
#     2   2   2   2   2   2   2
#     4   9  19  33  57  82 105 148 187 216 279 330
#     4   9  18  34  57  79 106 149 182 219 275 328
#     4  10  18  35  54  75 110 152 176 216 280 335
#     4  10  20  36  56  86 112 140 190 235 259 323
#     4  10  20  34  58  81 113 148 183 227 274 322
#     4   9  18  35  55  79 110 151 185 215 280 339
#     4   9  18  35  59  79 111 147 179 228 281 324
#
# _framework density 28.707733999999999
#
# number of rings (size 3 to 8) (size 9 to 14) (size 15 to 20)
#    0.000    2.571    1.429    0.429    0.000    2.286 
#    0.000   12.143    0.000    0.000    0.000    0.000 
#    0.000    0.000    0.000    0.000    0.000    0.000 
#
# Total GULP energy -78096.406906 kJ/mol
# GULP energy per Si atom -5578.314779 kJ/mol
# Density = 2.864239 g / cm^3
# Si number density = 28.707734 Si / 1000 Ang^3
#
#
#
# Elastic Constant Matrix: (Units=GPa)
#
#
# Indices 1 2 3 4 5 6 
#
# 1 84.3858 50.5415 46.3785 11.3822 -29.3867 1.3915
# 2 50.5415 254.8767 60.4179 17.2740 -22.9304 22.9493
# 3 46.3785 60.4179 124.5354 5.5409 -38.5331 11.3208
# 4 11.3822 17.2740 5.5409 52.6713 0.2747 -10.9243
# 5 -29.3867 -22.9304 -38.5331 0.2747 46.7113 3.0271
# 6 1.3915 22.9493 11.3208 -10.9243 3.0271 37.8778
#
#
#
# Elastic Compliance Matrix: (Units=1/GPa)
#
#
# Indices 1 2 3 4 5 6 
#
# 1 0.017803 -0.001880 -0.003225 -0.002933 0.007635 -0.000008
# 2 -0.001880 0.005036 -0.001222 -0.001777 0.000497 -0.003169
# 3 -0.003225 -0.001222 0.012751 -0.001099 0.008150 -0.003920
# 4 -0.002933 -0.001777 -0.001099 0.022044 -0.004286 0.008213
# 5 0.007635 0.000497 0.008150 -0.004286 0.033654 -0.006944
# 6 -0.000008 -0.003169 -0.003920 0.008213 -0.006944 0.032417
#
#
# Mechanical properties :
#
#
# Convention : Reuss Voigt Hill
#
# Bulk Modulus (GPa) = 43.59725 86.49706 65.04716
# Shear Modulus (GPa) = 34.72145 47.88275 41.30210
#
# Velocity S-wave (km/s) = 3.48153 4.08847 3.79715
# Velocity P-wave (km/s) = 5.60187 7.24452 6.47550
#
# Compressibility (1/GPa) = 0.02293723
#
# Stress axis : x y z
#
# Youngs Moduli (GPa) = 56.17075 198.55095 78.42623
#
# Poissons Ratio (x) = 0.37318 0.25289
# Poissons Ratio (y) = 0.10557 0.09587
# Poissons Ratio (z) = 0.18113 0.24271
#
# Static dielectric constant tensor:
#      x y z
#    x 2.367020 0.296330 0.226870 
#    y 0.296330 3.192340 0.496610 
#    z 0.226870 0.496610 2.421030 
# 
# From -- ./inp_files/234268.got.cif
#   From: 2010.05.17/outbox.cif.g08.bks.cpg/sg2_118_cif.got.tgz:234268.got - 2010.06.03 11:33:40.
