data_PCOD9077398
_publ_section_title
;
Structure prediction by ZEFSAII (Michael W. Deem and Ramdas Pophale) SiO2 
 PCOD9077398
Probable space group: P -1
;
_chemical_formula_sum "Si O2"
_cell_formula_units_Z 12
_cell_length_a 9.632599
_cell_length_b 11.670616
_cell_length_c 13.109860
_cell_angle_alpha 147.077513
_cell_angle_beta 135.257852
_cell_angle_gamma 51.827360
_cell_volume 562.927357
_symmetry_space_group_name_H-M "P -1"
_symmetry_group_IT_number 2
_symmetry_cell_setting 'triclinic'
loop_
_space_group_symop_operation_xyz
x,y,z
-x,-y,-z
loop_
_atom_site_type_symbol
_atom_site_label
_atom_site_fract_x
_atom_site_fract_y
_atom_site_fract_z
Si Si1 0.183702 0.321350 0.039188
Si Si2 0.686437 0.634321 0.093573
Si Si3 0.436859 0.024321 0.317246
Si Si4 0.925149 0.221215 0.574390
Si Si5 0.498872 0.248476 0.311009
Si Si6 0.757435 0.162906 0.747396
O O1 0.147281 0.569803 0.240386
O O2 0.355278 0.208250 0.112502
O O3 0.246714 0.327088 0.959356
O O4 0.979867 0.209368 0.868671
O O5 0.502984 0.793480 0.137095
O O6 0.873894 0.695694 0.306365
O O7 0.659314 0.388173 0.901958
O O8 0.266691 0.000284 0.294273
O O9 0.409914 0.169091 0.311993
O O10 0.624822 0.098278 0.534831
O O11 0.730448 0.173399 0.373125
O O12 0.000000 0.000000 0.500000
O O13 0.500000 0.500000 0.500000
#
# Coordination Sequence:
#
# PCOD9077398 Si02
#       6
#     2   2   2   2   2   2
#     4  10  22  36  58  90 124 148 192 253 287 348
#     4  11  21  36  63  88 118 149 204 245 284 347
#     4  11  22  38  61  84 121 161 192 242 295 354
#     4  10  18  34  59  84 116 151 196 236 288 338
#     4  10  20  36  58  89 121 155 189 244 300 345
#     4  10  22  39  58  88 117 158 200 240 292 346
#
# _framework density 21.317138
#
# number of rings (size 3 to 8) (size 9 to 14) (size 15 to 20)
#    0.000    1.667    1.667    5.500    0.000    1.333 
#    0.000    0.000    0.000    0.000    0.000   21.000 
#    0.000    0.000    0.000    0.000    0.000    0.000 
#
# Total GULP energy -66969.761356 kJ/mol
# GULP energy per Si atom -5580.813446 kJ/mol
# Density = 2.126862 g / cm^3
# Si number density = 21.317138 Si / 1000 Ang^3
#
#
#
# Elastic Constant Matrix: (Units=GPa)
#
#
# Indices 1 2 3 4 5 6 
#
# 1 90.2057 47.2772 29.3521 -0.3198 12.8536 23.5181
# 2 47.2772 142.5805 31.7382 -13.4263 6.8699 11.6851
# 3 29.3521 31.7382 84.6047 -5.6346 -0.6708 6.2670
# 4 -0.3198 -13.4263 -5.6346 40.3542 -6.1948 -0.4139
# 5 12.8536 6.8699 -0.6708 -6.1948 13.1132 10.8339
# 6 23.5181 11.6851 6.2670 -0.4139 10.8339 40.5438
#
#
#
# Elastic Compliance Matrix: (Units=1/GPa)
#
#
# Indices 1 2 3 4 5 6 
#
# 1 0.018043 -0.004269 -0.004670 -0.004056 -0.013521 -0.004943
# 2 -0.004269 0.009046 -0.001715 0.002848 0.000729 -0.000032
# 3 -0.004670 -0.001715 0.014426 0.002707 0.008554 -0.001285
# 4 -0.004056 0.002848 0.002707 0.029023 0.019466 -0.003792
# 5 -0.013521 0.000729 0.008554 0.019466 0.119844 -0.025515
# 6 -0.004943 -0.000032 -0.001285 -0.003792 -0.025515 0.034519
#
#
# Mechanical properties :
#
#
# Convention : Reuss Voigt Hill
#
# Bulk Modulus (GPa) = 49.48139 59.34730 54.41435
# Shear Modulus (GPa) = 19.76711 32.73712 26.25211
#
# Velocity S-wave (km/s) = 3.04844 3.92308 3.51308
# Velocity P-wave (km/s) = 5.97102 6.95854 6.48361
#
# Compressibility (1/GPa) = 0.02020962
#
# Stress axis : x y z
#
# Youngs Moduli (GPa) = 55.42182 110.54080 69.31780
#
# Poissons Ratio (x) = 0.47187 0.32369
# Poissons Ratio (y) = 0.23658 0.11887
# Poissons Ratio (z) = 0.25880 0.18956
#
# Static dielectric constant tensor:
#      x y z
#    x 1.832180 -0.025890 -0.018300 
#    y -0.025890 1.780640 -0.000950 
#    z -0.018300 -0.000950 1.852290 
# 
# From -- ./inp_files/318214.got.cif
#   From: 2010.05.17/outbox.cif.g08.bks.cpg/sg2_160_cif.got.tgz:318214.got - 2010.06.03 11:33:40.
