data_PCOD9077745
_publ_section_title
;
Structure prediction by ZEFSAII (Michael W. Deem and Ramdas Pophale) SiO2 
 PCOD9077745
Probable space group: P -1
;
_chemical_formula_sum "Si O2"
_cell_formula_units_Z 16
_cell_length_a 11.111659
_cell_length_b 15.414202
_cell_length_c 14.920950
_cell_angle_alpha 144.080644
_cell_angle_beta 29.533083
_cell_angle_gamma 135.616784
_cell_volume 738.569745
_symmetry_space_group_name_H-M "P -1"
_symmetry_group_IT_number 2
_symmetry_cell_setting 'triclinic'
loop_
_space_group_symop_operation_xyz
x,y,z
-x,-y,-z
loop_
_atom_site_type_symbol
_atom_site_label
_atom_site_fract_x
_atom_site_fract_y
_atom_site_fract_z
Si Si1 0.658699 0.290076 0.245990
Si Si2 0.820656 0.606566 0.458665
Si Si3 0.067704 0.978786 0.814077
Si Si4 0.148330 0.891930 0.485130
Si Si5 0.737571 0.188954 0.291501
Si Si6 0.544008 0.804954 0.030923
Si Si7 0.274184 0.909762 0.118544
Si Si8 0.257794 0.483873 0.367798
O O1 0.823328 0.433980 0.287097
O O2 0.407382 0.336374 0.401999
O O3 0.587457 0.192037 0.297754
O O4 0.800322 0.206022 0.007404
O O5 0.765688 0.603792 0.597035
O O6 0.044745 0.722342 0.402273
O O7 0.149819 0.953807 0.637807
O O8 0.247681 0.907751 0.709340
O O9 0.809682 0.883648 0.909434
O O10 0.994716 0.140339 0.034842
O O11 0.407546 0.889605 0.268473
O O12 0.952569 0.986310 0.636521
O O13 0.675708 0.349217 0.506495
O O14 0.376653 0.831575 0.074188
O O15 0.575887 0.631304 0.888279
O O16 0.500000 0.000000 0.000000
O O17 0.000000 0.500000 0.500000
#
# Coordination Sequence:
#
# PCOD9077745 Si02
#       8
#     2   2   2   2   2   2   2   2
#     4  10  18  34  64  88 116 164 199 248 306 355
#     4  10  20  35  60  90 121 156 203 248 301 360
#     4  11  21  42  62  90 123 160 203 253 306 358
#     4  12  23  40  63  93 123 160 206 251 304 363
#     4  10  21  35  68  88 117 166 205 246 307 363
#     4  12  24  39  65  92 123 161 205 252 301 367
#     4  12  19  39  64  89 123 163 201 249 306 359
#     4  11  19  39  65  89 120 164 206 246 304 361
#
# _framework density 21.663492000000002
#
# number of rings (size 3 to 8) (size 9 to 14) (size 15 to 20)
#    0.000    1.000    7.500    0.375    0.000    0.000 
#    0.000    6.875    0.000    0.000    0.000    0.000 
#    0.000    0.000    0.000    0.000    0.000    0.000 
#
# Total GULP energy -89127.260979 kJ/mol
# GULP energy per Si atom -5570.453811 kJ/mol
# Density = 2.161419 g / cm^3
# Si number density = 21.663492 Si / 1000 Ang^3
#
#
#
# Elastic Constant Matrix: (Units=GPa)
#
#
# Indices 1 2 3 4 5 6 
#
# 1 138.9539 23.8605 40.6115 5.1377 -0.6750 -27.5191
# 2 23.8605 40.3940 36.7339 21.0591 -5.3108 -2.2428
# 3 40.6115 36.7339 144.0096 19.4805 7.7110 -8.4911
# 4 5.1377 21.0591 19.4805 29.1935 -4.9956 1.1489
# 5 -0.6750 -5.3108 7.7110 -4.9956 32.7799 15.3879
# 6 -27.5191 -2.2428 -8.4911 1.1489 15.3879 35.5825
#
#
#
# Elastic Compliance Matrix: (Units=1/GPa)
#
#
# Indices 1 2 3 4 5 6 
#
# 1 0.010310 -0.006811 -0.000683 0.002371 -0.004766 0.009366
# 2 -0.006811 0.052471 -0.008419 -0.029188 0.009177 -0.006995
# 3 -0.000683 -0.008419 0.010053 -0.001668 -0.005836 0.003918
# 4 0.002371 -0.029188 -0.001668 0.057397 0.006925 -0.005252
# 5 -0.004766 0.009177 -0.005836 0.006925 0.045849 -0.024551
# 6 0.009366 -0.006995 0.003918 -0.005252 -0.024551 0.046628
#
#
# Mechanical properties :
#
#
# Convention : Reuss Voigt Hill
#
# Bulk Modulus (GPa) = 24.38594 58.41881 41.40238
# Shear Modulus (GPa) = 18.64255 34.32127 26.48191
#
# Velocity S-wave (km/s) = 2.93670 3.98463 3.50011
# Velocity P-wave (km/s) = 4.77285 6.94224 5.95713
#
# Compressibility (1/GPa) = 0.04100723
#
# Stress axis : x y z
#
# Youngs Moduli (GPa) = 96.99392 19.05822 99.46956
#
# Poissons Ratio (x) = 0.12981 0.06798
# Poissons Ratio (y) = 0.66063 0.83743
# Poissons Ratio (z) = 0.06629 0.16045
#
# Static dielectric constant tensor:
#      x y z
#    x 1.818120 0.015100 0.041990 
#    y 0.015100 1.868150 0.054280 
#    z 0.041990 0.054280 1.859110 
# 
# From -- ./inp_files/521709.got.cif
#   From: 2010.05.17/outbox.cif.g08.bks.cpg/sg2_261_cif.got.tgz:521709.got - 2010.06.03 11:33:40.
