data_PCOD9077989
_publ_section_title
;
Structure prediction by ZEFSAII (Michael W. Deem and Ramdas Pophale) SiO2 
 PCOD9077989
Probable space group: P -1
;
_chemical_formula_sum "Si O2"
_cell_formula_units_Z 12
_cell_length_a 9.415304
_cell_length_b 9.278860
_cell_length_c 16.162232
_cell_angle_alpha 131.666449
_cell_angle_beta 29.337871
_cell_angle_gamma 120.107415
_cell_volume 504.961504
_symmetry_space_group_name_H-M "P -1"
_symmetry_group_IT_number 2
_symmetry_cell_setting 'triclinic'
loop_
_space_group_symop_operation_xyz
x,y,z
-x,-y,-z
loop_
_atom_site_type_symbol
_atom_site_label
_atom_site_fract_x
_atom_site_fract_y
_atom_site_fract_z
Si Si1 0.649843 0.010016 0.016102
Si Si2 0.644676 0.032539 0.552319
Si Si3 0.926351 0.753042 0.161342
Si Si4 0.840605 0.175334 0.211763
Si Si5 0.312537 0.815374 0.243898
Si Si6 0.076319 0.496805 0.141082
O O1 0.938667 0.840523 0.827607
O O2 0.426048 0.971449 0.186241
O O3 0.795856 0.202465 0.014175
O O4 0.500000 0.000000 0.000000
O O5 0.383193 0.206112 0.715094
O O6 0.805684 0.100181 0.575121
O O7 0.850215 0.934080 0.336304
O O8 0.458308 0.877603 0.624118
O O9 0.013934 0.564821 0.104109
O O10 0.829084 0.383701 0.254996
O O11 0.000000 0.000000 0.000000
O O12 0.118816 0.685807 0.244409
O O13 0.617420 0.661123 0.058040
#
# Coordination Sequence:
#
# PCOD9077989 Si02
#       6
#     2   2   2   2   2   2
#     4  10  18  35  57  82 113 149 185 228 283 335
#     4  10  21  40  57  85 118 155 183 229 293 338
#     4  10  22  35  60  88 117 148 189 238 280 333
#     4  10  19  37  59  80 111 152 188 231 282 335
#     4  10  20  37  60  83 115 152 189 231 281 343
#     4  10  20  35  57  90 110 149 192 240 270 336
#
# _framework density 23.764187
#
# number of rings (size 3 to 8) (size 9 to 14) (size 15 to 20)
#    0.000    2.000    5.000    0.000    0.000    2.000 
#    0.000    0.000    0.000   25.000    0.000    0.000 
#    0.000    0.000    0.000    0.000    0.000    0.000 
#
# Total GULP energy -67047.801021 kJ/mol
# GULP energy per Si atom -5587.316752 kJ/mol
# Density = 2.371010 g / cm^3
# Si number density = 23.764187 Si / 1000 Ang^3
#
#
#
# Elastic Constant Matrix: (Units=GPa)
#
#
# Indices 1 2 3 4 5 6 
#
# 1 165.9245 33.3127 15.9377 -11.6689 4.3919 -28.8728
# 2 33.3127 163.2772 33.5156 -21.7805 -5.3777 -30.5625
# 3 15.9377 33.5156 84.1232 -14.5655 -2.0333 5.0980
# 4 -11.6689 -21.7805 -14.5655 26.0198 1.0028 0.6138
# 5 4.3919 -5.3777 -2.0333 1.0028 42.2958 0.3087
# 6 -28.8728 -30.5625 5.0980 0.6138 0.3087 45.2777
#
#
#
# Elastic Compliance Matrix: (Units=1/GPa)
#
#
# Indices 1 2 3 4 5 6 
#
# 1 0.007155 -0.000048 -0.001222 0.002409 -0.000899 0.004641
# 2 -0.000048 0.008585 -0.002818 0.005415 0.000789 0.006002
# 3 -0.001222 -0.002818 0.014426 0.005258 0.000369 -0.004380
# 4 0.002409 0.005415 0.005258 0.046912 -0.000450 0.003966
# 5 -0.000899 0.000789 0.000369 -0.000450 0.023867 -0.000239
# 6 0.004641 0.006002 -0.004380 0.003966 -0.000239 0.029538
#
#
# Mechanical properties :
#
#
# Convention : Reuss Voigt Hill
#
# Bulk Modulus (GPa) = 45.47857 64.31743 54.89800
# Shear Modulus (GPa) = 34.24904 44.75593 39.50249
#
# Velocity S-wave (km/s) = 3.80044 4.34445 4.08152
# Velocity P-wave (km/s) = 6.19974 7.23113 6.73521
#
# Compressibility (1/GPa) = 0.02198838
#
# Stress axis : x y z
#
# Youngs Moduli (GPa) = 139.76791 116.48558 69.31771
#
# Poissons Ratio (x) = 0.00564 0.08471
# Poissons Ratio (y) = 0.00677 0.19535
# Poissons Ratio (z) = 0.17080 0.32828
#
# Static dielectric constant tensor:
#      x y z
#    x 1.950800 -0.018900 -0.002720 
#    y -0.018900 1.924710 0.083060 
#    z -0.002720 0.083060 2.005850 
# 
# From -- ./inp_files/152179.got.cif
#   From: 2010.05.17/outbox.cif.g08.bks.cpg/sg2_77_cif.got.tgz:152179.got - 2010.06.03 11:33:40.
