data_PCOD9077945
_publ_section_title
;
Structure prediction by ZEFSAII (Michael W. Deem and Ramdas Pophale) SiO2 
 PCOD9077945
Probable space group: P -1
;
_chemical_formula_sum "Si O2"
_cell_formula_units_Z 16
_cell_length_a 10.127197
_cell_length_b 16.321476
_cell_length_c 15.704751
_cell_angle_alpha 36.469110
_cell_angle_beta 135.862854
_cell_angle_gamma 145.838961
_cell_volume 855.714622
_symmetry_space_group_name_H-M "P -1"
_symmetry_group_IT_number 2
_symmetry_cell_setting 'triclinic'
loop_
_space_group_symop_operation_xyz
x,y,z
-x,-y,-z
loop_
_atom_site_type_symbol
_atom_site_label
_atom_site_fract_x
_atom_site_fract_y
_atom_site_fract_z
Si Si1 0.045750 0.013360 0.152006
Si Si2 0.855855 0.741740 0.596916
Si Si3 0.678371 0.645217 0.894170
Si Si4 0.369392 0.087354 0.083273
Si Si5 0.641070 0.933636 0.362868
Si Si6 0.091611 0.816562 0.471954
Si Si7 0.465540 0.801701 0.573232
Si Si8 0.229657 0.506369 0.088157
O O1 0.144560 0.179701 0.117368
O O2 0.254938 0.045348 0.160539
O O3 0.967862 0.856508 0.310050
O O4 0.841557 0.980709 0.024027
O O5 0.707229 0.816857 0.448099
O O6 0.743358 0.586340 0.742087
O O7 0.929182 0.711245 0.565447
O O8 0.104466 0.897063 0.627268
O O9 0.525614 0.676180 0.736046
O O10 0.798510 0.590265 0.932065
O O11 0.500000 0.500000 0.000000
O O12 0.506763 0.003913 0.200041
O O13 0.548803 0.293843 0.985931
O O14 0.479733 0.822994 0.461536
O O15 0.220997 0.745494 0.547456
O O16 0.314466 0.007469 0.449866
O O17 0.000000 0.500000 0.000000
#
# Coordination Sequence:
#
# PCOD9077945 Si02
#       8
#     2   2   2   2   2   2   2   2
#     4  10  22  39  62  90 119 159 203 246 294 364
#     4  10  21  34  57  87 121 151 198 248 296 350
#     4  11  22  37  60  90 120 154 206 253 293 344
#     4  11  22  39  63  89 125 160 197 244 308 355
#     4  10  18  35  56  87 113 158 197 242 292 353
#     4   9  18  32  57  84 110 151 201 244 285 344
#     4   9  17  30  56  84 111 145 202 254 278 332
#     4  12  24  38  59  94 125 155 194 253 308 350
#
# _framework density 18.697821000000001
#
# number of rings (size 3 to 8) (size 9 to 14) (size 15 to 20)
#    0.000    1.750    5.000    0.000    5.250    0.000 
#    0.000    3.125    2.750    3.000    0.000    0.000 
#    0.000    0.000    0.000    0.000    0.000    0.000 
#
# Total GULP energy -89241.978378 kJ/mol
# GULP energy per Si atom -5577.623649 kJ/mol
# Density = 1.865526 g / cm^3
# Si number density = 18.697821 Si / 1000 Ang^3
#
#
#
# Elastic Constant Matrix: (Units=GPa)
#
#
# Indices 1 2 3 4 5 6 
#
# 1 113.7036 19.1239 27.8312 6.8073 11.3166 -4.6896
# 2 19.1239 30.1265 19.4614 3.8054 4.9588 -2.9081
# 3 27.8312 19.4614 74.8167 4.4091 5.2254 0.5185
# 4 6.8073 3.8054 4.4091 15.3113 3.7911 -0.6905
# 5 11.3166 4.9588 5.2254 3.7911 42.4122 -0.4634
# 6 -4.6896 -2.9081 0.5185 -0.6905 -0.4634 15.1911
#
#
#
# Elastic Compliance Matrix: (Units=1/GPa)
#
#
# Indices 1 2 3 4 5 6 
#
# 1 0.010550 -0.004210 -0.002584 -0.002355 -0.001768 0.002378
# 2 -0.004210 0.043650 -0.009360 -0.005401 -0.002267 0.007061
# 3 -0.002584 -0.009360 0.016886 -0.001484 -0.000199 -0.003239
# 4 -0.002355 -0.005401 -0.001484 0.069361 -0.004743 0.001298
# 5 -0.001768 -0.002267 -0.000199 -0.004743 0.024759 -0.000433
# 6 0.002378 0.007061 -0.003239 0.001298 -0.000433 0.068070
#
#
# Mechanical properties :
#
#
# Convention : Reuss Voigt Hill
#
# Bulk Modulus (GPa) = 25.78819 39.05331 32.42075
# Shear Modulus (GPa) = 17.95267 24.73161 21.34214
#
# Velocity S-wave (km/s) = 3.10199 3.64084 3.38216
# Velocity P-wave (km/s) = 5.16254 6.21339 5.71218
#
# Compressibility (1/GPa) = 0.03877744
#
# Stress axis : x y z
#
# Youngs Moduli (GPa) = 94.78340 22.90972 59.22142
#
# Poissons Ratio (x) = 0.09645 0.15301
# Poissons Ratio (y) = 0.39905 0.55433
# Poissons Ratio (z) = 0.24489 0.21444
#
# Static dielectric constant tensor:
#      x y z
#    x 1.661360 -0.001490 -0.001320 
#    y -0.001490 1.627580 -0.002250 
#    z -0.001320 -0.002250 1.659270 
# 
# From -- ./inp_files/273482.got.cif
#   From: 2010.05.17/outbox.cif.g08.bks.cpg/sg2_137_cif.got.tgz:273482.got - 2010.06.03 11:33:40.
