data_PCOD9077950
_publ_section_title
;
Structure prediction by ZEFSAII (Michael W. Deem and Ramdas Pophale) SiO2 
 PCOD9077950
Probable space group: P -1
;
_chemical_formula_sum "Si O2"
_cell_formula_units_Z 16
_cell_length_a 16.601648
_cell_length_b 13.535480
_cell_length_c 7.838903
_cell_angle_alpha 126.521083
_cell_angle_beta 69.449137
_cell_angle_gamma 152.386946
_cell_volume 577.985959
_symmetry_space_group_name_H-M "P -1"
_symmetry_group_IT_number 2
_symmetry_cell_setting 'triclinic'
loop_
_space_group_symop_operation_xyz
x,y,z
-x,-y,-z
loop_
_atom_site_type_symbol
_atom_site_label
_atom_site_fract_x
_atom_site_fract_y
_atom_site_fract_z
Si Si1 0.128172 0.642646 0.685851
Si Si2 0.696396 0.705196 0.383747
Si Si3 0.507044 0.954722 0.761506
Si Si4 0.248418 0.394994 0.061752
Si Si5 0.280134 0.431401 0.449705
Si Si6 0.952414 0.208804 0.549570
Si Si7 0.260107 0.687089 0.341096
Si Si8 0.343028 0.142365 0.904223
O O1 0.302253 0.754819 0.630730
O O2 0.096472 0.576652 0.416403
O O3 0.041446 0.458382 0.724960
O O4 0.739349 0.062542 0.110073
O O5 0.692400 0.634190 0.493879
O O6 0.805829 0.974851 0.565400
O O7 0.808756 0.760573 0.218133
O O8 0.474994 0.417884 0.175061
O O9 0.467308 0.758476 0.602844
O O10 0.711579 0.248248 0.818944
O O11 0.500000 0.000000 0.000000
O O12 0.210765 0.295857 0.176333
O O13 0.173514 0.437499 0.155900
O O14 0.485921 0.708085 0.175850
O O15 0.127461 0.335578 0.538139
O O16 0.822360 0.032650 0.288000
O O17 0.500000 0.000000 0.500000
#
# Coordination Sequence:
#
# PCOD9077950 Si02
#       8
#     2   2   2   2   2   2   2   2
#     4  10  19  34  61  89 117 158 196 243 309 350
#     4  10  23  39  63  87 118 160 206 236 287 366
#     4  10  19  29  57  84 115 149 195 241 293 343
#     4   9  20  37  62  86 117 153 205 242 290 353
#     4  11  21  35  60  89 118 153 201 250 289 347
#     4  11  21  38  60  87 126 158 191 248 307 343
#     4  10  18  35  56  88 116 153 198 247 290 356
#     4   9  21  39  62  86 118 161 199 240 297 362
#
# _framework density 27.682333
#
# number of rings (size 3 to 8) (size 9 to 14) (size 15 to 20)
#    0.750    1.250    2.500    3.750    1.750    0.500 
#    0.000    0.625    2.750    0.750    0.000    0.000 
#    0.000    0.000    0.000    0.000    0.000    0.000 
#
# Total GULP energy -89379.948086 kJ/mol
# GULP energy per Si atom -5586.246755 kJ/mol
# Density = 2.761933 g / cm^3
# Si number density = 27.682333 Si / 1000 Ang^3
#
#
#
# Elastic Constant Matrix: (Units=GPa)
#
#
# Indices 1 2 3 4 5 6 
#
# 1 123.5168 45.5638 9.9707 -19.8045 11.0097 -16.3037
# 2 45.5638 104.3328 33.5288 -15.9639 1.7323 -29.0660
# 3 9.9707 33.5288 51.5707 -23.3054 3.9108 1.5654
# 4 -19.8045 -15.9639 -23.3054 45.1169 3.4589 -10.7110
# 5 11.0097 1.7323 3.9108 3.4589 34.4802 -9.1601
# 6 -16.3037 -29.0660 1.5654 -10.7110 -9.1601 62.6309
#
#
#
# Elastic Compliance Matrix: (Units=1/GPa)
#
#
# Indices 1 2 3 4 5 6 
#
# 1 0.010943 -0.004849 0.003839 0.005585 -0.004015 0.000870
# 2 -0.004849 0.017197 -0.010840 -0.000155 0.003932 0.007538
# 3 0.003839 -0.010840 0.032892 0.014563 -0.006763 -0.003352
# 4 0.005585 -0.000155 0.014563 0.033922 -0.005222 0.006056
# 5 -0.004015 0.003932 -0.006763 -0.005222 0.032661 0.004833
# 6 0.000870 0.007538 -0.003352 0.006056 0.004833 0.021518
#
#
# Mechanical properties :
#
#
# Convention : Reuss Voigt Hill
#
# Bulk Modulus (GPa) = 26.78674 50.83853 38.81264
# Shear Modulus (GPa) = 26.98647 41.13608 34.06128
#
# Velocity S-wave (km/s) = 3.12567 3.85906 3.51156
# Velocity P-wave (km/s) = 4.76696 6.18557 5.52201
#
# Compressibility (1/GPa) = 0.03733190
#
# Stress axis : x y z
#
# Youngs Moduli (GPa) = 91.38065 58.14946 30.40238
#
# Poissons Ratio (x) = 0.28197 -0.11672
# Poissons Ratio (y) = 0.44311 0.32957
# Poissons Ratio (z) = -0.35081 0.63035
#
# Static dielectric constant tensor:
#      x y z
#    x 1.784790 0.503030 -0.171970 
#    y 0.503030 1.383400 0.292240 
#    z -0.171970 0.292240 2.167250 
# 
# From -- ./inp_files/354675.got.cif
#   From: 2010.05.17/outbox.cif.g08.bks.cpg/sg2_178_cif.got.tgz:354675.got - 2010.06.03 11:33:40.
