data_PCOD9077086
_publ_section_title
;
Structure prediction by ZEFSAII (Michael W. Deem and Ramdas Pophale) SiO2 
 PCOD9077086
Probable space group: P -1
;
_chemical_formula_sum "Si O2"
_cell_formula_units_Z 14
_cell_length_a 16.350620
_cell_length_b 8.916099
_cell_length_c 11.308009
_cell_angle_alpha 97.221151
_cell_angle_beta 129.105909
_cell_angle_gamma 42.889096
_cell_volume 671.090327
_symmetry_space_group_name_H-M "P -1"
_symmetry_group_IT_number 2
_symmetry_cell_setting 'triclinic'
loop_
_space_group_symop_operation_xyz
x,y,z
-x,-y,-z
loop_
_atom_site_type_symbol
_atom_site_label
_atom_site_fract_x
_atom_site_fract_y
_atom_site_fract_z
Si Si1 0.990672 0.947333 0.617974
Si Si2 0.816714 0.838001 0.891352
Si Si3 0.358536 0.079349 0.466792
Si Si4 0.020718 0.738783 0.263539
Si Si5 0.387182 0.321390 0.942419
Si Si6 0.449234 0.030450 0.158858
Si Si7 0.851703 0.821998 0.365327
O O1 0.221416 0.649317 0.837589
O O2 0.892924 0.901831 0.509217
O O3 0.000000 0.000000 0.500000
O O4 0.894408 0.196971 0.632254
O O5 0.714238 0.973617 0.682601
O O6 0.671299 0.932228 0.861690
O O7 0.000000 0.500000 0.000000
O O8 0.895986 0.882774 0.042216
O O9 0.182637 0.410919 0.365381
O O10 0.500000 0.000000 0.500000
O O11 0.466159 0.940329 0.676772
O O12 0.904901 0.827178 0.285120
O O13 0.392850 0.256169 0.804839
O O14 0.321166 0.265751 0.963221
O O15 0.614604 0.079168 0.162793
O O16 0.000000 0.500000 0.500000
#
# Coordination Sequence:
#
# PCOD9077086 Si02
#       7
#     2   2   2   2   2   2   2
#     4  10  23  37  53  86 130 160 191 236 302 371
#     4   9  18  33  57  82 106 154 201 246 282 337
#     4   9  18  33  57  83 106 150 203 250 281 334
#     4  10  19  36  53  84 118 148 198 245 292 354
#     4  11  21  35  58  89 125 155 186 242 314 362
#     4  10  18  34  55  89 114 144 197 250 289 349
#     4  11  21  36  59  89 119 159 193 237 303 365
#
# _framework density 20.861571999999999
#
# number of rings (size 3 to 8) (size 9 to 14) (size 15 to 20)
#    0.000    2.000    1.429    4.286    0.000    2.286 
#    5.143    0.000    0.000    8.571    0.000    0.000 
#    0.000    0.000    0.000    0.000    0.000    0.000 
#
# Total GULP energy -77938.177816 kJ/mol
# GULP energy per Si atom -5567.012701 kJ/mol
# Density = 2.081409 g / cm^3
# Si number density = 20.861572 Si / 1000 Ang^3
#
#
#
# Elastic Constant Matrix: (Units=GPa)
#
#
# Indices 1 2 3 4 5 6 
#
# 1 29.2276 15.8249 6.2113 8.9564 -3.0858 -7.3475
# 2 15.8249 69.9204 22.2967 39.4001 -7.1512 5.1671
# 3 6.2113 22.2967 87.2424 28.7551 2.1559 3.6526
# 4 8.9564 39.4001 28.7551 49.1593 0.4760 -0.8650
# 5 -3.0858 -7.1512 2.1559 0.4760 18.2222 7.1810
# 6 -7.3475 5.1671 3.6526 -0.8650 7.1810 34.6578
#
#
#
# Elastic Compliance Matrix: (Units=1/GPa)
#
#
# Indices 1 2 3 4 5 6 
#
# 1 0.042729 -0.011750 -0.001340 0.002634 -0.001772 0.011384
# 2 -0.011750 0.033754 0.000772 -0.025728 0.016429 -0.011651
# 3 -0.001340 0.000772 0.014361 -0.008804 -0.000602 -0.002008
# 4 0.002634 -0.025728 -0.008804 0.045926 -0.013457 0.009256
# 5 -0.001772 0.016429 -0.000602 -0.013457 0.068241 -0.017237
# 6 0.011384 -0.011651 -0.002008 0.009256 -0.017237 0.037018
#
#
# Mechanical properties :
#
#
# Convention : Reuss Voigt Hill
#
# Bulk Modulus (GPa) = 15.10412 30.56180 22.83296
# Shear Modulus (GPa) = 17.31692 29.87835 23.59764
#
# Velocity S-wave (km/s) = 2.88425 3.78857 3.36691
# Velocity P-wave (km/s) = 4.28343 5.81544 5.10720
#
# Compressibility (1/GPa) = 0.06620708
#
# Stress axis : x y z
#
# Youngs Moduli (GPa) = 23.40356 29.62591 69.63146
#
# Poissons Ratio (x) = 0.34811 0.09331
# Poissons Ratio (y) = 0.27499 -0.05373
# Poissons Ratio (z) = 0.03136 -0.02286
#
# Static dielectric constant tensor:
#      x y z
#    x 1.694550 0.025500 0.071980 
#    y 0.025500 1.821630 0.073140 
#    z 0.071980 0.073140 1.901390 
# 
# From -- ./inp_files/277590.got.cif
#   From: 2010.05.17/outbox.cif.g08.bks.cpg/sg2_139_cif.got.tgz:277590.got - 2010.06.03 11:33:40.
