data_PCOD9077993
_publ_section_title
;
Structure prediction by ZEFSAII (Michael W. Deem and Ramdas Pophale) SiO2 
 PCOD9077993
Probable space group: P -1
;
_chemical_formula_sum "Si O2"
_cell_formula_units_Z 16
_cell_length_a 16.164145
_cell_length_b 7.898074
_cell_length_c 8.375378
_cell_angle_alpha 117.438558
_cell_angle_beta 58.083744
_cell_angle_gamma 128.906123
_cell_volume 692.723851
_symmetry_space_group_name_H-M "P -1"
_symmetry_group_IT_number 2
_symmetry_cell_setting 'triclinic'
loop_
_space_group_symop_operation_xyz
x,y,z
-x,-y,-z
loop_
_atom_site_type_symbol
_atom_site_label
_atom_site_fract_x
_atom_site_fract_y
_atom_site_fract_z
Si Si1 0.900811 0.122107 0.006557
Si Si2 0.694268 0.247863 0.981403
Si Si3 0.215645 0.655185 0.606234
Si Si4 0.865812 0.723484 0.037940
Si Si5 0.431809 0.814327 0.621447
Si Si6 0.037490 0.319893 0.415592
Si Si7 0.647008 0.964779 0.627850
Si Si8 0.826022 0.024868 0.692497
O O1 0.854937 0.285339 0.171262
O O2 0.038041 0.245514 0.921123
O O3 0.849239 0.989704 0.835575
O O4 0.861533 0.945156 0.114770
O O5 0.742743 0.505206 0.077798
O O6 0.627321 0.127943 0.837500
O O7 0.807014 0.234101 0.833928
O O8 0.621707 0.113100 0.148919
O O9 0.317613 0.637766 0.573024
O O10 0.135536 0.434637 0.495845
O O11 0.272136 0.862984 0.514709
O O12 0.918245 0.712208 0.809748
O O13 0.500000 0.000000 0.500000
O O14 0.528019 0.783697 0.594989
O O15 0.000000 0.500000 0.500000
O O16 0.933137 0.103788 0.505469
O O17 0.713074 0.880953 0.638152
#
# Coordination Sequence:
#
# PCOD9077993 Si02
#       8
#     2   2   2   2   2   2   2   2
#     4  11  23  35  53  85 122 150 184 224 289 333
#     4  10  18  35  57  83 106 149 189 228 278 324
#     4  11  18  34  58  85 110 150 183 238 276 331
#     4  11  23  37  53  83 122 156 176 232 279 341
#     4  10  21  32  58  91 111 134 194 249 275 316
#     4  12  18  35  58  83 116 144 193 225 280 329
#     4   9  18  34  57  85 105 145 188 240 274 318
#     4  10  20  32  59  83 108 152 184 234 270 342
#
# _framework density 23.097228000000001
#
# number of rings (size 3 to 8) (size 9 to 14) (size 15 to 20)
#    0.750    0.750    6.250    0.375    1.750    1.500 
#    0.000    0.000    0.000    6.000    0.000    0.000 
#    0.000    0.000    0.000    0.000    0.000    0.000 
#
# Total GULP energy -89150.343525 kJ/mol
# GULP energy per Si atom -5571.896470 kJ/mol
# Density = 2.304466 g / cm^3
# Si number density = 23.097228 Si / 1000 Ang^3
#
#
#
# Elastic Constant Matrix: (Units=GPa)
#
#
# Indices 1 2 3 4 5 6 
#
# 1 173.1310 37.5343 24.3182 5.4257 29.2998 45.8397
# 2 37.5343 49.9067 11.1121 2.2464 -4.9245 5.4047
# 3 24.3182 11.1121 112.1640 -14.0841 10.4851 5.0818
# 4 5.4257 2.2464 -14.0841 24.3750 1.8679 4.6396
# 5 29.2998 -4.9245 10.4851 1.8679 29.6694 2.4292
# 6 45.8397 5.4047 5.0818 4.6396 2.4292 33.9469
#
#
#
# Elastic Compliance Matrix: (Units=1/GPa)
#
#
# Indices 1 2 3 4 5 6 
#
# 1 0.016043 -0.011861 0.000444 0.002669 -0.016580 -0.019020
# 2 -0.011861 0.030435 -0.003263 -0.005506 0.017350 0.011170
# 3 0.000444 -0.003263 0.010611 0.007151 -0.004992 -0.002288
# 4 0.002669 -0.005506 0.007151 0.047553 -0.008276 -0.009705
# 5 -0.016580 0.017350 -0.004992 -0.008276 0.053797 0.017655
# 6 -0.019020 0.011170 -0.002288 -0.009705 0.017655 0.053769
#
#
# Mechanical properties :
#
#
# Convention : Reuss Voigt Hill
#
# Bulk Modulus (GPa) = 36.06470 53.45897 44.76183
# Shear Modulus (GPa) = 19.93534 35.08073 27.50803
#
# Velocity S-wave (km/s) = 2.94105 3.90144 3.45478
# Velocity P-wave (km/s) = 5.21356 6.59473 5.94440
#
# Compressibility (1/GPa) = 0.02772794
#
# Stress axis : x y z
#
# Youngs Moduli (GPa) = 62.33137 32.85737 94.24266
#
# Poissons Ratio (x) = 0.38972 -0.04180
# Poissons Ratio (y) = 0.73932 0.30750
# Poissons Ratio (z) = -0.02764 0.10721
#
# Static dielectric constant tensor:
#      x y z
#    x 1.963380 -0.009830 0.026760 
#    y -0.009830 1.862700 0.000120 
#    z 0.026760 0.000120 1.862580 
# 
# From -- ./inp_files/327720.got.cif
#   From: 2010.05.17/outbox.cif.g08.bks.cpg/sg2_164_cif.got.tgz:327720.got - 2010.06.03 11:33:40.
