data_PCOD9077402
_publ_section_title
;
Structure prediction by ZEFSAII (Michael W. Deem and Ramdas Pophale) SiO2 
 PCOD9077402
Probable space group: P -1
;
_chemical_formula_sum "Si O2"
_cell_formula_units_Z 14
_cell_length_a 10.725594
_cell_length_b 8.981631
_cell_length_c 18.004058
_cell_angle_alpha 52.527965
_cell_angle_beta 153.892405
_cell_angle_gamma 126.321770
_cell_volume 600.458890
_symmetry_space_group_name_H-M "P -1"
_symmetry_group_IT_number 2
_symmetry_cell_setting 'triclinic'
loop_
_space_group_symop_operation_xyz
x,y,z
-x,-y,-z
loop_
_atom_site_type_symbol
_atom_site_label
_atom_site_fract_x
_atom_site_fract_y
_atom_site_fract_z
Si Si1 0.497120 0.012617 0.225741
Si Si2 0.440175 0.471096 0.229694
Si Si3 0.492018 0.894169 0.105449
Si Si4 0.220794 0.358895 0.913852
Si Si5 0.937237 0.042271 0.758794
Si Si6 0.671563 0.098927 0.450392
Si Si7 0.121013 0.604190 0.149841
O O1 0.693719 0.045473 0.392963
O O2 0.294332 0.813748 0.188274
O O3 0.317095 0.189066 0.067732
O O4 0.636155 0.999691 0.222500
O O5 0.658355 0.321959 0.382716
O O6 0.329808 0.485213 0.251327
O O7 0.561195 0.682747 0.205602
O O8 0.164915 0.412722 0.048100
O O9 0.152114 0.894313 0.940103
O O10 0.500000 0.000000 0.000000
O O11 0.080995 0.247119 0.801774
O O12 0.995396 0.456803 0.812236
O O13 0.500000 0.500000 0.000000
O O14 0.886338 0.038176 0.644781
O O15 0.641604 0.992594 0.659380
#
# Coordination Sequence:
#
# PCOD9077402 Si02
#       7
#     2   2   2   2   2   2   2
#     4  10  20  36  63  84 115 167 205 242 293 372
#     4  10  20  33  63  90 115 161 201 258 294 355
#     4  10  23  40  60  90 125 157 206 252 307 354
#     4  11  21  34  58  91 122 156 205 253 295 359
#     4  10  23  38  63  90 125 159 198 261 302 356
#     4  11  20  40  64  92 119 158 211 246 306 361
#     4  10  18  34  59  85 116 152 216 240 289 352
#
# _framework density 23.315501000000001
#
# number of rings (size 3 to 8) (size 9 to 14) (size 15 to 20)
#    0.000    1.714    2.857    3.857    4.000    0.000 
#    0.000    4.286    6.286    0.000    0.000    0.000 
#    0.000    0.000    0.000    0.000    0.000    0.000 
#
# Total GULP energy -78236.415164 kJ/mol
# GULP energy per Si atom -5588.315369 kJ/mol
# Density = 2.326243 g / cm^3
# Si number density = 23.315501 Si / 1000 Ang^3
#
#
#
# Elastic Constant Matrix: (Units=GPa)
#
#
# Indices 1 2 3 4 5 6 
#
# 1 128.6143 46.7741 24.3921 14.0235 -41.2055 -6.3637
# 2 46.7741 99.3941 12.7353 2.5310 -9.5428 -18.8317
# 3 24.3921 12.7353 93.2611 7.9328 -23.3682 -18.1365
# 4 14.0235 2.5310 7.9328 16.4091 -5.7971 -2.5093
# 5 -41.2055 -9.5428 -23.3682 -5.7971 41.4901 11.3128
# 6 -6.3637 -18.8317 -18.1365 -2.5093 11.3128 24.1037
#
#
#
# Elastic Compliance Matrix: (Units=1/GPa)
#
#
# Indices 1 2 3 4 5 6 
#
# 1 0.016080 -0.007762 -0.000565 -0.008376 0.015534 -0.010406
# 2 -0.007762 0.015566 0.000575 0.003597 -0.007201 0.014299
# 3 -0.000565 0.000575 0.013838 -0.003399 0.004663 0.008170
# 4 -0.008376 0.003597 -0.003399 0.069636 -0.001282 0.005893
# 5 0.015534 -0.007201 0.004663 -0.001282 0.045658 -0.019579
# 6 -0.010406 0.014299 0.008170 0.005893 -0.019579 0.065862
#
#
# Mechanical properties :
#
#
# Convention : Reuss Voigt Hill
#
# Bulk Modulus (GPa) = 33.35455 54.34138 43.84797
# Shear Modulus (GPa) = 19.83043 32.22512 26.02778
#
# Velocity S-wave (km/s) = 2.91954 3.72174 3.34478
# Velocity P-wave (km/s) = 5.06969 6.46730 5.81067
#
# Compressibility (1/GPa) = 0.02998091
#
# Stress axis : x y z
#
# Youngs Moduli (GPa) = 62.18869 64.24201 72.26445
#
# Poissons Ratio (x) = 0.49863 0.04082
# Poissons Ratio (y) = 0.48269 -0.04155
# Poissons Ratio (z) = 0.03513 -0.03693
#
# Static dielectric constant tensor:
#      x y z
#    x 1.993490 0.006730 0.010350 
#    y 0.006730 1.879080 0.013860 
#    z 0.010350 0.013860 1.838280 
# 
# From -- ./inp_files/175049.got.cif
#   From: 2010.05.17/outbox.cif.g08.bks.cpg/sg2_88_cif.got.tgz:175049.got - 2010.06.03 11:33:40.
