data_PCOD9077518
_publ_section_title
;
Structure prediction by ZEFSAII (Michael W. Deem and Ramdas Pophale) SiO2 
 PCOD9077518
Probable space group: P -1
;
_chemical_formula_sum "Si O2"
_cell_formula_units_Z 16
_cell_length_a 13.726096
_cell_length_b 15.467809
_cell_length_c 12.108463
_cell_angle_alpha 123.799700
_cell_angle_beta 44.212868
_cell_angle_gamma 153.130416
_cell_volume 781.560322
_symmetry_space_group_name_H-M "P -1"
_symmetry_group_IT_number 2
_symmetry_cell_setting 'triclinic'
loop_
_space_group_symop_operation_xyz
x,y,z
-x,-y,-z
loop_
_atom_site_type_symbol
_atom_site_label
_atom_site_fract_x
_atom_site_fract_y
_atom_site_fract_z
Si Si1 0.253745 0.852564 0.930667
Si Si2 0.275955 0.291671 0.468968
Si Si3 0.504120 0.501318 0.770332
Si Si4 0.818318 0.159482 0.767500
Si Si5 0.916344 0.085276 0.034732
Si Si6 0.392972 0.228740 0.519041
Si Si7 0.069583 0.529233 0.835052
Si Si8 0.008561 0.107043 0.223501
O O1 0.069406 0.647564 0.878701
O O2 0.283242 0.966889 0.905850
O O3 0.518421 0.958329 0.827877
O O4 0.149916 0.827820 0.115995
O O5 0.500000 0.500000 0.500000
O O6 0.421685 0.362958 0.284878
O O7 0.218228 0.166592 0.517065
O O8 0.025708 0.207228 0.589041
O O9 0.210757 0.316117 0.928588
O O10 0.497533 0.387540 0.627861
O O11 0.740016 0.664176 0.782243
O O12 0.878424 0.316971 0.798450
O O13 0.902072 0.956886 0.913456
O O14 0.890297 0.068230 0.175234
O O15 0.645810 0.339798 0.332768
O O16 0.216604 0.041767 0.605102
O O17 0.000000 0.500000 0.000000
#
# Coordination Sequence:
#
# PCOD9077518 Si02
#       8
#     2   2   2   2   2   2   2   2
#     4  10  22  36  57  82 121 159 191 236 288 357
#     4  10  18  34  60  87 121 148 184 251 294 343
#     4  10  20  35  64  86 117 152 191 247 298 345
#     4  10  19  37  54  87 120 151 192 234 294 358
#     4  10  22  42  59  88 120 150 202 249 288 342
#     4  10  21  37  56  92 125 146 195 251 291 344
#     4  10  21  35  56  81 122 162 186 231 295 354
#     4  10  22  39  64  88 112 155 201 251 293 341
#
# _framework density 20.471868000000001
#
# number of rings (size 3 to 8) (size 9 to 14) (size 15 to 20)
#    0.000    2.000    2.500    2.625    3.500    1.500 
#    4.500    0.625    0.000    1.500    0.000    0.000 
#    0.000    0.000    0.000    0.000    0.000    0.000 
#
# Total GULP energy -89189.591875 kJ/mol
# GULP energy per Si atom -5574.349492 kJ/mol
# Density = 2.042527 g / cm^3
# Si number density = 20.471868 Si / 1000 Ang^3
#
#
#
# Elastic Constant Matrix: (Units=GPa)
#
#
# Indices 1 2 3 4 5 6 
#
# 1 95.0254 14.4107 27.7494 6.8004 11.2512 -9.1662
# 2 14.4107 83.5185 30.9345 12.0141 1.5511 0.5948
# 3 27.7494 30.9345 81.5136 -16.4186 13.0173 0.7377
# 4 6.8004 12.0141 -16.4186 30.1273 -3.1729 2.0180
# 5 11.2512 1.5511 13.0173 -3.1729 19.8769 1.3432
# 6 -9.1662 0.5948 0.7377 2.0180 1.3432 23.5809
#
#
#
# Elastic Compliance Matrix: (Units=1/GPa)
#
#
# Indices 1 2 3 4 5 6 
#
# 1 0.013951 0.000899 -0.005766 -0.007708 -0.005866 0.006575
# 2 0.000899 0.017059 -0.009611 -0.012060 0.002454 0.001112
# 3 -0.005766 -0.009611 0.022554 0.016850 -0.007817 -0.003701
# 4 -0.007708 -0.012060 0.016850 0.049722 0.002722 -0.007629
# 5 -0.005866 0.002454 -0.007817 0.002722 0.059378 -0.005713
# 6 0.006575 0.001112 -0.003701 -0.007629 -0.005713 0.046029
#
#
# Mechanical properties :
#
#
# Convention : Reuss Voigt Hill
#
# Bulk Modulus (GPa) = 40.63569 45.13852 42.88710
# Shear Modulus (GPa) = 20.33735 27.18123 23.75929
#
# Velocity S-wave (km/s) = 3.15529 3.64776 3.41043
# Velocity P-wave (km/s) = 5.75909 6.31177 6.04175
#
# Compressibility (1/GPa) = 0.02460891
#
# Stress axis : x y z
#
# Youngs Moduli (GPa) = 71.67808 58.61850 44.33769
#
# Poissons Ratio (x) = -0.05272 0.25566
# Poissons Ratio (y) = -0.06447 0.42614
# Poissons Ratio (z) = 0.41330 0.56340
#
# Static dielectric constant tensor:
#      x y z
#    x 1.740240 -0.027290 0.001550 
#    y -0.027290 1.817320 0.008690 
#    z 0.001550 0.008690 1.748030 
# 
# From -- ./inp_files/433078.got.cif
#   From: 2010.05.17/outbox.cif.g08.bks.cpg/sg2_217_cif.got.tgz:433078.got - 2010.06.03 11:33:40.
