data_PCOD9077297
_publ_section_title
;
Structure prediction by ZEFSAII (Michael W. Deem and Ramdas Pophale) SiO2 
 PCOD9077297
Probable space group: P -1
;
_chemical_formula_sum "Si O2"
_cell_formula_units_Z 16
_cell_length_a 14.280189
_cell_length_b 11.099726
_cell_length_c 6.865025
_cell_angle_alpha 137.009625
_cell_angle_beta 79.674228
_cell_angle_gamma 92.019622
_cell_volume 722.472498
_symmetry_space_group_name_H-M "P -1"
_symmetry_group_IT_number 2
_symmetry_cell_setting 'triclinic'
loop_
_space_group_symop_operation_xyz
x,y,z
-x,-y,-z
loop_
_atom_site_type_symbol
_atom_site_label
_atom_site_fract_x
_atom_site_fract_y
_atom_site_fract_z
Si Si1 0.361138 0.839003 0.612605
Si Si2 0.645661 0.784733 0.016378
Si Si3 0.423938 0.768781 0.081321
Si Si4 0.549011 0.617346 0.464008
Si Si5 0.681493 0.870478 0.553315
Si Si6 0.049913 0.579318 0.762534
Si Si7 0.213988 0.568340 0.403867
Si Si8 0.121486 0.347604 0.839438
O O1 0.408854 0.845485 0.391943
O O2 0.452832 0.743055 0.580273
O O3 0.277181 0.719244 0.503584
O O4 0.319956 0.045882 0.900513
O O5 0.534621 0.779257 0.996623
O O6 0.648738 0.808721 0.277991
O O7 0.712956 0.598607 0.735970
O O8 0.354350 0.917345 0.159526
O O9 0.404248 0.565168 0.880835
O O10 0.500000 0.500000 0.500000
O O11 0.629967 0.745538 0.568571
O O12 0.795395 0.813058 0.432302
O O13 0.140610 0.639454 0.688907
O O14 0.086559 0.439515 0.756148
O O15 0.000000 0.500000 0.500000
O O16 0.966931 0.705735 0.061587
O O17 0.164488 0.488836 0.137818
#
# Coordination Sequence:
#
# PCOD9077297 Si02
#       8
#     2   2   2   2   2   2   2   2
#     4  11  20  36  55  82 116 158 202 232 281 340
#     4  10  18  34  58  81 114 159 202 235 272 342
#     4  11  19  36  57  75 115 164 200 230 276 336
#     4  12  24  33  49  83 124 160 195 235 279 339
#     4  10  20  35  56  84 113 155 196 237 282 337
#     4   9  19  38  63  89 112 147 193 248 306 355
#     4  10  20  34  61  89 117 155 194 243 297 340
#     4   9  19  36  60  88 115 146 200 246 291 358
#
# _framework density 22.146173999999998
#
# number of rings (size 3 to 8) (size 9 to 14) (size 15 to 20)
#    0.000    1.750    3.750    2.625    1.750    0.500 
#    2.250    0.000    0.000   20.250    0.000   66.500 
#    0.000    0.000    0.000    0.000    0.000    0.000 
#
# Total GULP energy -89116.602820 kJ/mol
# GULP energy per Si atom -5569.787676 kJ/mol
# Density = 2.209577 g / cm^3
# Si number density = 22.146174 Si / 1000 Ang^3
#
#
#
# Elastic Constant Matrix: (Units=GPa)
#
#
# Indices 1 2 3 4 5 6 
#
# 1 85.5922 52.3942 45.5199 3.4251 -30.7262 5.6410
# 2 52.3942 124.9866 33.4633 0.7227 -12.2066 -5.0124
# 3 45.5199 33.4633 74.0353 11.0165 -18.9308 3.0944
# 4 3.4251 0.7227 11.0165 41.9460 7.9657 -0.8554
# 5 -30.7262 -12.2066 -18.9308 7.9657 36.8557 -10.5986
# 6 5.6410 -5.0124 3.0944 -0.8554 -10.5986 34.8329
#
#
#
# Elastic Compliance Matrix: (Units=1/GPa)
#
#
# Indices 1 2 3 4 5 6 
#
# 1 0.026470 -0.007233 -0.008508 -0.002832 0.015978 0.000220
# 2 -0.007233 0.011280 -0.001683 0.001424 -0.002859 0.002109
# 3 -0.008508 -0.001683 0.021592 -0.005860 0.004866 0.000554
# 4 -0.002832 0.001424 -0.005860 0.027708 -0.011344 -0.001587
# 5 0.015978 -0.002859 0.004866 -0.011344 0.047551 0.010759
# 6 0.000220 0.002109 0.000554 -0.001587 0.010759 0.032162
#
#
# Mechanical properties :
#
#
# Convention : Reuss Voigt Hill
#
# Bulk Modulus (GPa) = 40.82487 60.81878 50.82183
# Shear Modulus (GPa) = 23.83505 32.94270 28.38888
#
# Velocity S-wave (km/s) = 3.28420 3.86101 3.58423
# Velocity P-wave (km/s) = 5.73198 6.88466 6.33460
#
# Compressibility (1/GPa) = 0.02449487
#
# Stress axis : x y z
#
# Youngs Moduli (GPa) = 37.77870 88.64911 46.31367
#
# Poissons Ratio (x) = 0.64116 0.39404
# Poissons Ratio (y) = 0.27324 0.07795
# Poissons Ratio (z) = 0.32142 0.14920
#
# Static dielectric constant tensor:
#      x y z
#    x 1.837650 -0.050340 0.101570 
#    y -0.050340 1.774140 -0.206860 
#    z 0.101570 -0.206860 1.952790 
# 
# From -- ./inp_files/305970.got.cif
#   From: 2010.05.17/outbox.cif.g08.bks.cpg/sg2_153_cif.got.tgz:305970.got - 2010.06.03 11:33:40.
