data_PCOD9077438
_publ_section_title
;
Structure prediction by ZEFSAII (Michael W. Deem and Ramdas Pophale) SiO2 
 PCOD9077438
Probable space group: P -1
;
_chemical_formula_sum "Si O2"
_cell_formula_units_Z 16
_cell_length_a 10.992671
_cell_length_b 8.126208
_cell_length_c 10.758540
_cell_angle_alpha 97.202431
_cell_angle_beta 106.110982
_cell_angle_gamma 39.388854
_cell_volume 579.619670
_symmetry_space_group_name_H-M "P -1"
_symmetry_group_IT_number 2
_symmetry_cell_setting 'triclinic'
loop_
_space_group_symop_operation_xyz
x,y,z
-x,-y,-z
loop_
_atom_site_type_symbol
_atom_site_label
_atom_site_fract_x
_atom_site_fract_y
_atom_site_fract_z
Si Si1 0.306382 0.164066 0.632190
Si Si2 0.359931 0.129804 0.094811
Si Si3 0.714254 0.003325 0.633517
Si Si4 0.886967 0.482309 0.617621
Si Si5 0.753015 0.099919 0.020817
Si Si6 0.581245 0.433423 0.376782
Si Si7 0.992961 0.983130 0.317643
Si Si8 0.360687 0.483182 0.108247
O O1 0.370572 0.971944 0.522886
O O2 0.196136 0.413429 0.537271
O O3 0.125014 0.265462 0.664233
O O4 0.477286 0.037656 0.763688
O O5 0.253405 0.417389 0.089671
O O6 0.500000 0.000000 0.000000
O O7 0.218854 0.113235 0.043703
O O8 0.802237 0.737337 0.680275
O O9 0.532335 0.283339 0.673340
O O10 0.886496 0.967242 0.661570
O O11 0.862913 0.320351 0.641551
O O12 0.523663 0.315625 0.027299
O O13 0.768461 0.225502 0.932834
O O14 0.879431 0.038962 0.166312
O O15 0.500000 0.500000 0.500000
O O16 0.183609 0.813619 0.610920
O O17 0.487263 0.388940 0.258053
#
# Coordination Sequence:
#
# PCOD9077438 Si02
#       8
#     2   2   2   2   2   2   2   2
#     4   9  19  37  59  93 134 172 225 272 336 413
#     4  10  18  34  59  90 133 172 222 287 329 391
#     4  10  23  43  66 101 138 180 224 280 351 410
#     4   9  20  39  61  96 139 175 223 279 342 409
#     4   9  20  36  62 100 122 173 239 267 331 415
#     4  11  23  40  67 102 141 176 229 285 343 414
#     4  11  23  44  74 100 139 180 229 286 344 412
#     4   9  19  37  59  91 132 168 222 281 332 391
#
# _framework density 27.604309000000001
#
# number of rings (size 3 to 8) (size 9 to 14) (size 15 to 20)
#    0.750    1.500    0.000    3.750    0.000    7.000 
#    4.500    3.125    0.000   12.000    0.000    0.000 
#    0.000    0.000    0.000    0.000    0.000    0.000 
#
# Total GULP energy -89554.000252 kJ/mol
# GULP energy per Si atom -5597.125016 kJ/mol
# Density = 2.754148 g / cm^3
# Si number density = 27.604309 Si / 1000 Ang^3
#
#
#
# Elastic Constant Matrix: (Units=GPa)
#
#
# Indices 1 2 3 4 5 6 
#
# 1 158.5575 91.6675 48.9503 -4.6169 32.2573 16.0923
# 2 91.6675 178.8942 40.5630 13.6296 14.6319 34.8068
# 3 48.9503 40.5630 132.4703 2.2821 25.2181 20.2373
# 4 -4.6169 13.6296 2.2821 42.7229 3.3331 -2.8916
# 5 32.2573 14.6319 25.2181 3.3331 40.9813 9.4687
# 6 16.0923 34.8068 20.2373 -2.8916 9.4687 76.1805
#
#
#
# Elastic Compliance Matrix: (Units=1/GPa)
#
#
# Indices 1 2 3 4 5 6 
#
# 1 0.011207 -0.005423 -0.001513 0.003636 -0.006589 0.001470
# 2 -0.005423 0.009284 -0.000734 -0.003931 0.002502 -0.003362
# 3 -0.001513 -0.000734 0.009290 -0.000208 -0.003939 -0.001331
# 4 0.003636 -0.003931 -0.000208 0.025549 -0.003997 0.002550
# 5 -0.006589 0.002502 -0.003939 -0.003997 0.032101 -0.002847
# 6 0.001470 -0.003362 -0.001331 0.002550 -0.002847 0.015156
#
#
# Mechanical properties :
#
#
# Convention : Reuss Voigt Hill
#
# Bulk Modulus (GPa) = 69.25497 92.47595 80.86546
# Shear Modulus (GPa) = 40.73635 51.22635 45.98135
#
# Velocity S-wave (km/s) = 3.84568 4.31250 4.08576
# Velocity P-wave (km/s) = 6.69791 7.64004 7.18443
#
# Compressibility (1/GPa) = 0.01443940
#
# Stress axis : x y z
#
# Youngs Moduli (GPa) = 89.23381 107.71016 107.64833
#
# Poissons Ratio (x) = 0.58414 0.16290
# Poissons Ratio (y) = 0.48394 0.07900
# Poissons Ratio (z) = 0.13503 0.07905
#
# Static dielectric constant tensor:
#      x y z
#    x 2.177730 0.059100 -0.030350 
#    y 0.059100 2.243390 0.000120 
#    z -0.030350 0.000120 2.189700 
# 
# From -- ./inp_files/419555.got.cif
#   From: 2010.05.17/outbox.cif.g08.bks.cpg/sg2_210_cif.got.tgz:419555.got - 2010.06.03 11:33:40.
