data_PCOD9077732
_publ_section_title
;
Structure prediction by ZEFSAII (Michael W. Deem and Ramdas Pophale) SiO2 
 PCOD9077732
Probable space group: P -1
;
_chemical_formula_sum "Si O2"
_cell_formula_units_Z 15
_cell_length_a 8.685761
_cell_length_b 7.411288
_cell_length_c 14.555601
_cell_angle_alpha 89.234054
_cell_angle_beta 113.579966
_cell_angle_gamma 130.367275
_cell_volume 612.438497
_symmetry_space_group_name_H-M "P -1"
_symmetry_group_IT_number 2
_symmetry_cell_setting 'triclinic'
loop_
_space_group_symop_operation_xyz
x,y,z
-x,-y,-z
loop_
_atom_site_type_symbol
_atom_site_label
_atom_site_fract_x
_atom_site_fract_y
_atom_site_fract_z
Si Si1 0.686873 0.345576 0.761035
Si Si2 0.806340 0.856403 0.781942
Si Si3 0.252614 0.190801 0.606127
Si Si4 0.259258 0.427723 0.927379
Si Si5 0.599234 0.780035 0.544356
Si Si6 0.826774 0.338636 0.587739
Si Si7 0.000000 0.500000 0.000000
Si Si8 0.685581 0.409605 0.265774
O O1 0.776251 0.620953 0.796171
O O2 0.402156 0.144402 0.691099
O O3 0.768973 0.334022 0.681452
O O4 0.814936 0.334437 0.871108
O O5 0.771237 0.847540 0.664711
O O6 0.588174 0.808247 0.771302
O O7 0.050663 0.123130 0.870421
O O8 0.411089 0.341957 0.551069
O O9 0.255159 0.350743 0.678716
O O10 0.000000 0.000000 0.500000
O O11 0.284115 0.554457 0.836545
O O12 0.500000 0.500000 0.000000
O O13 0.193729 0.515127 0.992056
O O14 0.335190 0.645046 0.507340
O O15 0.725254 0.065059 0.542053
O O16 0.107084 0.559548 0.644652
#
# Coordination Sequence:
#
# PCOD9077732 Si02
#       8
#     2   2   2   2   2   2   1   2
#     4  10  23  38  67  97 135 177 228 288 341 411
#     4  11  24  45  68 102 135 177 233 284 344 422
#     4  10  18  34  63  99 131 180 226 270 338 409
#     4  12  26  49  74  99 136 183 231 294 356 410
#     4  10  20  36  67  92 139 183 221 276 336 414
#     4  10  19  39  62  98 136 178 221 275 340 405
#     4  12  24  48  76 100 134 182 234 290 356 414
#     4  11  22  40  67  97 138 174 227 283 340 408
#
# _framework density 24.492255
#
# number of rings (size 3 to 8) (size 9 to 14) (size 15 to 20)
#    0.000    1.333    4.000    1.600    0.000    7.467 
#    2.400    1.333    0.000    0.000    0.000    0.000 
#    0.000    0.000    0.000    0.000    0.000    0.000 
#
# Total GULP energy -83598.262130 kJ/mol
# GULP energy per Si atom -5573.217475 kJ/mol
# Density = 2.443651 g / cm^3
# Si number density = 24.492255 Si / 1000 Ang^3
#
#
#
# Elastic Constant Matrix: (Units=GPa)
#
#
# Indices 1 2 3 4 5 6 
#
# 1 156.2402 5.0953 54.4916 19.7483 19.4434 10.8222
# 2 5.0953 39.7003 20.4134 19.5362 6.6002 3.5000
# 3 54.4916 20.4134 125.8616 15.2968 13.4958 10.7960
# 4 19.7483 19.5362 15.2968 30.2778 10.0526 8.4282
# 5 19.4434 6.6002 13.4958 10.0526 77.4258 7.2469
# 6 10.8222 3.5000 10.7960 8.4282 7.2469 29.6700
#
#
#
# Elastic Compliance Matrix: (Units=1/GPa)
#
#
# Indices 1 2 3 4 5 6 
#
# 1 0.008323 0.003635 -0.003364 -0.005618 -0.001048 -0.000389
# 2 0.003635 0.040172 -0.005122 -0.026549 -0.000317 0.003418
# 3 -0.003364 -0.005122 0.010339 0.001013 -0.000455 -0.002107
# 4 -0.005618 -0.026549 0.001013 0.057274 -0.002934 -0.010741
# 5 -0.001048 -0.000317 -0.000455 -0.002934 0.013850 -0.001964
# 6 -0.000389 0.003418 -0.002107 -0.010741 -0.001964 0.037740
#
#
# Mechanical properties :
#
#
# Convention : Reuss Voigt Hill
#
# Bulk Modulus (GPa) = 20.35378 53.53362 36.94370
# Shear Modulus (GPa) = 25.80286 43.59482 34.69884
#
# Velocity S-wave (km/s) = 3.24930 4.22351 3.76803
# Velocity P-wave (km/s) = 4.73346 6.75936 5.83500
#
# Compressibility (1/GPa) = 0.04913093
#
# Stress axis : x y z
#
# Youngs Moduli (GPa) = 120.15470 24.89307 96.72226
#
# Poissons Ratio (x) = -0.09048 0.32541
# Poissons Ratio (y) = -0.43672 0.49536
# Poissons Ratio (z) = 0.40424 0.12749
#
# Static dielectric constant tensor:
#      x y z
#    x 1.981790 0.001400 0.022960 
#    y 0.001400 2.127130 -0.024010 
#    z 0.022960 -0.024010 1.889490 
# 
# From -- ./inp_files/489810.got.cif
#   From: 2010.05.17/outbox.cif.g08.bks.cpg/sg2_245_cif.got.tgz:489810.got - 2010.06.03 11:33:40.
