data_PCOD9077029
_publ_section_title
;
Structure prediction by ZEFSAII (Michael W. Deem and Ramdas Pophale) SiO2 
 PCOD9077029
Probable space group: P -1
;
_chemical_formula_sum "Si O2"
_cell_formula_units_Z 14
_cell_length_a 13.749975
_cell_length_b 5.462375
_cell_length_c 10.644522
_cell_angle_alpha 58.153664
_cell_angle_beta 119.875124
_cell_angle_gamma 98.103073
_cell_volume 580.770003
_symmetry_space_group_name_H-M "P -1"
_symmetry_group_IT_number 2
_symmetry_cell_setting 'triclinic'
loop_
_space_group_symop_operation_xyz
x,y,z
-x,-y,-z
loop_
_atom_site_type_symbol
_atom_site_label
_atom_site_fract_x
_atom_site_fract_y
_atom_site_fract_z
Si Si1 0.646758 0.361780 0.166542
Si Si2 0.708649 0.895725 0.157061
Si Si3 0.876246 0.700736 0.991048
Si Si4 0.867078 0.316232 0.873069
Si Si5 0.403143 0.972405 0.544377
Si Si6 0.110744 0.849544 0.682928
Si Si7 0.718946 0.501449 0.518882
O O1 0.633260 0.203132 0.067799
O O2 0.572825 0.244029 0.259106
O O3 0.779821 0.219658 0.319474
O O4 0.653317 0.704319 0.073123
O O5 0.838142 0.963914 0.224806
O O6 0.711672 0.685917 0.337672
O O7 0.901397 0.456449 0.179897
O O8 0.997776 0.751674 0.998949
O O9 0.816466 0.546959 0.883616
O O10 0.819267 0.012652 0.922269
O O11 0.839431 0.447719 0.681529
O O12 0.315780 0.806923 0.455588
O O13 0.500000 0.000000 0.500000
O O14 0.360083 0.290388 0.490561
O O15 0.000000 0.000000 0.500000
#
# Coordination Sequence:
#
# PCOD9077029 Si02
#       7
#     2   2   2   2   2   2   2
#     4   8  18  31  45  73 104 127 160 198 266 303
#     4   8  17  30  46  73  96 128 164 199 256 300
#     4  10  22  34  52  73 105 141 186 214 240 304
#     4  10  21  38  48  74 104 147 180 211 248 297
#     4  10  19  32  54  85 107 129 167 218 276 317
#     4  10  20  33  51  76 102 138 170 214 262 305
#     4  10  18  34  55  74 110 137 166 216 263 318
#
# _framework density 24.105927999999999
#
# number of rings (size 3 to 8) (size 9 to 14) (size 15 to 20)
#    0.857    1.714    0.000    2.143    2.000    0.571 
#    5.143    0.000    0.000    0.000    0.000    6.000 
#    0.000    0.000    0.000    0.000    0.000    0.000 
#
# Total GULP energy -77973.780905 kJ/mol
# GULP energy per Si atom -5569.555779 kJ/mol
# Density = 2.405106 g / cm^3
# Si number density = 24.105928 Si / 1000 Ang^3
#
#
#
# Elastic Constant Matrix: (Units=GPa)
#
#
# Indices 1 2 3 4 5 6 
#
# 1 60.7150 10.2878 1.9140 -7.2342 -6.8224 6.1699
# 2 10.2878 209.3878 22.8574 -14.3588 -2.0925 -14.5042
# 3 1.9140 22.8574 50.1467 0.1854 3.3769 4.5465
# 4 -7.2342 -14.3588 0.1854 25.7978 6.6580 -3.7821
# 5 -6.8224 -2.0925 3.3769 6.6580 19.5514 -6.4701
# 6 6.1699 -14.5042 4.5465 -3.7821 -6.4701 24.2817
#
#
#
# Elastic Compliance Matrix: (Units=1/GPa)
#
#
# Indices 1 2 3 4 5 6 
#
# 1 0.017775 -0.000838 -0.000266 0.002983 0.004006 -0.003435
# 2 -0.000838 0.005767 -0.003173 0.003386 0.001427 0.005160
# 3 -0.000266 -0.003173 0.022565 -0.001508 -0.006468 -0.008011
# 4 0.002983 0.003386 -0.001508 0.045386 -0.011999 0.005419
# 5 0.004006 0.001427 -0.006468 -0.011999 0.063202 0.016018
# 6 -0.003435 0.005160 -0.008011 0.005419 0.016018 0.051750
#
#
# Mechanical properties :
#
#
# Convention : Reuss Voigt Hill
#
# Bulk Modulus (GPa) = 26.62818 43.37423 35.00121
# Shear Modulus (GPa) = 21.97626 32.93885 27.45756
#
# Velocity S-wave (km/s) = 3.02264 3.70052 3.37862
# Velocity P-wave (km/s) = 4.82204 6.02418 5.45632
#
# Compressibility (1/GPa) = 0.03755420
#
# Stress axis : x y z
#
# Youngs Moduli (GPa) = 56.25761 173.39278 44.31548
#
# Poissons Ratio (x) = 0.14525 0.01179
# Poissons Ratio (y) = 0.04713 0.14062
# Poissons Ratio (z) = 0.01497 0.55022
#
# Static dielectric constant tensor:
#      x y z
#    x 1.963330 -0.034640 -0.021000 
#    y -0.034640 2.093970 -0.000400 
#    z -0.021000 -0.000400 1.929070 
# 
# From -- ./inp_files/123433.got.cif
#   From: 2010.05.17/outbox.cif.g08.bks.cpg/sg2_62_cif.got.tgz:123433.got - 2010.06.03 11:33:40.
