data_PCOD9077800
_publ_section_title
;
Structure prediction by ZEFSAII (Michael W. Deem and Ramdas Pophale) SiO2 
 PCOD9077800
Probable space group: P -1
;
_chemical_formula_sum "Si O2"
_cell_formula_units_Z 16
_cell_length_a 9.132852
_cell_length_b 8.677580
_cell_length_c 15.706146
_cell_angle_alpha 142.548428
_cell_angle_beta 105.494524
_cell_angle_gamma 81.608147
_cell_volume 724.738345
_symmetry_space_group_name_H-M "P -1"
_symmetry_group_IT_number 2
_symmetry_cell_setting 'triclinic'
loop_
_space_group_symop_operation_xyz
x,y,z
-x,-y,-z
loop_
_atom_site_type_symbol
_atom_site_label
_atom_site_fract_x
_atom_site_fract_y
_atom_site_fract_z
Si Si1 0.325759 0.380459 0.941020
Si Si2 0.620409 0.860698 0.313813
Si Si3 0.592012 0.304060 0.382640
Si Si4 0.065495 0.591953 0.693942
Si Si5 0.279629 0.782461 0.240060
Si Si6 0.370912 0.918972 0.876279
Si Si7 0.119246 0.807258 0.401198
Si Si8 0.846553 0.707450 0.578392
O O1 0.275519 0.304939 0.802448
O O2 0.327151 0.151162 0.910568
O O3 0.500000 0.500000 0.000000
O O4 0.245110 0.595219 0.072292
O O5 0.567744 0.038599 0.308740
O O6 0.721509 0.045755 0.473728
O O7 0.456857 0.743780 0.275499
O O8 0.500000 0.500000 0.500000
O O9 0.561394 0.270040 0.263705
O O10 0.765650 0.431663 0.474249
O O11 0.219743 0.758528 0.821040
O O12 0.109518 0.355903 0.538644
O O13 0.946809 0.463998 0.687387
O O14 0.985332 0.765693 0.690010
O O15 0.159401 0.749619 0.284419
O O16 0.263286 0.074640 0.340763
O O17 0.500000 0.000000 0.000000
O O18 0.000000 0.000000 0.500000
#
# Coordination Sequence:
#
# PCOD9077800 Si02
#       8
#     2   2   2   2   2   2   2   2
#     4   9  22  43  63  91 128 170 214 260 316 381
#     4  10  21  40  64  94 127 172 215 265 311 388
#     4  10  18  34  67  93 115 157 218 261 305 371
#     4  10  22  40  64  91 131 167 212 265 326 386
#     4  11  22  39  66  98 129 168 216 265 323 382
#     4  10  23  42  65  90 125 171 211 260 323 381
#     4  12  24  39  62  98 133 166 211 275 333 367
#     4  10  19  37  64  95 123 166 216 262 316 387
#
# _framework density 22.076930999999998
#
# number of rings (size 3 to 8) (size 9 to 14) (size 15 to 20)
#    0.000    1.750    3.750    0.375    1.750    3.000 
#    0.000    3.125    0.000    0.000    0.000    0.000 
#    0.000    0.000    0.000    0.000    0.000    0.000 
#
# Total GULP energy -89104.175144 kJ/mol
# GULP energy per Si atom -5569.010947 kJ/mol
# Density = 2.202668 g / cm^3
# Si number density = 22.076931 Si / 1000 Ang^3
#
#
#
# Elastic Constant Matrix: (Units=GPa)
#
#
# Indices 1 2 3 4 5 6 
#
# 1 96.2308 22.5480 37.4828 -3.4935 -11.9004 15.1924
# 2 22.5480 44.8138 10.8590 10.2663 -1.2030 18.4730
# 3 37.4828 10.8590 98.1693 -4.2915 -6.2318 2.3592
# 4 -3.4935 10.2663 -4.2915 21.4978 -4.3913 4.8502
# 5 -11.9004 -1.2030 -6.2318 -4.3913 43.4667 -1.6923
# 6 15.1924 18.4730 2.3592 4.8502 -1.6923 29.0722
#
#
#
# Elastic Compliance Matrix: (Units=1/GPa)
#
#
# Indices 1 2 3 4 5 6 
#
# 1 0.014879 -0.005862 -0.004421 0.006108 0.003719 -0.004494
# 2 -0.005862 0.036520 -0.002260 -0.015531 -0.003171 -0.017552
# 3 -0.004421 -0.002260 0.012225 0.002428 0.000818 0.002397
# 4 0.006108 -0.015531 0.002428 0.057508 0.007296 -0.002690
# 5 0.003719 -0.003171 0.000818 0.007296 0.024800 0.000231
# 6 -0.004494 -0.017552 0.002397 -0.002690 0.000231 0.048166
#
#
# Mechanical properties :
#
#
# Convention : Reuss Voigt Hill
#
# Bulk Modulus (GPa) = 25.94882 42.33260 34.14071
# Shear Modulus (GPa) = 21.54907 30.02897 25.78902
#
# Velocity S-wave (km/s) = 3.12763 3.69209 3.42152
# Velocity P-wave (km/s) = 4.98218 6.11490 5.57737
#
# Compressibility (1/GPa) = 0.03853740
#
# Stress axis : x y z
#
# Youngs Moduli (GPa) = 67.21098 27.38259 81.79906
#
# Poissons Ratio (x) = 0.16050 0.36166
# Poissons Ratio (y) = 0.39396 0.18486
# Poissons Ratio (z) = 0.29716 0.06188
#
# Static dielectric constant tensor:
#      x y z
#    x 2.100470 0.151920 0.015260 
#    y 0.151920 1.959280 0.013710 
#    z 0.015260 0.013710 1.886800 
# 
# From -- ./inp_files/399750.got.cif
#   From: 2010.05.17/outbox.cif.g08.bks.cpg/sg2_200_cif.got.tgz:399750.got - 2010.06.03 11:33:40.
