data_PCOD9077942
_publ_section_title
;
Structure prediction by ZEFSAII (Michael W. Deem and Ramdas Pophale) SiO2 
 PCOD9077942
Probable space group: P -1
;
_chemical_formula_sum "Si O2"
_cell_formula_units_Z 16
_cell_length_a 15.582863
_cell_length_b 11.016077
_cell_length_c 9.592340
_cell_angle_alpha 121.090014
_cell_angle_beta 69.776790
_cell_angle_gamma 146.359268
_cell_volume 768.769036
_symmetry_space_group_name_H-M "P -1"
_symmetry_group_IT_number 2
_symmetry_cell_setting 'triclinic'
loop_
_space_group_symop_operation_xyz
x,y,z
-x,-y,-z
loop_
_atom_site_type_symbol
_atom_site_label
_atom_site_fract_x
_atom_site_fract_y
_atom_site_fract_z
Si Si1 0.748090 0.858232 0.980684
Si Si2 0.969901 0.208659 0.608931
Si Si3 0.798430 0.236905 0.132963
Si Si4 0.542147 0.117703 0.891194
Si Si5 0.102107 0.127378 0.334988
Si Si6 0.612068 0.528849 0.122636
Si Si7 0.699999 0.058815 0.763310
Si Si8 0.607708 0.504097 0.410082
O O1 0.852737 0.883428 0.844794
O O2 0.574945 0.663963 0.888577
O O3 0.702516 0.732334 0.078084
O O4 0.825509 0.111877 0.100186
O O5 0.800184 0.070339 0.630510
O O6 0.083159 0.486122 0.737984
O O7 0.014163 0.166601 0.426845
O O8 0.976071 0.100695 0.667586
O O9 0.630450 0.079145 0.192115
O O10 0.779111 0.182688 0.944392
O O11 0.669579 0.174508 0.785311
O O12 0.613909 0.364046 0.996437
O O13 0.500000 0.000000 0.000000
O O14 0.266848 0.363897 0.463681
O O15 0.685373 0.634912 0.296439
O O16 0.520650 0.778909 0.709327
O O17 0.500000 0.500000 0.500000
#
# Coordination Sequence:
#
# PCOD9077942 Si02
#       8
#     2   2   2   2   2   2   2   2
#     4  10  19  37  58  85 120 148 191 233 290 347
#     4  11  22  34  56  84 117 157 191 235 290 332
#     4  10  18  35  56  86 114 150 191 242 278 341
#     4   9  17  32  56  86 110 134 194 245 277 314
#     4  11  23  36  56  90 120 149 187 246 286 340
#     4  10  19  33  61  87 113 150 186 239 290 340
#     4  11  19  33  55  91 109 147 193 246 275 334
#     4  12  18  35  58  89 115 140 189 246 282 328
#
# _framework density 20.812494000000001
#
# number of rings (size 3 to 8) (size 9 to 14) (size 15 to 20)
#    0.000    1.500    7.500    1.125    1.750    0.000 
#    0.000    0.000    2.750   11.250    0.000    0.000 
#    0.000    0.000    0.000    0.000    0.000    0.000 
#
# Total GULP energy -89175.166444 kJ/mol
# GULP energy per Si atom -5573.447903 kJ/mol
# Density = 2.076512 g / cm^3
# Si number density = 20.812494 Si / 1000 Ang^3
#
#
#
# Elastic Constant Matrix: (Units=GPa)
#
#
# Indices 1 2 3 4 5 6 
#
# 1 76.3174 27.5386 42.7841 -2.2201 -39.7400 8.1466
# 2 27.5386 83.6878 54.7680 20.3041 -21.3071 -3.1230
# 3 42.7841 54.7680 83.3776 17.2251 -41.5940 0.4684
# 4 -2.2201 20.3041 17.2251 36.6294 5.6531 -8.9684
# 5 -39.7400 -21.3071 -41.5940 5.6531 41.5653 -2.9206
# 6 8.1466 -3.1230 0.4684 -8.9684 -2.9206 21.2601
#
#
#
# Elastic Compliance Matrix: (Units=1/GPa)
#
#
# Indices 1 2 3 4 5 6 
#
# 1 0.028122 -0.003007 0.002069 -0.004079 0.027323 -0.009231
# 2 -0.003007 0.022600 -0.015667 -0.003796 -0.006286 0.002352
# 3 0.002069 -0.015667 0.048348 -0.022707 0.044885 -0.007572
# 4 -0.004079 -0.003796 -0.022707 0.049418 -0.034048 0.017675
# 5 0.027323 -0.006286 0.044885 -0.034048 0.095549 -0.013619
# 6 -0.009231 0.002352 -0.007572 0.017675 -0.013619 0.056671
#
#
# Mechanical properties :
#
#
# Convention : Reuss Voigt Hill
#
# Bulk Modulus (GPa) = 15.18340 54.84047 35.01194
# Shear Modulus (GPa) = 14.05008 27.77711 20.91359
#
# Velocity S-wave (km/s) = 2.60105 3.65723 3.17339
# Velocity P-wave (km/s) = 4.04126 6.65137 5.50330
#
# Compressibility (1/GPa) = 0.06586141
#
# Stress axis : x y z
#
# Youngs Moduli (GPa) = 35.55889 44.24782 20.68348
#
# Poissons Ratio (x) = 0.13303 -0.04280
# Poissons Ratio (y) = 0.10691 0.32405
# Poissons Ratio (z) = -0.07358 0.69323
#
# Static dielectric constant tensor:
#      x y z
#    x 1.790860 0.036360 -0.035180 
#    y 0.036360 1.880550 0.161750 
#    z -0.035180 0.161750 2.091910 
# 
# From -- ./inp_files/464010.got.cif
#   From: 2010.05.17/outbox.cif.g08.bks.cpg/sg2_233_cif.got.tgz:464010.got - 2010.06.03 11:33:40.
