data_PCOD9077539
_publ_section_title
;
Structure prediction by ZEFSAII (Michael W. Deem and Ramdas Pophale) SiO2 
 PCOD9077539
Probable space group: P -1
;
_chemical_formula_sum "Si O2"
_cell_formula_units_Z 13
_cell_length_a 16.124871
_cell_length_b 9.179078
_cell_length_c 8.906260
_cell_angle_alpha 45.128048
_cell_angle_beta 45.716190
_cell_angle_gamma 33.182974
_cell_volume 491.184874
_symmetry_space_group_name_H-M "P -1"
_symmetry_group_IT_number 2
_symmetry_cell_setting 'triclinic'
loop_
_space_group_symop_operation_xyz
x,y,z
-x,-y,-z
loop_
_atom_site_type_symbol
_atom_site_label
_atom_site_fract_x
_atom_site_fract_y
_atom_site_fract_z
Si Si1 0.672856 0.888444 0.027569
Si Si2 0.902212 0.073665 0.221593
Si Si3 0.145566 0.084246 0.003267
Si Si4 0.538015 0.765544 0.511605
Si Si5 0.193738 0.223538 0.527970
Si Si6 0.500000 0.500000 0.000000
Si Si7 0.672964 0.615731 0.944838
O O1 0.662651 0.703120 0.283002
O O2 0.669394 0.817414 0.914687
O O3 0.816357 0.844287 0.942339
O O4 0.501188 0.212976 0.032758
O O5 0.736163 0.367702 0.158402
O O6 0.887591 0.847184 0.425796
O O7 0.000835 0.100865 0.187619
O O8 0.000000 0.000000 0.000000
O O9 0.316028 0.778106 0.971704
O O10 0.125950 0.260636 0.754275
O O11 0.500000 0.000000 0.500000
O O12 0.376211 0.933984 0.505797
O O13 0.578089 0.531067 0.735549
O O14 0.212845 0.434597 0.292935
#
# Coordination Sequence:
#
# PCOD9077539 Si02
#       7
#     2   2   2   2   2   1   2
#     4  10  21  41  61  94 116 160 199 244 301 354
#     4  10  23  40  58  91 123 157 199 246 294 359
#     4  10  21  37  63  89 117 152 210 241 291 353
#     4  10  18  34  60  90 116 145 204 244 288 343
#     4   9  20  38  60  90 116 158 199 242 293 361
#     4  10  20  34  60  94 112 150 192 262 280 332
#     4  10  23  41  63  83 131 156 190 252 305 345
#
# _framework density 26.466612999999999
#
# number of rings (size 3 to 8) (size 9 to 14) (size 15 to 20)
#    0.000    2.154    3.077    0.000    6.462    3.077 
#    5.538    3.077    0.000    0.000    0.000    0.000 
#    0.000    0.000    0.000    0.000    0.000    0.000 
#
# Total GULP energy -72398.066601 kJ/mol
# GULP energy per Si atom -5569.082046 kJ/mol
# Density = 2.640637 g / cm^3
# Si number density = 26.466613 Si / 1000 Ang^3
#
#
#
# Elastic Constant Matrix: (Units=GPa)
#
#
# Indices 1 2 3 4 5 6 
#
# 1 179.6125 10.7399 43.7359 6.4903 -24.0659 -46.3149
# 2 10.7399 51.7657 -5.6407 -5.7277 3.1891 -20.0152
# 3 43.7359 -5.6407 94.2802 -23.1540 -5.3249 1.3981
# 4 6.4903 -5.7277 -23.1540 26.3941 -6.4074 1.3897
# 5 -24.0659 3.1891 -5.3249 -6.4074 44.9563 2.7806
# 6 -46.3149 -20.0152 1.3981 1.3897 2.7806 35.7113
#
#
#
# Elastic Compliance Matrix: (Units=1/GPa)
#
#
# Indices 1 2 3 4 5 6 
#
# 1 0.013272 0.002257 -0.008739 -0.010659 0.003216 0.018984
# 2 0.002257 0.026455 0.001568 0.005446 -0.000792 0.017542
# 3 -0.008739 0.001568 0.020221 0.021204 0.001381 -0.012180
# 4 -0.010659 0.005446 0.021204 0.062570 0.006235 -0.014522
# 5 0.003216 -0.000792 0.001381 0.006235 0.024982 0.001485
# 6 0.018984 0.017542 -0.012180 -0.014522 0.001485 0.063382
#
#
# Mechanical properties :
#
#
# Convention : Reuss Voigt Hill
#
# Bulk Modulus (GPa) = 19.95244 47.03651 33.49447
# Shear Modulus (GPa) = 21.06015 39.86725 30.46370
#
# Velocity S-wave (km/s) = 2.82392 3.88535 3.39635
# Velocity P-wave (km/s) = 4.26471 6.15942 5.29747
#
# Compressibility (1/GPa) = 0.05011919
#
# Stress axis : x y z
#
# Youngs Moduli (GPa) = 75.34669 37.80061 49.45409
#
# Poissons Ratio (x) = -0.08531 0.43220
# Poissons Ratio (y) = -0.17005 -0.07757
# Poissons Ratio (z) = 0.65848 -0.05929
#
# Static dielectric constant tensor:
#      x y z
#    x 2.421800 -0.190410 0.059850 
#    y -0.190410 2.277070 -0.061130 
#    z 0.059850 -0.061130 2.001510 
# 
# From -- ./inp_files/331514.got.cif
#   From: 2010.05.17/outbox.cif.g08.bks.cpg/sg2_166_cif.got.tgz:331514.got - 2010.06.03 11:33:40.
