data_PCOD9077956
_publ_section_title
;
Structure prediction by ZEFSAII (Michael W. Deem and Ramdas Pophale) SiO2 
 PCOD9077956
Probable space group: P -1
;
_chemical_formula_sum "Si O2"
_cell_formula_units_Z 16
_cell_length_a 16.581474
_cell_length_b 8.100713
_cell_length_c 4.967594
_cell_angle_alpha 88.223909
_cell_angle_beta 62.751156
_cell_angle_gamma 73.842117
_cell_volume 566.131512
_symmetry_space_group_name_H-M "P -1"
_symmetry_group_IT_number 2
_symmetry_cell_setting 'triclinic'
loop_
_space_group_symop_operation_xyz
x,y,z
-x,-y,-z
loop_
_atom_site_type_symbol
_atom_site_label
_atom_site_fract_x
_atom_site_fract_y
_atom_site_fract_z
Si Si1 0.923870 0.431595 0.959136
Si Si2 0.667641 0.112323 0.426295
Si Si3 0.943070 0.907046 0.286249
Si Si4 0.651145 0.504091 0.102033
Si Si5 0.797454 0.774955 0.151253
Si Si6 0.506873 0.331519 0.268274
Si Si7 0.809583 0.254578 0.547627
Si Si8 0.362975 0.188651 0.222268
O O1 0.857616 0.605535 0.910176
O O2 0.866829 0.356149 0.274601
O O3 0.000000 0.500000 0.000000
O O4 0.982452 0.266536 0.701525
O O5 0.575055 0.214965 0.399948
O O6 0.734701 0.212074 0.454205
O O7 0.730838 0.959535 0.139761
O O8 0.640418 0.003363 0.715826
O O9 0.870656 0.837105 0.224023
O O10 0.878506 0.067198 0.547845
O O11 0.000000 0.000000 0.000000
O O12 0.750547 0.366997 0.877817
O O13 0.654711 0.696189 0.021065
O O14 0.577374 0.433232 0.039566
O O15 0.588075 0.537336 0.464460
O O16 0.726587 0.712662 0.457791
O O17 0.461417 0.209287 0.175079
#
# Coordination Sequence:
#
# PCOD9077956 Si02
#       8
#     2   2   2   2   2   2   2   2
#     4   9  15  28  57  90 124 146 200 245 296 373
#     4   9  21  37  59  85 123 155 211 241 304 352
#     4   8  15  27  51  91 121 141 193 248 292 365
#     4  11  25  38  62  83 125 162 210 249 298 357
#     4   8  16  31  54  86 115 158 190 240 305 339
#     4  11  25  40  59  91 114 173 209 246 298 348
#     4  10  18  35  56  89 125 159 192 255 302 349
#     4  10  21  42  59  83 126 161 205 252 294 358
#
# _framework density 28.261984999999999
#
# number of rings (size 3 to 8) (size 9 to 14) (size 15 to 20)
#    0.750    1.750    1.250    0.750    5.250    0.500 
#    2.250    0.000    0.000    0.000    0.000   57.750 
#    0.000    0.000    0.000    0.000    0.000    2.125 
#
# Total GULP energy -89404.534446 kJ/mol
# GULP energy per Si atom -5587.783403 kJ/mol
# Density = 2.819766 g / cm^3
# Si number density = 28.261985 Si / 1000 Ang^3
#
#
#
# Elastic Constant Matrix: (Units=GPa)
#
#
# Indices 1 2 3 4 5 6 
#
# 1 118.5044 68.9221 42.1257 13.4201 -17.4954 24.3054
# 2 68.9221 175.5243 66.0256 23.1493 -20.0738 -2.2748
# 3 42.1257 66.0256 132.2076 5.4230 -28.1336 -11.6984
# 4 13.4201 23.1493 5.4230 55.7614 -7.7442 -30.4228
# 5 -17.4954 -20.0738 -28.1336 -7.7442 44.5128 -5.8775
# 6 24.3054 -2.2748 -11.6984 -30.4228 -5.8775 61.9515
#
#
#
# Elastic Compliance Matrix: (Units=1/GPa)
#
#
# Indices 1 2 3 4 5 6 
#
# 1 0.014679 -0.003648 -0.003636 -0.007390 -0.000818 -0.010286
# 2 -0.003648 0.008583 -0.002994 -0.002354 0.000140 0.000039
# 3 -0.003636 -0.002994 0.012045 0.005730 0.006761 0.007047
# 4 -0.007390 -0.002354 0.005730 0.032494 0.008031 0.020614
# 5 -0.000818 0.000140 0.006761 0.008031 0.028972 0.008295
# 6 -0.010286 0.000039 0.007047 0.020614 0.008295 0.032419
#
#
# Mechanical properties :
#
#
# Convention : Reuss Voigt Hill
#
# Bulk Modulus (GPa) = 67.80027 86.70922 77.25475
# Shear Modulus (GPa) = 32.32756 49.05600 40.69178
#
# Velocity S-wave (km/s) = 3.38576 4.17076 3.79859
# Velocity P-wave (km/s) = 6.27108 7.34444 6.82888
#
# Compressibility (1/GPa) = 0.01474920
#
# Stress axis : x y z
#
# Youngs Moduli (GPa) = 68.12532 116.51012 83.02179
#
# Poissons Ratio (x) = 0.42505 0.30190
# Poissons Ratio (y) = 0.24853 0.24859
# Poissons Ratio (z) = 0.24773 0.34886
#
# Static dielectric constant tensor:
#      x y z
#    x 2.275470 -0.016470 0.057480 
#    y -0.016470 2.299740 0.070440 
#    z 0.057480 0.070440 2.191130 
# 
# From -- ./inp_files/116999.got.cif
#   From: 2010.05.17/outbox.cif.g08.bks.cpg/sg2_59_cif.got.tgz:116999.got - 2010.06.03 11:33:40.
