data_PCOD9077636
_publ_section_title
;
Structure prediction by ZEFSAII (Michael W. Deem and Ramdas Pophale) SiO2 
 PCOD9077636
Probable space group: P -1
;
_chemical_formula_sum "Si O2"
_cell_formula_units_Z 15
_cell_length_a 8.782614
_cell_length_b 11.779229
_cell_length_c 11.141492
_cell_angle_alpha 126.729354
_cell_angle_beta 90.857675
_cell_angle_gamma 126.403184
_cell_volume 609.148613
_symmetry_space_group_name_H-M "P -1"
_symmetry_group_IT_number 2
_symmetry_cell_setting 'triclinic'
loop_
_space_group_symop_operation_xyz
x,y,z
-x,-y,-z
loop_
_atom_site_type_symbol
_atom_site_label
_atom_site_fract_x
_atom_site_fract_y
_atom_site_fract_z
Si Si1 0.743687 0.812199 0.818784
Si Si2 0.000000 0.000000 0.500000
Si Si3 0.151635 0.916772 0.226707
Si Si4 0.129500 0.394655 0.373261
Si Si5 0.509411 0.080774 0.700855
Si Si6 0.958827 0.672426 0.398914
Si Si7 0.884039 0.483767 0.803245
Si Si8 0.408148 0.061224 0.953419
O O1 0.711152 0.628339 0.667070
O O2 0.742458 0.907728 0.761701
O O3 0.576330 0.772303 0.884622
O O4 0.000000 0.000000 0.000000
O O5 0.020171 0.919496 0.324278
O O6 0.883892 0.776894 0.425663
O O7 0.353043 0.970832 0.329988
O O8 0.001059 0.696602 0.009437
O O9 0.137472 0.441458 0.542851
O O10 0.168572 0.523369 0.342138
O O11 0.862719 0.161712 0.207206
O O12 0.653254 0.283755 0.745427
O O13 0.516997 0.132456 0.870535
O O14 0.239679 0.888703 0.547179
O O15 0.949826 0.537970 0.218239
O O16 0.500000 0.000000 0.000000
#
# Coordination Sequence:
#
# PCOD9077636 Si02
#       8
#     2   1   2   2   2   2   2   2
#     4  10  18  37  65  93 127 169 224 258 322 385
#     4  12  26  42  70  96 132 174 220 264 346 390
#     4  12  23  42  72  95 129 177 223 268 321 397
#     4  10  21  39  67  92 128 174 220 263 320 391
#     4  11  24  40  67  98 136 169 217 274 331 379
#     4  11  25  44  70  95 135 175 218 268 332 392
#     4  12  23  41  70 101 129 173 224 272 318 393
#     4  10  18  34  61  96 124 170 217 263 318 388
#
# _framework density 24.624533
#
# number of rings (size 3 to 8) (size 9 to 14) (size 15 to 20)
#    0.000    1.067    6.667    1.200    0.000    0.000 
#    0.000    2.667    0.000    1.600    0.000    0.000 
#    0.000    0.000    0.000    0.000    0.000    0.000 
#
# Total GULP energy -83690.130720 kJ/mol
# GULP energy per Si atom -5579.342048 kJ/mol
# Density = 2.456849 g / cm^3
# Si number density = 24.624533 Si / 1000 Ang^3
#
#
#
# Elastic Constant Matrix: (Units=GPa)
#
#
# Indices 1 2 3 4 5 6 
#
# 1 52.0613 14.1701 40.8917 -0.3292 -24.4868 -0.2513
# 2 14.1701 153.3202 43.4178 -30.9448 -22.4982 3.0981
# 3 40.8917 43.4178 132.3888 -15.4139 -39.0675 24.7893
# 4 -0.3292 -30.9448 -15.4139 48.1787 12.1763 -14.5890
# 5 -24.4868 -22.4982 -39.0675 12.1763 60.7261 0.6922
# 6 -0.2513 3.0981 24.7893 -14.5890 0.6922 22.5030
#
#
#
# Elastic Compliance Matrix: (Units=1/GPa)
#
#
# Indices 1 2 3 4 5 6 
#
# 1 0.029331 0.000396 -0.009323 -0.001162 0.006100 0.009602
# 2 0.000396 0.008661 -0.003643 0.006668 -0.000394 0.007160
# 3 -0.009323 -0.003643 0.017425 -0.005575 0.007477 -0.022642
# 4 -0.001162 0.006668 -0.005575 0.033711 -0.008656 0.027332
# 5 0.006100 -0.000394 0.007477 -0.008656 0.025492 -0.014510
# 6 0.009602 0.007160 -0.022642 0.027332 -0.014510 0.086669
#
#
# Mechanical properties :
#
#
# Convention : Reuss Voigt Hill
#
# Bulk Modulus (GPa) = 33.02937 59.41438 46.22187
# Shear Modulus (GPa) = 21.13973 42.23428 31.68701
#
# Velocity S-wave (km/s) = 2.93317 4.14591 3.59110
# Velocity P-wave (km/s) = 4.99135 6.86284 6.00051
#
# Compressibility (1/GPa) = 0.03027608
#
# Stress axis : x y z
#
# Youngs Moduli (GPa) = 34.09378 115.46444 57.38895
#
# Poissons Ratio (x) = -0.04569 0.53501
# Poissons Ratio (y) = -0.01349 0.20909
# Poissons Ratio (z) = 0.31784 0.42068
#
# Static dielectric constant tensor:
#      x y z
#    x 2.012760 -0.019050 0.020300 
#    y -0.019050 1.797570 -0.007510 
#    z 0.020300 -0.007510 1.997710 
# 
# From -- ./inp_files/391343.got.cif
#   From: 2010.05.17/outbox.cif.g08.bks.cpg/sg2_196_cif.got.tgz:391343.got - 2010.06.03 11:33:40.
