data_PCOD9077689
_publ_section_title
;
Structure prediction by ZEFSAII (Michael W. Deem and Ramdas Pophale) SiO2 
 PCOD9077689
Probable space group: P -1
;
_chemical_formula_sum "Si O2"
_cell_formula_units_Z 16
_cell_length_a 12.628076
_cell_length_b 7.637991
_cell_length_c 7.355329
_cell_angle_alpha 86.416083
_cell_angle_beta 109.952218
_cell_angle_gamma 69.259206
_cell_volume 609.926855
_symmetry_space_group_name_H-M "P -1"
_symmetry_group_IT_number 2
_symmetry_cell_setting 'triclinic'
loop_
_space_group_symop_operation_xyz
x,y,z
-x,-y,-z
loop_
_atom_site_type_symbol
_atom_site_label
_atom_site_fract_x
_atom_site_fract_y
_atom_site_fract_z
Si Si1 0.774298 0.369003 0.646903
Si Si2 0.489852 0.304529 0.061461
Si Si3 0.690958 0.061596 0.736672
Si Si4 0.255127 0.861316 0.843626
Si Si5 0.235952 0.365079 0.058275
Si Si6 0.056134 0.769186 0.575815
Si Si7 0.828958 0.728303 0.366270
Si Si8 0.416234 0.251884 0.625977
O O1 0.763246 0.163755 0.658001
O O2 0.812998 0.457068 0.842085
O O3 0.876578 0.344081 0.557477
O O4 0.642125 0.528116 0.492019
O O5 0.627137 0.184557 0.213401
O O6 0.379580 0.329701 0.126128
O O7 0.500000 0.500000 0.000000
O O8 0.456203 0.223286 0.862801
O O9 0.544703 0.131050 0.607359
O O10 0.755737 0.835180 0.832879
O O11 0.692984 0.166695 0.922674
O O12 0.171529 0.746636 0.772212
O O13 0.179000 0.081501 0.753601
O O14 0.183722 0.382520 0.818783
O O15 0.950770 0.692512 0.558529
O O16 0.000000 0.000000 0.500000
O O17 0.711893 0.776248 0.427952
#
# Coordination Sequence:
#
# PCOD9077689 Si02
#       8
#     2   2   2   2   2   2   2   2
#     4  12  25  39  60  95 131 165 205 254 316 375
#     4  10  18  34  62  93 126 161 205 255 304 370
#     4  10  22  42  65  95 134 163 198 254 317 380
#     4   9  18  37  65  90 119 167 211 250 303 366
#     4  10  22  39  63  96 128 165 204 253 320 372
#     4  10  23  43  65  88 120 166 217 264 305 360
#     4   9  20  41  63  89 121 162 218 258 297 364
#     4  10  21  37  62  94 126 163 205 254 308 368
#
# _framework density 26.232654
#
# number of rings (size 3 to 8) (size 9 to 14) (size 15 to 20)
#    0.000    2.000    0.000    3.375    0.000    8.500 
#    0.000    6.875    0.000    0.000    0.000    0.000 
#    0.000    0.000    0.000    0.000    0.000    0.000 
#
# Total GULP energy -89249.283458 kJ/mol
# GULP energy per Si atom -5578.080216 kJ/mol
# Density = 2.617295 g / cm^3
# Si number density = 26.232654 Si / 1000 Ang^3
#
#
#
# Elastic Constant Matrix: (Units=GPa)
#
#
# Indices 1 2 3 4 5 6 
#
# 1 128.7747 10.4920 45.2801 17.3142 39.5797 27.6396
# 2 10.4920 95.3421 14.3702 6.6208 15.3178 33.2285
# 3 45.2801 14.3702 92.1558 27.8871 23.1137 0.6614
# 4 17.3142 6.6208 27.8871 41.3190 5.0886 -1.3199
# 5 39.5797 15.3178 23.1137 5.0886 45.6051 2.1193
# 6 27.6396 33.2285 0.6614 -1.3199 2.1193 50.0533
#
#
#
# Elastic Compliance Matrix: (Units=1/GPa)
#
#
# Indices 1 2 3 4 5 6 
#
# 1 0.015463 0.005099 -0.004294 -0.003279 -0.012059 -0.011443
# 2 0.005099 0.016385 -0.002141 -0.002771 -0.007911 -0.013402
# 3 -0.004294 -0.002141 0.016680 -0.008609 -0.003209 0.003481
# 4 -0.003279 -0.002771 -0.008609 0.031426 0.004428 0.004405
# 5 -0.012059 -0.007911 -0.003209 0.004428 0.035692 0.010559
# 6 -0.011443 -0.013402 0.003481 0.004405 0.010559 0.034818
#
#
# Mechanical properties :
#
#
# Convention : Reuss Voigt Hill
#
# Bulk Modulus (GPa) = 21.80818 50.72858 36.26838
# Shear Modulus (GPa) = 29.68755 43.80414 36.74584
#
# Velocity S-wave (km/s) = 3.36773 4.09079 3.74674
# Velocity P-wave (km/s) = 4.84288 6.45699 5.70729
#
# Compressibility (1/GPa) = 0.04585436
#
# Stress axis : x y z
#
# Youngs Moduli (GPa) = 64.66988 61.03303 59.95250
#
# Poissons Ratio (x) = -0.31118 0.25743
# Poissons Ratio (y) = -0.32973 0.12838
# Poissons Ratio (z) = 0.27769 0.13069
#
# Static dielectric constant tensor:
#      x y z
#    x 2.068990 -0.015870 0.037350 
#    y -0.015870 2.275090 -0.141530 
#    z 0.037350 -0.141530 2.247810 
# 
# From -- ./inp_files/244149.got.cif
#   From: 2010.05.17/outbox.cif.g08.bks.cpg/sg2_123_cif.got.tgz:244149.got - 2010.06.03 11:33:40.
