data_PCOD9077558
_publ_section_title
;
Structure prediction by ZEFSAII (Michael W. Deem and Ramdas Pophale) SiO2 
 PCOD9077558
Probable space group: P -1
;
_chemical_formula_sum "Si O2"
_cell_formula_units_Z 15
_cell_length_a 15.105521
_cell_length_b 7.664479
_cell_length_c 5.295674
_cell_angle_alpha 113.393898
_cell_angle_beta 84.336056
_cell_angle_gamma 90.056055
_cell_volume 559.474565
_symmetry_space_group_name_H-M "P -1"
_symmetry_group_IT_number 2
_symmetry_cell_setting 'triclinic'
loop_
_space_group_symop_operation_xyz
x,y,z
-x,-y,-z
loop_
_atom_site_type_symbol
_atom_site_label
_atom_site_fract_x
_atom_site_fract_y
_atom_site_fract_z
Si Si1 0.670318 0.658905 0.759645
Si Si2 0.082640 0.144598 0.075339
Si Si3 0.397803 0.681723 0.717229
Si Si4 0.460051 0.100776 0.322787
Si Si5 0.500000 0.500000 0.000000
Si Si6 0.773511 0.176854 0.147835
Si Si7 0.821872 0.399612 0.766141
Si Si8 0.015769 0.229907 0.640644
O O1 0.657439 0.487013 0.468878
O O2 0.641103 0.838358 0.688721
O O3 0.764430 0.596059 0.829350
O O4 0.587617 0.631319 0.958645
O O5 0.060483 0.280218 0.393772
O O6 0.081191 0.245815 0.865790
O O7 0.168631 0.013014 0.026922
O O8 0.000000 0.000000 0.000000
O O9 0.488203 0.697662 0.539434
O O10 0.329558 0.857396 0.786884
O O11 0.429542 0.650417 0.971490
O O12 0.500000 0.000000 0.500000
O O13 0.500000 0.000000 0.000000
O O14 0.813816 0.273474 0.439725
O O15 0.776380 0.303569 0.966711
O O16 0.926001 0.355033 0.776210
O O17 0.000000 0.000000 0.500000
#
# Coordination Sequence:
#
# PCOD9077558 Si02
#       8
#     2   2   2   2   1   2   2   2
#     4  10  23  35  58  81 112 141 187 229 281 328
#     4  10  15  24  39  62 105 142 165 194 263 323
#     4  10  23  35  58  81 112 141 187 229 281 328
#     4  11  26  41  60  78 109 147 188 230 279 334
#     4  10  16  32  52  72 102 132 172 222 272 320
#     4  11  18  28  45  74 103 143 170 216 261 325
#     4  11  18  28  45  74 103 143 170 216 261 325
#     4  10  15  24  39  62 105 142 165 194 263 323
#
# _framework density 26.810867999999999
#
# number of rings (size 3 to 8) (size 9 to 14) (size 15 to 20)
#    0.000    1.600    6.667    1.600    7.467    0.000 
#    0.000    0.000    0.000    0.000    0.000    0.000 
#    0.000    6.400    0.000    0.000    0.000    0.000 
#
# Total GULP energy -83528.546650 kJ/mol
# GULP energy per Si atom -5568.569777 kJ/mol
# Density = 2.674985 g / cm^3
# Si number density = 26.810868 Si / 1000 Ang^3
#
#
#
# Elastic Constant Matrix: (Units=GPa)
#
#
# Indices 1 2 3 4 5 6 
#
# 1 127.1424 47.4048 16.8480 -0.8232 -3.0123 -72.5750
# 2 47.4048 158.1590 34.6650 -19.3648 11.9145 -47.2596
# 3 16.8480 34.6650 107.8238 -27.6773 -0.8839 -12.1087
# 4 -0.8232 -19.3648 -27.6773 50.4957 -8.2158 8.5507
# 5 -3.0123 11.9145 -0.8839 -8.2158 43.1084 2.5721
# 6 -72.5750 -47.2596 -12.1087 8.5507 2.5721 65.3517
#
#
#
# Elastic Compliance Matrix: (Units=1/GPa)
#
#
# Indices 1 2 3 4 5 6 
#
# 1 0.022709 0.000997 -0.002250 -0.005133 -0.001279 0.026245
# 2 0.000997 0.008912 -0.002073 0.000633 -0.002744 0.007193
# 3 -0.002250 -0.002073 0.011626 0.006337 0.002026 -0.002752
# 4 -0.005133 0.000633 0.006337 0.025523 0.004914 -0.007601
# 5 -0.001279 -0.002744 0.002026 0.004914 0.025123 -0.004661
# 6 0.026245 0.007193 -0.002752 -0.007601 -0.004661 0.050318
#
#
# Mechanical properties :
#
#
# Convention : Reuss Voigt Hill
#
# Bulk Modulus (GPa) = 27.32553 65.66234 46.49394
# Shear Modulus (GPa) = 30.66328 51.40498 41.03413
#
# Velocity S-wave (km/s) = 3.38552 4.38347 3.91641
# Velocity P-wave (km/s) = 5.04939 7.08264 6.15062
#
# Compressibility (1/GPa) = 0.03659581
#
# Stress axis : x y z
#
# Youngs Moduli (GPa) = 44.03446 112.20957 86.01042
#
# Poissons Ratio (x) = -0.11183 0.19349
# Poissons Ratio (y) = -0.04389 0.17831
# Poissons Ratio (z) = 0.09906 0.23263
#
# Static dielectric constant tensor:
#      x y z
#    x 2.342740 0.105570 0.041860 
#    y 0.105570 2.285900 0.019540 
#    z 0.041860 0.019540 2.184370 
# 
# From -- ./inp_files/105617.got.cif
#   From: 2010.05.17/outbox.cif.g08.bks.cpg/sg2_53_cif.got.tgz:105617.got - 2010.06.03 11:33:40.
