data_PCOD9077490
_publ_section_title
;
Structure prediction by ZEFSAII (Michael W. Deem and Ramdas Pophale) SiO2 
 PCOD9077490
Probable space group: P -1
;
_chemical_formula_sum "Si O2"
_cell_formula_units_Z 16
_cell_length_a 11.371816
_cell_length_b 15.159346
_cell_length_c 6.967309
_cell_angle_alpha 123.852336
_cell_angle_beta 103.264947
_cell_angle_gamma 119.067328
_cell_volume 631.920869
_symmetry_space_group_name_H-M "P -1"
_symmetry_group_IT_number 2
_symmetry_cell_setting 'triclinic'
loop_
_space_group_symop_operation_xyz
x,y,z
-x,-y,-z
loop_
_atom_site_type_symbol
_atom_site_label
_atom_site_fract_x
_atom_site_fract_y
_atom_site_fract_z
Si Si1 0.201833 0.006229 0.780001
Si Si2 0.216156 0.178929 0.275916
Si Si3 0.105517 0.319538 0.936067
Si Si4 0.589547 0.323312 0.647049
Si Si5 0.165552 0.688638 0.224490
Si Si6 0.581259 0.243146 0.093553
Si Si7 0.787855 0.587047 0.491377
Si Si8 0.802436 0.189076 0.207323
O O1 0.231491 0.957957 0.932791
O O2 0.005428 0.845935 0.417612
O O3 0.237199 0.150815 0.029610
O O4 0.363803 0.082026 0.787170
O O5 0.389596 0.237217 0.515690
O O6 0.240484 0.318486 0.503092
O O7 0.000000 0.000000 0.000000
O O8 0.942692 0.294087 0.910155
O O9 0.252023 0.479414 0.050235
O O10 0.206275 0.367391 0.230497
O O11 0.664064 0.270188 0.725684
O O12 0.598648 0.289511 0.384585
O O13 0.223869 0.787195 0.557734
O O14 0.000000 0.500000 0.000000
O O15 0.651752 0.396238 0.200733
O O16 0.687761 0.201302 0.062259
O O17 0.984835 0.668958 0.602854
#
# Coordination Sequence:
#
# PCOD9077490 Si02
#       8
#     2   2   2   2   2   2   2   2
#     4  10  20  37  61  82 114 153 197 235 278 344
#     4  11  22  39  59  82 115 155 202 236 275 341
#     4   9  19  35  58  88 115 147 186 240 297 336
#     4   8  17  34  59  84 108 154 198 227 272 351
#     4   8  15  32  59  86 111 147 190 234 280 343
#     4   9  19  33  58  89 109 149 197 237 282 338
#     4  11  22  37  58  86 122 151 189 239 292 335
#     4  10  18  34  60  85 116 152 194 238 279 342
#
# _framework density 25.319627000000001
#
# number of rings (size 3 to 8) (size 9 to 14) (size 15 to 20)
#    0.000    2.500    1.250    1.500    0.000    6.000 
#    0.000    1.250    8.250    0.000    0.000    0.000 
#    0.000    0.000    0.000    0.000    0.000    0.000 
#
# Total GULP energy -89152.273605 kJ/mol
# GULP energy per Si atom -5572.017100 kJ/mol
# Density = 2.526200 g / cm^3
# Si number density = 25.319627 Si / 1000 Ang^3
#
#
#
# Elastic Constant Matrix: (Units=GPa)
#
#
# Indices 1 2 3 4 5 6 
#
# 1 128.4343 22.2309 30.5848 8.4790 11.2804 -5.9133
# 2 22.2309 54.6922 24.1284 17.6023 4.6844 -4.9277
# 3 30.5848 24.1284 98.3310 19.6943 -5.3731 -3.6616
# 4 8.4790 17.6023 19.6943 38.9281 8.8968 3.0970
# 5 11.2804 4.6844 -5.3731 8.8968 44.8664 6.6520
# 6 -5.9133 -4.9277 -3.6616 3.0970 6.6520 19.3125
#
#
#
# Elastic Compliance Matrix: (Units=1/GPa)
#
#
# Indices 1 2 3 4 5 6 
#
# 1 0.009106 -0.002392 -0.002466 0.000799 -0.002875 0.002572
# 2 -0.002392 0.024348 -0.003251 -0.009033 -0.001554 0.006848
# 3 -0.002466 -0.003251 0.013036 -0.005435 0.003517 0.000547
# 4 0.000799 -0.009033 -0.005435 0.034179 -0.005706 -0.006606
# 5 -0.002875 -0.001554 0.003517 -0.005706 0.026009 -0.008653
# 6 0.002572 0.006848 0.000547 -0.006606 -0.008653 0.058459
#
#
# Mechanical properties :
#
#
# Convention : Reuss Voigt Hill
#
# Bulk Modulus (GPa) = 33.03586 48.37175 40.70380
# Shear Modulus (GPa) = 26.11709 34.25563 30.18636
#
# Velocity S-wave (km/s) = 3.21518 3.68221 3.45659
# Velocity P-wave (km/s) = 5.18257 6.10116 5.66053
#
# Compressibility (1/GPa) = 0.03027014
#
# Stress axis : x y z
#
# Youngs Moduli (GPa) = 109.82146 41.07087 76.71180
#
# Poissons Ratio (x) = 0.09825 0.18921
# Poissons Ratio (y) = 0.26271 0.24940
# Poissons Ratio (z) = 0.27087 0.13353
#
# Static dielectric constant tensor:
#      x y z
#    x 1.097800 1.419420 0.901910 
#    y 1.419420 -0.016820 -1.306270 
#    z 0.901910 -1.306270 1.257260 
# 
# From -- ./inp_files/279918.got.cif
#   From: 2010.05.17/outbox.cif.g08.bks.cpg/sg2_140_cif.got.tgz:279918.got - 2010.06.03 11:33:40.
