data_PCOD9077829
_publ_section_title
;
Structure prediction by ZEFSAII (Michael W. Deem and Ramdas Pophale) SiO2 
 PCOD9077829
Probable space group: P -1
;
_chemical_formula_sum "Si O2"
_cell_formula_units_Z 15
_cell_length_a 7.489468
_cell_length_b 8.174775
_cell_length_c 15.885807
_cell_angle_alpha 128.170705
_cell_angle_beta 84.250999
_cell_angle_gamma 127.066016
_cell_volume 549.646505
_symmetry_space_group_name_H-M "P -1"
_symmetry_group_IT_number 2
_symmetry_cell_setting 'triclinic'
loop_
_space_group_symop_operation_xyz
x,y,z
-x,-y,-z
loop_
_atom_site_type_symbol
_atom_site_label
_atom_site_fract_x
_atom_site_fract_y
_atom_site_fract_z
Si Si1 0.881299 0.167793 0.217403
Si Si2 0.313332 0.390783 0.896459
Si Si3 0.617664 0.110340 0.937827
Si Si4 0.665029 0.466631 0.776251
Si Si5 0.592030 0.928817 0.617471
Si Si6 0.998020 0.715803 0.431178
Si Si7 0.573028 0.672154 0.703546
Si Si8 0.000000 0.500000 0.500000
O O1 0.035936 0.274582 0.157295
O O2 0.964117 0.431234 0.355184
O O3 0.881996 0.950571 0.194926
O O4 0.605294 0.006879 0.152221
O O5 0.491900 0.485887 0.839928
O O6 0.500000 0.500000 0.000000
O O7 0.215358 0.547576 0.955901
O O8 0.684554 0.937995 0.845733
O O9 0.500000 0.000000 0.000000
O O10 0.622143 0.198421 0.723387
O O11 0.628085 0.495880 0.688770
O O12 0.788666 0.063748 0.574832
O O13 0.649657 0.813540 0.652722
O O14 0.301665 0.675098 0.534312
O O15 0.066590 0.798836 0.550246
O O16 0.731023 0.565984 0.361813
#
# Coordination Sequence:
#
# PCOD9077829 Si02
#       8
#     2   2   2   2   2   2   2   1
#     4   9  21  36  56  80 109 152 190 231 284 341
#     4  10  19  33  54  75 110 148 192 241 280 320
#     4  10  18  35  53  78 115 149 190 242 283 318
#     4  11  21  38  59  80 113 155 192 233 285 336
#     4  10  21  38  60  87 116 147 187 232 283 344
#     4   9  19  37  61  83 117 147 185 231 284 346
#     4  10  21  38  57  82 115 154 195 231 282 340
#     4  10  18  36  66  92 110 146 184 228 288 344
#
# _framework density 27.290268000000001
#
# number of rings (size 3 to 8) (size 9 to 14) (size 15 to 20)
#    0.000    2.133    1.333    3.600    0.000    3.200 
#    2.400    4.667    0.000   14.400    0.000    0.000 
#    0.000    0.000    0.000    0.000    0.000    0.000 
#
# Total GULP energy -83682.134718 kJ/mol
# GULP energy per Si atom -5578.808981 kJ/mol
# Density = 2.722815 g / cm^3
# Si number density = 27.290268 Si / 1000 Ang^3
#
#
#
# Elastic Constant Matrix: (Units=GPa)
#
#
# Indices 1 2 3 4 5 6 
#
# 1 97.8554 40.6701 14.6678 -1.6869 -18.5792 -10.9974
# 2 40.6701 216.5072 36.8864 -17.5771 0.6428 10.6336
# 3 14.6678 36.8864 82.4229 -3.5235 -22.5586 -8.9715
# 4 -1.6869 -17.5771 -3.5235 31.9830 -2.9492 0.8645
# 5 -18.5792 0.6428 -22.5586 -2.9492 35.4465 -5.3728
# 6 -10.9974 10.6336 -8.9715 0.8645 -5.3728 47.6225
#
#
#
# Elastic Compliance Matrix: (Units=1/GPa)
#
#
# Indices 1 2 3 4 5 6 
#
# 1 0.013610 -0.003221 0.002159 -0.000095 0.009365 0.005327
# 2 -0.003221 0.006239 -0.003699 0.002532 -0.004458 -0.003383
# 3 0.002159 -0.003699 0.017846 0.001133 0.013590 0.006199
# 4 -0.000095 0.002532 0.001133 0.033097 0.003287 -0.000604
# 5 0.009365 -0.004458 0.013590 0.003287 0.043729 0.010592
# 6 0.005327 -0.003383 0.006199 -0.000604 0.010592 0.025358
#
#
# Mechanical properties :
#
#
# Convention : Reuss Voigt Hill
#
# Bulk Modulus (GPa) = 35.49639 64.58159 50.03899
# Shear Modulus (GPa) = 31.48751 43.31449 37.40100
#
# Velocity S-wave (km/s) = 3.40045 3.98826 3.70603
# Velocity P-wave (km/s) = 5.33410 6.70256 6.05710
#
# Compressibility (1/GPa) = 0.02817188
#
# Stress axis : x y z
#
# Youngs Moduli (GPa) = 73.47732 160.28146 56.03358
#
# Poissons Ratio (x) = 0.51634 -0.12096
# Poissons Ratio (y) = 0.23671 0.20726
# Poissons Ratio (z) = -0.15862 0.59286
#
# Static dielectric constant tensor:
#      x y z
#    x 2.300370 0.160900 0.351340 
#    y 0.160900 3.007190 0.619970 
#    z 0.351340 0.619970 5.339020 
# 
# From -- ./inp_files/212615.got.cif
#   From: 2010.05.17/outbox.cif.g08.bks.cpg/sg2_107_cif.got.tgz:212615.got - 2010.06.03 11:33:40.
