data_PCOD9077341
_publ_section_title
;
Structure prediction by ZEFSAII (Michael W. Deem and Ramdas Pophale) SiO2 
 PCOD9077341
Probable space group: P -1
;
_chemical_formula_sum "Si O2"
_cell_formula_units_Z 16
_cell_length_a 9.035927
_cell_length_b 14.871424
_cell_length_c 9.755452
_cell_angle_alpha 69.368122
_cell_angle_beta 66.263897
_cell_angle_gamma 32.977754
_cell_volume 652.902062
_symmetry_space_group_name_H-M "P -1"
_symmetry_group_IT_number 2
_symmetry_cell_setting 'triclinic'
loop_
_space_group_symop_operation_xyz
x,y,z
-x,-y,-z
loop_
_atom_site_type_symbol
_atom_site_label
_atom_site_fract_x
_atom_site_fract_y
_atom_site_fract_z
Si Si1 0.128748 0.088875 0.038802
Si Si2 0.242329 0.192111 0.728171
Si Si3 0.298597 0.290830 0.068488
Si Si4 0.182528 0.508209 0.450673
Si Si5 0.834312 0.844081 0.709851
Si Si6 0.379450 0.332388 0.735377
Si Si7 0.013018 0.915394 0.417686
Si Si8 0.600174 0.230880 0.232188
O O1 0.165832 0.095040 0.181531
O O2 0.845015 0.166925 0.095268
O O3 0.117612 0.192117 0.900677
O O4 0.399546 0.902178 0.983888
O O5 0.336965 0.251481 0.714555
O O6 0.014910 0.313967 0.629753
O O7 0.521586 0.003273 0.681476
O O8 0.121380 0.284105 0.182730
O O9 0.360812 0.320095 0.166555
O O10 0.236894 0.382879 0.906853
O O11 0.266257 0.465958 0.599738
O O12 0.456844 0.363625 0.332720
O O13 0.000000 0.500000 0.500000
O O14 0.014475 0.812557 0.547985
O O15 0.702600 0.201600 0.704939
O O16 0.749598 0.067963 0.337810
O O17 0.000000 0.000000 0.500000
#
# Coordination Sequence:
#
# PCOD9077341 Si02
#       8
#     2   2   2   2   2   2   2   2
#     4  11  19  35  64  88 118 148 199 246 291 347
#     4  10  18  34  58  88 110 153 207 236 272 345
#     4  11  22  36  60  95 124 144 189 251 314 337
#     4  10  22  37  59  84 114 163 206 232 278 360
#     4  11  19  36  64  89 115 158 195 244 289 356
#     4  11  18  36  61  84 115 157 192 241 288 352
#     4  12  18  32  59  87 117 149 200 239 289 348
#     4  12  23  36  58  96 119 152 192 252 298 343
#
# _framework density 24.505973000000001
#
# number of rings (size 3 to 8) (size 9 to 14) (size 15 to 20)
#    0.000    1.000    7.500    1.875    0.000    1.000 
#    0.000    2.500    0.000    0.750    0.000    0.000 
#    0.000    0.000    0.000    0.000    0.000    0.000 
#
# Total GULP energy -89562.805398 kJ/mol
# GULP energy per Si atom -5597.675337 kJ/mol
# Density = 2.445020 g / cm^3
# Si number density = 24.505973 Si / 1000 Ang^3
#
#
#
# Elastic Constant Matrix: (Units=GPa)
#
#
# Indices 1 2 3 4 5 6 
#
# 1 52.6531 -2.6225 36.7032 -5.4178 -8.3000 6.2036
# 2 -2.6225 60.8537 37.9143 -18.0792 1.3289 6.1866
# 3 36.7032 37.9143 162.3531 -27.3213 -16.1007 11.0600
# 4 -5.4178 -18.0792 -27.3213 63.1355 -7.0354 2.5212
# 5 -8.3000 1.3289 -16.1007 -7.0354 55.7104 -5.6994
# 6 6.2036 6.1866 11.0600 2.5212 -5.6994 12.8243
#
#
#
# Elastic Compliance Matrix: (Units=1/GPa)
#
#
# Indices 1 2 3 4 5 6 
#
# 1 0.025063 0.006397 -0.006068 0.001868 0.001053 -0.009875
# 2 0.006397 0.022669 -0.005297 0.005013 -0.001628 -0.011171
# 3 -0.006068 -0.005297 0.009533 0.002407 0.002047 -0.002294
# 4 0.001868 0.005013 0.002407 0.019070 0.002438 -0.008064
# 5 0.001053 -0.001628 0.002047 0.002438 0.019741 0.006805
# 6 -0.009875 -0.011171 -0.002294 -0.008064 0.006805 0.094731
#
#
# Mechanical properties :
#
#
# Convention : Reuss Voigt Hill
#
# Bulk Modulus (GPa) = 21.12928 46.65002 33.88965
# Shear Modulus (GPa) = 23.09257 39.92504 31.50881
#
# Velocity S-wave (km/s) = 3.07306 4.04071 3.58964
# Velocity P-wave (km/s) = 4.60786 6.39119 5.57134
#
# Compressibility (1/GPa) = 0.04732768
#
# Stress axis : x y z
#
# Youngs Moduli (GPa) = 39.90015 44.11263 104.90319
#
# Poissons Ratio (x) = -0.28218 0.63657
# Poissons Ratio (y) = -0.25523 0.55567
# Poissons Ratio (z) = 0.24212 0.23366
#
# Static dielectric constant tensor:
#      x y z
#    x 1.955240 0.020700 0.005920 
#    y 0.020700 2.026230 -0.026350 
#    z 0.005920 -0.026350 1.926740 
# 
# From -- ./inp_files/206255.got.cif
#   From: 2010.05.17/outbox.cif.g08.bks.cpg/sg2_104_cif.got.tgz:206255.got - 2010.06.03 11:33:40.
