data_PCOD9077570
_publ_section_title
;
Structure prediction by ZEFSAII (Michael W. Deem and Ramdas Pophale) SiO2 
 PCOD9077570
Probable space group: P -1
;
_chemical_formula_sum "Si O2"
_cell_formula_units_Z 16
_cell_length_a 18.005980
_cell_length_b 9.904691
_cell_length_c 23.992105
_cell_angle_alpha 148.773002
_cell_angle_beta 25.665085
_cell_angle_gamma 149.543071
_cell_volume 877.833630
_symmetry_space_group_name_H-M "P -1"
_symmetry_group_IT_number 2
_symmetry_cell_setting 'triclinic'
loop_
_space_group_symop_operation_xyz
x,y,z
-x,-y,-z
loop_
_atom_site_type_symbol
_atom_site_label
_atom_site_fract_x
_atom_site_fract_y
_atom_site_fract_z
Si Si1 0.041132 0.808802 0.639469
Si Si2 0.048329 0.298974 0.102954
Si Si3 0.312969 0.669733 0.341338
Si Si4 0.841089 0.729769 0.859609
Si Si5 0.528900 0.782583 0.646762
Si Si6 0.496231 0.128664 0.882683
Si Si7 0.180864 0.354430 0.665667
Si Si8 0.522787 0.270742 0.044392
O O1 0.237236 0.778982 0.485128
O O2 0.875479 0.508958 0.628767
O O3 0.983185 0.856607 0.757318
O O4 0.048249 0.059744 0.681314
O O5 0.044202 0.258938 0.158287
O O6 0.922487 0.455888 0.220253
O O7 0.262879 0.508524 0.021106
O O8 0.000000 0.000000 0.000000
O O9 0.406136 0.446692 0.206911
O O10 0.443381 0.939587 0.311765
O O11 0.686530 0.406847 0.838163
O O12 0.694376 0.877140 0.018159
O O13 0.338744 0.529690 0.666000
O O14 0.704381 0.713518 0.485780
O O15 0.524665 0.865416 0.743066
O O16 0.470696 0.162506 0.977665
O O17 0.500000 0.000000 0.000000
#
# Coordination Sequence:
#
# PCOD9077570 Si02
#       8
#     2   2   2   2   2   2   2   2
#     4  10  19  34  59  88 108 143 190 238 269 324
#     4  11  23  39  58  82 114 154 182 228 289 335
#     4  10  18  34  61  78 111 150 185 224 284 333
#     4  10  19  35  59  84 112 146 192 228 271 339
#     4  10  19  38  62  80 109 154 187 225 280 343
#     4  10  18  35  58  81 108 152 193 221 276 339
#     4  10  22  37  58  86 116 142 191 233 277 332
#     4  11  22  37  56  84 116 146 189 239 277 326
#
# _framework density 18.226687999999999
#
# number of rings (size 3 to 8) (size 9 to 14) (size 15 to 20)
#    0.000    1.750    2.500    3.750    0.000    0.000 
#    4.500    2.500    0.000    3.000    0.000    0.000 
#    0.000    0.000    0.000    0.000    0.000    0.000 
#
# Total GULP energy -89190.068851 kJ/mol
# GULP energy per Si atom -5574.379303 kJ/mol
# Density = 1.818520 g / cm^3
# Si number density = 18.226688 Si / 1000 Ang^3
#
#
#
# Elastic Constant Matrix: (Units=GPa)
#
#
# Indices 1 2 3 4 5 6 
#
# 1 58.5039 13.8193 56.1599 0.1724 4.6496 -12.1437
# 2 13.8193 48.5739 16.8895 6.0917 9.5161 -4.1047
# 3 56.1599 16.8895 134.3858 16.4251 4.0538 -12.9825
# 4 0.1724 6.0917 16.4251 28.6924 -3.1997 -0.1345
# 5 4.6496 9.5161 4.0538 -3.1997 21.9126 5.8221
# 6 -12.1437 -4.1047 -12.9825 -0.1345 5.8221 21.9714
#
#
#
# Elastic Compliance Matrix: (Units=1/GPa)
#
#
# Indices 1 2 3 4 5 6 
#
# 1 0.033338 -0.003998 -0.013142 0.007693 -0.004765 0.011224
# 2 -0.003998 0.025553 0.000296 -0.006986 -0.012952 0.006128
# 3 -0.013142 0.000296 0.014089 -0.008213 -0.001537 0.001473
# 4 0.007693 -0.006986 -0.008213 0.042111 0.010228 -0.004359
# 5 -0.004765 -0.012952 -0.001537 0.010228 0.059829 -0.021753
# 6 0.011224 0.006128 0.001473 -0.004359 -0.021753 0.059470
#
#
# Mechanical properties :
#
#
# Convention : Reuss Voigt Hill
#
# Bulk Modulus (GPa) = 25.45031 46.13345 35.79188
# Shear Modulus (GPa) = 17.78242 24.82161 21.30201
#
# Velocity S-wave (km/s) = 3.12689 3.69430 3.42237
# Velocity P-wave (km/s) = 5.19905 6.60023 5.94109
#
# Compressibility (1/GPa) = 0.03929225
#
# Stress axis : x y z
#
# Youngs Moduli (GPa) = 29.99542 39.13405 70.97906
#
# Poissons Ratio (x) = 0.15646 0.93280
# Poissons Ratio (y) = 0.11992 -0.02100
# Poissons Ratio (z) = 0.39420 -0.01158
#
# Static dielectric constant tensor:
#      x y z
#    x 1.591440 0.053510 0.033490 
#    y 0.053510 1.508020 -0.018460 
#    z 0.033490 -0.018460 1.661520 
# 
# From -- ./inp_files/305711.got.cif
#   From: 2010.05.17/outbox.cif.g08.bks.cpg/sg2_153_cif.got.tgz:305711.got - 2010.06.03 11:33:40.
