data_PCOD9077385
_publ_section_title
;
Structure prediction by ZEFSAII (Michael W. Deem and Ramdas Pophale) SiO2 
 PCOD9077385
Probable space group: P -1
;
_chemical_formula_sum "Si O2"
_cell_formula_units_Z 16
_cell_length_a 14.822215
_cell_length_b 8.981762
_cell_length_c 10.116569
_cell_angle_alpha 120.639601
_cell_angle_beta 35.000966
_cell_angle_gamma 122.916328
_cell_volume 642.658275
_symmetry_space_group_name_H-M "P -1"
_symmetry_group_IT_number 2
_symmetry_cell_setting 'triclinic'
loop_
_space_group_symop_operation_xyz
x,y,z
-x,-y,-z
loop_
_atom_site_type_symbol
_atom_site_label
_atom_site_fract_x
_atom_site_fract_y
_atom_site_fract_z
Si Si1 0.739049 0.761087 0.151341
Si Si2 0.407830 0.556522 0.360697
Si Si3 0.645513 0.780890 0.545315
Si Si4 0.933005 0.520366 0.937866
Si Si5 0.857556 0.685769 0.566321
Si Si6 0.682420 0.174591 0.016299
Si Si7 0.095814 0.965026 0.518041
Si Si8 0.679688 0.095607 0.281130
O O1 0.604165 0.638870 0.156821
O O2 0.609829 0.744827 0.420181
O O3 0.788332 0.968658 0.146122
O O4 0.884941 0.693246 0.013354
O O5 0.353989 0.403278 0.468322
O O6 0.326171 0.432582 0.277314
O O7 0.310744 0.708396 0.580719
O O8 0.501082 0.846448 0.814493
O O9 0.807131 0.941844 0.430701
O O10 0.043345 0.449786 0.667831
O O11 0.760335 0.376799 0.059465
O O12 0.000000 0.500000 0.000000
O O13 0.906715 0.853516 0.478539
O O14 0.935606 0.801622 0.652801
O O15 0.691363 0.078918 0.101489
O O16 0.784924 0.118081 0.752343
O O17 0.500000 0.000000 0.500000
#
# Coordination Sequence:
#
# PCOD9077385 Si02
#       8
#     2   2   2   2   2   2   2   2
#     4  11  21  34  58  88 113 145 187 229 291 333
#     4  10  18  34  59  82 112 144 184 235 282 324
#     4  11  18  32  57  84 115 140 185 237 272 334
#     4  11  21  33  57  88 114 143 183 238 286 332
#     4   9  19  36  54  78 114 144 181 234 279 327
#     4  11  19  34  55  83 113 146 190 230 276 334
#     4   9  20  33  55  83 111 149 187 229 281 324
#     4  10  20  34  55  84 117 147 180 235 285 331
#
# _framework density 24.896591000000001
#
# number of rings (size 3 to 8) (size 9 to 14) (size 15 to 20)
#    0.000    1.750    3.750    3.750    0.000    0.000 
#    0.000    2.500    0.000   19.500    0.000    0.000 
#    0.000    0.000    0.000    0.000    0.000    0.000 
#
# Total GULP energy -89100.437405 kJ/mol
# GULP energy per Si atom -5568.777338 kJ/mol
# Density = 2.483993 g / cm^3
# Si number density = 24.896591 Si / 1000 Ang^3
#
#
#
# Elastic Constant Matrix: (Units=GPa)
#
#
# Indices 1 2 3 4 5 6 
#
# 1 90.2344 76.5925 15.6309 23.0710 -19.4771 16.4192
# 2 76.5925 139.7190 28.0615 22.2126 -19.7785 15.0397
# 3 15.6309 28.0615 61.2510 26.7115 -11.1419 1.4972
# 4 23.0710 22.2126 26.7115 37.8727 -5.8486 -16.9270
# 5 -19.4771 -19.7785 -11.1419 -5.8486 32.8384 0.1665
# 6 16.4192 15.0397 1.4972 -16.9270 0.1665 54.6559
#
#
#
# Elastic Compliance Matrix: (Units=1/GPa)
#
#
# Indices 1 2 3 4 5 6 
#
# 1 0.029522 -0.011870 0.009548 -0.021916 0.009761 -0.012681
# 2 -0.011870 0.014190 -0.004415 0.002308 0.000417 0.000496
# 3 0.009548 -0.004415 0.029916 -0.028059 0.008214 -0.011188
# 4 -0.021916 0.002308 -0.028059 0.069443 -0.008904 0.028251
# 5 0.009761 0.000417 0.008214 -0.008904 0.037725 -0.006145
# 6 -0.012681 0.000496 -0.011188 0.028251 -0.006145 0.031044
#
#
# Mechanical properties :
#
#
# Convention : Reuss Voigt Hill
#
# Bulk Modulus (GPa) = 16.62413 59.08604 37.85509
# Shear Modulus (GPa) = 20.37790 36.46802 28.42296
#
# Velocity S-wave (km/s) = 2.86405 3.83140 3.38248
# Velocity P-wave (km/s) = 4.19867 6.58460 5.52203
#
# Compressibility (1/GPa) = 0.06015352
#
# Stress axis : x y z
#
# Youngs Moduli (GPa) = 33.87335 70.47445 33.42670
#
# Poissons Ratio (x) = 0.83653 -0.31914
# Poissons Ratio (y) = 0.40208 0.14756
# Poissons Ratio (z) = -0.32341 0.31111
#
# Static dielectric constant tensor:
#      x y z
#    x 2.168060 0.013140 -0.115420 
#    y 0.013140 2.040950 -0.000390 
#    z -0.115420 -0.000390 1.965430 
# 
# From -- ./inp_files/272093.got.cif
#   From: 2010.05.17/outbox.cif.g08.bks.cpg/sg2_137_cif.got.tgz:272093.got - 2010.06.03 11:33:40.
