data_PCOD9077620
_publ_section_title
;
Structure prediction by ZEFSAII (Michael W. Deem and Ramdas Pophale) SiO2 
 PCOD9077620
Probable space group: P -1
;
_chemical_formula_sum "Si O2"
_cell_formula_units_Z 12
_cell_length_a 5.504460
_cell_length_b 15.118304
_cell_length_c 13.430795
_cell_angle_alpha 28.357223
_cell_angle_beta 110.112371
_cell_angle_gamma 103.992839
_cell_volume 493.838369
_symmetry_space_group_name_H-M "P -1"
_symmetry_group_IT_number 2
_symmetry_cell_setting 'triclinic'
loop_
_space_group_symop_operation_xyz
x,y,z
-x,-y,-z
loop_
_atom_site_type_symbol
_atom_site_label
_atom_site_fract_x
_atom_site_fract_y
_atom_site_fract_z
Si Si1 0.910791 0.219584 0.237768
Si Si2 0.030469 0.388792 0.287608
Si Si3 0.234621 0.488254 0.414398
Si Si4 0.372647 0.129523 0.260421
Si Si5 0.610196 0.211847 0.531080
Si Si6 0.952134 0.215021 0.753536
O O1 0.607721 0.233753 0.151322
O O2 0.917058 0.363485 0.186140
O O3 0.118282 0.253085 0.148153
O O4 0.000000 0.000000 0.500000
O O5 0.176764 0.512588 0.265091
O O6 0.298923 0.241838 0.449162
O O7 0.779381 0.342752 0.361735
O O8 0.500000 0.500000 0.500000
O O9 0.154836 0.286847 0.634296
O O10 0.045807 0.653382 0.280724
O O11 0.500000 0.000000 0.500000
O O12 0.295199 0.992807 0.299542
O O13 0.685762 0.239374 0.628217
O O14 0.000000 0.000000 0.000000
#
# Coordination Sequence:
#
# PCOD9077620 Si02
#       6
#     2   2   2   2   2   2
#     4  10  15  24  41  71 108 138 174 230 278 331
#     4  11  18  29  50  77 112 144 185 234 285 338
#     4  10  21  38  59  83 115 152 195 244 291 344
#     4  10  15  24  42  71 109 134 179 229 276 333
#     4  11  18  30  50  77 110 148 183 235 285 337
#     4  10  23  40  58  84 118 154 196 242 291 347
#
# _framework density 24.29945
#
# number of rings (size 3 to 8) (size 9 to 14) (size 15 to 20)
#    0.000    1.667    8.333    0.000    0.000    0.667 
#    0.000    0.000    0.000    0.000    0.000    2.333 
#    0.000    0.000    0.000    0.000    0.000    0.000 
#
# Total GULP energy -66818.505487 kJ/mol
# GULP energy per Si atom -5568.208791 kJ/mol
# Density = 2.424414 g / cm^3
# Si number density = 24.299450 Si / 1000 Ang^3
#
#
#
# Elastic Constant Matrix: (Units=GPa)
#
#
# Indices 1 2 3 4 5 6 
#
# 1 111.2889 -2.7307 -10.6208 -0.5845 2.5005 8.3092
# 2 -2.7307 139.5934 -36.3080 -13.5494 -22.4586 -4.5178
# 3 -10.6208 -36.3080 -12.1758 4.7943 -45.7080 12.5868
# 4 -0.5845 -13.5494 4.7943 21.0969 2.0407 8.9679
# 5 2.5005 -22.4586 -45.7080 2.0407 5.0432 0.2480
# 6 8.3092 -4.5178 12.5868 8.9679 0.2480 54.2132
#
#
#
# Elastic Compliance Matrix: (Units=1/GPa)
#
#
# Indices 1 2 3 4 5 6 
#
# 1 0.009198 -0.000090 0.000311 0.001071 -0.002492 -0.001655
# 2 -0.000090 0.006256 -0.003238 0.004872 -0.003438 0.000496
# 3 0.000311 -0.003238 -0.000521 -0.000045 -0.019272 -0.000101
# 4 0.001071 0.004872 -0.000045 0.054362 -0.000811 -0.008736
# 5 -0.002492 -0.003438 -0.019272 -0.000811 0.009642 0.004660
# 6 -0.001655 0.000496 -0.000101 -0.008736 0.004660 0.020188
#
#
# Mechanical properties :
#
#
# Convention : Reuss Voigt Hill
#
# Bulk Modulus (GPa) = 112.35617 15.48751 63.92184
# Shear Modulus (GPa) = 46.24302 35.29503 40.76903
#
# Velocity S-wave (km/s) = 4.36713 3.81531 4.10051
# Velocity P-wave (km/s) = 8.47158 5.07900 6.98440
#
# Compressibility (1/GPa) = 0.00890027
#
# Stress axis : x y z
#
# Youngs Moduli (GPa) = 108.71531 159.85527 -1919.09876
#
# Poissons Ratio (x) = 0.01434 0.59710
# Poissons Ratio (y) = 0.00975 -6.21353
# Poissons Ratio (z) = -0.03383 0.51757
#
# Static dielectric constant tensor:
#      x y z
#    x 1.418450 -0.355980 0.894230 
#    y -0.355980 1.703320 0.464130 
#    z 0.894230 0.464130 1.319360 
# 
# From -- ./inp_files/29342.got.cif
#   From: 2010.05.17/outbox.cif.g08.bks.cpg/sg2_15_cif.got.tgz:29342.got - 2010.06.03 11:33:40.
