data_PCOD9077734
_publ_section_title
;
Structure prediction by ZEFSAII (Michael W. Deem and Ramdas Pophale) SiO2 
 PCOD9077734
Probable space group: P -1
;
_chemical_formula_sum "Si O2"
_cell_formula_units_Z 15
_cell_length_a 8.921350
_cell_length_b 8.754849
_cell_length_c 13.545576
_cell_angle_alpha 80.859663
_cell_angle_beta 40.554515
_cell_angle_gamma 63.743658
_cell_volume 587.696149
_symmetry_space_group_name_H-M "P -1"
_symmetry_group_IT_number 2
_symmetry_cell_setting 'triclinic'
loop_
_space_group_symop_operation_xyz
x,y,z
-x,-y,-z
loop_
_atom_site_type_symbol
_atom_site_label
_atom_site_fract_x
_atom_site_fract_y
_atom_site_fract_z
Si Si1 0.025910 0.961053 0.238938
Si Si2 0.015854 0.689971 0.677011
Si Si3 0.968246 0.178589 0.551394
Si Si4 0.496344 0.660934 0.924784
Si Si5 0.454762 0.988198 0.650412
Si Si6 0.769887 0.612408 0.249768
Si Si7 0.000000 0.000000 0.000000
Si Si8 0.755489 0.395144 0.104041
O O1 0.210889 0.847850 0.063882
O O2 0.163401 0.823716 0.276933
O O3 0.730813 0.002129 0.350477
O O4 0.009185 0.141716 0.266460
O O5 0.100563 0.693554 0.521680
O O6 0.205251 0.507088 0.657451
O O7 0.729400 0.701525 0.823014
O O8 0.243862 0.154262 0.460976
O O9 0.000000 0.000000 0.500000
O O10 0.500000 0.500000 0.000000
O O11 0.499507 0.594526 0.819809
O O12 0.425879 0.182624 0.653105
O O13 0.282068 0.980144 0.827201
O O14 0.688574 0.541367 0.203445
O O15 0.056719 0.587386 0.075390
O O16 0.920809 0.193229 0.078963
#
# Coordination Sequence:
#
# PCOD9077734 Si02
#       8
#     2   2   2   2   2   2   1   2
#     4  11  23  43  65  98 129 183 228 270 331 411
#     4  11  23  42  66 100 136 170 224 282 340 394
#     4  10  25  44  65  96 136 181 226 275 334 403
#     4  12  22  41  64 102 135 170 215 289 341 389
#     4  11  21  42  69  95 136 172 233 271 332 402
#     4  10  21  38  62  97 131 172 214 281 330 398
#     4  10  18  34  64 100 118 164 222 274 316 382
#     4  10  20  35  58  93 135 161 216 262 343 391
#
# _framework density 25.523392999999999
#
# number of rings (size 3 to 8) (size 9 to 14) (size 15 to 20)
#    0.000    1.333    4.000    2.400    0.000    2.133 
#    4.800    5.333    0.000    3.200    0.000    0.000 
#    0.000    0.000    0.000    0.000    0.000    0.000 
#
# Total GULP energy -83641.000775 kJ/mol
# GULP energy per Si atom -5576.066718 kJ/mol
# Density = 2.546530 g / cm^3
# Si number density = 25.523393 Si / 1000 Ang^3
#
#
#
# Elastic Constant Matrix: (Units=GPa)
#
#
# Indices 1 2 3 4 5 6 
#
# 1 136.5384 37.2184 15.1414 -11.9215 10.4366 30.3927
# 2 37.2184 143.1954 24.4136 -28.5819 11.3011 14.1603
# 3 15.1414 24.4136 60.7738 -5.3227 3.0260 8.0414
# 4 -11.9215 -28.5819 -5.3227 23.8818 -1.0393 12.3157
# 5 10.4366 11.3011 3.0260 -1.0393 50.0671 -11.2883
# 6 30.3927 14.1603 8.0414 12.3157 -11.2883 50.1759
#
#
#
# Elastic Compliance Matrix: (Units=1/GPa)
#
#
# Indices 1 2 3 4 5 6 
#
# 1 0.010899 0.001085 -0.000429 0.012033 -0.004687 -0.010847
# 2 0.001085 0.012259 -0.001976 0.019542 -0.004642 -0.009641
# 3 -0.000429 -0.001976 0.018084 0.002989 -0.001190 -0.003082
# 4 0.012033 0.019542 0.002989 0.091360 -0.013962 -0.038848
# 5 -0.004687 -0.004642 -0.001190 -0.013962 0.024788 0.013343
# 6 -0.010847 -0.009641 -0.003082 -0.038848 0.013343 0.042252
#
#
# Mechanical properties :
#
#
# Convention : Reuss Voigt Hill
#
# Bulk Modulus (GPa) = 25.90592 54.89494 40.40043
# Shear Modulus (GPa) = 23.23948 42.40723 32.82336
#
# Velocity S-wave (km/s) = 3.02075 4.08058 3.58999
# Velocity P-wave (km/s) = 4.72636 6.61482 5.74867
#
# Compressibility (1/GPa) = 0.03860121
#
# Stress axis : x y z
#
# Youngs Moduli (GPa) = 91.74905 81.57433 55.29719
#
# Poissons Ratio (x) = -0.08848 0.02370
# Poissons Ratio (y) = -0.09951 0.10929
# Poissons Ratio (z) = 0.03933 0.16123
#
# Static dielectric constant tensor:
#      x y z
#    x 1.849320 0.069130 -0.016660 
#    y 0.069130 1.856280 -0.002470 
#    z -0.016660 -0.002470 2.034140 
# 
# From -- ./inp_files/494792.got.cif
#   From: 2010.05.17/outbox.cif.g08.bks.cpg/sg2_248_cif.got.tgz:494792.got - 2010.06.03 11:33:40.
