data_PCOD9077384
_publ_section_title
;
Structure prediction by ZEFSAII (Michael W. Deem and Ramdas Pophale) SiO2 
 PCOD9077384
Probable space group: P -1
;
_chemical_formula_sum "Si O2"
_cell_formula_units_Z 16
_cell_length_a 10.989341
_cell_length_b 16.419409
_cell_length_c 9.953118
_cell_angle_alpha 33.715164
_cell_angle_beta 76.002167
_cell_angle_gamma 63.652545
_cell_volume 863.558258
_symmetry_space_group_name_H-M "P -1"
_symmetry_group_IT_number 2
_symmetry_cell_setting 'triclinic'
loop_
_space_group_symop_operation_xyz
x,y,z
-x,-y,-z
loop_
_atom_site_type_symbol
_atom_site_label
_atom_site_fract_x
_atom_site_fract_y
_atom_site_fract_z
Si Si1 0.627416 0.455415 0.632644
Si Si2 0.153921 0.872774 0.869977
Si Si3 0.319255 0.764563 0.702584
Si Si4 0.838674 0.510491 0.140897
Si Si5 0.923532 0.777756 0.669767
Si Si6 0.131767 0.105084 0.169548
Si Si7 0.859600 0.575334 0.344171
Si Si8 0.439922 0.452207 0.916481
O O1 0.500000 0.500000 0.500000
O O2 0.730462 0.540854 0.472868
O O3 0.547355 0.493164 0.745339
O O4 0.737406 0.260369 0.874812
O O5 0.211825 0.802999 0.801349
O O6 0.996972 0.890035 0.890278
O O7 0.144543 0.053863 0.626584
O O8 0.357035 0.596427 0.845779
O O9 0.253327 0.921135 0.409257
O O10 0.467701 0.719737 0.797511
O O11 0.900670 0.499630 0.287238
O O12 0.677176 0.553495 0.139628
O O13 0.926071 0.342961 0.266516
O O14 0.846988 0.660817 0.854266
O O15 0.924381 0.831703 0.750153
O O16 0.183825 0.231924 0.924112
O O17 0.000000 0.500000 0.500000
#
# Coordination Sequence:
#
# PCOD9077384 Si02
#       8
#     2   2   2   2   2   2   2   2
#     4  11  22  39  55  77 110 150 188 217 271 329
#     4  10  18  34  59  82 109 139 180 227 268 324
#     4   9  19  33  55  88 107 142 176 221 279 325
#     4  10  19  35  57  82 113 140 179 231 272 323
#     4   9  19  33  55  89 107 135 177 233 277 310
#     4  10  18  34  59  82 110 137 180 231 265 320
#     4  11  22  39  57  79 106 148 192 225 265 319
#     4  10  19  35  57  80 114 146 176 222 273 335
#
# _framework density 18.527991
#
# number of rings (size 3 to 8) (size 9 to 14) (size 15 to 20)
#    0.000    2.000    2.500    3.000    0.000    0.000 
#    4.500    5.000    0.000    0.000    0.000    0.000 
#    0.000    0.000    0.000    0.000    0.000    0.000 
#
# Total GULP energy -89088.140173 kJ/mol
# GULP energy per Si atom -5568.008761 kJ/mol
# Density = 1.848582 g / cm^3
# Si number density = 18.527991 Si / 1000 Ang^3
#
#
#
# Elastic Constant Matrix: (Units=GPa)
#
#
# Indices 1 2 3 4 5 6 
#
# 1 115.7915 23.2755 78.7193 -2.2231 11.6288 -13.2775
# 2 23.2755 36.3123 20.1632 -13.1589 3.5829 -9.7630
# 3 78.7193 20.1632 144.7307 -18.6983 13.2471 -7.6822
# 4 -2.2231 -13.1589 -18.6983 24.1367 -2.7079 3.5258
# 5 11.6288 3.5829 13.2471 -2.7079 28.5256 8.9462
# 6 -13.2775 -9.7630 -7.6822 3.5258 8.9462 19.6349
#
#
#
# Elastic Compliance Matrix: (Units=1/GPa)
#
#
# Indices 1 2 3 4 5 6 
#
# 1 0.017784 -0.007280 -0.009045 -0.011475 -0.006297 0.009797
# 2 -0.007280 0.044195 0.002161 0.021826 -0.006882 0.017114
# 3 -0.009045 0.002161 0.012910 0.010407 -0.001176 -0.001324
# 4 -0.011475 0.021826 0.010407 0.061785 0.004902 -0.006164
# 5 -0.006297 -0.006882 -0.001176 0.004902 0.049385 -0.031522
# 6 0.009797 0.017114 -0.001324 -0.006164 -0.031522 0.081015
#
#
# Mechanical properties :
#
#
# Convention : Reuss Voigt Hill
#
# Bulk Modulus (GPa) = 21.47744 60.12784 40.80264
# Shear Modulus (GPa) = 16.08119 26.10454 21.09286
#
# Velocity S-wave (km/s) = 2.94928 3.75764 3.37773
# Velocity P-wave (km/s) = 4.81816 7.16584 6.10590
#
# Compressibility (1/GPa) = 0.04656049
#
# Stress axis : x y z
#
# Youngs Moduli (GPa) = 56.23050 22.62703 77.46091
#
# Poissons Ratio (x) = 0.16472 0.70061
# Poissons Ratio (y) = 0.40936 -0.16736
# Poissons Ratio (z) = 0.50859 -0.04889
#
# Static dielectric constant tensor:
#      x y z
#    x 1.672500 0.008640 0.013170 
#    y 0.008640 1.641550 0.025190 
#    z 0.013170 0.025190 1.672160 
# 
# From -- ./inp_files/252096.got.cif
#   From: 2010.05.17/outbox.cif.g08.bks.cpg/sg2_127_cif.got.tgz:252096.got - 2010.06.03 11:33:40.
