data_PCOD9077853
_publ_section_title
;
Structure prediction by ZEFSAII (Michael W. Deem and Ramdas Pophale) SiO2 
 PCOD9077853
Probable space group: P -1
;
_chemical_formula_sum "Si O2"
_cell_formula_units_Z 16
_cell_length_a 12.261119
_cell_length_b 10.919234
_cell_length_c 10.962633
_cell_angle_alpha 41.720834
_cell_angle_beta 45.873364
_cell_angle_gamma 60.529617
_cell_volume 699.938681
_symmetry_space_group_name_H-M "P -1"
_symmetry_group_IT_number 2
_symmetry_cell_setting 'triclinic'
loop_
_space_group_symop_operation_xyz
x,y,z
-x,-y,-z
loop_
_atom_site_type_symbol
_atom_site_label
_atom_site_fract_x
_atom_site_fract_y
_atom_site_fract_z
Si Si1 0.123120 0.473759 0.710900
Si Si2 0.292291 0.901187 0.677792
Si Si3 0.887050 0.832728 0.256617
Si Si4 0.988925 0.828196 0.811276
Si Si5 0.396935 0.102643 0.225843
Si Si6 0.377051 0.645020 0.019082
Si Si7 0.140561 0.359286 0.348495
Si Si8 0.202545 0.869943 0.374617
O O1 0.147409 0.316632 0.709014
O O2 0.234347 0.658094 0.477442
O O3 0.963261 0.553821 0.735270
O O4 0.105382 0.360501 0.936047
O O5 0.350169 0.756945 0.833525
O O6 0.125106 0.849203 0.789373
O O7 0.268209 0.083654 0.639587
O O8 0.398422 0.950204 0.444710
O O9 0.950888 0.751868 0.392298
O O10 0.000000 0.000000 0.000000
O O11 0.082117 0.833434 0.608156
O O12 0.880290 0.999321 0.754000
O O13 0.553617 0.224658 0.025232
O O14 0.259830 0.232109 0.280943
O O15 0.342741 0.996608 0.225993
O O16 0.500000 0.500000 0.000000
O O17 0.224169 0.520277 0.244193
#
# Coordination Sequence:
#
# PCOD9077853 Si02
#       8
#     2   2   2   2   2   2   2   2
#     4  12  21  33  57  83 117 152 186 220 286 348
#     4  10  18  35  54  84 113 141 182 237 282 330
#     4  11  21  34  54  82 117 149 182 228 292 340
#     4  10  19  35  54  82 120 149 177 236 285 330
#     4   9  20  35  57  79 116 149 182 231 281 331
#     4  10  19  35  57  84 109 144 188 236 291 325
#     4  10  20  34  55  87 115 140 187 239 280 337
#     4  10  21  35  52  83 119 152 186 224 279 338
#
# _framework density 22.859145000000002
#
# number of rings (size 3 to 8) (size 9 to 14) (size 15 to 20)
#    0.000    1.750    2.500    4.125    0.000    0.000 
#    2.250    0.000    0.000    1.500    0.000    0.000 
#    0.000    0.000    0.000    0.000    0.000    0.000 
#
# Total GULP energy -89277.907697 kJ/mol
# GULP energy per Si atom -5579.869231 kJ/mol
# Density = 2.280712 g / cm^3
# Si number density = 22.859145 Si / 1000 Ang^3
#
#
#
# Elastic Constant Matrix: (Units=GPa)
#
#
# Indices 1 2 3 4 5 6 
#
# 1 129.1707 37.2046 51.6245 -31.1527 -8.4466 14.6550
# 2 37.2046 64.0303 18.1143 -31.5018 6.1241 9.7085
# 3 51.6245 18.1143 102.6715 -34.2006 9.6145 4.6933
# 4 -31.1527 -31.5018 -34.2006 36.6477 3.2414 -4.0595
# 5 -8.4466 6.1241 9.6145 3.2414 46.7800 -26.9407
# 6 14.6550 9.7085 4.6933 -4.0595 -26.9407 32.2434
#
#
#
# Elastic Compliance Matrix: (Units=1/GPa)
#
#
# Indices 1 2 3 4 5 6 
#
# 1 0.011788 -0.006654 -0.005783 -0.001371 0.005275 0.001722
# 2 -0.006654 0.049877 0.017282 0.052314 -0.037529 -0.039280
# 3 -0.005783 0.017282 0.022886 0.030986 -0.021804 -0.020224
# 4 -0.001371 0.052314 0.030986 0.099019 -0.047139 -0.046559
# 5 0.005275 -0.037529 -0.021804 -0.047139 0.074260 0.068189
# 6 0.001722 -0.039280 -0.020224 -0.046559 0.068189 0.096116
#
#
# Mechanical properties :
#
#
# Convention : Reuss Voigt Hill
#
# Bulk Modulus (GPa) = 10.61087 56.63991 33.62539
# Shear Modulus (GPa) = 13.30958 35.72948 24.51953
#
# Velocity S-wave (km/s) = 2.41559 3.95780 3.27866
# Velocity P-wave (km/s) = 3.52591 6.76145 5.39209
#
# Compressibility (1/GPa) = 0.09424300
#
# Stress axis : x y z
#
# Youngs Moduli (GPa) = 84.83126 20.04912 43.69423
#
# Poissons Ratio (x) = 0.13340 0.25267
# Poissons Ratio (y) = 0.56443 -0.75512
# Poissons Ratio (z) = 0.49055 -0.34649
#
# Static dielectric constant tensor:
#      x y z
#    x 1.892700 0.034060 -0.034660 
#    y 0.034060 1.937570 -0.022460 
#    z -0.034660 -0.022460 1.934410 
# 
# From -- ./inp_files/424916.got.cif
#   From: 2010.05.17/outbox.cif.g08.bks.cpg/sg2_213_cif.got.tgz:424916.got - 2010.06.03 11:33:40.
