data_PCOD9077947
_publ_section_title
;
Structure prediction by ZEFSAII (Michael W. Deem and Ramdas Pophale) SiO2 
 PCOD9077947
Probable space group: P -1
;
_chemical_formula_sum "Si O2"
_cell_formula_units_Z 16
_cell_length_a 14.321054
_cell_length_b 13.055036
_cell_length_c 14.341459
_cell_angle_alpha 149.849063
_cell_angle_beta 30.457744
_cell_angle_gamma 143.022286
_cell_volume 667.442920
_symmetry_space_group_name_H-M "P -1"
_symmetry_group_IT_number 2
_symmetry_cell_setting 'triclinic'
loop_
_space_group_symop_operation_xyz
x,y,z
-x,-y,-z
loop_
_atom_site_type_symbol
_atom_site_label
_atom_site_fract_x
_atom_site_fract_y
_atom_site_fract_z
Si Si1 0.867728 0.268162 0.941626
Si Si2 0.707244 0.623687 0.679649
Si Si3 0.791951 0.719823 0.087592
Si Si4 0.425745 0.635517 0.591087
Si Si5 0.657985 0.266237 0.929576
Si Si6 0.077468 0.595182 0.409441
Si Si7 0.439600 0.671457 0.253921
Si Si8 0.184413 0.059772 0.572450
O O1 0.731059 0.224833 0.935759
O O2 0.014201 0.117762 0.705043
O O3 0.733015 0.264516 0.143951
O O4 0.000000 0.500000 0.000000
O O5 0.676130 0.515560 0.521242
O O6 0.645874 0.445835 0.671249
O O7 0.923084 0.707128 0.585013
O O8 0.566994 0.783284 0.929063
O O9 0.707376 0.512002 0.057867
O O10 0.909230 0.608392 0.825839
O O11 0.636707 0.805848 0.226827
O O12 0.862908 0.883581 0.236136
O O13 0.500000 0.500000 0.500000
O O14 0.611653 0.787807 0.509867
O O15 0.768660 0.154574 0.673581
O O16 0.279404 0.733849 0.377830
O O17 0.000000 0.500000 0.500000
O O18 0.500000 0.500000 0.000000
#
# Coordination Sequence:
#
# PCOD9077947 Si02
#       8
#     2   2   2   2   2   2   2   2
#     4  12  22  41  61  86 123 162 210 254 300 358
#     4  10  18  35  56  87 120 151 198 249 302 357
#     4  10  18  39  61  85 124 155 199 255 305 365
#     4  12  21  39  64  87 122 165 203 252 308 356
#     4  11  23  39  58  88 120 165 206 246 310 360
#     4   9  18  31  64  96 112 159 206 249 310 369
#     4   8  15  30  57  87 108 146 197 236 297 361
#     4  12  24  40  62  87 123 166 205 252 306 367
#
# _framework density 23.972087999999999
#
# number of rings (size 3 to 8) (size 9 to 14) (size 15 to 20)
#    0.000    1.500    6.250    1.125    0.000    0.500 
#    2.250    0.000    0.000   28.500    0.000    0.000 
#    0.000    0.000    0.000    0.000    0.000    0.000 
#
# Total GULP energy -89308.068871 kJ/mol
# GULP energy per Si atom -5581.754304 kJ/mol
# Density = 2.391753 g / cm^3
# Si number density = 23.972088 Si / 1000 Ang^3
#
#
#
# Elastic Constant Matrix: (Units=GPa)
#
#
# Indices 1 2 3 4 5 6 
#
# 1 200.4342 9.6526 85.0790 -6.8068 -19.3284 18.1344
# 2 9.6526 33.8173 35.2576 0.9880 0.2046 5.8873
# 3 85.0790 35.2576 175.9489 -13.1282 -15.0439 12.5403
# 4 -6.8068 0.9880 -13.1282 35.3590 -2.2355 -2.4086
# 5 -19.3284 0.2046 -15.0439 -2.2355 63.0840 -17.9656
# 6 18.1344 5.8873 12.5403 -2.4086 -17.9656 24.0967
#
#
#
# Elastic Compliance Matrix: (Units=1/GPa)
#
#
# Indices 1 2 3 4 5 6 
#
# 1 0.006679 0.002340 -0.003443 -0.000303 0.000145 -0.003728
# 2 0.002340 0.040733 -0.009318 -0.005219 -0.004984 -0.011101
# 3 -0.003443 -0.009318 0.009506 0.003352 0.001820 0.001613
# 4 -0.000303 -0.005219 0.003352 0.030176 0.003279 0.005220
# 5 0.000145 -0.004984 0.001820 0.003279 0.021077 0.016203
# 6 -0.003728 -0.011101 0.001613 0.005220 0.016203 0.058780
#
#
# Mechanical properties :
#
#
# Convention : Reuss Voigt Hill
#
# Bulk Modulus (GPa) = 27.71896 74.46431 51.09163
# Shear Modulus (GPa) = 25.02259 43.18870 34.10564
#
# Velocity S-wave (km/s) = 3.23433 4.24916 3.77599
# Velocity P-wave (km/s) = 5.05331 7.42995 6.35374
#
# Compressibility (1/GPa) = 0.03607639
#
# Stress axis : x y z
#
# Youngs Moduli (GPa) = 149.72391 24.55020 105.19304
#
# Poissons Ratio (x) = -0.05745 0.36218
# Poissons Ratio (y) = -0.35039 0.98021
# Poissons Ratio (z) = 0.51549 0.22876
#
# Static dielectric constant tensor:
#      x y z
#    x 1.903220 -0.003290 -0.045310 
#    y -0.003290 2.036740 -0.059290 
#    z -0.045310 -0.059290 1.919100 
# 
# From -- ./inp_files/533895.got.cif
#   From: 2010.05.17/outbox.cif.g08.bks.cpg/sg2_267_cif.got.tgz:533895.got - 2010.06.03 11:33:40.
