data_PCOD9077505
_publ_section_title
;
Structure prediction by ZEFSAII (Michael W. Deem and Ramdas Pophale) SiO2 
 PCOD9077505
Probable space group: P -1
;
_chemical_formula_sum "Si O2"
_cell_formula_units_Z 15
_cell_length_a 7.060090
_cell_length_b 12.861330
_cell_length_c 8.998020
_cell_angle_alpha 120.428169
_cell_angle_beta 101.990046
_cell_angle_gamma 114.101864
_cell_volume 546.657929
_symmetry_space_group_name_H-M "P -1"
_symmetry_group_IT_number 2
_symmetry_cell_setting 'triclinic'
loop_
_space_group_symop_operation_xyz
x,y,z
-x,-y,-z
loop_
_atom_site_type_symbol
_atom_site_label
_atom_site_fract_x
_atom_site_fract_y
_atom_site_fract_z
Si Si1 0.620381 0.884382 0.929759
Si Si2 0.678870 0.819290 0.191865
Si Si3 0.026180 0.736445 0.080685
Si Si4 0.500000 0.000000 0.500000
Si Si5 0.072611 0.211770 0.186803
Si Si6 0.729916 0.260405 0.478460
Si Si7 0.774995 0.523699 0.151971
Si Si8 0.332787 0.271217 0.571978
O O1 0.697002 0.775562 0.831478
O O2 0.364710 0.807684 0.751601
O O3 0.663682 0.914181 0.132412
O O4 0.827878 0.041161 0.996830
O O5 0.891400 0.808216 0.167361
O O6 0.722085 0.853965 0.401529
O O7 0.417550 0.654879 0.014774
O O8 0.909201 0.594098 0.067599
O O9 0.307720 0.868274 0.252983
O O10 0.960283 0.692388 0.865123
O O11 0.332771 0.871845 0.514394
O O12 0.134160 0.230104 0.384686
O O13 0.560982 0.304213 0.546674
O O14 0.007080 0.406196 0.644321
O O15 0.639434 0.596177 0.233013
#
# Coordination Sequence:
#
# PCOD9077505 Si02
#       8
#     2   2   2   1   2   2   2   2
#     4   9  18  35  58  86 122 160 186 249 304 351
#     4  10  21  38  58  85 124 163 198 243 299 353
#     4   9  17  34  59  82 117 159 189 246 298 344
#     4  10  18  34  60  86 118 152 192 242 298 350
#     4   9  17  33  58  89 116 151 205 237 301 357
#     4  10  21  39  61  89 120 157 200 244 302 354
#     4  10  22  41  60  88 123 160 201 245 297 352
#     4  10  21  38  62  90 116 160 204 246 295 356
#
# _framework density 27.439461999999999
#
# number of rings (size 3 to 8) (size 9 to 14) (size 15 to 20)
#    0.000    2.400    1.333    1.600    1.867    1.600 
#    4.800   14.000    0.000    0.000    0.000    0.000 
#    0.000    0.000    0.000    0.000    0.000    0.000 
#
# Total GULP energy -83706.008688 kJ/mol
# GULP energy per Si atom -5580.400579 kJ/mol
# Density = 2.737701 g / cm^3
# Si number density = 27.439462 Si / 1000 Ang^3
#
#
#
# Elastic Constant Matrix: (Units=GPa)
#
#
# Indices 1 2 3 4 5 6 
#
# 1 76.5252 25.3470 49.6214 -5.3422 3.6029 7.7841
# 2 25.3470 70.2459 35.9808 -2.0682 -2.9373 4.3323
# 3 49.6214 35.9808 140.2868 -28.0636 13.1403 -9.3657
# 4 -5.3422 -2.0682 -28.0636 59.8822 6.3221 6.9901
# 5 3.6029 -2.9373 13.1403 6.3221 32.4560 -6.2199
# 6 7.7841 4.3323 -9.3657 6.9901 -6.2199 25.2386
#
#
#
# Elastic Compliance Matrix: (Units=1/GPa)
#
#
# Indices 1 2 3 4 5 6 
#
# 1 0.019140 -0.003181 -0.006439 -0.000358 -0.001261 -0.007958
# 2 -0.003181 0.017824 -0.004297 -0.001798 0.003619 -0.002284
# 3 -0.006439 -0.004297 0.012257 0.004964 -0.004695 0.004740
# 4 -0.000358 -0.001798 0.004964 0.020271 -0.007057 -0.005093
# 5 -0.001261 0.003619 -0.004695 -0.007057 0.036263 0.008917
# 6 -0.007958 -0.002284 0.004740 -0.005093 0.008917 0.047835
#
#
# Mechanical properties :
#
#
# Convention : Reuss Voigt Hill
#
# Bulk Modulus (GPa) = 46.75754 56.55071 51.65412
# Shear Modulus (GPa) = 26.51752 35.25596 30.88674
#
# Velocity S-wave (km/s) = 3.11207 3.58839 3.35868
# Velocity P-wave (km/s) = 5.47636 6.15002 5.82294
#
# Compressibility (1/GPa) = 0.02138693
#
# Stress axis : x y z
#
# Youngs Moduli (GPa) = 52.24539 56.10476 81.58370
#
# Poissons Ratio (x) = 0.17845 0.52534
# Poissons Ratio (y) = 0.16618 0.35060
# Poissons Ratio (z) = 0.33642 0.24110
#
# Static dielectric constant tensor:
#      x y z
#    x 4.327600 0.279370 -0.379590 
#    y 0.279370 2.139740 -0.129680 
#    z -0.379590 -0.129680 2.191620 
# 
# From -- ./inp_files/207946.got.cif
#   From: 2010.05.17/outbox.cif.g08.bks.cpg/sg2_104_cif.got.tgz:207946.got - 2010.06.03 11:33:40.
