data_PCOD9077155
_publ_section_title
;
Structure prediction by ZEFSAII (Michael W. Deem and Ramdas Pophale) SiO2 
 PCOD9077155
Probable space group: P -1
;
_chemical_formula_sum "Si O2"
_cell_formula_units_Z 15
_cell_length_a 12.367422
_cell_length_b 17.117610
_cell_length_c 11.858682
_cell_angle_alpha 152.928207
_cell_angle_beta 35.172009
_cell_angle_gamma 144.713821
_cell_volume 619.586124
_symmetry_space_group_name_H-M "P -1"
_symmetry_group_IT_number 2
_symmetry_cell_setting 'triclinic'
loop_
_space_group_symop_operation_xyz
x,y,z
-x,-y,-z
loop_
_atom_site_type_symbol
_atom_site_label
_atom_site_fract_x
_atom_site_fract_y
_atom_site_fract_z
Si Si1 0.247377 0.212339 0.950819
Si Si2 0.889123 0.371884 0.609200
Si Si3 0.000000 0.000000 0.500000
Si Si4 0.377900 0.077484 0.443509
Si Si5 0.248458 0.617665 0.511447
Si Si6 0.864784 0.885234 0.847859
Si Si7 0.726437 0.322929 0.916135
Si Si8 0.831023 0.676315 0.394685
O O1 0.368815 0.176452 0.696965
O O2 0.283732 0.425048 0.212460
O O3 0.273644 0.131328 0.946573
O O4 0.019319 0.085543 0.948903
O O5 0.068030 0.565629 0.688843
O O6 0.992411 0.226350 0.372024
O O7 0.809424 0.335044 0.503023
O O8 0.731262 0.365773 0.833201
O O9 0.825763 0.963240 0.502875
O O10 0.877246 0.804717 0.412545
O O11 0.564293 0.214140 0.393904
O O12 0.393345 0.881899 0.208953
O O13 0.766766 0.780637 0.685297
O O14 0.959312 0.342781 0.766834
O O15 0.689348 0.478151 0.222640
#
# Coordination Sequence:
#
# PCOD9077155 Si02
#       8
#     2   2   1   2   2   2   2   2
#     4  10  18  34  56  86 117 148 183 239 285 338
#     4   9  18  37  54  85 109 160 181 238 284 349
#     4  10  20  34  58  82 120 146 196 224 292 328
#     4  11  21  38  54  93 114 154 185 241 276 350
#     4  10  22  33  57  86 124 140 195 235 293 327
#     4   9  17  34  60  83 110 149 195 230 286 344
#     4   9  18  33  58  79 115 151 197 223 286 340
#     4   9  17  33  55  86 104 157 194 232 269 343
#
# _framework density 24.209709
#
# number of rings (size 3 to 8) (size 9 to 14) (size 15 to 20)
#    0.000    2.400    4.000    0.400    1.867    0.533 
#    0.000    0.000    0.000   32.800    0.000    0.000 
#    0.000    0.000    0.000    0.000    0.000    0.000 
#
# Total GULP energy -83522.445528 kJ/mol
# GULP energy per Si atom -5568.163035 kJ/mol
# Density = 2.415461 g / cm^3
# Si number density = 24.209709 Si / 1000 Ang^3
#
#
#
# Elastic Constant Matrix: (Units=GPa)
#
#
# Indices 1 2 3 4 5 6 
#
# 1 57.7695 27.3329 31.8441 8.5895 1.4316 -11.9374
# 2 27.3329 144.3640 53.7571 33.3196 3.4223 10.1683
# 3 31.8441 53.7571 81.5254 16.8826 19.6749 -4.1228
# 4 8.5895 33.3196 16.8826 35.6940 3.1827 -1.9193
# 5 1.4316 3.4223 19.6749 3.1827 13.8270 1.1471
# 6 -11.9374 10.1683 -4.1228 -1.9193 1.1471 34.5680
#
#
#
# Elastic Compliance Matrix: (Units=1/GPa)
#
#
# Indices 1 2 3 4 5 6 
#
# 1 0.025936 -0.000982 -0.012707 -0.000273 0.015103 0.007214
# 2 -0.000982 0.012938 -0.009938 -0.008686 0.013559 -0.006262
# 3 -0.012707 -0.009938 0.035284 0.000050 -0.046799 0.004299
# 4 -0.000273 -0.008686 0.000050 0.037029 -0.006810 0.004749
# 5 0.015103 0.013559 -0.046799 -0.006810 0.136330 -0.009256
# 6 0.007214 -0.006262 0.004299 0.004749 -0.009256 0.034345
#
#
# Mechanical properties :
#
#
# Convention : Reuss Voigt Hill
#
# Bulk Modulus (GPa) = 37.16823 56.61411 46.89117
# Shear Modulus (GPa) = 14.78928 28.19946 21.49437
#
# Velocity S-wave (km/s) = 2.47428 3.41662 2.98290
# Velocity P-wave (km/s) = 4.85270 6.24500 5.59235
#
# Compressibility (1/GPa) = 0.02690470
#
# Stress axis : x y z
#
# Youngs Moduli (GPa) = 38.55634 77.29270 28.34181
#
# Poissons Ratio (x) = 0.07590 0.36013
# Poissons Ratio (y) = 0.03786 0.28165
# Poissons Ratio (z) = 0.48993 0.76811
#
# Static dielectric constant tensor:
#      x y z
#    x 1.937310 0.062170 -0.000960 
#    y 0.062170 1.973110 -0.044860 
#    z -0.000960 -0.044860 1.983760 
# 
# From -- ./inp_files/456541.got.cif
#   From: 2010.05.17/outbox.cif.g08.bks.cpg/sg2_229_cif.got.tgz:456541.got - 2010.06.03 11:33:40.
