data_PCOD9077309
_publ_section_title
;
Structure prediction by ZEFSAII (Michael W. Deem and Ramdas Pophale) SiO2 
 PCOD9077309
Probable space group: P -1
;
_chemical_formula_sum "Si O2"
_cell_formula_units_Z 16
_cell_length_a 14.869732
_cell_length_b 9.992113
_cell_length_c 8.295058
_cell_angle_alpha 77.961721
_cell_angle_beta 134.772829
_cell_angle_gamma 72.210717
_cell_volume 649.095469
_symmetry_space_group_name_H-M "P -1"
_symmetry_group_IT_number 2
_symmetry_cell_setting 'triclinic'
loop_
_space_group_symop_operation_xyz
x,y,z
-x,-y,-z
loop_
_atom_site_type_symbol
_atom_site_label
_atom_site_fract_x
_atom_site_fract_y
_atom_site_fract_z
Si Si1 0.669075 0.319688 0.836395
Si Si2 0.048520 0.680657 0.923388
Si Si3 0.933872 0.406533 0.377650
Si Si4 0.380226 0.197759 0.175082
Si Si5 0.278308 0.622283 0.735930
Si Si6 0.405006 0.790630 0.771067
Si Si7 0.254786 0.255552 0.348516
Si Si8 0.603330 0.070001 0.944006
O O1 0.500000 0.500000 0.500000
O O2 0.826698 0.276257 0.948613
O O3 0.644826 0.172423 0.857682
O O4 0.688531 0.350633 0.043139
O O5 0.158808 0.469077 0.162562
O O6 0.986296 0.704678 0.654331
O O7 0.880922 0.768849 0.792098
O O8 0.901664 0.321441 0.498294
O O9 0.000000 0.500000 0.500000
O O10 0.747299 0.585133 0.047392
O O11 0.358433 0.165090 0.336946
O O12 0.326668 0.115761 0.004623
O O13 0.547491 0.149130 0.332454
O O14 0.424140 0.415565 0.916593
O O15 0.279627 0.754815 0.593691
O O16 0.348519 0.918397 0.819455
O O17 0.404583 0.176222 0.682302
#
# Coordination Sequence:
#
# PCOD9077309 Si02
#       8
#     2   2   2   2   2   2   2   2
#     4  10  18  34  58  84 109 144 182 231 275 323
#     4   9  19  35  55  83 111 137 188 233 271 318
#     4   9  18  33  59  78 108 144 182 228 277 323
#     4  10  21  36  52  80 116 144 184 228 271 331
#     4   8  17  32  52  82 107 133 181 232 271 313
#     4   9  18  33  53  78 111 136 178 233 267 317
#     4  10  20  35  55  80 112 144 185 230 274 325
#     4  11  21  33  59  82 107 152 186 221 283 332
#
# _framework density 24.649687
#
# number of rings (size 3 to 8) (size 9 to 14) (size 15 to 20)
#    0.000    2.500    1.250    1.500    3.500    0.000 
#    0.000    0.625    2.750    2.250    0.000    0.000 
#    0.000    0.000    0.000    0.000    0.000    0.000 
#
# Total GULP energy -89256.544715 kJ/mol
# GULP energy per Si atom -5578.534045 kJ/mol
# Density = 2.459358 g / cm^3
# Si number density = 24.649687 Si / 1000 Ang^3
#
#
#
# Elastic Constant Matrix: (Units=GPa)
#
#
# Indices 1 2 3 4 5 6 
#
# 1 204.8391 54.6519 26.7796 -0.3548 22.4721 39.0756
# 2 54.6519 99.6689 9.2152 -1.2656 4.7445 3.8304
# 3 26.7796 9.2152 35.5847 -1.0671 12.9775 3.0390
# 4 -0.3548 -1.2656 -1.0671 26.0758 5.5794 8.0625
# 5 22.4721 4.7445 12.9775 5.5794 27.6253 1.5848
# 6 39.0756 3.8304 3.0390 8.0625 1.5848 49.2781
#
#
#
# Elastic Compliance Matrix: (Units=1/GPa)
#
#
# Indices 1 2 3 4 5 6 
#
# 1 0.007871 -0.003575 -0.002669 0.002721 -0.004735 -0.006092
# 2 -0.003575 0.011947 -0.001071 -0.000414 0.001329 0.001997
# 3 -0.002669 -0.001071 0.036265 0.004843 -0.015641 -0.000326
# 4 0.002721 -0.000414 0.004843 0.044161 -0.012807 -0.009238
# 5 -0.004735 0.001329 -0.015641 -0.012807 0.049463 0.005121
# 6 -0.006092 0.001997 -0.000326 -0.009238 0.005121 0.026335
#
#
# Mechanical properties :
#
#
# Convention : Reuss Voigt Hill
#
# Bulk Modulus (GPa) = 24.12348 57.93178 41.02763
# Shear Modulus (GPa) = 24.45111 37.22555 30.83833
#
# Velocity S-wave (km/s) = 3.15293 3.89032 3.54088
# Velocity P-wave (km/s) = 4.80233 6.61306 5.77905
#
# Compressibility (1/GPa) = 0.04145339
#
# Stress axis : x y z
#
# Youngs Moduli (GPa) = 127.05059 83.70090 27.57481
#
# Poissons Ratio (x) = 0.29924 0.07359
# Poissons Ratio (y) = 0.45421 0.02953
# Poissons Ratio (z) = 0.33908 0.08964
#
# Static dielectric constant tensor:
#      x y z
#    x 2.104610 0.027200 0.011990 
#    y 0.027200 1.962920 -0.044000 
#    z 0.011990 -0.044000 2.068380 
# 
# From -- ./inp_files/295654.got.cif
#   From: 2010.05.17/outbox.cif.g08.bks.cpg/sg2_148_cif.got.tgz:295654.got - 2010.06.03 11:33:40.
