data_PCOD9077484
_publ_section_title
;
Structure prediction by ZEFSAII (Michael W. Deem and Ramdas Pophale) SiO2 
 PCOD9077484
Probable space group: P -1
;
_chemical_formula_sum "Si O2"
_cell_formula_units_Z 15
_cell_length_a 11.268061
_cell_length_b 9.676421
_cell_length_c 14.155706
_cell_angle_alpha 39.243962
_cell_angle_beta 127.592596
_cell_angle_gamma 100.061879
_cell_volume 622.423464
_symmetry_space_group_name_H-M "P -1"
_symmetry_group_IT_number 2
_symmetry_cell_setting 'triclinic'
loop_
_space_group_symop_operation_xyz
x,y,z
-x,-y,-z
loop_
_atom_site_type_symbol
_atom_site_label
_atom_site_fract_x
_atom_site_fract_y
_atom_site_fract_z
Si Si1 0.224158 0.438315 0.985618
Si Si2 0.202920 0.347701 0.799308
Si Si3 0.394563 0.803862 0.745685
Si Si4 0.293538 0.614915 0.376840
Si Si5 0.982032 0.803676 0.968241
Si Si6 0.000000 0.000000 0.500000
Si Si7 0.622696 0.911179 0.227472
Si Si8 0.066021 0.118510 0.724167
O O1 0.202272 0.388967 0.888548
O O2 0.137358 0.753189 0.771441
O O3 0.443093 0.252478 0.216295
O O4 0.099032 0.360702 0.012084
O O5 0.091323 0.228669 0.777509
O O6 0.105786 0.629448 0.548879
O O7 0.411504 0.136536 0.977665
O O8 0.183863 0.915696 0.569106
O O9 0.370732 0.012717 0.701572
O O10 0.500000 0.500000 0.000000
O O11 0.500000 0.500000 0.500000
O O12 0.325426 0.387382 0.585360
O O13 0.153911 0.654034 0.205211
O O14 0.188001 0.909914 0.218300
O O15 0.050370 0.884593 0.869713
O O16 0.762359 0.941693 0.221885
#
# Coordination Sequence:
#
# PCOD9077484 Si02
#       8
#     2   2   2   2   2   1   2   2
#     4  10  20  36  56  80 108 138 184 234 273 322
#     4  10  20  35  53  77 111 150 188 223 261 319
#     4   9  19  34  57  82 102 129 179 237 275 314
#     4  11  21  34  54  78 111 152 192 231 271 318
#     4  11  22  34  50  81 116 145 181 229 278 325
#     4  10  18  34  60  84  98 130 180 232 286 322
#     4  11  21  36  56  81 111 149 189 224 271 331
#     4  11  21  33  52  79 116 155 182 215 270 333
#
# _framework density 24.099347999999999
#
# number of rings (size 3 to 8) (size 9 to 14) (size 15 to 20)
#    0.000    1.600    0.000    8.400    0.000    1.067 
#    0.000    0.000    0.000    7.200    0.000   16.800 
#    0.000    0.000    0.000    0.000    0.000    0.000 
#
# Total GULP energy -83599.165830 kJ/mol
# GULP energy per Si atom -5573.277722 kJ/mol
# Density = 2.404450 g / cm^3
# Si number density = 24.099348 Si / 1000 Ang^3
#
#
#
# Elastic Constant Matrix: (Units=GPa)
#
#
# Indices 1 2 3 4 5 6 
#
# 1 149.4932 10.9435 63.4899 26.8551 9.9270 43.0547
# 2 10.9435 57.8564 9.2485 6.2820 3.7368 20.8044
# 3 63.4899 9.2485 120.9661 25.3730 28.2744 24.6692
# 4 26.8551 6.2820 25.3730 1.7294 17.3203 -5.6754
# 5 9.9270 3.7368 28.2744 17.3203 56.8521 -1.3567
# 6 43.0547 20.8044 24.6692 -5.6754 -1.3567 39.4101
#
#
#
# Elastic Compliance Matrix: (Units=1/GPa)
#
#
# Indices 1 2 3 4 5 6 
#
# 1 0.006851 -0.001665 -0.006016 0.016115 -0.003019 -0.000623
# 2 -0.001665 0.018265 -0.001567 0.015074 -0.004838 -0.004838
# 3 -0.006016 -0.001567 0.011170 0.008101 -0.006838 0.001338
# 4 0.016115 0.015074 0.008101 -0.056445 0.008445 -0.038472
# 5 -0.003019 -0.004838 -0.006838 0.008445 0.019550 0.012022
# 6 -0.000623 -0.004838 0.001338 -0.038472 0.012022 0.022645
#
#
# Mechanical properties :
#
#
# Convention : Reuss Voigt Hill
#
# Bulk Modulus (GPa) = 56.20748 55.07552 55.64150
# Shear Modulus (GPa) = 107.61446 35.90723 71.76084
#
# Velocity S-wave (km/s) = 6.68965 3.86420 5.46276
# Velocity P-wave (km/s) = 9.11276 6.54313 7.93268
#
# Compressibility (1/GPa) = 0.01779123
#
# Stress axis : x y z
#
# Youngs Moduli (GPa) = 145.95942 54.74933 89.52344
#
# Poissons Ratio (x) = 0.09115 0.53857
# Poissons Ratio (y) = 0.24300 0.14027
# Poissons Ratio (z) = 0.87808 0.08579
#
# Static dielectric constant tensor:
#      x y z
#    x 1.981060 -0.031450 -0.012830 
#    y -0.031450 2.069630 -0.047830 
#    z -0.012830 -0.047830 1.892170 
# 
# From -- ./inp_files/447789.got.cif
#   From: 2010.05.17/outbox.cif.g08.bks.cpg/sg2_224_cif.got.tgz:447789.got - 2010.06.03 11:33:40.
