data_PCOD9077787
_publ_section_title
;
Structure prediction by ZEFSAII (Michael W. Deem and Ramdas Pophale) SiO2 
 PCOD9077787
Probable space group: P -1
;
_chemical_formula_sum "Si O2"
_cell_formula_units_Z 16
_cell_length_a 11.984246
_cell_length_b 6.756443
_cell_length_c 11.811553
_cell_angle_alpha 48.434016
_cell_angle_beta 95.742754
_cell_angle_gamma 93.716763
_cell_volume 711.971936
_symmetry_space_group_name_H-M "P -1"
_symmetry_group_IT_number 2
_symmetry_cell_setting 'triclinic'
loop_
_space_group_symop_operation_xyz
x,y,z
-x,-y,-z
loop_
_atom_site_type_symbol
_atom_site_label
_atom_site_fract_x
_atom_site_fract_y
_atom_site_fract_z
Si Si1 0.758891 0.845675 0.913109
Si Si2 0.085617 0.778075 0.323421
Si Si3 0.326020 0.124096 0.866615
Si Si4 0.927296 0.788201 0.509513
Si Si5 0.601041 0.460283 0.934705
Si Si6 0.337197 0.722397 0.410513
Si Si7 0.450508 0.683232 0.671117
Si Si8 0.685207 0.861233 0.399730
O O1 0.713847 0.570876 0.962914
O O2 0.875913 0.956134 0.835823
O O3 0.666675 0.058025 0.771846
O O4 0.756901 0.860011 0.041970
O O5 0.067625 0.521968 0.339630
O O6 0.202431 0.709742 0.430370
O O7 0.979254 0.797937 0.384990
O O8 0.281927 0.129650 0.732332
O O9 0.399166 0.388804 0.785559
O O10 0.389393 0.844189 0.983342
O O11 0.799224 0.871457 0.476356
O O12 0.000000 0.000000 0.500000
O O13 0.573348 0.633125 0.754281
O O14 0.500000 0.500000 0.000000
O O15 0.413620 0.776524 0.506662
O O16 0.367428 0.430470 0.479496
O O17 0.391058 0.893824 0.667543
#
# Coordination Sequence:
#
# PCOD9077787 Si02
#       8
#     2   2   2   2   2   2   2   2
#     4  10  22  39  59  87 125 155 191 245 292 346
#     4   8  19  38  54  91 119 148 189 235 295 349
#     4  11  22  39  60  80 121 159 196 244 288 345
#     4  10  18  34  66  87 115 151 193 235 294 357
#     4  12  23  38  61  88 111 163 209 234 287 350
#     4   8  20  37  57  84 122 150 183 246 295 336
#     4  11  21  37  60  85 120 152 204 244 282 344
#     4  10  20  36  60  91 112 154 196 237 294 353
#
# _framework density 22.472794
#
# number of rings (size 3 to 8) (size 9 to 14) (size 15 to 20)
#    0.750    1.250    2.500    1.125    0.000    3.500 
#    0.000    1.875    0.000    3.750    0.000    0.000 
#    0.000    0.000    0.000    0.000    0.000    0.000 
#
# Total GULP energy -89252.914960 kJ/mol
# GULP energy per Si atom -5578.307185 kJ/mol
# Density = 2.242165 g / cm^3
# Si number density = 22.472794 Si / 1000 Ang^3
#
#
#
# Elastic Constant Matrix: (Units=GPa)
#
#
# Indices 1 2 3 4 5 6 
#
# 1 45.8351 12.2911 -6.2408 -6.6686 -15.6484 3.7848
# 2 12.2911 109.9433 23.1613 -11.3783 -2.8973 8.7053
# 3 -6.2408 23.1613 51.6801 -14.3141 -8.6014 4.3932
# 4 -6.6686 -11.3783 -14.3141 38.3387 7.1151 4.9075
# 5 -15.6484 -2.8973 -8.6014 7.1151 29.5590 -6.4815
# 6 3.7848 8.7053 4.3932 4.9075 -6.4815 29.4691
#
#
#
# Elastic Compliance Matrix: (Units=1/GPa)
#
#
# Indices 1 2 3 4 5 6 
#
# 1 0.031248 -0.004597 0.010177 0.004726 0.017681 -0.001071
# 2 -0.004597 0.011059 -0.005488 0.001554 -0.003977 -0.002992
# 3 0.010177 -0.005488 0.027435 0.008917 0.010016 -0.003058
# 4 0.004726 0.001554 0.008917 0.032672 -0.004553 -0.008838
# 5 0.017681 -0.003977 0.010016 -0.004553 0.048762 0.008894
# 6 -0.001071 -0.002992 -0.003058 -0.008838 0.008894 0.038839
#
#
# Mechanical properties :
#
#
# Convention : Reuss Voigt Hill
#
# Bulk Modulus (GPa) = 14.30132 29.54242 21.92187
# Shear Modulus (GPa) = 23.45861 31.35648 27.40755
#
# Velocity S-wave (km/s) = 3.23440 3.73944 3.49605
# Velocity P-wave (km/s) = 4.50845 5.64082 5.10612
#
# Compressibility (1/GPa) = 0.06992360
#
# Stress axis : x y z
#
# Youngs Moduli (GPa) = 32.00183 90.42628 36.44952
#
# Poissons Ratio (x) = 0.41573 -0.37093
# Poissons Ratio (y) = 0.14713 0.20005
# Poissons Ratio (z) = -0.32567 0.49630
#
# Static dielectric constant tensor:
#      x y z
#    x 1.814270 0.014100 -0.003320 
#    y 0.014100 1.875700 0.000330 
#    z -0.003320 0.000330 1.915200 
# 
# From -- ./inp_files/440242.got.cif
#   From: 2010.05.17/outbox.cif.g08.bks.cpg/sg2_221_cif.got.tgz:440242.got - 2010.06.03 11:33:40.
