data_PCOD9077504
_publ_section_title
;
Structure prediction by ZEFSAII (Michael W. Deem and Ramdas Pophale) SiO2 
 PCOD9077504
Probable space group: P -1
;
_chemical_formula_sum "Si O2"
_cell_formula_units_Z 16
_cell_length_a 7.882697
_cell_length_b 8.536786
_cell_length_c 18.309477
_cell_angle_alpha 130.558552
_cell_angle_beta 81.635479
_cell_angle_gamma 126.036010
_cell_volume 698.337869
_symmetry_space_group_name_H-M "P -1"
_symmetry_group_IT_number 2
_symmetry_cell_setting 'triclinic'
loop_
_space_group_symop_operation_xyz
x,y,z
-x,-y,-z
loop_
_atom_site_type_symbol
_atom_site_label
_atom_site_fract_x
_atom_site_fract_y
_atom_site_fract_z
Si Si1 0.972442 0.710854 0.384999
Si Si2 0.801294 0.104214 0.997487
Si Si3 0.458668 0.198772 0.531833
Si Si4 0.282649 0.382958 0.077342
Si Si5 0.631709 0.271916 0.174603
Si Si6 0.187795 0.420498 0.262135
Si Si7 0.296998 0.026457 0.800230
Si Si8 0.233530 0.644675 0.572334
O O1 0.098777 0.587831 0.324249
O O2 0.795694 0.581261 0.289268
O O3 0.826001 0.555514 0.419326
O O4 0.190587 0.022974 0.485252
O O5 0.752938 0.889356 0.996522
O O6 0.631672 0.907993 0.883853
O O7 0.736258 0.264789 0.090365
O O8 0.067149 0.306137 0.025043
O O9 0.604229 0.446648 0.655081
O O10 0.580175 0.295988 0.475629
O O11 0.500000 0.000000 0.500000
O O12 0.251908 0.432552 0.178387
O O13 0.522478 0.648901 0.114041
O O14 0.636509 0.097167 0.182781
O O15 0.963505 0.120748 0.211433
O O16 0.305491 0.915402 0.687982
O O17 0.000000 0.500000 0.500000
#
# Coordination Sequence:
#
# PCOD9077504 Si02
#       8
#     2   2   2   2   2   2   2   2
#     4   9  17  27  47  73 101 134 165 209 251 301
#     4  10  21  37  56  74 104 139 175 216 261 306
#     4  10  15  23  45  72 104 134 159 203 259 296
#     4  11  21  34  56  80 101 137 177 213 257 312
#     4   9  19  39  53  75 109 135 169 221 259 301
#     4   9  17  30  45  78 112 128 164 219 253 298
#     4  10  19  31  53  78 109 133 170 218 258 300
#     4  10  15  24  41  76 106 128 165 210 249 293
#
# _framework density 22.911546000000001
#
# number of rings (size 3 to 8) (size 9 to 14) (size 15 to 20)
#    0.000    2.500    6.250    1.500    0.000    1.000 
#    0.000    0.000    0.000    0.750    0.000    4.375 
#    0.000    0.000    0.000    0.000    0.000    0.000 
#
# Total GULP energy -89338.456976 kJ/mol
# GULP energy per Si atom -5583.653561 kJ/mol
# Density = 2.285940 g / cm^3
# Si number density = 22.911546 Si / 1000 Ang^3
#
#
#
# Elastic Constant Matrix: (Units=GPa)
#
#
# Indices 1 2 3 4 5 6 
#
# 1 65.3768 26.0275 41.6959 5.6964 26.8917 25.2979
# 2 26.0275 66.6973 41.0265 24.8395 12.5143 28.1003
# 3 41.6959 41.0265 173.9873 8.6655 44.3555 26.0465
# 4 5.6964 24.8395 8.6655 40.0590 12.0375 8.1786
# 5 26.8917 12.5143 44.3555 12.0375 38.7477 17.2532
# 6 25.2979 28.1003 26.0465 8.1786 17.2532 28.9514
#
#
#
# Elastic Compliance Matrix: (Units=1/GPa)
#
#
# Indices 1 2 3 4 5 6 
#
# 1 0.027182 -0.004544 -0.000540 0.005527 -0.012803 -0.012787
# 2 -0.004544 0.040103 -0.007429 -0.021833 0.020868 -0.034538
# 3 -0.000540 -0.007429 0.009756 0.005261 -0.012087 0.004622
# 4 0.005527 -0.021833 0.005261 0.040283 -0.021007 0.012767
# 5 -0.012803 0.020868 -0.012087 -0.021007 0.061075 -0.028656
# 6 -0.012787 -0.034538 0.004622 0.012767 -0.028656 0.088549
#
#
# Mechanical properties :
#
#
# Convention : Reuss Voigt Hill
#
# Bulk Modulus (GPa) = 19.22538 58.17347 38.69943
# Shear Modulus (GPa) = 16.16486 34.70572 25.43529
#
# Velocity S-wave (km/s) = 2.65907 3.89623 3.33551
# Velocity P-wave (km/s) = 4.22337 6.75917 5.63575
#
# Compressibility (1/GPa) = 0.05201458
#
# Stress axis : x y z
#
# Youngs Moduli (GPa) = 36.78910 24.93578 102.50004
#
# Poissons Ratio (x) = 0.11331 0.05533
# Poissons Ratio (y) = 0.16717 0.76152
# Poissons Ratio (z) = 0.01986 0.18526
#
# Static dielectric constant tensor:
#      x y z
#    x 1.895680 -0.013270 -0.003970 
#    y -0.013270 1.829960 0.017970 
#    z -0.003970 0.017970 1.944180 
# 
# From -- ./inp_files/491077.got.cif
#   From: 2010.05.17/outbox.cif.g08.bks.cpg/sg2_246_cif.got.tgz:491077.got - 2010.06.03 11:33:40.
