data_PCOD9077774
_publ_section_title
;
Structure prediction by ZEFSAII (Michael W. Deem and Ramdas Pophale) SiO2 
 PCOD9077774
Probable space group: P -1
;
_chemical_formula_sum "Si O2"
_cell_formula_units_Z 12
_cell_length_a 9.288372
_cell_length_b 7.861034
_cell_length_c 9.004472
_cell_angle_alpha 109.404668
_cell_angle_beta 102.819930
_cell_angle_gamma 52.276868
_cell_volume 490.351791
_symmetry_space_group_name_H-M "P -1"
_symmetry_group_IT_number 2
_symmetry_cell_setting 'triclinic'
loop_
_space_group_symop_operation_xyz
x,y,z
-x,-y,-z
loop_
_atom_site_type_symbol
_atom_site_label
_atom_site_fract_x
_atom_site_fract_y
_atom_site_fract_z
Si Si1 0.787634 0.612872 0.847799
Si Si2 0.674595 0.043797 0.638676
Si Si3 0.214034 0.388094 0.486157
Si Si4 0.394169 0.392885 0.906052
Si Si5 0.172445 0.756301 0.429833
Si Si6 0.998132 0.802377 0.874020
O O1 0.710157 0.709183 0.693354
O O2 0.874150 0.356183 0.745009
O O3 0.910906 0.702065 0.924295
O O4 0.656657 0.672383 0.972011
O O5 0.523786 0.189536 0.769671
O O6 0.672669 0.219595 0.582793
O O7 0.688840 0.852020 0.487379
O O8 0.869246 0.914769 0.733657
O O9 0.229144 0.591688 0.534574
O O10 0.000000 0.500000 0.500000
O O11 0.202828 0.581389 0.839453
O O12 0.500000 0.500000 0.000000
O O13 0.000000 0.000000 0.500000
O O14 0.000000 0.000000 0.000000
#
# Coordination Sequence:
#
# PCOD9077774 Si02
#       6
#     2   2   2   2   2   2
#     4   9  21  35  56  89 121 155 200 240 300 358
#     4  11  21  38  59  90 122 155 195 247 298 357
#     4   9  18  33  57  86 110 154 204 237 289 352
#     4  12  21  37  59  90 125 155 197 248 304 362
#     4  10  18  34  65  88 114 157 206 244 295 357
#     4  11  22  37  58  84 129 165 195 241 299 363
#
# _framework density 24.472228000000001
#
# number of rings (size 3 to 8) (size 9 to 14) (size 15 to 20)
#    1.000    0.667    5.000    0.500    0.000    2.667 
#    3.000    0.000    0.000   10.000    0.000    0.000 
#    0.000    0.000    0.000    0.000    0.000    0.000 
#
# Total GULP energy -66824.055729 kJ/mol
# GULP energy per Si atom -5568.671311 kJ/mol
# Density = 2.441653 g / cm^3
# Si number density = 24.472228 Si / 1000 Ang^3
#
#
#
# Elastic Constant Matrix: (Units=GPa)
#
#
# Indices 1 2 3 4 5 6 
#
# 1 138.8615 75.3265 64.8712 9.4848 -40.2989 29.2594
# 2 75.3265 123.7253 18.7174 39.9606 5.6255 9.5744
# 3 64.8712 18.7174 84.7414 16.4234 -9.2722 14.0121
# 4 9.4848 39.9606 16.4234 56.4172 1.5643 7.5345
# 5 -40.2989 5.6255 -9.2722 1.5643 45.6313 2.2419
# 6 29.2594 9.5744 14.0121 7.5345 2.2419 62.1483
#
#
#
# Elastic Compliance Matrix: (Units=1/GPa)
#
#
# Indices 1 2 3 4 5 6 
#
# 1 0.097359 -0.068455 -0.054710 0.050016 0.083163 -0.032019
# 2 -0.068455 0.058769 0.037447 -0.042303 -0.059723 0.022015
# 3 -0.054710 0.037447 0.044099 -0.031007 -0.043665 0.015380
# 4 0.050016 -0.042303 -0.031007 0.049480 0.042252 -0.017562
# 5 0.083163 -0.059723 -0.043665 0.042252 0.093807 -0.028614
# 6 -0.032019 0.022015 0.015380 -0.017562 -0.028614 0.027467
#
#
# Mechanical properties :
#
#
# Convention : Reuss Voigt Hill
#
# Bulk Modulus (GPa) = 34.73265 73.90650 54.31958
# Shear Modulus (GPa) = 9.05772 45.40021 27.22897
#
# Velocity S-wave (km/s) = 1.92594 4.31184 3.33926
# Velocity P-wave (km/s) = 4.37826 7.41991 6.09197
#
# Compressibility (1/GPa) = 0.02879135
#
# Stress axis : x y z
#
# Youngs Moduli (GPa) = 10.27126 17.01574 22.67603
#
# Poissons Ratio (x) = 1.16481 1.24060
# Poissons Ratio (y) = 0.70312 -0.84914
# Poissons Ratio (z) = 0.56194 -0.63718
#
# Static dielectric constant tensor:
#      x y z
#    x 2.068650 0.065330 0.108610 
#    y 0.065330 2.076600 -0.031580 
#    z 0.108610 -0.031580 2.153160 
# 
# From -- ./inp_files/192812.got.cif
#   From: 2010.05.17/outbox.cif.g08.bks.cpg/sg2_97_cif.got.tgz:192812.got - 2010.06.03 11:33:40.
