data_PCOD9077146
_publ_section_title
;
Structure prediction by ZEFSAII (Michael W. Deem and Ramdas Pophale) SiO2 
 PCOD9077146
Probable space group: P -1
;
_chemical_formula_sum "Si O2"
_cell_formula_units_Z 16
_cell_length_a 13.561386
_cell_length_b 7.118860
_cell_length_c 13.252649
_cell_angle_alpha 52.305072
_cell_angle_beta 39.048804
_cell_angle_gamma 45.865181
_cell_volume 571.373720
_symmetry_space_group_name_H-M "P -1"
_symmetry_group_IT_number 2
_symmetry_cell_setting 'triclinic'
loop_
_space_group_symop_operation_xyz
x,y,z
-x,-y,-z
loop_
_atom_site_type_symbol
_atom_site_label
_atom_site_fract_x
_atom_site_fract_y
_atom_site_fract_z
Si Si1 0.318418 0.564799 0.234805
Si Si2 0.406732 0.394937 0.755747
Si Si3 0.727815 0.849653 0.468983
Si Si4 0.774332 0.035097 0.636376
Si Si5 0.155808 0.368775 0.116361
Si Si6 0.317203 0.245628 0.681891
Si Si7 0.996941 0.025468 0.277912
Si Si8 0.703013 0.250167 0.095224
O O1 0.249584 0.350783 0.390421
O O2 0.282417 0.749703 0.300534
O O3 0.529696 0.414950 0.110626
O O4 0.188644 0.779135 0.188791
O O5 0.603714 0.179930 0.655345
O O6 0.378820 0.653066 0.757204
O O7 0.316768 0.447105 0.701462
O O8 0.325685 0.259232 0.943771
O O9 0.523959 0.054572 0.566035
O O10 0.861513 0.976379 0.332202
O O11 0.759835 0.687210 0.391174
O O12 0.806799 0.773964 0.758545
O O13 0.931931 0.996010 0.451819
O O14 0.144434 0.657025 0.051483
O O15 0.025435 0.289462 0.182676
O O16 0.240247 0.058420 0.855071
#
# Coordination Sequence:
#
# PCOD9077146 Si02
#       8
#     2   2   2   2   2   2   2   2
#     4   9  18  33  54  81 114 142 182 235 275 335
#     4   9  18  35  60  81 113 147 186 231 278 324
#     4  10  21  36  54  83 113 148 189 236 277 323
#     4  10  18  34  56  85 114 146 187 224 283 344
#     4   9  19  34  56  82 116 149 181 229 286 335
#     4  10  19  40  58  80 114 148 198 233 263 335
#     4  11  20  34  58  85 115 148 178 232 291 331
#     4   8  19  35  58  84 111 147 190 228 272 339
#
# _framework density 28.002687999999999
#
# number of rings (size 3 to 8) (size 9 to 14) (size 15 to 20)
#    0.750    1.750    1.250    2.250    1.750    0.000 
#    2.250    9.375    0.000    0.000    0.000    0.000 
#    0.000    0.000    0.000    0.000    0.000    0.000 
#
# Total GULP energy -89441.060651 kJ/mol
# GULP energy per Si atom -5590.066291 kJ/mol
# Density = 2.793895 g / cm^3
# Si number density = 28.002688 Si / 1000 Ang^3
#
#
#
# Elastic Constant Matrix: (Units=GPa)
#
#
# Indices 1 2 3 4 5 6 
#
# 1 161.8001 23.3396 15.9080 -7.2390 -21.8547 5.2728
# 2 23.3396 61.1024 22.6289 1.6422 -13.1908 10.3528
# 3 15.9080 22.6289 110.9127 -2.3934 -28.8939 -1.2657
# 4 -7.2390 1.6422 -2.3934 47.6884 12.3115 -5.1824
# 5 -21.8547 -13.1908 -28.8939 12.3115 50.1223 4.9767
# 6 5.2728 10.3528 -1.2657 -5.1824 4.9767 49.9987
#
#
#
# Elastic Compliance Matrix: (Units=1/GPa)
#
#
# Indices 1 2 3 4 5 6 
#
# 1 0.006831 -0.002040 0.000072 0.000431 0.002426 -0.000493
# 2 -0.002040 0.019885 -0.002889 -0.002618 0.003780 -0.004623
# 3 0.000072 -0.002889 0.011105 -0.000821 0.005854 0.000204
# 4 0.000431 -0.002618 -0.000821 0.023295 -0.007053 0.003592
# 5 0.002426 0.003780 0.005854 -0.007053 0.027545 -0.004363
# 6 -0.000493 -0.004623 0.000204 0.003592 -0.004363 0.021822
#
#
# Mechanical properties :
#
#
# Convention : Reuss Voigt Hill
#
# Bulk Modulus (GPa) = 35.57847 50.84091 43.20969
# Shear Modulus (GPa) = 38.59091 47.69111 43.14101
#
# Velocity S-wave (km/s) = 3.71632 4.13133 3.92931
# Velocity P-wave (km/s) = 5.58101 6.39940 6.00417
#
# Compressibility (1/GPa) = 0.02810688
#
# Stress axis : x y z
#
# Youngs Moduli (GPa) = 146.39752 50.28948 90.05067
#
# Poissons Ratio (x) = 0.10260 -0.00651
# Poissons Ratio (y) = 0.29868 0.26014
# Poissons Ratio (z) = -0.01058 0.14528
#
# Static dielectric constant tensor:
#      x y z
#    x 2.247370 -0.012570 0.037570 
#    y -0.012570 2.197410 -0.033680 
#    z 0.037570 -0.033680 2.176000 
# 
# From -- ./inp_files/527230.got.cif
#   From: 2010.05.17/outbox.cif.g08.bks.cpg/sg2_264_cif.got.tgz:527230.got - 2010.06.03 11:33:40.
