data_PCOD9077075
_publ_section_title
;
Structure prediction by ZEFSAII (Michael W. Deem and Ramdas Pophale) SiO2 
 PCOD9077075
Probable space group: P -1
;
_chemical_formula_sum "Si O2"
_cell_formula_units_Z 12
_cell_length_a 10.714419
_cell_length_b 19.356825
_cell_length_c 8.375869
_cell_angle_alpha 127.479180
_cell_angle_beta 124.186427
_cell_angle_gamma 24.901403
_cell_volume 580.187554
_symmetry_space_group_name_H-M "P -1"
_symmetry_group_IT_number 2
_symmetry_cell_setting 'triclinic'
loop_
_space_group_symop_operation_xyz
x,y,z
-x,-y,-z
loop_
_atom_site_type_symbol
_atom_site_label
_atom_site_fract_x
_atom_site_fract_y
_atom_site_fract_z
Si Si1 0.640523 0.522827 0.679882
Si Si2 0.279321 0.568999 0.067697
Si Si3 0.706287 0.824258 0.825279
Si Si4 0.623764 0.152268 0.563000
Si Si5 0.284688 0.182642 0.537412
Si Si6 0.271783 0.760384 0.464446
O O1 0.500000 0.500000 0.500000
O O2 0.581600 0.562313 0.881415
O O3 0.491748 0.657306 0.628054
O O4 0.992809 0.343149 0.655360
O O5 0.182156 0.705526 0.284762
O O6 0.500000 0.500000 0.000000
O O7 0.994104 0.668682 0.920551
O O8 0.504253 0.840654 0.668535
O O9 0.809054 0.798952 0.684145
O O10 0.500000 0.000000 0.000000
O O11 0.451969 0.191672 0.640377
O O12 0.589507 0.266745 0.635261
O O13 0.969227 0.961179 0.566363
O O14 0.500000 0.000000 0.500000
#
# Coordination Sequence:
#
# PCOD9077075 Si02
#       6
#     2   2   2   2   2   2
#     4  10  20  34  56  83 108 149 187 228 270 340
#     4  11  21  36  58  83 109 143 184 239 282 321
#     4  10  18  34  55  85 108 141 187 228 278 314
#     4   9  21  34  61  81 110 152 184 228 273 332
#     4  10  19  34  57  84 108 147 191 222 269 338
#     4  10  19  39  57  81 115 147 190 219 279 337
#
# _framework density 20.682967000000001
#
# number of rings (size 3 to 8) (size 9 to 14) (size 15 to 20)
#    1.000    1.000    1.667    5.000    0.000    0.667 
#    0.000    0.833    3.667    3.000    0.000    0.000 
#    0.000    0.000    0.000    0.000    0.000    0.000 
#
# Total GULP energy -66821.077994 kJ/mol
# GULP energy per Si atom -5568.423166 kJ/mol
# Density = 2.063589 g / cm^3
# Si number density = 20.682967 Si / 1000 Ang^3
#
#
#
# Elastic Constant Matrix: (Units=GPa)
#
#
# Indices 1 2 3 4 5 6 
#
# 1 117.3748 41.9364 5.6684 -8.8674 -21.7959 0.9482
# 2 41.9364 105.7576 20.6664 -34.7707 -15.3848 -2.0839
# 3 5.6684 20.6664 51.4285 -21.2213 -19.5377 5.6435
# 4 -8.8674 -34.7707 -21.2213 34.0583 3.7606 -8.9674
# 5 -21.7959 -15.3848 -19.5377 3.7606 39.8743 -0.6434
# 6 0.9482 -2.0839 5.6435 -8.9674 -0.6434 34.1029
#
#
#
# Elastic Compliance Matrix: (Units=1/GPa)
#
#
# Indices 1 2 3 4 5 6 
#
# 1 0.010914 -0.004350 0.002326 -0.001055 0.005508 -0.001128
# 2 -0.004350 0.017911 0.002211 0.019712 0.003855 0.006106
# 3 0.002326 0.002211 0.033665 0.022182 0.016538 0.000644
# 4 -0.001055 0.019712 0.022182 0.065678 0.011946 0.015058
# 5 0.005508 0.003855 0.016538 0.011946 0.036573 0.001177
# 6 -0.001128 0.006106 0.000644 0.015058 0.001177 0.033603
#
#
# Mechanical properties :
#
#
# Convention : Reuss Voigt Hill
#
# Bulk Modulus (GPa) = 15.90772 45.67812 30.79292
# Shear Modulus (GPa) = 22.83892 35.35973 29.09933
#
# Velocity S-wave (km/s) = 3.32661 4.13922 3.75497
# Velocity P-wave (km/s) = 4.73952 6.70650 5.80690
#
# Compressibility (1/GPa) = 0.06286256
#
# Stress axis : x y z
#
# Youngs Moduli (GPa) = 91.62636 55.83309 29.70425
#
# Poissons Ratio (x) = 0.24288 -0.06909
# Poissons Ratio (y) = 0.39859 -0.06566
# Poissons Ratio (z) = -0.21313 -0.12343
#
# Static dielectric constant tensor:
#      x y z
#    x 1.828570 0.024490 -0.054580 
#    y 0.024490 1.737100 0.003690 
#    z -0.054580 0.003690 1.773540 
# 
# From -- ./inp_files/157237.got.cif
#   From: 2010.05.17/outbox.cif.g08.bks.cpg/sg2_79_cif.got.tgz:157237.got - 2010.06.03 11:33:40.
