data_PCOD9077546
_publ_section_title
;
Structure prediction by ZEFSAII (Michael W. Deem and Ramdas Pophale) SiO2 
 PCOD9077546
Probable space group: P -1
;
_chemical_formula_sum "Si O2"
_cell_formula_units_Z 15
_cell_length_a 10.317055
_cell_length_b 9.414890
_cell_length_c 10.957610
_cell_angle_alpha 56.870162
_cell_angle_beta 58.201759
_cell_angle_gamma 89.247407
_cell_volume 698.783394
_symmetry_space_group_name_H-M "P -1"
_symmetry_group_IT_number 2
_symmetry_cell_setting 'triclinic'
loop_
_space_group_symop_operation_xyz
x,y,z
-x,-y,-z
loop_
_atom_site_type_symbol
_atom_site_label
_atom_site_fract_x
_atom_site_fract_y
_atom_site_fract_z
Si Si1 0.000000 0.000000 0.000000
Si Si2 0.286679 0.582321 0.820709
Si Si3 0.856785 0.828786 0.887514
Si Si4 0.484417 0.793172 0.124979
Si Si5 0.288384 0.947643 0.746711
Si Si6 0.830736 0.964698 0.498825
Si Si7 0.400206 0.444311 0.200618
Si Si8 0.357069 0.801749 0.447263
O O1 0.821642 0.015223 0.112120
O O2 0.936625 0.920642 0.931471
O O3 0.260789 0.735660 0.844434
O O4 0.471440 0.589752 0.752482
O O5 0.275917 0.634810 0.660384
O O6 0.156682 0.380440 0.010337
O O7 0.668214 0.808118 0.994663
O O8 0.973206 0.942705 0.666820
O O9 0.368657 0.621628 0.180344
O O10 0.416630 0.744539 0.318814
O O11 0.500000 0.000000 0.000000
O O12 0.243799 0.008674 0.609318
O O13 0.478172 0.061319 0.631774
O O14 0.753961 0.745478 0.656313
O O15 0.759412 0.083521 0.564366
O O16 0.500000 0.500000 0.000000
#
# Coordination Sequence:
#
# PCOD9077546 Si02
#       8
#     1   2   2   2   2   2   2   2
#     4  10  20  32  56  90 130 154 188 254 324 336
#     4  10  21  38  62  91 121 168 210 246 306 371
#     4  10  23  39  61  92 128 158 205 260 309 367
#     4  11  25  42  63  91 125 167 208 253 310 369
#     4  10  18  34  60  91 125 160 198 251 304 367
#     4  10  20  38  62  91 120 159 204 252 309 359
#     4  11  22  39  63  91 119 166 211 251 302 376
#     4  11  19  37  65  90 124 158 208 255 302 367
#
# _framework density 21.465879000000001
#
# number of rings (size 3 to 8) (size 9 to 14) (size 15 to 20)
#    0.000    1.600    4.000    1.600    0.000    9.067 
#    0.000    6.667    0.000    0.000    0.000    0.000 
#    0.000    0.000    0.000    0.000    0.000    0.000 
#
# Total GULP energy -83547.524750 kJ/mol
# GULP energy per Si atom -5569.834983 kJ/mol
# Density = 2.141702 g / cm^3
# Si number density = 21.465879 Si / 1000 Ang^3
#
#
#
# Elastic Constant Matrix: (Units=GPa)
#
#
# Indices 1 2 3 4 5 6 
#
# 1 41.6635 1.9665 11.0720 -5.5284 -9.8535 -11.3241
# 2 1.9665 108.3981 70.6654 0.7553 1.9758 -5.7428
# 3 11.0720 70.6654 145.0374 -6.8920 -10.3601 -11.3685
# 4 -5.5284 0.7553 -6.8920 36.5534 -6.0640 6.5679
# 5 -9.8535 1.9758 -10.3601 -6.0640 31.6346 6.7548
# 6 -11.3241 -5.7428 -11.3685 6.5679 6.7548 23.9554
#
#
#
# Elastic Compliance Matrix: (Units=1/GPa)
#
#
# Indices 1 2 3 4 5 6 
#
# 1 0.029261 0.000504 -0.000974 0.003542 0.007203 0.010489
# 2 0.000504 0.014072 -0.007142 -0.002595 -0.003998 0.002061
# 3 -0.000974 -0.007142 0.010945 0.002498 0.003945 0.001224
# 4 0.003542 -0.002595 0.002498 0.031784 0.010171 -0.009345
# 5 0.007203 -0.003998 0.003945 0.010171 0.039391 -0.009578
# 6 0.010489 0.002061 0.001224 -0.009345 -0.009578 0.053040
#
#
# Mechanical properties :
#
#
# Convention : Reuss Voigt Hill
#
# Bulk Modulus (GPa) = 25.60557 51.38964 38.49760
# Shear Modulus (GPa) = 24.18531 32.52169 28.35350
#
# Velocity S-wave (km/s) = 3.36026 3.89658 3.63831
# Velocity P-wave (km/s) = 5.19707 6.65105 5.96850
#
# Compressibility (1/GPa) = 0.03905401
#
# Stress axis : x y z
#
# Youngs Moduli (GPa) = 34.17486 71.06159 91.36234
#
# Poissons Ratio (x) = -0.03582 0.08903
# Poissons Ratio (y) = -0.01723 0.65252
# Poissons Ratio (z) = 0.03330 0.50753
#
# Static dielectric constant tensor:
#      x y z
#    x 1.866330 -0.013530 0.016540 
#    y -0.013530 1.771240 -0.012250 
#    z 0.016540 -0.012250 1.810570 
# 
# From -- ./inp_files/268025.got.cif
#   From: 2010.05.17/outbox.cif.g08.bks.cpg/sg2_135_cif.got.tgz:268025.got - 2010.06.03 11:33:40.
