data_PCOD9077135
_publ_section_title
;
Structure prediction by ZEFSAII (Michael W. Deem and Ramdas Pophale) SiO2 
 PCOD9077135
Probable space group: P -1
;
_chemical_formula_sum "Si O2"
_cell_formula_units_Z 14
_cell_length_a 11.014896
_cell_length_b 8.029790
_cell_length_c 8.783548
_cell_angle_alpha 95.886742
_cell_angle_beta 55.102438
_cell_angle_gamma 100.048181
_cell_volume 627.402351
_symmetry_space_group_name_H-M "P -1"
_symmetry_group_IT_number 2
_symmetry_cell_setting 'triclinic'
loop_
_space_group_symop_operation_xyz
x,y,z
-x,-y,-z
loop_
_atom_site_type_symbol
_atom_site_label
_atom_site_fract_x
_atom_site_fract_y
_atom_site_fract_z
Si Si1 0.264770 0.245703 0.222996
Si Si2 0.769215 0.118523 0.679782
Si Si3 0.403240 0.352732 0.742097
Si Si4 0.986680 0.365902 0.359540
Si Si5 0.605572 0.301325 0.051403
Si Si6 0.465459 0.006016 0.704355
Si Si7 0.729731 0.531278 0.453766
O O1 0.204982 0.048099 0.264252
O O2 0.444369 0.268279 0.078229
O O3 0.252077 0.340425 0.404328
O O4 0.151499 0.326146 0.201869
O O5 0.896362 0.197303 0.482291
O O6 0.620694 0.057068 0.684947
O O7 0.728805 0.259768 0.840018
O O8 0.379007 0.511082 0.878049
O O9 0.371953 0.161944 0.806768
O O10 0.582225 0.394498 0.579902
O O11 0.311419 0.370234 0.655784
O O12 0.876890 0.439790 0.326564
O O13 0.000000 0.500000 0.500000
O O14 0.601733 0.169307 0.182880
O O15 0.500000 0.000000 0.500000
#
# Coordination Sequence:
#
# PCOD9077135 Si02
#       7
#     2   2   2   2   2   2   2
#     4   9  18  34  57  82 115 151 189 241 286 346
#     4  11  21  38  56  90 122 147 193 249 294 339
#     4  10  18  34  56  83 120 151 186 245 291 331
#     4  10  20  35  57  87 112 157 200 235 283 357
#     4  10  23  37  57  94 122 147 193 245 299 350
#     4  11  20  34  60  91 118 150 194 243 294 344
#     4   9  17  33  53  86 110 145 201 239 277 340
#
# _framework density 22.314229999999998
#
# number of rings (size 3 to 8) (size 9 to 14) (size 15 to 20)
#    0.000    2.000    1.429    5.571    0.000    0.571 
#    5.143    0.000    0.000    4.286    7.429    0.000 
#    0.000    0.000    0.000    0.000    0.000    0.000 
#
# Total GULP energy -78247.033064 kJ/mol
# GULP energy per Si atom -5589.073790 kJ/mol
# Density = 2.226344 g / cm^3
# Si number density = 22.314230 Si / 1000 Ang^3
#
#
#
# Elastic Constant Matrix: (Units=GPa)
#
#
# Indices 1 2 3 4 5 6 
#
# 1 64.4387 45.7360 16.6812 2.0798 -4.2678 -24.9387
# 2 45.7360 158.1149 32.9657 3.7311 -12.9678 -19.4139
# 3 16.6812 32.9657 68.2717 1.1214 2.7222 -6.0283
# 4 2.0798 3.7311 1.1214 30.2594 4.5224 -2.9313
# 5 -4.2678 -12.9678 2.7222 4.5224 26.2239 -0.7418
# 6 -24.9387 -19.4139 -6.0283 -2.9313 -0.7418 42.7543
#
#
#
# Elastic Compliance Matrix: (Units=1/GPa)
#
#
# Indices 1 2 3 4 5 6 
#
# 1 0.024307 -0.004870 -0.002646 -0.000173 0.002181 0.011620
# 2 -0.004870 0.008849 -0.003165 -0.001187 0.004137 0.000722
# 3 -0.002646 -0.003165 0.016912 0.000459 -0.003848 -0.000631
# 4 -0.000173 -0.001187 0.000459 0.034327 -0.006536 0.001665
# 5 0.002181 0.004137 -0.003848 -0.006536 0.042142 0.002891
# 6 0.011620 0.000722 -0.000631 0.001665 0.002891 0.030571
#
#
# Mechanical properties :
#
#
# Convention : Reuss Voigt Hill
#
# Bulk Modulus (GPa) = 34.83388 53.51014 44.17201
# Shear Modulus (GPa) = 26.59051 32.87701 29.73376
#
# Velocity S-wave (km/s) = 3.45576 3.84261 3.65431
# Velocity P-wave (km/s) = 5.61850 6.61210 6.13545
#
# Compressibility (1/GPa) = 0.02870769
#
# Stress axis : x y z
#
# Youngs Moduli (GPa) = 41.14044 113.00915 59.12934
#
# Poissons Ratio (x) = 0.55032 0.15644
# Poissons Ratio (y) = 0.20034 0.18712
# Poissons Ratio (z) = 0.10885 0.35763
#
# Static dielectric constant tensor:
#      x y z
#    x 1.804300 -0.008270 -0.019010 
#    y -0.008270 1.867910 -0.000460 
#    z -0.019010 -0.000460 1.870730 
# 
# From -- ./inp_files/234643.got.cif
#   From: 2010.05.17/outbox.cif.g08.bks.cpg/sg2_118_cif.got.tgz:234643.got - 2010.06.03 11:33:40.
