data_PCOD9077865
_publ_section_title
;
Structure prediction by ZEFSAII (Michael W. Deem and Ramdas Pophale) SiO2 
 PCOD9077865
Probable space group: P -1
;
_chemical_formula_sum "Si O2"
_cell_formula_units_Z 16
_cell_length_a 11.833072
_cell_length_b 17.539269
_cell_length_c 11.602932
_cell_angle_alpha 48.295965
_cell_angle_beta 32.632473
_cell_angle_gamma 69.986369
_cell_volume 815.036441
_symmetry_space_group_name_H-M "P -1"
_symmetry_group_IT_number 2
_symmetry_cell_setting 'triclinic'
loop_
_space_group_symop_operation_xyz
x,y,z
-x,-y,-z
loop_
_atom_site_type_symbol
_atom_site_label
_atom_site_fract_x
_atom_site_fract_y
_atom_site_fract_z
Si Si1 0.026561 0.421384 0.725180
Si Si2 0.497943 0.207959 0.090984
Si Si3 0.613751 0.024213 0.246777
Si Si4 0.799765 0.782789 0.458604
Si Si5 0.445171 0.761709 0.590392
Si Si6 0.916893 0.597284 0.565505
Si Si7 0.479079 0.392989 0.757579
Si Si8 0.714406 0.440938 0.264323
O O1 0.864033 0.482779 0.797332
O O2 0.134145 0.433967 0.493437
O O3 0.251191 0.496307 0.542150
O O4 0.820678 0.285730 0.071086
O O5 0.323022 0.177884 0.381202
O O6 0.511070 0.089198 0.188749
O O7 0.423692 0.271599 0.993364
O O8 0.784270 0.311600 0.771973
O O9 0.565910 0.905753 0.340199
O O10 0.500000 0.000000 0.500000
O O11 0.911455 0.117772 0.910607
O O12 0.639088 0.750607 0.514119
O O13 0.782345 0.664789 0.645610
O O14 0.370826 0.671353 0.636748
O O15 0.523428 0.385147 0.592384
O O16 0.304368 0.445514 0.876289
O O17 0.000000 0.500000 0.000000
#
# Coordination Sequence:
#
# PCOD9077865 Si02
#       8
#     2   2   2   2   2   2   2   2
#     4  10  18  35  54  88 126 156 191 247 307 366
#     4  10  21  38  61  86 124 164 198 250 300 360
#     4  11  23  41  60  93 131 159 200 246 303 370
#     4  11  21  36  60  91 119 164 200 242 307 366
#     4  12  22  36  62  91 122 164 201 247 304 364
#     4   9  19  32  53  88 127 153 192 242 306 374
#     4  10  23  42  61  87 123 162 203 257 307 346
#     4  11  24  42  63  90 121 160 210 256 303 359
#
# _framework density 19.631025000000001
#
# number of rings (size 3 to 8) (size 9 to 14) (size 15 to 20)
#    0.000    1.500    3.750    1.875    1.750    1.500 
#    0.000    0.625    0.000    1.500    0.000    0.000 
#    0.000    0.000    0.000    0.000    0.000    0.000 
#
# Total GULP energy -89198.173743 kJ/mol
# GULP energy per Si atom -5574.885859 kJ/mol
# Density = 1.958634 g / cm^3
# Si number density = 19.631025 Si / 1000 Ang^3
#
#
#
# Elastic Constant Matrix: (Units=GPa)
#
#
# Indices 1 2 3 4 5 6 
#
# 1 89.9888 51.6743 24.3898 -4.4733 -4.3382 -10.9641
# 2 51.6743 104.3017 29.8182 0.9077 -10.4590 -17.0685
# 3 24.3898 29.8182 43.0218 -7.8852 -6.8752 -4.9617
# 4 -4.4733 0.9077 -7.8852 21.1091 -2.0400 3.3419
# 5 -4.3382 -10.4590 -6.8752 -2.0400 21.5544 1.6642
# 6 -10.9641 -17.0685 -4.9617 3.3419 1.6642 36.4426
#
#
#
# Elastic Compliance Matrix: (Units=1/GPa)
#
#
# Indices 1 2 3 4 5 6 
#
# 1 0.016368 -0.006872 -0.004262 0.001886 -0.001299 0.001012
# 2 -0.006872 0.016241 -0.007242 -0.005314 0.003307 0.004889
# 3 -0.004262 -0.007242 0.034176 0.013190 0.007900 -0.001591
# 4 0.001886 -0.005314 0.013190 0.054528 0.007592 -0.005473
# 5 -0.001299 0.003307 0.007900 0.007592 0.051037 -0.000793
# 6 0.001012 0.004889 -0.001591 -0.005473 -0.000793 0.030356
#
#
# Mechanical properties :
#
#
# Convention : Reuss Voigt Hill
#
# Bulk Modulus (GPa) = 33.29629 49.89745 41.59687
# Shear Modulus (GPa) = 20.04258 24.58321 22.31289
#
# Velocity S-wave (km/s) = 3.19872 3.54257 3.37503
# Velocity P-wave (km/s) = 5.53537 6.49661 6.03516
#
# Compressibility (1/GPa) = 0.03003338
#
# Stress axis : x y z
#
# Youngs Moduli (GPa) = 61.09450 61.57421 29.26034
#
# Poissons Ratio (x) = 0.42314 0.12469
# Poissons Ratio (y) = 0.41984 0.21191
# Poissons Ratio (z) = 0.26036 0.44592
#
# Static dielectric constant tensor:
#      x y z
#    x 1.703000 -0.029730 0.031150 
#    y -0.029730 1.739720 0.006680 
#    z 0.031150 0.006680 1.688250 
# 
# From -- ./inp_files/80466.got.cif
#   From: 2010.05.17/outbox.cif.g08.bks.cpg/sg2_41_cif.got.tgz:80466.got - 2010.06.03 11:33:40.
