data_PCOD9077434
_publ_section_title
;
Structure prediction by ZEFSAII (Michael W. Deem and Ramdas Pophale) SiO2 
 PCOD9077434
Probable space group: P -1
;
_chemical_formula_sum "Si O2"
_cell_formula_units_Z 15
_cell_length_a 7.210246
_cell_length_b 16.970845
_cell_length_c 9.970802
_cell_angle_alpha 134.070750
_cell_angle_beta 124.884667
_cell_angle_gamma 41.085975
_cell_volume 573.146260
_symmetry_space_group_name_H-M "P -1"
_symmetry_group_IT_number 2
_symmetry_cell_setting 'triclinic'
loop_
_space_group_symop_operation_xyz
x,y,z
-x,-y,-z
loop_
_atom_site_type_symbol
_atom_site_label
_atom_site_fract_x
_atom_site_fract_y
_atom_site_fract_z
Si Si1 0.944603 0.470521 0.639249
Si Si2 0.000000 0.500000 0.000000
Si Si3 0.028387 0.186498 0.000889
Si Si4 0.471108 0.160423 0.463254
Si Si5 0.847373 0.249251 0.694770
Si Si6 0.594026 0.055429 0.957927
Si Si7 0.347508 0.522970 0.714876
Si Si8 0.421279 0.185815 0.769004
O O1 0.676772 0.522706 0.496017
O O2 0.156136 0.304079 0.514942
O O3 0.135562 0.511432 0.704158
O O4 0.872498 0.525201 0.823275
O O5 0.722125 0.653740 0.113525
O O6 0.802306 0.316508 0.150519
O O7 0.145303 0.043388 0.952177
O O8 0.319628 0.167885 0.065425
O O9 0.893069 0.221018 0.838428
O O10 0.672492 0.192660 0.516283
O O11 0.562762 0.116006 0.603547
O O12 0.466333 0.048970 0.250785
O O13 0.657185 0.413572 0.778379
O O14 0.145947 0.188034 0.679458
O O15 0.599353 0.123467 0.905308
#
# Coordination Sequence:
#
# PCOD9077434 Si02
#       8
#     2   1   2   2   2   2   2   2
#     4   9  18  32  58  87 119 159 207 245 310 372
#     4  10  20  38  58  86 126 154 196 262 308 360
#     4  10  20  34  59  92 124 159 213 255 303 372
#     4  10  20  39  63  87 125 167 202 255 313 368
#     4  10  22  38  64  95 122 161 211 259 309 365
#     4  10  20  37  60  89 125 167 204 253 310 372
#     4  10  18  34  59  90 120 161 209 258 303 367
#     4  10  22  39  63  90 122 163 208 251 314 377
#
# _framework density 26.171330999999999
#
# number of rings (size 3 to 8) (size 9 to 14) (size 15 to 20)
#    0.000    2.133    1.333    2.400    0.000    4.267 
#    0.000    3.333    8.800    0.000    0.000    0.000 
#    0.000    0.000    0.000    0.000    0.000    0.000 
#
# Total GULP energy -83711.324501 kJ/mol
# GULP energy per Si atom -5580.754967 kJ/mol
# Density = 2.611176 g / cm^3
# Si number density = 26.171331 Si / 1000 Ang^3
#
#
#
# Elastic Constant Matrix: (Units=GPa)
#
#
# Indices 1 2 3 4 5 6 
#
# 1 104.2487 14.5838 31.3841 -8.9192 -1.4517 -8.2506
# 2 14.5838 155.0971 23.4243 -15.6235 -9.3397 8.4009
# 3 31.3841 23.4243 65.7620 -6.5919 -23.3964 -1.8237
# 4 -8.9192 -15.6235 -6.5919 46.0762 7.0499 -12.0640
# 5 -1.4517 -9.3397 -23.3964 7.0499 26.5110 -9.3387
# 6 -8.2506 8.4009 -1.8237 -12.0640 -9.3387 33.3604
#
#
#
# Elastic Compliance Matrix: (Units=1/GPa)
#
#
# Indices 1 2 3 4 5 6 
#
# 1 0.012208 -0.000203 -0.007638 0.002639 -0.006184 0.001876
# 2 -0.000203 0.007064 -0.002581 0.001696 -0.000809 -0.001583
# 3 -0.007638 -0.002581 0.029952 -0.000221 0.028041 0.008168
# 4 0.002639 0.001696 -0.000221 0.025484 -0.003226 0.008526
# 5 -0.006184 -0.000809 0.028041 -0.003226 0.069185 0.018408
# 6 0.001876 -0.001583 0.008168 0.008526 0.018408 0.039521
#
#
# Mechanical properties :
#
#
# Convention : Reuss Voigt Hill
#
# Bulk Modulus (GPa) = 35.23519 51.54357 43.38938
# Shear Modulus (GPa) = 23.39529 38.23721 30.81625
#
# Velocity S-wave (km/s) = 2.99311 3.82649 3.43517
# Velocity P-wave (km/s) = 5.04355 6.26579 5.68760
#
# Compressibility (1/GPa) = 0.02838072
#
# Stress axis : x y z
#
# Youngs Moduli (GPa) = 81.91156 141.55509 33.38723
#
# Poissons Ratio (x) = 0.02868 0.25500
# Poissons Ratio (y) = 0.01659 0.08619
# Poissons Ratio (z) = 0.62562 0.36542
#
# Static dielectric constant tensor:
#      x y z
#    x 2.038910 0.068260 0.110730 
#    y 0.068260 2.097670 -0.013420 
#    z 0.110730 -0.013420 2.107520 
# 
# From -- ./inp_files/404305.got.cif
#   From: 2010.05.17/outbox.cif.g08.bks.cpg/sg2_203_cif.got.tgz:404305.got - 2010.06.03 11:33:40.
