data_PCOD9077015
_publ_section_title
;
Structure prediction by ZEFSAII (Michael W. Deem and Ramdas Pophale) SiO2 
 PCOD9077015
Probable space group: P -1
;
_chemical_formula_sum "Si O2"
_cell_formula_units_Z 14
_cell_length_a 10.125678
_cell_length_b 11.476675
_cell_length_c 15.060564
_cell_angle_alpha 38.003631
_cell_angle_beta 33.793586
_cell_angle_gamma 59.792486
_cell_volume 537.345599
_symmetry_space_group_name_H-M "P -1"
_symmetry_group_IT_number 2
_symmetry_cell_setting 'triclinic'
loop_
_space_group_symop_operation_xyz
x,y,z
-x,-y,-z
loop_
_atom_site_type_symbol
_atom_site_label
_atom_site_fract_x
_atom_site_fract_y
_atom_site_fract_z
Si Si1 0.471016 0.790349 0.039698
Si Si2 0.939561 0.545516 0.630024
Si Si3 0.170613 0.893171 0.011052
Si Si4 0.472911 0.214251 0.405021
Si Si5 0.071538 0.979851 0.243325
Si Si6 0.279686 0.859758 0.536172
Si Si7 0.232402 0.391257 0.127767
O O1 0.665433 0.778227 0.860178
O O2 0.327226 0.931022 0.997601
O O3 0.238781 0.555561 0.297121
O O4 0.644859 0.828358 0.007620
O O5 0.129204 0.785746 0.360827
O O6 0.761552 0.564144 0.798496
O O7 0.005362 0.359851 0.738302
O O8 0.430997 0.969908 0.757718
O O9 0.000000 0.000000 0.000000
O O10 0.153142 0.122645 0.646071
O O11 0.647042 0.291949 0.349875
O O12 0.500000 0.000000 0.500000
O O13 0.614106 0.395679 0.144093
O O14 0.882164 0.033511 0.385320
O O15 0.079713 0.717586 0.657981
#
# Coordination Sequence:
#
# PCOD9077015 Si02
#       7
#     2   2   2   2   2   2   2
#     4   9  20  31  55  79 107 133 168 225 256 307
#     4  10  19  31  55  75 105 135 169 219 260 302
#     4  10  21  37  53  74 105 139 178 218 258 300
#     4  10  19  30  49  78 115 140 162 204 265 324
#     4  10  18  34  54  84 106 131 174 210 273 314
#     4  10  21  32  53  79 111 140 168 214 258 315
#     4  11  18  33  53  84 108 133 172 211 271 315
#
# _framework density 26.053996000000001
#
# number of rings (size 3 to 8) (size 9 to 14) (size 15 to 20)
#    0.857    1.143    1.429    4.286    0.000    2.286 
#    0.000    2.857    0.000    4.286    0.000    0.000 
#    0.000    0.000    0.000    0.000    0.000    0.000 
#
# Total GULP energy -77941.242669 kJ/mol
# GULP energy per Si atom -5567.231619 kJ/mol
# Density = 2.599470 g / cm^3
# Si number density = 26.053996 Si / 1000 Ang^3
#
#
#
# Elastic Constant Matrix: (Units=GPa)
#
#
# Indices 1 2 3 4 5 6 
#
# 1 119.6375 45.0833 52.5145 -2.7284 -11.9153 -19.8092
# 2 45.0833 97.6760 28.5608 3.4808 -21.5418 -38.8131
# 3 52.5145 28.5608 89.4781 15.5198 -7.9997 -29.4125
# 4 -2.7284 3.4808 15.5198 42.2299 -14.3126 -6.7155
# 5 -11.9153 -21.5418 -7.9997 -14.3126 50.6977 -0.9129
# 6 -19.8092 -38.8131 -29.4125 -6.7155 -0.9129 51.7836
#
#
#
# Elastic Compliance Matrix: (Units=1/GPa)
#
#
# Indices 1 2 3 4 5 6 
#
# 1 0.013324 -0.004724 -0.007665 0.004054 0.001019 -0.002254
# 2 -0.004724 0.019267 0.001509 0.002586 0.008296 0.013972
# 3 -0.007665 0.001509 0.018979 -0.006218 0.000226 0.008176
# 4 0.004054 0.002586 -0.006218 0.029898 0.009583 0.004004
# 5 0.001019 0.008296 0.000226 0.009583 0.026382 0.008444
# 6 -0.002254 0.013972 0.008176 0.004004 0.008444 0.034234
#
#
# Mechanical properties :
#
#
# Convention : Reuss Voigt Hill
#
# Bulk Modulus (GPa) = 33.54605 62.12321 47.83463
# Shear Modulus (GPa) = 28.77187 40.98444 34.87815
#
# Velocity S-wave (km/s) = 3.32673 3.97048 3.66278
# Velocity P-wave (km/s) = 5.25925 6.70190 6.02392
#
# Compressibility (1/GPa) = 0.02980977
#
# Stress axis : x y z
#
# Youngs Moduli (GPa) = 75.05318 51.90298 52.68947
#
# Poissons Ratio (x) = 0.24518 0.40385
# Poissons Ratio (y) = 0.35454 -0.07949
# Poissons Ratio (z) = 0.57527 -0.07830
#
# Static dielectric constant tensor:
#      x y z
#    x 2.208160 0.127810 0.056160 
#    y 0.127810 2.199500 0.166070 
#    z 0.056160 0.166070 2.075290 
# 
# From -- ./inp_files/595451.got.cif
#   From: 2010.05.17/outbox.cif.g08.bks.cpg/sg2_298_cif.got.tgz:595451.got - 2010.06.03 11:33:40.
