data_PCOD9077316
_publ_section_title
;
Structure prediction by ZEFSAII (Michael W. Deem and Ramdas Pophale) SiO2 
 PCOD9077316
Probable space group: P -1
;
_chemical_formula_sum "Si O2"
_cell_formula_units_Z 16
_cell_length_a 8.325760
_cell_length_b 20.310304
_cell_length_c 10.889846
_cell_angle_alpha 46.812424
_cell_angle_beta 55.410995
_cell_angle_gamma 26.951649
_cell_volume 603.512838
_symmetry_space_group_name_H-M "P -1"
_symmetry_group_IT_number 2
_symmetry_cell_setting 'triclinic'
loop_
_space_group_symop_operation_xyz
x,y,z
-x,-y,-z
loop_
_atom_site_type_symbol
_atom_site_label
_atom_site_fract_x
_atom_site_fract_y
_atom_site_fract_z
Si Si1 0.426721 0.507385 0.324845
Si Si2 0.536809 0.305455 0.039938
Si Si3 0.429566 0.806938 0.052256
Si Si4 0.090342 0.799692 0.351522
Si Si5 0.435998 0.623904 0.808465
Si Si6 0.375267 0.946064 0.112860
Si Si7 0.282020 0.201775 0.600747
Si Si8 0.225850 0.042753 0.485589
O O1 0.485167 0.585303 0.148910
O O2 0.785121 0.334716 0.453908
O O3 0.351572 0.469083 0.292676
O O4 0.116477 0.618608 0.417225
O O5 0.379106 0.288468 0.038658
O O6 0.453835 0.351412 0.161091
O O7 0.951393 0.119905 0.079661
O O8 0.408003 0.718668 0.240505
O O9 0.568071 0.824839 0.067346
O O10 0.000000 0.000000 0.000000
O O11 0.781800 0.882479 0.290392
O O12 0.992450 0.906955 0.365289
O O13 0.040754 0.806533 0.691528
O O14 0.500000 0.500000 0.000000
O O15 0.503162 0.853865 0.302072
O O16 0.500000 0.000000 0.000000
O O17 0.535173 0.123223 0.476061
O O18 0.500000 0.000000 0.500000
#
# Coordination Sequence:
#
# PCOD9077316 Si02
#       8
#     2   2   2   2   2   2   2   2
#     4  10  19  32  60  90 118 159 198 236 288 357
#     4  10  18  34  58  84 117 157 199 237 287 352
#     4  10  21  36  57  88 114 155 195 247 294 355
#     4  10  20  37  57  87 122 154 201 235 294 360
#     4   9  18  32  52  90 121 157 203 241 282 352
#     4  11  20  34  58  87 112 142 200 253 291 341
#     4  11  18  32  57  87 113 155 199 239 288 342
#     4   9  19  32  55  86 123 155 197 253 288 337
#
# _framework density 26.511451000000001
#
# number of rings (size 3 to 8) (size 9 to 14) (size 15 to 20)
#    0.000    2.000    3.750    1.125    0.000    0.000 
#    0.000    1.250    0.000    0.750    0.000    0.000 
#    0.000    0.000    0.000    0.000    0.000    0.000 
#
# Total GULP energy -89125.536249 kJ/mol
# GULP energy per Si atom -5570.346016 kJ/mol
# Density = 2.645111 g / cm^3
# Si number density = 26.511451 Si / 1000 Ang^3
#
#
#
# Elastic Constant Matrix: (Units=GPa)
#
#
# Indices 1 2 3 4 5 6 
#
# 1 150.3568 50.8860 36.2206 7.0464 27.9828 61.8471
# 2 50.8860 127.0525 31.0421 17.4737 28.7067 49.5499
# 3 36.2206 31.0421 92.9188 -21.2605 17.1245 15.3237
# 4 7.0464 17.4737 -21.2605 42.7802 17.2527 29.1616
# 5 27.9828 28.7067 17.1245 17.2527 36.6841 15.0682
# 6 61.8471 49.5499 15.3237 29.1616 15.0682 72.6890
#
#
#
# Elastic Compliance Matrix: (Units=1/GPa)
#
#
# Indices 1 2 3 4 5 6 
#
# 1 0.014443 0.001103 0.003019 0.015948 -0.013712 -0.017233
# 2 0.001103 0.012540 -0.000548 0.004205 -0.008563 -0.009283
# 3 0.003019 -0.000548 0.022287 0.028492 -0.019841 -0.014211
# 4 0.015948 0.004205 0.028492 0.084632 -0.049620 -0.046109
# 5 -0.013712 -0.008563 -0.019841 -0.049620 0.065512 0.028013
# 6 -0.017233 -0.009283 -0.014211 -0.046109 0.028013 0.050435
#
#
# Mechanical properties :
#
#
# Convention : Reuss Voigt Hill
#
# Bulk Modulus (GPa) = 17.72432 67.40283 42.56357
# Shear Modulus (GPa) = 19.11998 47.24264 33.18131
#
# Velocity S-wave (km/s) = 2.68842 4.22592 3.54161
# Velocity P-wave (km/s) = 4.04189 7.02071 5.72832
#
# Compressibility (1/GPa) = 0.05641965
#
# Stress axis : x y z
#
# Youngs Moduli (GPa) = 69.23663 79.74785 44.86823
#
# Poissons Ratio (x) = -0.08798 -0.13548
# Poissons Ratio (y) = -0.07638 0.02458
# Poissons Ratio (z) = -0.20905 0.04369
#
# Static dielectric constant tensor:
#      x y z
#    x 2.603140 0.223740 0.209060 
#    y 0.223740 2.376420 0.150030 
#    z 0.209060 0.150030 2.278900 
# 
# From -- ./inp_files/405478.got.cif
#   From: 2010.05.17/outbox.cif.g08.bks.cpg/sg2_203_cif.got.tgz:405478.got - 2010.06.03 11:33:40.
