data_PCOD9077974
_publ_section_title
;
Structure prediction by ZEFSAII (Michael W. Deem and Ramdas Pophale) SiO2 
 PCOD9077974
Probable space group: P -1
;
_chemical_formula_sum "Si O2"
_cell_formula_units_Z 16
_cell_length_a 8.813137
_cell_length_b 11.775564
_cell_length_c 14.408938
_cell_angle_alpha 62.817400
_cell_angle_beta 41.656018
_cell_angle_gamma 86.795683
_cell_volume 774.284793
_symmetry_space_group_name_H-M "P -1"
_symmetry_group_IT_number 2
_symmetry_cell_setting 'triclinic'
loop_
_space_group_symop_operation_xyz
x,y,z
-x,-y,-z
loop_
_atom_site_type_symbol
_atom_site_label
_atom_site_fract_x
_atom_site_fract_y
_atom_site_fract_z
Si Si1 0.833259 0.260243 0.639696
Si Si2 0.183562 0.412686 0.756309
Si Si3 0.931221 0.832109 0.608166
Si Si4 0.231987 0.139750 0.758799
Si Si5 0.681913 0.009544 0.039714
Si Si6 0.595180 0.060253 0.534661
Si Si7 0.387142 0.784839 0.874304
Si Si8 0.265588 0.485560 0.484897
O O1 0.575715 0.114702 0.842721
O O2 0.740651 0.376971 0.609678
O O3 0.953040 0.218328 0.511583
O O4 0.050538 0.340272 0.588075
O O5 0.217177 0.274254 0.759867
O O6 0.194617 0.486706 0.625050
O O7 0.451338 0.504447 0.654972
O O8 0.904369 0.347624 0.957295
O O9 0.619162 0.745021 0.788789
O O10 0.000000 0.000000 0.500000
O O11 0.099493 0.845481 0.617388
O O12 0.271821 0.056341 0.859736
O O13 0.470250 0.162644 0.578922
O O14 0.966195 0.058996 0.849911
O O15 0.632859 0.140220 0.048045
O O16 0.474118 0.913958 0.709826
O O17 0.500000 0.000000 0.500000
#
# Coordination Sequence:
#
# PCOD9077974 Si02
#       8
#     2   2   2   2   2   2   2   2
#     4  11  19  37  55  81 111 141 184 221 274 326
#     4  10  19  39  54  79 109 142 192 221 263 321
#     4  10  18  35  57  79 111 142 175 224 282 326
#     4   9  16  30  55  80 104 141 170 232 274 315
#     4   9  15  30  57  79 106 135 175 223 286 315
#     4  10  19  31  51  86 113 139 173 217 289 329
#     4   9  19  35  58  79 110 143 175 231 277 317
#     4  10  23  34  57  80 108 152 180 223 262 320
#
# _framework density 20.664231000000001
#
# number of rings (size 3 to 8) (size 9 to 14) (size 15 to 20)
#    0.000    2.250    5.000    0.750    0.000    2.000 
#    2.250    2.500    0.000    0.000    0.000    0.000 
#    0.000    0.000    0.000    0.000    0.000    0.000 
#
# Total GULP energy -89153.039825 kJ/mol
# GULP energy per Si atom -5572.064989 kJ/mol
# Density = 2.061720 g / cm^3
# Si number density = 20.664231 Si / 1000 Ang^3
#
#
#
# Elastic Constant Matrix: (Units=GPa)
#
#
# Indices 1 2 3 4 5 6 
#
# 1 109.1893 28.9923 62.5885 0.6336 -43.9770 16.3202
# 2 28.9923 37.0182 3.7133 3.4795 -14.3636 5.7437
# 3 62.5885 3.7133 88.7670 -4.9430 -41.3442 -2.9662
# 4 0.6336 3.4795 -4.9430 25.6595 2.1603 -7.0281
# 5 -43.9770 -14.3636 -41.3442 2.1603 44.8147 -7.6497
# 6 16.3202 5.7437 -2.9662 -7.0281 -7.6497 23.4227
#
#
#
# Elastic Compliance Matrix: (Units=1/GPa)
#
#
# Indices 1 2 3 4 5 6 
#
# 1 0.028352 -0.015749 -0.019799 -0.008074 0.001422 -0.020358
# 2 -0.015749 0.042335 0.016076 -0.001591 0.014179 0.006781
# 3 -0.019799 0.016076 0.037031 0.010406 0.023723 0.025413
# 4 -0.008074 -0.001591 0.010406 0.047302 0.002712 0.022413
# 5 0.001422 0.014179 0.023723 0.002712 0.052844 0.016609
# 6 -0.020358 0.006781 0.025413 0.022413 0.016609 0.070584
#
#
# Mechanical properties :
#
#
# Convention : Reuss Voigt Hill
#
# Bulk Modulus (GPa) = 14.54083 47.28478 30.91281
# Shear Modulus (GPa) = 14.69215 28.09141 21.39178
#
# Velocity S-wave (km/s) = 2.66934 3.69103 3.22096
# Velocity P-wave (km/s) = 4.06848 6.41070 5.36887
#
# Compressibility (1/GPa) = 0.06877184
#
# Stress axis : x y z
#
# Youngs Moduli (GPa) = 35.27093 23.62122 27.00441
#
# Poissons Ratio (x) = 0.37202 0.53467
# Poissons Ratio (y) = 0.55549 -0.43411
# Poissons Ratio (z) = 0.69834 -0.37972
#
# Static dielectric constant tensor:
#      x y z
#    x 1.796200 -0.009190 -0.014730 
#    y -0.009190 1.733080 -0.041110 
#    z -0.014730 -0.041110 1.836590 
# 
# From -- ./inp_files/397425.got.cif
#   From: 2010.05.17/outbox.cif.g08.bks.cpg/sg2_199_cif.got.tgz:397425.got - 2010.06.03 11:33:40.
