data_PCOD9077837
_publ_section_title
;
Structure prediction by ZEFSAII (Michael W. Deem and Ramdas Pophale) SiO2 
 PCOD9077837
Probable space group: P -1
;
_chemical_formula_sum "Si O2"
_cell_formula_units_Z 16
_cell_length_a 8.355129
_cell_length_b 20.735977
_cell_length_c 14.183459
_cell_angle_alpha 15.429798
_cell_angle_beta 73.016812
_cell_angle_gamma 67.131651
_cell_volume 567.245776
_symmetry_space_group_name_H-M "P -1"
_symmetry_group_IT_number 2
_symmetry_cell_setting 'triclinic'
loop_
_space_group_symop_operation_xyz
x,y,z
-x,-y,-z
loop_
_atom_site_type_symbol
_atom_site_label
_atom_site_fract_x
_atom_site_fract_y
_atom_site_fract_z
Si Si1 0.764925 0.506890 0.750056
Si Si2 0.241282 0.056551 0.474968
Si Si3 0.463458 0.703540 0.381903
Si Si4 0.850994 0.097244 0.973642
Si Si5 0.141668 0.541455 0.991163
Si Si6 0.849582 0.664817 0.181403
Si Si7 0.479354 0.142355 0.153780
Si Si8 0.166655 0.861432 0.374501
O O1 0.636203 0.701803 0.413745
O O2 0.973963 0.416076 0.803682
O O3 0.709105 0.254996 0.111966
O O4 0.752261 0.593128 0.740706
O O5 0.327638 0.080517 0.528909
O O6 0.343298 0.176332 0.218230
O O7 0.024752 0.195770 0.303473
O O8 0.342759 0.879718 0.067102
O O9 0.312847 0.757497 0.413503
O O10 0.517583 0.400735 0.765485
O O11 0.822831 0.396977 0.580378
O O12 0.000000 0.000000 0.000000
O O13 0.967120 0.897105 0.317845
O O14 0.239432 0.668967 0.722841
O O15 0.000000 0.500000 0.000000
O O16 0.652186 0.873450 0.881428
O O17 0.875129 0.834224 0.022596
#
# Coordination Sequence:
#
# PCOD9077837 Si02
#       8
#     2   2   2   2   2   2   2   2
#     4  11  22  38  60  90 120 155 195 244 300 349
#     4  10  18  35  53  86 114 161 193 237 284 355
#     4   9  21  40  60  86 117 159 200 241 291 348
#     4   9  21  41  66  83 114 162 202 237 292 354
#     4  12  24  34  59  90 128 150 194 244 303 348
#     4  11  20  37  65  88 117 155 198 247 290 349
#     4   9  18  32  60  78 118 158 201 224 290 355
#     4  11  22  38  61  89 120 156 197 245 291 349
#
# _framework density 28.206468000000001
#
# number of rings (size 3 to 8) (size 9 to 14) (size 15 to 20)
#    0.000    1.750    2.500    2.250    3.500    1.500 
#    0.000    3.125    2.750    0.000    0.000    0.000 
#    0.000    0.000    0.000    0.000    0.000    0.000 
#
# Total GULP energy -89381.086348 kJ/mol
# GULP energy per Si atom -5586.317897 kJ/mol
# Density = 2.814227 g / cm^3
# Si number density = 28.206468 Si / 1000 Ang^3
#
#
#
# Elastic Constant Matrix: (Units=GPa)
#
#
# Indices 1 2 3 4 5 6 
#
# 1 141.6262 55.4170 40.0590 25.1558 15.3621 29.7531
# 2 55.4170 96.2985 20.8865 36.3549 -0.0011 3.8424
# 3 40.0590 20.8865 102.0292 37.7065 13.1153 16.7507
# 4 25.1558 36.3549 37.7065 31.2631 21.5414 -0.6113
# 5 15.3621 -0.0011 13.1153 21.5414 64.1747 2.2231
# 6 29.7531 3.8424 16.7507 -0.6113 2.2231 70.2041
#
#
#
# Elastic Compliance Matrix: (Units=1/GPa)
#
#
# Indices 1 2 3 4 5 6 
#
# 1 0.012217 -0.013680 -0.009089 0.023023 -0.008734 -0.001783
# 2 -0.013680 0.063049 0.040724 -0.140992 0.042624 -0.009947
# 3 -0.009089 0.040724 0.046939 -0.119749 0.033184 -0.011670
# 4 0.023023 -0.140992 -0.119749 0.403595 -0.117685 0.033772
# 5 -0.008734 0.042624 0.033184 -0.117685 0.050713 -0.009180
# 6 -0.001783 -0.009947 -0.011670 0.033772 -0.009180 0.018914
#
#
# Mechanical properties :
#
#
# Convention : Reuss Voigt Hill
#
# Bulk Modulus (GPa) = 6.32454 63.63100 34.97777
# Shear Modulus (GPa) = 8.16697 48.03446 28.10072
#
# Velocity S-wave (km/s) = 1.70344 4.13117 3.15977
# Velocity P-wave (km/s) = 2.47306 6.73524 5.07343
#
# Compressibility (1/GPa) = 0.15811425
#
# Stress axis : x y z
#
# Youngs Moduli (GPa) = 81.85194 15.86065 21.30443
#
# Poissons Ratio (x) = 0.21697 0.19365
# Poissons Ratio (y) = 1.11973 -0.86760
# Poissons Ratio (z) = 0.74399 -0.64591
#
# Static dielectric constant tensor:
#      x y z
#    x 2.173150 -0.013890 0.043880 
#    y -0.013890 2.254790 -0.035170 
#    z 0.043880 -0.035170 2.215280 
# 
# From -- ./inp_files/186937.got.cif
#   From: 2010.05.17/outbox.cif.g08.bks.cpg/sg2_94_cif.got.tgz:186937.got - 2010.06.03 11:33:40.
