data_PCOD9077676
_publ_section_title
;
Structure prediction by ZEFSAII (Michael W. Deem and Ramdas Pophale) SiO2 
 PCOD9077676
Probable space group: P -1
;
_chemical_formula_sum "Si O2"
_cell_formula_units_Z 16
_cell_length_a 12.691285
_cell_length_b 17.025710
_cell_length_c 8.847817
_cell_angle_alpha 137.279587
_cell_angle_beta 33.607560
_cell_angle_gamma 140.584041
_cell_volume 648.853187
_symmetry_space_group_name_H-M "P -1"
_symmetry_group_IT_number 2
_symmetry_cell_setting 'triclinic'
loop_
_space_group_symop_operation_xyz
x,y,z
-x,-y,-z
loop_
_atom_site_type_symbol
_atom_site_label
_atom_site_fract_x
_atom_site_fract_y
_atom_site_fract_z
Si Si1 0.782847 0.640824 0.812771
Si Si2 0.825032 0.077927 0.821266
Si Si3 0.992798 0.997956 0.247898
Si Si4 0.734020 0.236311 0.638631
Si Si5 0.853621 0.520631 0.831132
Si Si6 0.164678 0.562601 0.756445
Si Si7 0.654889 0.856589 0.214665
Si Si8 0.439545 0.820865 0.903828
O O1 0.735172 0.582251 0.956139
O O2 0.776819 0.536167 0.548736
O O3 0.644358 0.715288 0.045525
O O4 0.029813 0.742901 0.650056
O O5 0.950123 0.099733 0.857723
O O6 0.676539 0.924249 0.780290
O O7 0.665776 0.135843 0.047025
O O8 0.974398 0.099579 0.529529
O O9 0.179168 0.069101 0.009416
O O10 0.771039 0.929946 0.329960
O O11 0.735266 0.378245 0.839496
O O12 0.569911 0.156987 0.592726
O O13 0.662718 0.179649 0.810308
O O14 0.000000 0.500000 0.500000
O O15 0.022105 0.605553 0.874401
O O16 0.373192 0.674600 0.732393
O O17 0.000000 0.500000 0.000000
#
# Coordination Sequence:
#
# PCOD9077676 Si02
#       8
#     2   2   2   2   2   2   2   2
#     4  10  22  39  61  92 124 162 196 252 310 363
#     4  10  23  40  63  88 122 159 208 262 299 356
#     4  10  23  43  57  89 123 158 206 261 304 355
#     4  10  19  39  61  88 125 157 203 253 293 374
#     4   8  18  34  54  86 122 153 192 246 296 355
#     4  10  18  34  62  90 119 158 201 248 304 366
#     4  11  23  41  65  86 125 166 200 252 315 363
#     4  11  20  37  65  92 118 162 209 247 313 362
#
# _framework density 24.658892000000002
#
# number of rings (size 3 to 8) (size 9 to 14) (size 15 to 20)
#    0.000    2.250    3.750    0.750    1.750    3.500 
#    2.250    2.500    2.750    0.000    0.000    0.000 
#    0.000    0.000    0.000    0.000    0.000    0.000 
#
# Total GULP energy -89400.816789 kJ/mol
# GULP energy per Si atom -5587.551049 kJ/mol
# Density = 2.460277 g / cm^3
# Si number density = 24.658892 Si / 1000 Ang^3
#
#
#
# Elastic Constant Matrix: (Units=GPa)
#
#
# Indices 1 2 3 4 5 6 
#
# 1 133.9149 22.0813 20.4571 -3.3108 17.6449 2.3739
# 2 22.0813 65.5295 4.2972 -0.8606 2.2221 13.7351
# 3 20.4571 4.2972 46.2655 -6.8183 10.5558 -2.1894
# 4 -3.3108 -0.8606 -6.8183 27.7073 0.8521 -0.1866
# 5 17.6449 2.2221 10.5558 0.8521 39.3940 -3.1020
# 6 2.3739 13.7351 -2.1894 -0.1866 -3.1020 44.6661
#
#
#
# Elastic Compliance Matrix: (Units=1/GPa)
#
#
# Indices 1 2 3 4 5 6 
#
# 1 0.008750 -0.002653 -0.002886 0.000345 -0.003003 0.000002
# 2 -0.002653 0.017291 -0.000672 0.000020 -0.000017 -0.005210
# 3 -0.002886 -0.000672 0.025136 0.005995 -0.005437 0.001240
# 4 0.000345 0.000020 0.005995 0.037689 -0.002558 0.000249
# 5 -0.003003 -0.000017 -0.005437 -0.002558 0.028389 0.001859
# 6 0.000002 -0.005210 0.001240 0.000249 0.001859 0.024181
#
#
# Mechanical properties :
#
#
# Convention : Reuss Voigt Hill
#
# Bulk Modulus (GPa) = 25.80447 37.70901 31.75674
# Shear Modulus (GPa) = 29.97982 35.61177 32.79579
#
# Velocity S-wave (km/s) = 3.49059 3.80435 3.65084
# Velocity P-wave (km/s) = 5.17039 5.88413 5.53876
#
# Compressibility (1/GPa) = 0.03875298
#
# Stress axis : x y z
#
# Youngs Moduli (GPa) = 114.28443 57.83214 39.78408
#
# Poissons Ratio (x) = 0.15345 0.11483
# Poissons Ratio (y) = 0.30323 0.02675
# Poissons Ratio (z) = 0.32986 0.03889
#
# Static dielectric constant tensor:
#      x y z
#    x 2.005670 -0.023690 0.002260 
#    y -0.023690 2.067540 0.039500 
#    z 0.002260 0.039500 1.919010 
# 
# From -- ./inp_files/278209.got.cif
#   From: 2010.05.17/outbox.cif.g08.bks.cpg/sg2_140_cif.got.tgz:278209.got - 2010.06.03 11:33:40.
