data_PCOD9077289
_publ_section_title
;
Structure prediction by ZEFSAII (Michael W. Deem and Ramdas Pophale) SiO2 
 PCOD9077289
Probable space group: P -1
;
_chemical_formula_sum "Si O2"
_cell_formula_units_Z 16
_cell_length_a 18.614988
_cell_length_b 16.351081
_cell_length_c 7.185504
_cell_angle_alpha 59.392855
_cell_angle_beta 59.046275
_cell_angle_gamma 20.923004
_cell_volume 666.853489
_symmetry_space_group_name_H-M "P -1"
_symmetry_group_IT_number 2
_symmetry_cell_setting 'triclinic'
loop_
_space_group_symop_operation_xyz
x,y,z
-x,-y,-z
loop_
_atom_site_type_symbol
_atom_site_label
_atom_site_fract_x
_atom_site_fract_y
_atom_site_fract_z
Si Si1 0.433461 0.483315 0.737456
Si Si2 0.663687 0.846550 0.619164
Si Si3 0.867743 0.922546 0.422731
Si Si4 0.340291 0.928908 0.988342
Si Si5 0.001843 0.650443 0.260122
Si Si6 0.207515 0.613118 0.599979
Si Si7 0.527971 0.124359 0.782275
Si Si8 0.515217 0.350889 0.178987
O O1 0.500000 0.500000 0.500000
O O2 0.234838 0.640776 0.726455
O O3 0.599434 0.227664 0.797146
O O4 0.442887 0.489522 0.940053
O O5 0.829111 0.752887 0.432563
O O6 0.558272 0.000701 0.761474
O O7 0.799467 0.613292 0.743562
O O8 0.500000 0.000000 0.500000
O O9 0.993138 0.832964 0.530779
O O10 0.022701 0.705696 0.332423
O O11 0.703782 0.013972 0.599756
O O12 0.737316 0.130974 0.231377
O O13 0.417062 0.935999 0.002482
O O14 0.105973 0.184120 0.958014
O O15 0.456819 0.781785 0.811196
O O16 0.353522 0.513893 0.368687
O O17 0.313880 0.399587 0.725500
#
# Coordination Sequence:
#
# PCOD9077289 Si02
#       8
#     2   2   2   2   2   2   2   2
#     4   9  19  36  57  83 114 144 181 230 276 321
#     4  10  19  31  51  77 102 141 181 223 270 320
#     4   9  17  33  56  79 102 150 184 219 271 326
#     4   8  17  35  53  74 105 145 177 219 273 323
#     4   9  18  33  50  73 109 137 179 225 268 322
#     4  10  18  34  58  80 107 147 188 219 273 329
#     4   9  18  33  52  76 113 139 180 226 269 323
#     4   8  18  35  53  77 109 140 180 225 270 323
#
# _framework density 23.993276000000002
#
# number of rings (size 3 to 8) (size 9 to 14) (size 15 to 20)
#    0.750    2.250    0.000    1.500    0.000    1.000 
#    4.500    2.500    0.000    7.500    0.000    0.000 
#    0.000    0.000    0.000    0.000    0.000    0.000 
#
# Total GULP energy -89303.864553 kJ/mol
# GULP energy per Si atom -5581.491535 kJ/mol
# Density = 2.393867 g / cm^3
# Si number density = 23.993276 Si / 1000 Ang^3
#
#
#
# Elastic Constant Matrix: (Units=GPa)
#
#
# Indices 1 2 3 4 5 6 
#
# 1 100.6279 51.6383 34.4268 -20.6512 23.3992 -16.4085
# 2 51.6383 79.8873 33.3178 -17.5079 6.2988 -27.0187
# 3 34.4268 33.3178 101.0047 -26.0748 17.1631 -14.4755
# 4 -20.6512 -17.5079 -26.0748 34.4966 -5.4209 11.1115
# 5 23.3992 6.2988 17.1631 -5.4209 37.1084 -15.0676
# 6 -16.4085 -27.0187 -14.4755 11.1115 -15.0676 34.5899
#
#
#
# Elastic Compliance Matrix: (Units=1/GPa)
#
#
# Indices 1 2 3 4 5 6 
#
# 1 0.019400 -0.013187 0.000171 0.005765 -0.012635 -0.008382
# 2 -0.013187 0.028544 -0.004678 -0.001391 0.013765 0.020526
# 3 0.000171 -0.004678 0.014132 0.008431 -0.005792 -0.002890
# 4 0.005765 -0.001391 0.008431 0.040540 -0.005543 -0.010261
# 5 -0.012635 0.013765 -0.005792 -0.005543 0.043880 0.023229
# 6 -0.008382 0.020526 -0.002890 -0.010261 0.023229 0.053173
#
#
# Mechanical properties :
#
#
# Convention : Reuss Voigt Hill
#
# Bulk Modulus (GPa) = 37.46641 57.80951 47.63796
# Shear Modulus (GPa) = 20.49577 32.04811 26.27194
#
# Velocity S-wave (km/s) = 2.92589 3.65870 3.31262
# Velocity P-wave (km/s) = 5.20228 6.48032 5.87615
#
# Compressibility (1/GPa) = 0.02669057
#
# Stress axis : x y z
#
# Youngs Moduli (GPa) = 51.54526 35.03327 70.76370
#
# Poissons Ratio (x) = 0.46198 -0.01213
# Poissons Ratio (y) = 0.67972 0.33100
# Poissons Ratio (z) = -0.00884 0.16387
#
# Static dielectric constant tensor:
#      x y z
#    x 1.978340 0.000510 -0.015880 
#    y 0.000510 1.853180 0.000740 
#    z -0.015880 0.000740 2.056990 
# 
# From -- ./inp_files/336475.got.cif
#   From: 2010.05.17/outbox.cif.g08.bks.cpg/sg2_169_cif.got.tgz:336475.got - 2010.06.03 11:33:40.
