data_PCOD9077729
_publ_section_title
;
Structure prediction by ZEFSAII (Michael W. Deem and Ramdas Pophale) SiO2 
 PCOD9077729
Probable space group: P -1
;
_chemical_formula_sum "Si O2"
_cell_formula_units_Z 16
_cell_length_a 13.985511
_cell_length_b 14.033235
_cell_length_c 10.313322
_cell_angle_alpha 138.225902
_cell_angle_beta 52.993763
_cell_angle_gamma 146.532428
_cell_volume 742.497866
_symmetry_space_group_name_H-M "P -1"
_symmetry_group_IT_number 2
_symmetry_cell_setting 'triclinic'
loop_
_space_group_symop_operation_xyz
x,y,z
-x,-y,-z
loop_
_atom_site_type_symbol
_atom_site_label
_atom_site_fract_x
_atom_site_fract_y
_atom_site_fract_z
Si Si1 0.760011 0.021391 0.708772
Si Si2 0.633339 0.690311 0.681679
Si Si3 0.841780 0.479501 0.749604
Si Si4 0.958683 0.768639 0.497142
Si Si5 0.113624 0.614067 0.861638
Si Si6 0.503979 0.754533 0.081277
Si Si7 0.140131 0.824508 0.668580
Si Si8 0.474595 0.956678 0.821000
O O1 0.589680 0.916557 0.658804
O O2 0.900747 0.058987 0.548550
O O3 0.704237 0.891032 0.751202
O O4 0.839963 0.243486 0.912508
O O5 0.500000 0.500000 0.500000
O O6 0.799333 0.735124 0.616035
O O7 0.535885 0.652606 0.853048
O O8 0.660648 0.399554 0.846400
O O9 0.811967 0.300576 0.523302
O O10 0.939039 0.521053 0.845560
O O11 0.982813 0.688719 0.763088
O O12 0.887018 0.554898 0.285685
O O13 0.061355 0.820118 0.596437
O O14 0.268416 0.764307 0.781920
O O15 0.466536 0.860827 0.128610
O O16 0.686651 0.944766 0.194976
O O17 0.500000 0.000000 0.000000
#
# Coordination Sequence:
#
# PCOD9077729 Si02
#       8
#     2   2   2   2   2   2   2   2
#     4  11  22  41  67  96 131 181 217 280 348 391
#     4  12  27  45  63  98 139 177 223 282 332 404
#     4  10  21  38  70 101 129 174 221 281 337 390
#     4  11  25  41  66  98 134 176 223 276 333 406
#     4  10  19  38  67  97 132 166 218 284 338 387
#     4  12  23  43  67  98 138 181 217 274 343 396
#     4  10  22  45  64 100 134 172 229 281 324 397
#     4  10  18  34  63  96 126 163 214 272 331 386
#
# _framework density 21.548884000000001
#
# number of rings (size 3 to 8) (size 9 to 14) (size 15 to 20)
#    0.000    1.250    3.750    3.375    3.500    0.500 
#    4.500    0.625    0.000    0.000    0.000    0.000 
#    0.000    0.000    0.000    0.000    0.000    0.000 
#
# Total GULP energy -89404.585762 kJ/mol
# GULP energy per Si atom -5587.786610 kJ/mol
# Density = 2.149984 g / cm^3
# Si number density = 21.548884 Si / 1000 Ang^3
#
#
#
# Elastic Constant Matrix: (Units=GPa)
#
#
# Indices 1 2 3 4 5 6 
#
# 1 77.1029 24.7330 37.0311 -9.1040 -3.6887 20.1988
# 2 24.7330 130.3884 51.0441 -34.8010 -1.8641 35.6203
# 3 37.0311 51.0441 73.5341 -15.8433 -2.3377 27.8859
# 4 -9.1040 -34.8010 -15.8433 36.1462 6.9344 -5.1951
# 5 -3.6887 -1.8641 -2.3377 6.9344 22.4075 -0.4559
# 6 20.1988 35.6203 27.8859 -5.1951 -0.4559 36.7515
#
#
#
# Elastic Compliance Matrix: (Units=1/GPa)
#
#
# Indices 1 2 3 4 5 6 
#
# 1 0.017773 0.001429 -0.007628 0.001444 0.001697 -0.005140
# 2 0.001429 0.015284 -0.004987 0.011992 -0.002931 -0.010156
# 3 -0.007628 -0.004987 0.025209 0.002964 -0.000155 -0.009685
# 4 0.001444 0.011992 0.002964 0.041816 -0.011577 -0.008898
# 5 0.001697 -0.002931 -0.000155 -0.011577 0.048250 0.000988
# 6 -0.005140 -0.010156 -0.009685 -0.008898 0.000988 0.045981
#
#
# Mechanical properties :
#
#
# Convention : Reuss Voigt Hill
#
# Bulk Modulus (GPa) = 27.86027 56.29353 42.07690
# Shear Modulus (GPa) = 21.86756 30.27553 26.07155
#
# Velocity S-wave (km/s) = 3.18903 3.75236 3.48211
# Velocity P-wave (km/s) = 5.14945 6.70477 5.97791
#
# Compressibility (1/GPa) = 0.03589341
#
# Stress axis : x y z
#
# Youngs Moduli (GPa) = 56.26471 65.42840 39.66904
#
# Poissons Ratio (x) = -0.09348 0.30259
# Poissons Ratio (y) = -0.08038 0.19783
# Poissons Ratio (z) = 0.42918 0.32629
#
# Static dielectric constant tensor:
#      x y z
#    x 1.779030 0.011160 0.006480 
#    y 0.011160 1.870150 -0.001840 
#    z 0.006480 -0.001840 1.800780 
# 
# From -- ./inp_files/455079.got.cif
#   From: 2010.05.17/outbox.cif.g08.bks.cpg/sg2_228_cif.got.tgz:455079.got - 2010.06.03 11:33:40.
