data_PCOD9077315
_publ_section_title
;
Structure prediction by ZEFSAII (Michael W. Deem and Ramdas Pophale) SiO2 
 PCOD9077315
Probable space group: P -1
;
_chemical_formula_sum "Si O2"
_cell_formula_units_Z 16
_cell_length_a 12.396869
_cell_length_b 8.691129
_cell_length_c 13.185340
_cell_angle_alpha 52.773579
_cell_angle_beta 116.522587
_cell_angle_gamma 142.658214
_cell_volume 684.390345
_symmetry_space_group_name_H-M "P -1"
_symmetry_group_IT_number 2
_symmetry_cell_setting 'triclinic'
loop_
_space_group_symop_operation_xyz
x,y,z
-x,-y,-z
loop_
_atom_site_type_symbol
_atom_site_label
_atom_site_fract_x
_atom_site_fract_y
_atom_site_fract_z
Si Si1 0.516781 0.026986 0.118429
Si Si2 0.069070 0.637275 0.359710
Si Si3 0.914967 0.107881 0.405386
Si Si4 0.338846 0.200299 0.993456
Si Si5 0.534141 0.944462 0.645568
Si Si6 0.364884 0.245668 0.744713
Si Si7 0.547667 0.739282 0.492345
Si Si8 0.790323 0.568326 0.152655
O O1 0.520659 0.802008 0.226920
O O2 0.704986 0.343587 0.112553
O O3 0.500000 0.000000 0.000000
O O4 0.368989 0.007225 0.105380
O O5 0.276803 0.936214 0.328126
O O6 0.000000 0.500000 0.500000
O O7 0.950788 0.657091 0.244774
O O8 0.057222 0.437623 0.360338
O O9 0.818702 0.989502 0.302710
O O10 0.759875 0.987763 0.468578
O O11 0.000000 0.000000 0.500000
O O12 0.343502 0.205280 0.871427
O O13 0.184307 0.173916 0.963592
O O14 0.500000 0.500000 0.000000
O O15 0.531748 0.151212 0.619016
O O16 0.500000 0.000000 0.500000
O O17 0.371726 0.643065 0.749332
O O18 0.461567 0.560074 0.631591
O O19 0.500000 0.500000 0.500000
#
# Coordination Sequence:
#
# PCOD9077315 Si02
#       8
#     2   2   2   2   2   2   2   2
#     4   9  18  36  60  86 106 152 207 248 295 342
#     4  12  23  36  57  88 128 161 190 238 284 362
#     4  11  22  35  53  90 126 155 189 229 289 361
#     4   9  20  34  60  87 106 150 207 252 290 340
#     4  12  22  37  57  86 127 161 189 229 291 363
#     4  10  18  34  58  84 117 153 195 237 290 350
#     4  10  19  34  53  84 123 153 188 226 276 362
#     4  11  20  38  59  88 119 153 199 236 301 347
#
# _framework density 23.378471999999999
#
# number of rings (size 3 to 8) (size 9 to 14) (size 15 to 20)
#    0.000    1.500    3.750    3.000    1.750    0.000 
#    0.000    0.000    0.000    7.500   13.000    0.000 
#    0.000    0.000    0.000    0.000    0.000    0.000 
#
# Total GULP energy -89115.476340 kJ/mol
# GULP energy per Si atom -5569.717271 kJ/mol
# Density = 2.332526 g / cm^3
# Si number density = 23.378472 Si / 1000 Ang^3
#
#
#
# Elastic Constant Matrix: (Units=GPa)
#
#
# Indices 1 2 3 4 5 6 
#
# 1 117.5245 34.4685 47.4949 10.4799 33.7151 -2.4750
# 2 34.4685 83.0801 23.9096 23.4748 5.0858 -5.9768
# 3 47.4949 23.9096 115.7193 23.7127 28.6697 -6.4820
# 4 10.4799 23.4748 23.7127 45.4839 -16.7533 6.0487
# 5 33.7151 5.0858 28.6697 -16.7533 72.6090 2.8122
# 6 -2.4750 -5.9768 -6.4820 6.0487 2.8122 46.6699
#
#
#
# Elastic Compliance Matrix: (Units=1/GPa)
#
#
# Indices 1 2 3 4 5 6 
#
# 1 0.012123 -0.003593 -0.002873 -0.001130 -0.004512 0.000202
# 2 -0.003593 0.016251 0.000628 -0.009032 -0.001928 0.003265
# 3 -0.002873 0.000628 0.013362 -0.009392 -0.006284 0.003380
# 4 -0.001130 -0.009032 -0.009392 0.038052 0.013967 -0.008294
# 5 -0.004512 -0.001928 -0.006284 0.013967 0.021880 -0.004488
# 6 0.000202 0.003265 0.003380 -0.008294 -0.004488 0.023671
#
#
# Mechanical properties :
#
#
# Convention : Reuss Voigt Hill
#
# Bulk Modulus (GPa) = 33.26539 58.67442 45.96991
# Shear Modulus (GPa) = 34.00590 46.98263 40.49426
#
# Velocity S-wave (km/s) = 3.81804 4.48778 4.16639
# Velocity P-wave (km/s) = 5.80487 7.21150 6.54607
#
# Compressibility (1/GPa) = 0.03006127
#
# Stress axis : x y z
#
# Youngs Moduli (GPa) = 82.48896 61.53377 74.84080
#
# Poissons Ratio (x) = 0.22108 0.21499
# Poissons Ratio (y) = 0.29637 -0.04701
# Poissons Ratio (z) = 0.23696 -0.03865
#
# Static dielectric constant tensor:
#      x y z
#    x 2.179330 0.155850 -0.100580 
#    y 0.155850 2.332650 -0.023780 
#    z -0.100580 -0.023780 2.071950 
# 
# From -- ./inp_files/454529.got.cif
#   From: 2010.05.17/outbox.cif.g08.bks.cpg/sg2_228_cif.got.tgz:454529.got - 2010.06.03 11:33:40.
