data_PCOD9077617
_publ_section_title
;
Structure prediction by ZEFSAII (Michael W. Deem and Ramdas Pophale) SiO2 
 PCOD9077617
Probable space group: P -1
;
_chemical_formula_sum "Si O2"
_cell_formula_units_Z 14
_cell_length_a 5.886191
_cell_length_b 25.924621
_cell_length_c 10.234219
_cell_angle_alpha 153.096443
_cell_angle_beta 108.736144
_cell_angle_gamma 75.344789
_cell_volume 667.171289
_symmetry_space_group_name_H-M "P -1"
_symmetry_group_IT_number 2
_symmetry_cell_setting 'triclinic'
loop_
_space_group_symop_operation_xyz
x,y,z
-x,-y,-z
loop_
_atom_site_type_symbol
_atom_site_label
_atom_site_fract_x
_atom_site_fract_y
_atom_site_fract_z
Si Si1 0.532019 0.138417 0.659046
Si Si2 0.222198 0.046374 0.047305
Si Si3 0.351240 0.279680 0.164821
Si Si4 0.530375 0.477385 0.299300
Si Si5 0.094279 0.695781 0.051545
Si Si6 0.807716 0.941274 0.230021
Si Si7 0.194317 0.252492 0.668424
O O1 0.298941 0.167016 0.601371
O O2 0.570499 0.006257 0.367651
O O3 0.523451 0.202633 0.939604
O O4 0.741079 0.204801 0.763346
O O5 0.233677 0.182701 0.388043
O O6 0.138626 0.031164 0.848086
O O7 0.500000 0.000000 0.000000
O O8 0.000000 0.000000 0.000000
O O9 0.478685 0.401807 0.501769
O O10 0.147236 0.312261 0.097206
O O11 0.232822 0.193341 0.054451
O O12 0.500000 0.500000 0.500000
O O13 0.780918 0.421535 0.199327
O O14 0.339688 0.375941 0.986280
O O15 0.060642 0.728077 0.269943
O O16 0.000000 0.000000 0.500000
#
# Coordination Sequence:
#
# PCOD9077617 Si02
#       7
#     2   2   2   2   2   2   2
#     4  10  19  36  62  93 131 167 219 279 345 402
#     4  12  28  48  75 102 141 189 236 281 351 431
#     4  11  22  34  59  96 131 170 216 285 349 396
#     4  11  20  34  61  96 128 175 230 282 332 408
#     4  10  18  34  61  90 133 167 229 274 340 395
#     4  12  25  42  68 103 139 176 226 298 355 411
#     4  10  22  38  63  94 131 175 231 283 331 410
#
# _framework density 20.984116
#
# number of rings (size 3 to 8) (size 9 to 14) (size 15 to 20)
#    0.000    1.143    7.143    1.714    4.000    1.143 
#    0.000    0.714    0.000    0.857    0.000    0.000 
#    0.000    0.000    0.000    0.000    0.000    0.000 
#
# Total GULP energy -77998.135114 kJ/mol
# GULP energy per Si atom -5571.295365 kJ/mol
# Density = 2.093636 g / cm^3
# Si number density = 20.984116 Si / 1000 Ang^3
#
#
#
# Elastic Constant Matrix: (Units=GPa)
#
#
# Indices 1 2 3 4 5 6 
#
# 1 80.3800 30.3751 40.0654 -1.7461 -13.1781 21.0034
# 2 30.3751 92.3964 50.8612 9.1686 1.1663 18.4059
# 3 40.0654 50.8612 139.4662 8.2122 -10.3572 15.6491
# 4 -1.7461 9.1686 8.2122 42.3391 5.3227 2.3033
# 5 -13.1781 1.1663 -10.3572 5.3227 41.7139 6.2566
# 6 21.0034 18.4059 15.6491 2.3033 6.2566 21.3651
#
#
#
# Elastic Compliance Matrix: (Units=1/GPa)
#
#
# Indices 1 2 3 4 5 6 
#
# 1 0.021186 -0.001797 -0.002611 0.001748 0.008895 -0.020159
# 2 -0.001797 0.015549 -0.004148 -0.002124 -0.000531 -0.008206
# 3 -0.002611 -0.004148 0.009842 -0.001302 0.002134 -0.001554
# 4 0.001748 -0.002124 -0.001302 0.024793 -0.002755 -0.000801
# 5 0.008895 -0.000531 0.002134 -0.002755 0.030450 -0.018471
# 6 -0.020159 -0.008206 -0.001554 -0.000801 -0.018471 0.080326
#
#
# Mechanical properties :
#
#
# Convention : Reuss Voigt Hill
#
# Bulk Modulus (GPa) = 33.93849 61.64954 47.79401
# Shear Modulus (GPa) = 23.91428 33.81304 28.86366
#
# Velocity S-wave (km/s) = 3.37951 4.01853 3.71280
# Velocity P-wave (km/s) = 5.60684 7.13964 6.41915
#
# Compressibility (1/GPa) = 0.02946507
#
# Stress axis : x y z
#
# Youngs Moduli (GPa) = 47.20205 64.31219 101.60125
#
# Poissons Ratio (x) = 0.11559 0.26527
# Poissons Ratio (y) = 0.08484 0.42142
# Poissons Ratio (z) = 0.12324 0.26675
#
# Static dielectric constant tensor:
#      x y z
#    x 1.897460 -0.004620 -0.018710 
#    y -0.004620 1.774130 -0.011680 
#    z -0.018710 -0.011680 1.857810 
# 
# From -- ./inp_files/80826.got.cif
#   From: 2010.05.17/outbox.cif.g08.bks.cpg/sg2_41_cif.got.tgz:80826.got - 2010.06.03 11:33:40.
