data_PCOD9077856
_publ_section_title
;
Structure prediction by ZEFSAII (Michael W. Deem and Ramdas Pophale) SiO2 
 PCOD9077856
Probable space group: P -1
;
_chemical_formula_sum "Si O2"
_cell_formula_units_Z 16
_cell_length_a 11.542137
_cell_length_b 23.131807
_cell_length_c 8.603460
_cell_angle_alpha 137.363160
_cell_angle_beta 119.687997
_cell_angle_gamma 31.114115
_cell_volume 742.221813
_symmetry_space_group_name_H-M "P -1"
_symmetry_group_IT_number 2
_symmetry_cell_setting 'triclinic'
loop_
_space_group_symop_operation_xyz
x,y,z
-x,-y,-z
loop_
_atom_site_type_symbol
_atom_site_label
_atom_site_fract_x
_atom_site_fract_y
_atom_site_fract_z
Si Si1 0.878134 0.636217 0.580573
Si Si2 0.341637 0.799212 0.270059
Si Si3 0.136839 0.482760 0.929426
Si Si4 0.903143 0.061472 0.295236
Si Si5 0.653116 0.001163 0.296742
Si Si6 0.182167 0.032922 0.197771
Si Si7 0.711718 0.807585 0.114369
Si Si8 0.130945 0.199544 0.253961
O O1 0.000000 0.500000 0.500000
O O2 0.775683 0.630205 0.368574
O O3 0.019592 0.638339 0.591435
O O4 0.717953 0.771025 0.866872
O O5 0.604067 0.620591 0.047819
O O6 0.258753 0.822044 0.435952
O O7 0.340510 0.903510 0.470805
O O8 0.131756 0.890198 0.187489
O O9 0.000000 0.500000 0.000000
O O10 0.933741 0.652264 0.054482
O O11 0.007469 0.083882 0.308544
O O12 0.778387 0.062878 0.095441
O O13 0.739292 0.893347 0.278860
O O14 0.381486 0.113368 0.299429
O O15 0.809777 0.894551 0.036835
O O16 0.068893 0.174769 0.311560
O O17 0.448343 0.916788 0.208289
#
# Coordination Sequence:
#
# PCOD9077856 Si02
#       8
#     2   2   2   2   2   2   2   2
#     4   9  17  30  51  82 109 140 172 207 293 334
#     4  11  20  37  55  82 113 148 187 217 275 341
#     4  11  21  34  52  84 116 140 170 230 290 326
#     4  10  22  33  54  79 112 157 183 223 255 325
#     4   9  16  30  56  83 110 133 178 232 284 320
#     4  10  18  35  54  85 111 139 192 227 264 323
#     4   9  19  34  58  88 107 138 173 234 289 323
#     4   9  15  29  55  83 109 133 172 243 275 316
#
# _framework density 21.556899000000001
#
# number of rings (size 3 to 8) (size 9 to 14) (size 15 to 20)
#    0.000    2.250    2.500    2.250    0.000    0.000 
#    2.250    1.875    0.000    3.000   13.000   10.500 
#    0.000    0.000    0.000    0.000    0.000    0.000 
#
# Total GULP energy -89197.194462 kJ/mol
# GULP energy per Si atom -5574.824654 kJ/mol
# Density = 2.150783 g / cm^3
# Si number density = 21.556899 Si / 1000 Ang^3
#
#
#
# Elastic Constant Matrix: (Units=GPa)
#
#
# Indices 1 2 3 4 5 6 
#
# 1 151.7596 42.9877 22.1922 19.3923 -10.2935 31.3670
# 2 42.9877 88.0676 22.6357 21.9418 -6.6194 16.7853
# 3 22.1922 22.6357 45.8782 -0.9389 -5.9553 8.5153
# 4 19.3923 21.9418 -0.9389 24.6580 1.8928 5.5543
# 5 -10.2935 -6.6194 -5.9553 1.8928 38.3141 1.5520
# 6 31.3670 16.7853 8.5153 5.5543 1.5520 36.2274
#
#
#
# Elastic Compliance Matrix: (Units=1/GPa)
#
#
# Indices 1 2 3 4 5 6 
#
# 1 0.009454 -0.001291 -0.002557 -0.005151 0.002429 -0.006301
# 2 -0.001291 0.018697 -0.007947 -0.015347 0.002546 -0.003434
# 3 -0.002557 -0.007947 0.027844 0.010529 0.001843 -0.002342
# 4 -0.005151 -0.015347 0.010529 0.059010 -0.005325 0.000277
# 5 0.002429 0.002546 0.001843 -0.005325 0.027908 -0.004095
# 6 -0.006301 -0.003434 -0.002342 0.000277 -0.004095 0.035333
#
#
# Mechanical properties :
#
#
# Convention : Reuss Voigt Hill
#
# Bulk Modulus (GPa) = 30.85832 51.25960 41.05896
# Shear Modulus (GPa) = 23.51429 33.03257 28.27343
#
# Velocity S-wave (km/s) = 3.30631 3.91876 3.62549
# Velocity P-wave (km/s) = 5.37787 6.65627 6.05093
#
# Compressibility (1/GPa) = 0.03240617
#
# Stress axis : x y z
#
# Youngs Moduli (GPa) = 105.77233 53.48512 35.91453
#
# Poissons Ratio (x) = 0.06903 0.09183
# Poissons Ratio (y) = 0.13651 0.28541
# Poissons Ratio (z) = 0.27046 0.42504
#
# Static dielectric constant tensor:
#      x y z
#    x 1.853530 0.033640 0.042750 
#    y 0.033640 1.904940 0.027340 
#    z 0.042750 0.027340 1.885610 
# 
# From -- ./inp_files/284954.got.cif
#   From: 2010.05.17/outbox.cif.g08.bks.cpg/sg2_143_cif.got.tgz:284954.got - 2010.06.03 11:33:40.
