data_PCOD9077801
_publ_section_title
;
Structure prediction by ZEFSAII (Michael W. Deem and Ramdas Pophale) SiO2 
 PCOD9077801
Probable space group: P -1
;
_chemical_formula_sum "Si O2"
_cell_formula_units_Z 14
_cell_length_a 8.281244
_cell_length_b 11.790552
_cell_length_c 10.747729
_cell_angle_alpha 138.378327
_cell_angle_beta 56.767363
_cell_angle_gamma 116.469720
_cell_volume 581.804014
_symmetry_space_group_name_H-M "P -1"
_symmetry_group_IT_number 2
_symmetry_cell_setting 'triclinic'
loop_
_space_group_symop_operation_xyz
x,y,z
-x,-y,-z
loop_
_atom_site_type_symbol
_atom_site_label
_atom_site_fract_x
_atom_site_fract_y
_atom_site_fract_z
Si Si1 0.593609 0.083030 0.333505
Si Si2 0.492086 0.593763 0.713127
Si Si3 0.810550 0.402272 0.556383
Si Si4 0.114077 0.737853 0.058822
Si Si5 0.694917 0.901987 0.755653
Si Si6 0.084559 0.780774 0.399861
Si Si7 0.721207 0.853817 0.287115
O O1 0.778163 0.215494 0.351159
O O2 0.467730 0.067407 0.251921
O O3 0.461512 0.173004 0.567323
O O4 0.648402 0.905072 0.223997
O O5 0.500000 0.500000 0.500000
O O6 0.624294 0.502200 0.680147
O O7 0.595901 0.782678 0.804517
O O8 0.266792 0.602578 0.847803
O O9 0.840697 0.359761 0.653540
O O10 0.000000 0.500000 0.500000
O O11 0.123382 0.756920 0.219562
O O12 0.886822 0.720875 0.108544
O O13 0.197657 0.916440 0.107193
O O14 0.858184 0.795990 0.533743
O O15 0.180797 0.966779 0.551807
#
# Coordination Sequence:
#
# PCOD9077801 Si02
#       7
#     2   2   2   2   2   2   2
#     4  10  18  34  67  94 128 160 206 257 320 376
#     4  12  26  43  62  87 134 181 210 254 319 385
#     4  11  23  40  63  88 129 180 206 246 325 386
#     4  11  22  40  66 101 124 161 219 268 313 371
#     4  11  19  40  67  95 125 167 207 265 322 376
#     4  10  19  37  70  93 126 162 210 268 318 372
#     4   9  18  35  63 102 126 153 205 273 324 360
#
# _framework density 24.063085000000001
#
# number of rings (size 3 to 8) (size 9 to 14) (size 15 to 20)
#    0.000    1.429    5.714    1.286    0.000    0.571 
#    0.000    5.000    0.000    0.000    0.000    0.000 
#    0.000    0.000    0.000    0.000    0.000    0.000 
#
# Total GULP energy -78353.271346 kJ/mol
# GULP energy per Si atom -5596.662239 kJ/mol
# Density = 2.400832 g / cm^3
# Si number density = 24.063085 Si / 1000 Ang^3
#
#
#
# Elastic Constant Matrix: (Units=GPa)
#
#
# Indices 1 2 3 4 5 6 
#
# 1 115.1400 33.4268 42.1256 4.9736 -31.7614 -27.4107
# 2 33.4268 101.9961 14.0897 1.4778 -9.6473 -7.3383
# 3 42.1256 14.0897 105.3384 -13.4941 -36.4895 -8.9909
# 4 4.9736 1.4778 -13.4941 16.3770 8.3555 -6.5692
# 5 -31.7614 -9.6473 -36.4895 8.3555 33.6881 5.6918
# 6 -27.4107 -7.3383 -8.9909 -6.5692 5.6918 49.6861
#
#
#
# Elastic Compliance Matrix: (Units=1/GPa)
#
#
# Indices 1 2 3 4 5 6 
#
# 1 0.015769 -0.003066 -0.002243 -0.011365 0.013570 0.004783
# 2 -0.003066 0.010842 -0.000273 -0.000373 0.000044 -0.000194
# 3 -0.002243 -0.000273 0.016042 0.007712 0.013077 0.001147
# 4 -0.011365 -0.000373 0.007712 0.088014 -0.025933 0.009678
# 5 0.013570 0.000044 0.013077 -0.025933 0.063225 -0.000812
# 6 0.004783 -0.000194 0.001147 0.009678 -0.000812 0.024317
#
#
# Mechanical properties :
#
#
# Convention : Reuss Voigt Hill
#
# Bulk Modulus (GPa) = 31.75626 55.75097 43.75361
# Shear Modulus (GPa) = 20.84468 35.47240 28.15854
#
# Velocity S-wave (km/s) = 2.94641 3.84362 3.42452
# Velocity P-wave (km/s) = 4.98004 6.55110 5.81884
#
# Compressibility (1/GPa) = 0.03148986
#
# Stress axis : x y z
#
# Youngs Moduli (GPa) = 63.41686 92.23101 62.33445
#
# Poissons Ratio (x) = 0.28275 0.13980
# Poissons Ratio (y) = 0.19441 0.01704
# Poissons Ratio (z) = 0.14223 0.02522
#
# Static dielectric constant tensor:
#      x y z
#    x 1.914600 0.023670 -0.018360 
#    y 0.023670 1.938940 0.036590 
#    z -0.018360 0.036590 1.946430 
# 
# From -- ./inp_files/158080.got.cif
#   From: 2010.05.17/outbox.cif.g08.bks.cpg/sg2_80_cif.got.tgz:158080.got - 2010.06.03 11:33:40.
