data_PCOD9077524
_publ_section_title
;
Structure prediction by ZEFSAII (Michael W. Deem and Ramdas Pophale) SiO2 
 PCOD9077524
Probable space group: P -1
;
_chemical_formula_sum "Si O2"
_cell_formula_units_Z 14
_cell_length_a 8.649689
_cell_length_b 15.721818
_cell_length_c 8.687944
_cell_angle_alpha 136.825753
_cell_angle_beta 45.114444
_cell_angle_gamma 120.538916
_cell_volume 572.699869
_symmetry_space_group_name_H-M "P -1"
_symmetry_group_IT_number 2
_symmetry_cell_setting 'triclinic'
loop_
_space_group_symop_operation_xyz
x,y,z
-x,-y,-z
loop_
_atom_site_type_symbol
_atom_site_label
_atom_site_fract_x
_atom_site_fract_y
_atom_site_fract_z
Si Si1 0.235557 0.117781 0.537392
Si Si2 0.605001 0.094825 0.669943
Si Si3 0.706929 0.525839 0.272611
Si Si4 0.789418 0.522781 0.841385
Si Si5 0.433437 0.712993 0.290511
Si Si6 0.143699 0.678797 0.902039
Si Si7 0.382621 0.211082 0.258702
O O1 0.445688 0.189350 0.555823
O O2 0.288621 0.112783 0.313986
O O3 0.225367 0.985456 0.453780
O O4 0.030469 0.208808 0.827170
O O5 0.674034 0.210858 0.672603
O O6 0.500000 0.000000 0.500000
O O7 0.425092 0.149205 0.984479
O O8 0.500000 0.500000 0.500000
O O9 0.842135 0.402039 0.057266
O O10 0.763535 0.664224 0.472488
O O11 0.705511 0.534846 0.098446
O O12 0.742051 0.381605 0.645953
O O13 0.033712 0.572341 0.733611
O O14 0.634961 0.618772 0.983027
O O15 0.379727 0.736985 0.784713
#
# Coordination Sequence:
#
# PCOD9077524 Si02
#       7
#     2   2   2   2   2   2   2
#     4  10  21  40  64  88 120 166 206 245 292 356
#     4  10  22  40  64  86 118 167 206 245 307 357
#     4  10  19  32  58  92 122 148 197 248 297 358
#     4  10  18  34  60  88 124 162 190 240 309 360
#     4   9  18  35  62  85 121 164 193 238 305 353
#     4  10  21  35  62  98 124 152 200 245 312 356
#     4  11  21  38  63  92 121 155 206 256 295 355
#
# _framework density 24.445612000000001
#
# number of rings (size 3 to 8) (size 9 to 14) (size 15 to 20)
#    0.000    2.000    2.857    2.571    0.000    0.571 
#    0.000    0.714    9.429    9.429    0.000    0.000 
#    0.000    0.000    0.000    0.000    0.000    0.000 
#
# Total GULP energy -78077.669355 kJ/mol
# GULP energy per Si atom -5576.976382 kJ/mol
# Density = 2.438997 g / cm^3
# Si number density = 24.445612 Si / 1000 Ang^3
#
#
#
# Elastic Constant Matrix: (Units=GPa)
#
#
# Indices 1 2 3 4 5 6 
#
# 1 56.1809 43.8791 27.0393 4.9356 2.8713 17.4097
# 2 43.8791 150.0924 51.2360 15.2653 -14.1376 -27.4503
# 3 27.0393 51.2360 85.9277 -0.4053 -9.1860 -13.2128
# 4 4.9356 15.2653 -0.4053 37.8089 -1.3699 -12.1042
# 5 2.8713 -14.1376 -9.1860 -1.3699 28.4474 15.7881
# 6 17.4097 -27.4503 -13.2128 -12.1042 15.7881 49.7361
#
#
#
# Elastic Compliance Matrix: (Units=1/GPa)
#
#
# Indices 1 2 3 4 5 6 
#
# 1 0.040984 -0.012618 -0.009361 -0.008694 0.000647 -0.026118
# 2 -0.012618 0.013160 -0.002107 -0.000224 0.001191 0.010688
# 3 -0.009361 -0.002107 0.017155 0.004649 0.001615 0.007290
# 4 -0.008694 -0.000224 0.004649 0.031750 -0.003396 0.012960
# 5 0.000647 0.001191 0.001615 -0.003396 0.043721 -0.013845
# 6 -0.026118 0.010688 0.007290 0.012960 -0.013845 0.044633
#
#
# Mechanical properties :
#
#
# Convention : Reuss Voigt Hill
#
# Bulk Modulus (GPa) = 43.23708 59.61220 51.42464
# Shear Modulus (GPa) = 20.21960 34.53491 27.37725
#
# Velocity S-wave (km/s) = 2.87910 3.76270 3.35016
# Velocity P-wave (km/s) = 5.36449 6.58147 6.00390
#
# Compressibility (1/GPa) = 0.02312829
#
# Stress axis : x y z
#
# Youngs Moduli (GPa) = 24.39959 75.98708 58.29112
#
# Poissons Ratio (x) = 0.95878 0.54568
# Poissons Ratio (y) = 0.30787 0.12281
# Poissons Ratio (z) = 0.22841 0.16009
#
# Static dielectric constant tensor:
#      x y z
#    x 2.062520 0.013180 -0.033440 
#    y 0.013180 1.963840 -0.004500 
#    z -0.033440 -0.004500 1.978740 
# 
# From -- ./inp_files/201031.got.cif
#   From: 2010.05.17/outbox.cif.g08.bks.cpg/sg2_101_cif.got.tgz:201031.got - 2010.06.03 11:33:40.
