data_PCOD9077475
_publ_section_title
;
Structure prediction by ZEFSAII (Michael W. Deem and Ramdas Pophale) SiO2 
 PCOD9077475
Probable space group: P -1
;
_chemical_formula_sum "Si O2"
_cell_formula_units_Z 16
_cell_length_a 8.008420
_cell_length_b 14.003185
_cell_length_c 13.944752
_cell_angle_alpha 88.568962
_cell_angle_beta 80.919660
_cell_angle_gamma 31.233350
_cell_volume 782.027114
_symmetry_space_group_name_H-M "P -1"
_symmetry_group_IT_number 2
_symmetry_cell_setting 'triclinic'
loop_
_space_group_symop_operation_xyz
x,y,z
-x,-y,-z
loop_
_atom_site_type_symbol
_atom_site_label
_atom_site_fract_x
_atom_site_fract_y
_atom_site_fract_z
Si Si1 0.300236 0.430721 0.353277
Si Si2 0.146898 0.132367 0.292825
Si Si3 0.857803 0.129428 0.166391
Si Si4 0.401309 0.444001 0.047888
Si Si5 0.249014 0.795357 0.513612
Si Si6 0.528798 0.295453 0.850367
Si Si7 0.537127 0.536119 0.318226
Si Si8 0.198676 0.286940 0.757933
O O1 0.544719 0.258807 0.260278
O O2 0.426745 0.334957 0.447899
O O3 0.395123 0.497815 0.339464
O O4 0.936922 0.607714 0.334218
O O5 0.047609 0.122372 0.205785
O O6 0.976462 0.160757 0.397070
O O7 0.939820 0.331055 0.298836
O O8 0.540941 0.926693 0.272804
O O9 0.707064 0.243852 0.079982
O O10 0.111758 0.918595 0.143609
O O11 0.106495 0.592939 0.148466
O O12 0.500000 0.500000 0.000000
O O13 0.320991 0.422001 0.960726
O O14 0.377422 0.675520 0.413419
O O15 0.000000 0.000000 0.500000
O O16 0.549890 0.376753 0.778069
O O17 0.376023 0.287595 0.797187
#
# Coordination Sequence:
#
# PCOD9077475 Si02
#       8
#     2   2   2   2   2   2   2   2
#     4   9  18  35  56  80 110 143 181 224 267 326
#     4   9  18  35  54  79 112 143 178 227 272 318
#     4   8  17  33  54  78 104 139 181 221 265 321
#     4  11  21  37  58  80 107 147 188 224 268 328
#     4  10  18  34  60  84 108 146 185 220 266 327
#     4  11  20  35  56  81 111 143 180 230 276 317
#     4  10  19  36  58  81 106 147 187 217 265 331
#     4  10  21  37  54  81 113 140 176 231 280 318
#
# _framework density 20.459647
#
# number of rings (size 3 to 8) (size 9 to 14) (size 15 to 20)
#    0.000    2.500    0.000    6.750    0.000    0.000 
#    0.000   18.125    0.000    0.000    0.000    0.000 
#    0.000    0.000    0.000    0.000    0.000    0.000 
#
# Total GULP energy -89210.530449 kJ/mol
# GULP energy per Si atom -5575.658153 kJ/mol
# Density = 2.041308 g / cm^3
# Si number density = 20.459647 Si / 1000 Ang^3
#
#
#
# Elastic Constant Matrix: (Units=GPa)
#
#
# Indices 1 2 3 4 5 6 
#
# 1 23.1026 31.2591 14.8640 -2.4136 1.8968 -0.0123
# 2 31.2591 187.4444 65.4268 -5.6044 4.9527 2.0425
# 3 14.8640 65.4268 120.3688 -9.9306 13.7750 2.8442
# 4 -2.4136 -5.6044 -9.9306 41.0759 5.3303 3.1231
# 5 1.8968 4.9527 13.7750 5.3303 20.3597 -5.9127
# 6 -0.0123 2.0425 2.8442 3.1231 -5.9127 27.8130
#
#
#
# Elastic Compliance Matrix: (Units=1/GPa)
#
#
# Indices 1 2 3 4 5 6 
#
# 1 0.056616 -0.008678 -0.001835 0.002004 -0.002414 0.000112
# 2 -0.008678 0.007930 -0.003431 -0.000440 0.001345 0.000100
# 3 -0.001835 -0.003431 0.011796 0.003676 -0.008884 -0.003257
# 4 0.002004 -0.000440 0.003676 0.027211 -0.011381 -0.005818
# 5 -0.002414 0.001345 -0.008884 -0.011381 0.062467 0.015366
# 6 0.000112 0.000100 -0.003257 -0.005818 0.015366 0.040200
#
#
# Mechanical properties :
#
#
# Convention : Reuss Voigt Hill
#
# Bulk Modulus (GPa) = 20.63885 61.55730 41.09808
# Shear Modulus (GPa) = 19.97912 32.47413 26.22662
#
# Velocity S-wave (km/s) = 3.12831 3.98833 3.58421
# Velocity P-wave (km/s) = 4.81227 7.16669 6.10407
#
# Compressibility (1/GPa) = 0.04845231
#
# Stress axis : x y z
#
# Youngs Moduli (GPa) = 17.66290 126.10194 84.77119
#
# Poissons Ratio (x) = 1.09437 0.15558
# Poissons Ratio (y) = 0.15329 0.29088
# Poissons Ratio (z) = 0.03242 0.43270
#
# Static dielectric constant tensor:
#      x y z
#    x 1.770600 -0.031380 0.002420 
#    y -0.031380 1.770560 -0.006960 
#    z 0.002420 -0.006960 1.714150 
# 
# From -- ./inp_files/315780.got.cif
#   From: 2010.05.17/outbox.cif.g08.bks.cpg/sg2_158_cif.got.tgz:315780.got - 2010.06.03 11:33:40.
