data_PCOD9077694
_publ_section_title
;
Structure prediction by ZEFSAII (Michael W. Deem and Ramdas Pophale) SiO2 
 PCOD9077694
Probable space group: P -1
;
_chemical_formula_sum "Si O2"
_cell_formula_units_Z 16
_cell_length_a 13.763036
_cell_length_b 13.349915
_cell_length_c 11.890561
_cell_angle_alpha 117.928042
_cell_angle_beta 32.795617
_cell_angle_gamma 141.033546
_cell_volume 624.520746
_symmetry_space_group_name_H-M "P -1"
_symmetry_group_IT_number 2
_symmetry_cell_setting 'triclinic'
loop_
_space_group_symop_operation_xyz
x,y,z
-x,-y,-z
loop_
_atom_site_type_symbol
_atom_site_label
_atom_site_fract_x
_atom_site_fract_y
_atom_site_fract_z
Si Si1 0.388944 0.639772 0.473219
Si Si2 0.143591 0.723160 0.306680
Si Si3 0.871216 0.561311 0.168834
Si Si4 0.076494 0.036754 0.192864
Si Si5 0.304800 0.977601 0.559904
Si Si6 0.845294 0.096624 0.782667
Si Si7 0.080031 0.820665 0.927682
Si Si8 0.394148 0.562412 0.187752
O O1 0.404006 0.592907 0.558019
O O2 0.520642 0.830234 0.447475
O O3 0.503015 0.630548 0.248305
O O4 0.033780 0.458193 0.692738
O O5 0.064458 0.808197 0.375930
O O6 0.968578 0.619903 0.540807
O O7 0.493344 0.894334 0.033504
O O8 0.078384 0.757490 0.135307
O O9 0.000000 0.500000 0.000000
O O10 0.854227 0.614749 0.093778
O O11 0.426601 0.250163 0.954613
O O12 0.023970 0.918515 0.081056
O O13 0.999506 0.933699 0.329107
O O14 0.882992 0.050504 0.364847
O O15 0.577455 0.036057 0.289802
O O16 0.101795 0.822824 0.773627
O O17 0.500000 0.500000 0.000000
#
# Coordination Sequence:
#
# PCOD9077694 Si02
#       8
#     2   2   2   2   2   2   2   2
#     4   9  19  38  61  89 132 166 212 276 315 385
#     4   8  18  39  65  86 124 172 223 263 316 385
#     4  10  18  34  62  95 130 158 216 268 323 398
#     4  11  23  39  65  98 133 168 217 274 328 393
#     4  11  21  39  64  98 133 169 210 271 333 400
#     4   9  19  38  65  93 125 174 215 270 329 385
#     4  10  21  36  64  93 128 176 209 253 338 393
#     4  10  22  40  62  89 130 174 217 274 322 379
#
# _framework density 25.619644000000001
#
# number of rings (size 3 to 8) (size 9 to 14) (size 15 to 20)
#    0.750    1.500    2.500    0.375    0.000    2.500 
#    0.000   10.000    0.000    0.000    0.000    0.000 
#    0.000    0.000    0.000    0.000    0.000    0.000 
#
# Total GULP energy -89297.154837 kJ/mol
# GULP energy per Si atom -5581.072177 kJ/mol
# Density = 2.556133 g / cm^3
# Si number density = 25.619644 Si / 1000 Ang^3
#
#
#
# Elastic Constant Matrix: (Units=GPa)
#
#
# Indices 1 2 3 4 5 6 
#
# 1 73.5373 30.3754 10.3569 5.4853 16.9877 -26.9019
# 2 30.3754 104.4817 32.5260 -8.2451 14.0575 -13.1641
# 3 10.3569 32.5260 79.8218 -5.2371 -6.1625 3.1684
# 4 5.4853 -8.2451 -5.2371 30.8949 -5.3343 6.0252
# 5 16.9877 14.0575 -6.1625 -5.3343 49.7570 -1.1833
# 6 -26.9019 -13.1641 3.1684 6.0252 -1.1833 40.2803
#
#
#
# Elastic Compliance Matrix: (Units=1/GPa)
#
#
# Indices 1 2 3 4 5 6 
#
# 1 0.024556 -0.003518 -0.003792 -0.010723 -0.008607 0.016900
# 2 -0.003518 0.012921 -0.004936 0.002404 -0.002760 0.001821
# 3 -0.003792 -0.004936 0.015912 0.004051 0.004955 -0.005858
# 4 -0.010723 0.002404 0.004051 0.039287 0.007402 -0.012354
# 5 -0.008607 -0.002760 0.004955 0.007402 0.025047 -0.007412
# 6 0.016900 0.001821 -0.005858 -0.012354 -0.007412 0.038799
#
#
# Mechanical properties :
#
#
# Convention : Reuss Voigt Hill
#
# Bulk Modulus (GPa) = 34.60409 44.92859 39.76634
# Shear Modulus (GPa) = 26.22650 36.49194 31.35922
#
# Velocity S-wave (km/s) = 3.20298 3.77818 3.50241
# Velocity P-wave (km/s) = 5.21680 6.05043 5.64901
#
# Compressibility (1/GPa) = 0.02889832
#
# Stress axis : x y z
#
# Youngs Moduli (GPa) = 40.72265 77.39422 62.84501
#
# Poissons Ratio (x) = 0.27224 0.23829
# Poissons Ratio (y) = 0.14324 0.31022
# Poissons Ratio (z) = 0.15441 0.38204
#
# Static dielectric constant tensor:
#      x y z
#    x 2.174310 0.006220 -0.059940 
#    y 0.006220 1.961850 -0.022920 
#    z -0.059940 -0.022920 2.057670 
# 
# From -- ./inp_files/532550.got.cif
#   From: 2010.05.17/outbox.cif.g08.bks.cpg/sg2_267_cif.got.tgz:532550.got - 2010.06.03 11:33:40.
