data_PCOD9077164
_publ_section_title
;
Structure prediction by ZEFSAII (Michael W. Deem and Ramdas Pophale) SiO2 
 PCOD9077164
Probable space group: P -1
;
_chemical_formula_sum "Si O2"
_cell_formula_units_Z 15
_cell_length_a 15.615831
_cell_length_b 7.825941
_cell_length_c 5.154991
_cell_angle_alpha 98.090875
_cell_angle_beta 108.982280
_cell_angle_gamma 67.418194
_cell_volume 549.961643
_symmetry_space_group_name_H-M "P -1"
_symmetry_group_IT_number 2
_symmetry_cell_setting 'triclinic'
loop_
_space_group_symop_operation_xyz
x,y,z
-x,-y,-z
loop_
_atom_site_type_symbol
_atom_site_label
_atom_site_fract_x
_atom_site_fract_y
_atom_site_fract_z
Si Si1 0.223310 0.932090 0.994508
Si Si2 0.061133 0.838224 0.726237
Si Si3 0.000000 0.500000 0.000000
Si Si4 0.338798 0.191601 0.334641
Si Si5 0.474802 0.856002 0.710445
Si Si6 0.182622 0.505250 0.440806
Si Si7 0.108675 0.228134 0.586693
Si Si8 0.429233 0.681599 0.115793
O O1 0.124713 0.908759 0.002395
O O2 0.313119 0.738629 0.044565
O O3 0.182579 0.028085 0.697806
O O4 0.262857 0.086071 0.186659
O O5 0.144871 0.687444 0.611499
O O6 0.977337 0.756327 0.704641
O O7 0.000000 0.000000 0.500000
O O8 0.892273 0.479361 0.859716
O O9 0.044963 0.336131 0.787256
O O10 0.410499 0.189635 0.171037
O O11 0.289636 0.403382 0.419513
O O12 0.413327 0.058882 0.585565
O O13 0.432250 0.829894 0.935309
O O14 0.463111 0.720342 0.441058
O O15 0.168460 0.346758 0.571901
O O16 0.500000 0.500000 0.000000
#
# Coordination Sequence:
#
# PCOD9077164 Si02
#       8
#     2   2   1   2   2   2   2   2
#     4  10  21  41  64  92 132 169 215 282 337 399
#     4   9  20  37  60  90 130 167 212 275 337 394
#     4  10  18  34  56  88 118 154 210 264 320 376
#     4  10  22  41  69  98 129 175 229 280 335 404
#     4  10  24  44  70 103 134 182 229 284 339 410
#     4  11  21  37  66  91 121 172 221 270 323 409
#     4  10  20  38  65  88 124 169 221 270 322 397
#     4  11  24  44  70 100 144 178 223 282 351 411
#
# _framework density 27.274629000000001
#
# number of rings (size 3 to 8) (size 9 to 14) (size 15 to 20)
#    0.000    1.867    1.333    2.800    1.867    5.867 
#    0.000    0.667   29.333    0.000    0.000    0.000 
#    0.000    0.000    0.000    0.000    0.000    0.000 
#
# Total GULP energy -83664.960551 kJ/mol
# GULP energy per Si atom -5577.664037 kJ/mol
# Density = 2.721255 g / cm^3
# Si number density = 27.274629 Si / 1000 Ang^3
#
#
#
# Elastic Constant Matrix: (Units=GPa)
#
#
# Indices 1 2 3 4 5 6 
#
# 1 79.7826 3.4375 29.8694 9.6088 23.8856 -16.9343
# 2 3.4375 130.3395 22.1372 10.9585 15.0691 -44.9439
# 3 29.8694 22.1372 111.6141 31.0644 6.7274 -15.8964
# 4 9.6088 10.9585 31.0644 33.9364 3.7270 -8.3383
# 5 23.8856 15.0691 6.7274 3.7270 41.4430 -2.4036
# 6 -16.9343 -44.9439 -15.8964 -8.3383 -2.4036 47.0097
#
#
#
# Elastic Compliance Matrix: (Units=1/GPa)
#
#
# Indices 1 2 3 4 5 6 
#
# 1 0.019425 0.004873 -0.004197 0.000447 -0.011763 0.009715
# 2 0.004873 0.013247 -0.001557 -0.000187 -0.006571 0.013525
# 3 -0.004197 -0.001557 0.013208 -0.010677 0.001782 -0.000337
# 4 0.000447 -0.000187 -0.010677 0.040218 -0.001875 0.003409
# 5 -0.011763 -0.006571 0.001782 -0.001875 0.032680 -0.008579
# 6 0.009715 0.013525 -0.000337 0.003409 -0.008579 0.037754
#
#
# Mechanical properties :
#
#
# Convention : Reuss Voigt Hill
#
# Bulk Modulus (GPa) = 22.66625 48.06938 35.36782
# Shear Modulus (GPa) = 28.90162 42.23063 35.56612
#
# Velocity S-wave (km/s) = 3.25876 3.93917 3.61501
# Velocity P-wave (km/s) = 4.74213 6.19289 5.51542
#
# Compressibility (1/GPa) = 0.04411845
#
# Stress axis : x y z
#
# Youngs Moduli (GPa) = 51.47979 75.48698 75.71354
#
# Poissons Ratio (x) = -0.36783 0.31774
# Poissons Ratio (y) = -0.25085 0.11788
# Poissons Ratio (z) = 0.21604 0.11753
#
# Static dielectric constant tensor:
#      x y z
#    x 2.825310 0.633370 -0.231240 
#    y 0.633370 2.589140 -0.181510 
#    z -0.231240 -0.181510 2.262870 
# 
# From -- ./inp_files/49438.got.cif
#   From: 2010.05.17/outbox.cif.g08.bks.cpg/sg2_25_cif.got.tgz:49438.got - 2010.06.03 11:33:40.
