data_PCOD9077735
_publ_section_title
;
Structure prediction by ZEFSAII (Michael W. Deem and Ramdas Pophale) SiO2 
 PCOD9077735
Probable space group: P -1
;
_chemical_formula_sum "Si O2"
_cell_formula_units_Z 15
_cell_length_a 14.023495
_cell_length_b 10.584538
_cell_length_c 9.563767
_cell_angle_alpha 101.492864
_cell_angle_beta 76.484330
_cell_angle_gamma 34.966612
_cell_volume 563.914977
_symmetry_space_group_name_H-M "P -1"
_symmetry_group_IT_number 2
_symmetry_cell_setting 'triclinic'
loop_
_space_group_symop_operation_xyz
x,y,z
-x,-y,-z
loop_
_atom_site_type_symbol
_atom_site_label
_atom_site_fract_x
_atom_site_fract_y
_atom_site_fract_z
Si Si1 0.000000 0.000000 0.500000
Si Si2 0.442521 0.297107 0.213899
Si Si3 0.384638 0.240076 0.490252
Si Si4 0.898806 0.698121 0.711337
Si Si5 0.880286 0.934021 0.087675
Si Si6 0.708956 0.395126 0.266076
Si Si7 0.706982 0.131694 0.684710
Si Si8 0.892968 0.444388 0.804848
O O1 0.226349 0.648687 0.411740
O O2 0.186778 0.858453 0.306816
O O3 0.453965 0.162024 0.287591
O O4 0.331716 0.369503 0.126445
O O5 0.684354 0.086786 0.105240
O O6 0.437081 0.322331 0.539412
O O7 0.113688 0.526459 0.652654
O O8 0.500000 0.000000 0.500000
O O9 0.846502 0.648224 0.827807
O O10 0.000000 0.500000 0.500000
O O11 0.718603 0.012064 0.773539
O O12 0.025961 0.674956 0.091077
O O13 0.761906 0.194378 0.272522
O O14 0.059718 0.802722 0.903151
O O15 0.549513 0.552608 0.221689
O O16 0.895482 0.864291 0.437301
#
# Coordination Sequence:
#
# PCOD9077735 Si02
#       8
#     1   2   2   2   2   2   2   2
#     4  10  18  34  64 100 120 162 214 284 318 368
#     4  11  22  40  68  98 130 167 228 281 326 390
#     4  12  23  39  70  98 126 170 224 281 328 386
#     4  10  18  38  61  97 126 156 213 280 332 379
#     4  11  25  47  61  95 144 178 216 264 338 408
#     4  11  26  42  65  95 134 181 215 268 335 406
#     4  10  19  37  65  91 128 158 222 276 321 377
#     4  10  22  40  69  96 127 174 222 279 333 381
#
# _framework density 26.599753
#
# number of rings (size 3 to 8) (size 9 to 14) (size 15 to 20)
#    0.000    1.333    5.333    3.200    3.733    1.067 
#    2.400    4.667    0.000    0.000    0.000    0.000 
#    0.000    0.000    0.000    0.000    0.000    0.000 
#
# Total GULP energy -83699.683014 kJ/mol
# GULP energy per Si atom -5579.978868 kJ/mol
# Density = 2.653921 g / cm^3
# Si number density = 26.599753 Si / 1000 Ang^3
#
#
#
# Elastic Constant Matrix: (Units=GPa)
#
#
# Indices 1 2 3 4 5 6 
#
# 1 135.7618 73.1428 37.6581 -3.3104 -36.7777 -3.5795
# 2 73.1428 189.7297 34.4438 8.1767 -33.6225 13.3833
# 3 37.6581 34.4438 90.8149 13.3967 -39.9968 -15.8403
# 4 -3.3104 8.1767 13.3967 21.9677 -13.7262 -15.5979
# 5 -36.7777 -33.6225 -39.9968 -13.7262 51.2709 9.3995
# 6 -3.5795 13.3833 -15.8403 -15.5979 9.3995 55.2108
#
#
#
# Elastic Compliance Matrix: (Units=1/GPa)
#
#
# Indices 1 2 3 4 5 6 
#
# 1 0.012204 -0.003816 -0.001358 0.011067 0.007575 0.003164
# 2 -0.003816 0.007548 -0.000794 -0.005077 0.000949 -0.003901
# 3 -0.001358 -0.000794 0.017556 -0.001613 0.011262 0.002768
# 4 0.011067 -0.005077 -0.001613 0.076728 0.020279 0.019710
# 5 0.007575 0.000949 0.011262 0.020279 0.039312 0.002529
# 6 0.003164 -0.003901 0.002768 0.019710 0.002529 0.025195
#
#
# Mechanical properties :
#
#
# Convention : Reuss Voigt Hill
#
# Bulk Modulus (GPa) = 39.41135 78.53287 58.97211
# Shear Modulus (GPa) = 25.13375 43.76065 34.44720
#
# Velocity S-wave (km/s) = 3.07724 4.06045 3.60254
# Velocity P-wave (km/s) = 5.24161 7.18129 6.28671
#
# Compressibility (1/GPa) = 0.02537340
#
# Stress axis : x y z
#
# Youngs Moduli (GPa) = 81.94268 132.48562 56.95966
#
# Poissons Ratio (x) = 0.50554 0.07733
# Poissons Ratio (y) = 0.31268 0.04521
# Poissons Ratio (z) = 0.11125 0.10517
#
# Static dielectric constant tensor:
#      x y z
#    x 2.462710 -0.034010 0.298380 
#    y -0.034010 2.042860 -0.092420 
#    z 0.298380 -0.092420 2.405690 
# 
# From -- ./inp_files/260942.got.cif
#   From: 2010.05.17/outbox.cif.g08.bks.cpg/sg2_131_cif.got.tgz:260942.got - 2010.06.03 11:33:40.
