data_PCOD9077123
_publ_section_title
;
Structure prediction by ZEFSAII (Michael W. Deem and Ramdas Pophale) SiO2 
 PCOD9077123
Probable space group: P -1
;
_chemical_formula_sum "Si O2"
_cell_formula_units_Z 12
_cell_length_a 9.235141
_cell_length_b 11.481717
_cell_length_c 16.436544
_cell_angle_alpha 150.210709
_cell_angle_beta 144.894063
_cell_angle_gamma 47.920577
_cell_volume 493.091799
_symmetry_space_group_name_H-M "P -1"
_symmetry_group_IT_number 2
_symmetry_cell_setting 'triclinic'
loop_
_space_group_symop_operation_xyz
x,y,z
-x,-y,-z
loop_
_atom_site_type_symbol
_atom_site_label
_atom_site_fract_x
_atom_site_fract_y
_atom_site_fract_z
Si Si1 0.752537 0.700062 0.221032
Si Si2 0.912686 0.826083 0.726330
Si Si3 0.653382 0.316908 0.258535
Si Si4 0.226054 0.374232 0.989867
Si Si5 0.779645 0.471247 0.580342
Si Si6 0.545872 0.145164 0.691052
O O1 0.679971 0.890129 0.368492
O O2 0.010568 0.603847 0.308720
O O3 0.500000 0.500000 0.000000
O O4 0.798719 0.783202 0.199289
O O5 0.746335 0.602333 0.466996
O O6 0.894868 0.724367 0.747307
O O7 0.187848 0.823440 0.814151
O O8 0.788361 0.058439 0.793555
O O9 0.367560 0.273245 0.069088
O O10 0.728389 0.289792 0.370214
O O11 0.403183 0.592940 0.161992
O O12 0.000000 0.500000 0.000000
O O13 0.500000 0.500000 0.500000
O O14 0.500000 0.000000 0.500000
#
# Coordination Sequence:
#
# PCOD9077123 Si02
#       6
#     2   2   2   2   2   2
#     4  10  22  36  58  87 117 152 191 240 296 346
#     4   9  18  33  60  80 103 148 204 225 266 342
#     4   9  18  36  60  79 111 157 195 221 291 359
#     4  11  22  39  58  86 122 153 183 246 308 334
#     4  10  18  34  56  82 111 151 191 231 286 346
#     4  11  19  37  61  87 111 153 204 236 272 354
#
# _framework density 24.33624
#
# number of rings (size 3 to 8) (size 9 to 14) (size 15 to 20)
#    1.000    1.000    1.667    4.000    0.000    0.000 
#    0.000   13.333    0.000    0.000    0.000    0.000 
#    0.000    0.000    0.000    0.000    0.000    0.000 
#
# Total GULP energy -66878.409679 kJ/mol
# GULP energy per Si atom -5573.200807 kJ/mol
# Density = 2.428085 g / cm^3
# Si number density = 24.336240 Si / 1000 Ang^3
#
#
#
# Elastic Constant Matrix: (Units=GPa)
#
#
# Indices 1 2 3 4 5 6 
#
# 1 114.3202 -7.0364 37.7956 -11.3693 -14.6437 -22.7696
# 2 -7.0364 71.2022 23.2886 -29.4542 8.9466 0.4329
# 3 37.7956 23.2886 55.8623 -18.4568 0.4969 1.7337
# 4 -11.3693 -29.4542 -18.4568 45.6677 -1.4675 7.4534
# 5 -14.6437 8.9466 0.4969 -1.4675 27.1848 -4.9976
# 6 -22.7696 0.4329 1.7337 7.4534 -4.9976 41.6220
#
#
#
# Elastic Compliance Matrix: (Units=1/GPa)
#
#
# Indices 1 2 3 4 5 6 
#
# 1 0.017261 0.005202 -0.014131 0.000450 0.009907 0.011086
# 2 0.005202 0.023131 -0.009045 0.012384 -0.003923 0.000293
# 3 -0.014131 -0.009045 0.033534 0.005757 -0.006940 -0.010897
# 4 0.000450 0.012384 0.005757 0.033274 -0.003334 -0.006481
# 5 0.009907 -0.003923 -0.006940 -0.003334 0.045531 0.011813
# 6 0.011086 0.000293 -0.010897 -0.006481 0.011813 0.033120
#
#
# Mechanical properties :
#
#
# Convention : Reuss Voigt Hill
#
# Bulk Modulus (GPa) = 26.33041 38.83115 32.58078
# Shear Modulus (GPa) = 21.32559 35.38404 28.35482
#
# Velocity S-wave (km/s) = 2.96343 3.81723 3.41710
# Velocity P-wave (km/s) = 4.74891 5.95139 5.38383
#
# Compressibility (1/GPa) = 0.03797890
#
# Stress axis : x y z
#
# Youngs Moduli (GPa) = 57.93385 43.23181 29.82007
#
# Poissons Ratio (x) = -0.22488 0.42137
# Poissons Ratio (y) = -0.30135 0.26972
# Poissons Ratio (z) = 0.81864 0.39103
#
# Static dielectric constant tensor:
#      x y z
#    x 1.985040 -0.017670 -0.103950 
#    y -0.017670 1.960660 0.064940 
#    z -0.103950 0.064940 2.192910 
# 
# From -- ./inp_files/155980.got.cif
#   From: 2010.05.17/outbox.cif.g08.bks.cpg/sg2_78_cif.got.tgz:155980.got - 2010.06.03 11:33:40.
