data_PCOD9077755
_publ_section_title
;
Structure prediction by ZEFSAII (Michael W. Deem and Ramdas Pophale) SiO2 
 PCOD9077755
Probable space group: P -1
;
_chemical_formula_sum "Si O2"
_cell_formula_units_Z 16
_cell_length_a 8.018388
_cell_length_b 24.451196
_cell_length_c 19.531139
_cell_angle_alpha 168.343759
_cell_angle_beta 125.656422
_cell_angle_gamma 54.086507
_cell_volume 625.753469
_symmetry_space_group_name_H-M "P -1"
_symmetry_group_IT_number 2
_symmetry_cell_setting 'triclinic'
loop_
_space_group_symop_operation_xyz
x,y,z
-x,-y,-z
loop_
_atom_site_type_symbol
_atom_site_label
_atom_site_fract_x
_atom_site_fract_y
_atom_site_fract_z
Si Si1 0.651168 0.678777 0.456942
Si Si2 0.274081 0.400596 0.824670
Si Si3 0.984484 0.028533 0.113107
Si Si4 0.207947 0.647348 0.260231
Si Si5 0.288823 0.402304 0.234337
Si Si6 0.088839 0.256532 0.871786
Si Si7 0.932962 0.115490 0.832472
Si Si8 0.367238 0.279993 0.331527
O O1 0.786223 0.905656 0.736184
O O2 0.436098 0.725138 0.424030
O O3 0.616739 0.696621 0.553058
O O4 0.778417 0.384354 0.116388
O O5 0.214255 0.093894 0.424509
O O6 0.500000 0.500000 0.000000
O O7 0.206819 0.506272 0.014143
O O8 0.123633 0.571908 0.946593
O O9 0.841114 0.302162 0.432894
O O10 0.000000 0.000000 0.000000
O O11 0.870380 0.780555 0.811892
O O12 0.183825 0.433108 0.052129
O O13 0.034569 0.902351 0.538274
O O14 0.524837 0.480713 0.388525
O O15 0.249097 0.270221 0.988767
O O16 0.157087 0.231286 0.046967
O O17 0.000000 0.000000 0.500000
O O18 0.500000 0.000000 0.000000
#
# Coordination Sequence:
#
# PCOD9077755 Si02
#       8
#     2   2   2   2   2   2   2   2
#     4  10  20  36  66  91 118 168 204 244 316 370
#     4  11  26  40  57  87 126 167 205 265 304 351
#     4   8  17  32  56  91 122 149 201 257 299 364
#     4  11  23  42  59  88 128 166 204 256 308 358
#     4  10  18  34  64  91 116 168 202 245 312 368
#     4  11  22  38  61  89 125 161 211 247 304 373
#     4  10  23  40  59  89 127 160 208 255 300 363
#     4   9  17  34  63  97 120 156 208 251 311 372
#
# _framework density 25.569175999999999
#
# number of rings (size 3 to 8) (size 9 to 14) (size 15 to 20)
#    0.000    2.000    1.250    3.000    5.250    1.500 
#    0.000    0.000    0.000   28.500    0.000    0.000 
#    0.000    0.000    0.000    0.000    0.000    0.000 
#
# Total GULP energy -89086.654039 kJ/mol
# GULP energy per Si atom -5567.915877 kJ/mol
# Density = 2.551098 g / cm^3
# Si number density = 25.569176 Si / 1000 Ang^3
#
#
#
# Elastic Constant Matrix: (Units=GPa)
#
#
# Indices 1 2 3 4 5 6 
#
# 1 149.0325 44.4629 77.8895 -16.1469 29.7341 -12.3717
# 2 44.4629 43.9926 52.5604 -8.2454 2.2337 -4.7312
# 3 77.8895 52.5604 160.5694 -8.7970 15.7980 -21.6016
# 4 -16.1469 -8.2454 -8.7970 33.3610 -22.7711 0.6860
# 5 29.7341 2.2337 15.7980 -22.7711 70.9496 -32.3254
# 6 -12.3717 -4.7312 -21.6016 0.6860 -32.3254 61.1123
#
#
#
# Elastic Compliance Matrix: (Units=1/GPa)
#
#
# Indices 1 2 3 4 5 6 
#
# 1 0.011333 -0.008538 -0.002501 -0.000653 -0.004992 -0.001884
# 2 -0.008538 0.046285 -0.010964 0.010663 0.009235 0.002744
# 3 -0.002501 -0.010964 0.011330 -0.001275 -0.000428 0.002438
# 4 -0.000653 0.010663 -0.001275 0.044772 0.019068 0.009826
# 5 -0.004992 0.009235 -0.000428 0.019068 0.028735 0.014538
# 6 -0.001884 0.002744 0.002438 0.009826 0.014538 0.024636
#
#
# Mechanical properties :
#
#
# Convention : Reuss Voigt Hill
#
# Bulk Modulus (GPa) = 40.09303 78.15778 59.12540
# Shear Modulus (GPa) = 22.78844 44.99670 33.89257
#
# Velocity S-wave (km/s) = 2.98861 4.19955 3.64472
# Velocity P-wave (km/s) = 5.25579 7.35857 6.39421
#
# Compressibility (1/GPa) = 0.02494199
#
# Stress axis : x y z
#
# Youngs Moduli (GPa) = 88.23863 21.60540 88.25988
#
# Poissons Ratio (x) = 0.18446 0.22071
# Poissons Ratio (y) = 0.75336 0.96772
# Poissons Ratio (z) = 0.22066 0.23689
#
# Static dielectric constant tensor:
#      x y z
#    x 2.135040 0.003380 0.090570 
#    y 0.003380 1.996730 -0.020780 
#    z 0.090570 -0.020780 2.129330 
# 
# From -- ./inp_files/608854.got.cif
#   From: 2010.05.17/outbox.cif.g08.bks.cpg/sg2_305_cif.got.tgz:608854.got - 2010.06.03 11:33:40.
