data_PCOD9077561
_publ_section_title
;
Structure prediction by ZEFSAII (Michael W. Deem and Ramdas Pophale) SiO2 
 PCOD9077561
Probable space group: P -1
;
_chemical_formula_sum "Si O2"
_cell_formula_units_Z 15
_cell_length_a 9.915406
_cell_length_b 9.495529
_cell_length_c 13.829521
_cell_angle_alpha 98.695591
_cell_angle_beta 105.868597
_cell_angle_gamma 134.477019
_cell_volume 774.248481
_symmetry_space_group_name_H-M "P -1"
_symmetry_group_IT_number 2
_symmetry_cell_setting 'triclinic'
loop_
_space_group_symop_operation_xyz
x,y,z
-x,-y,-z
loop_
_atom_site_type_symbol
_atom_site_label
_atom_site_fract_x
_atom_site_fract_y
_atom_site_fract_z
Si Si1 0.305110 0.922516 0.164388
Si Si2 0.894979 0.170086 0.091681
Si Si3 0.664044 0.736511 0.115008
Si Si4 0.193522 0.649828 0.759179
Si Si5 0.000000 0.500000 0.500000
Si Si6 0.341037 0.986490 0.524976
Si Si7 0.968996 0.181897 0.725578
Si Si8 0.624830 0.343562 0.783066
O O1 0.197695 0.928837 0.229163
O O2 0.292204 0.747041 0.175273
O O3 0.562128 0.167894 0.221267
O O4 0.176576 0.849540 0.032691
O O5 0.809599 0.227391 0.151469
O O6 0.163733 0.388381 0.169090
O O7 0.781408 0.936617 0.083370
O O8 0.522545 0.709807 0.164731
O O9 0.859711 0.807821 0.217219
O O10 0.500000 0.500000 0.000000
O O11 0.023108 0.541736 0.626947
O O12 0.117613 0.443017 0.771896
O O13 0.816509 0.227745 0.456243
O O14 0.183845 0.944615 0.413449
O O15 0.500000 0.000000 0.500000
O O16 0.488443 0.206282 0.643826
#
# Coordination Sequence:
#
# PCOD9077561 Si02
#       8
#     2   2   2   2   1   2   2   2
#     4  12  22  39  67  97 124 172 222 269 317 386
#     4  12  25  40  68  94 130 173 226 267 327 389
#     4  12  28  46  61  96 140 176 214 272 332 392
#     4  11  21  38  67  98 122 170 221 271 320 384
#     4  10  18  34  60  94 130 154 206 266 326 368
#     4  11  20  41  68 100 128 166 218 278 318 386
#     4  11  25  41  67  99 134 168 218 271 328 385
#     4  12  24  42  68  96 131 173 220 271 330 386
#
# _framework density 19.373626999999999
#
# number of rings (size 3 to 8) (size 9 to 14) (size 15 to 20)
#    0.000    0.533    5.333    3.200    1.867    3.733 
#    0.000    0.667    0.000    0.000    0.000    0.000 
#    0.000    0.000    0.000    0.000    0.000    0.000 
#
# Total GULP energy -83617.895735 kJ/mol
# GULP energy per Si atom -5574.526382 kJ/mol
# Density = 1.932953 g / cm^3
# Si number density = 19.373627 Si / 1000 Ang^3
#
#
#
# Elastic Constant Matrix: (Units=GPa)
#
#
# Indices 1 2 3 4 5 6 
#
# 1 63.6325 17.4959 22.4593 -0.7255 9.6359 10.8332
# 2 17.4959 107.1610 32.9889 17.0044 3.9343 12.0607
# 3 22.4593 32.9889 126.7455 12.2872 4.1124 -8.5885
# 4 -0.7255 17.0044 12.2872 31.0674 -2.0482 0.5260
# 5 9.6359 3.9343 4.1124 -2.0482 25.6363 -1.7415
# 6 10.8332 12.0607 -8.5885 0.5260 -1.7415 30.6263
#
#
#
# Elastic Compliance Matrix: (Units=1/GPa)
#
#
# Indices 1 2 3 4 5 6 
#
# 1 0.019832 -0.001308 -0.003712 0.002320 -0.007015 -0.007980
# 2 -0.001308 0.011834 -0.002593 -0.005510 -0.001683 -0.004926
# 3 -0.003712 -0.002593 0.009813 -0.002612 0.000360 0.005152
# 4 0.002320 -0.005510 -0.002612 0.036507 0.003321 0.000179
# 5 -0.007015 -0.001683 0.000360 0.003321 0.042490 0.005604
# 6 -0.007980 -0.004926 0.005152 0.000179 0.005604 0.039174
#
#
# Mechanical properties :
#
#
# Convention : Reuss Voigt Hill
#
# Bulk Modulus (GPa) = 38.09034 49.26967 43.68000
# Shear Modulus (GPa) = 27.22889 32.43899 29.83394
#
# Velocity S-wave (km/s) = 3.75302 4.09637 3.92845
# Velocity P-wave (km/s) = 6.20353 6.91810 6.57054
#
# Compressibility (1/GPa) = 0.02625338
#
# Stress axis : x y z
#
# Youngs Moduli (GPa) = 50.42322 84.50118 101.90387
#
# Poissons Ratio (x) = 0.11050 0.37825
# Poissons Ratio (y) = 0.06594 0.26429
# Poissons Ratio (z) = 0.18716 0.21915
#
# Static dielectric constant tensor:
#      x y z
#    x 1.647090 -0.015660 -0.019550 
#    y -0.015660 1.625640 -0.062130 
#    z -0.019550 -0.062130 1.502340 
# 
# From -- ./inp_files/188202.got.cif
#   From: 2010.05.17/outbox.cif.g08.bks.cpg/sg2_95_cif.got.tgz:188202.got - 2010.06.03 11:33:40.
