data_PCOD9077701
_publ_section_title
;
Structure prediction by ZEFSAII (Michael W. Deem and Ramdas Pophale) SiO2 
 PCOD9077701
Probable space group: P -1
;
_chemical_formula_sum "Si O2"
_cell_formula_units_Z 14
_cell_length_a 8.803573
_cell_length_b 8.765749
_cell_length_c 11.208374
_cell_angle_alpha 116.758600
_cell_angle_beta 97.491515
_cell_angle_gamma 114.076063
_cell_volume 650.712893
_symmetry_space_group_name_H-M "P -1"
_symmetry_group_IT_number 2
_symmetry_cell_setting 'triclinic'
loop_
_space_group_symop_operation_xyz
x,y,z
-x,-y,-z
loop_
_atom_site_type_symbol
_atom_site_label
_atom_site_fract_x
_atom_site_fract_y
_atom_site_fract_z
Si Si1 0.360430 0.076241 0.627239
Si Si2 0.859920 0.885129 0.551620
Si Si3 0.797659 0.948526 0.932869
Si Si4 0.244109 0.702386 0.328441
Si Si5 0.953571 0.247591 0.867351
Si Si6 0.307241 0.402943 0.382001
Si Si7 0.675207 0.720036 0.074261
O O1 0.329575 0.197914 0.563388
O O2 0.570346 0.153686 0.674776
O O3 0.302171 0.136304 0.762240
O O4 0.247698 0.848618 0.485250
O O5 0.842750 0.706848 0.566486
O O6 0.891630 0.054968 0.707476
O O7 0.000000 0.000000 0.500000
O O8 0.708935 0.769207 0.766182
O O9 0.834818 0.150224 0.940485
O O10 0.684443 0.849661 0.006060
O O11 0.000000 0.000000 0.000000
O O12 0.091037 0.623439 0.181919
O O13 0.260332 0.535525 0.341164
O O14 0.161158 0.320265 0.935176
O O15 0.500000 0.500000 0.500000
O O16 0.500000 0.500000 0.000000
#
# Coordination Sequence:
#
# PCOD9077701 Si02
#       7
#     2   2   2   2   2   2   2
#     4  10  20  36  60  91 128 160 200 257 318 357
#     4  10  18  34  63  85 117 156 198 252 305 360
#     4   9  21  40  62  88 120 172 207 241 314 393
#     4  10  21  38  64  94 124 160 208 265 314 358
#     4   9  20  39  64  84 123 164 205 248 312 371
#     4  11  21  37  67  94 116 162 220 259 296 381
#     4  11  21  37  65  92 123 166 214 251 302 382
#
# _framework density 21.514863999999999
#
# number of rings (size 3 to 8) (size 9 to 14) (size 15 to 20)
#    0.000    2.000    2.857    0.857    2.000    0.000 
#    0.000   10.000    3.143    0.000    0.000    0.000 
#    0.000    0.000    0.000    0.000    0.000    0.000 
#
# Total GULP energy -77948.167278 kJ/mol
# GULP energy per Si atom -5567.726234 kJ/mol
# Density = 2.146590 g / cm^3
# Si number density = 21.514864 Si / 1000 Ang^3
#
#
#
# Elastic Constant Matrix: (Units=GPa)
#
#
# Indices 1 2 3 4 5 6 
#
# 1 55.3084 38.0459 11.0631 -5.9006 5.3878 5.1031
# 2 38.0459 158.1341 37.5907 -29.6256 3.3368 5.7836
# 3 11.0631 37.5907 67.5019 -5.4939 11.5391 9.1824
# 4 -5.9006 -29.6256 -5.4939 27.6660 -5.0733 -3.3453
# 5 5.3878 3.3368 11.5391 -5.0733 35.0986 -4.7317
# 6 5.1031 5.7836 9.1824 -3.3453 -4.7317 32.2186
#
#
#
# Elastic Compliance Matrix: (Units=1/GPa)
#
#
# Indices 1 2 3 4 5 6 
#
# 1 0.022371 -0.005734 0.000461 -0.002403 -0.003854 -0.003461
# 2 -0.005734 0.010616 -0.004970 0.009979 0.003207 0.001926
# 3 0.000461 -0.004970 0.019298 -0.003463 -0.007267 -0.006108
# 4 -0.002403 0.009979 -0.003463 0.047840 0.008249 0.005755
# 5 -0.003854 0.003207 -0.007267 0.008249 0.033420 0.007871
# 6 -0.003461 0.001926 -0.006108 0.005755 0.007871 0.034734
#
#
# Mechanical properties :
#
#
# Convention : Reuss Voigt Hill
#
# Bulk Modulus (GPa) = 31.44827 50.48264 40.96546
# Shear Modulus (GPa) = 25.07943 31.94631 28.51287
#
# Velocity S-wave (km/s) = 3.41791 3.85755 3.64437
# Velocity P-wave (km/s) = 5.49771 6.58453 6.06551
#
# Compressibility (1/GPa) = 0.03179825
#
# Stress axis : x y z
#
# Youngs Moduli (GPa) = 44.70043 94.19488 51.81904
#
# Poissons Ratio (x) = 0.54012 -0.02388
# Poissons Ratio (y) = 0.25632 0.25756
# Poissons Ratio (z) = -0.02060 0.46818
#
# Static dielectric constant tensor:
#      x y z
#    x 1.859120 -0.012520 0.031390 
#    y -0.012520 1.870790 -0.010250 
#    z 0.031390 -0.010250 1.801430 
# 
# From -- ./inp_files/382981.got.cif
#   From: 2010.05.17/outbox.cif.g08.bks.cpg/sg2_192_cif.got.tgz:382981.got - 2010.06.03 11:33:40.
