data_PCOD9077495
_publ_section_title
;
Structure prediction by ZEFSAII (Michael W. Deem and Ramdas Pophale) SiO2 
 PCOD9077495
Probable space group: P -1
;
_chemical_formula_sum "Si O2"
_cell_formula_units_Z 16
_cell_length_a 9.510028
_cell_length_b 12.182047
_cell_length_c 11.325297
_cell_angle_alpha 47.886995
_cell_angle_beta 124.758324
_cell_angle_gamma 99.279772
_cell_volume 745.181915
_symmetry_space_group_name_H-M "P -1"
_symmetry_group_IT_number 2
_symmetry_cell_setting 'triclinic'
loop_
_space_group_symop_operation_xyz
x,y,z
-x,-y,-z
loop_
_atom_site_type_symbol
_atom_site_label
_atom_site_fract_x
_atom_site_fract_y
_atom_site_fract_z
Si Si1 0.155529 0.506997 0.478337
Si Si2 0.240400 0.103594 0.216312
Si Si3 0.063315 0.134973 0.881878
Si Si4 0.925370 0.257250 0.120149
Si Si5 0.485138 0.580888 0.134065
Si Si6 0.956333 0.087762 0.620798
Si Si7 0.429812 0.323576 0.138658
Si Si8 0.037718 0.607723 0.724714
O O1 0.097321 0.695367 0.299609
O O2 0.350297 0.431703 0.690025
O O3 0.000000 0.500000 0.500000
O O4 0.118861 0.425144 0.401452
O O5 0.047224 0.233640 0.078546
O O6 0.398226 0.167544 0.281622
O O7 0.212709 0.947768 0.370065
O O8 0.232846 0.117958 0.060402
O O9 0.089663 0.100748 0.780934
O O10 0.000000 0.000000 0.000000
O O11 0.009254 0.335905 0.204256
O O12 0.951629 0.073864 0.291935
O O13 0.710687 0.356931 0.939834
O O14 0.476131 0.689305 0.935340
O O15 0.513094 0.410462 0.211084
O O16 0.915128 0.247959 0.414813
O O17 0.224392 0.454565 0.922170
#
# Coordination Sequence:
#
# PCOD9077495 Si02
#       8
#     2   2   2   2   2   2   2   2
#     4  12  20  35  62  88 106 154 207 240 277 342
#     4   9  19  36  60  85 111 156 196 220 299 346
#     4  10  18  34  60  86 111 148 202 238 275 344
#     4   9  22  37  59  87 124 153 185 240 305 338
#     4  10  21  35  57  91 120 144 197 247 289 335
#     4   9  19  34  60  88 115 151 200 239 277 351
#     4  10  19  36  62  86 112 154 197 243 282 340
#     4  11  19  34  62  90 111 152 206 238 273 353
#
# _framework density 21.471267000000001
#
# number of rings (size 3 to 8) (size 9 to 14) (size 15 to 20)
#    0.750    1.250    3.750    0.375    0.000    2.000 
#    0.000    1.250    0.000   21.750    0.000    0.000 
#    0.000    0.000    0.000    0.000    0.000    0.000 
#
# Total GULP energy -89168.981611 kJ/mol
# GULP energy per Si atom -5573.061351 kJ/mol
# Density = 2.142240 g / cm^3
# Si number density = 21.471267 Si / 1000 Ang^3
#
#
#
# Elastic Constant Matrix: (Units=GPa)
#
#
# Indices 1 2 3 4 5 6 
#
# 1 52.6712 28.9537 23.0413 3.1588 5.5606 15.0515
# 2 28.9537 129.5122 37.7163 15.1874 12.0121 15.4533
# 3 23.0413 37.7163 70.5332 -5.0643 -0.5542 10.0788
# 4 3.1588 15.1874 -5.0643 42.1265 17.9378 -2.2483
# 5 5.5606 12.0121 -0.5542 17.9378 30.4098 0.9206
# 6 15.0515 15.4533 10.0788 -2.2483 0.9206 28.6105
#
#
#
# Elastic Compliance Matrix: (Units=1/GPa)
#
#
# Indices 1 2 3 4 5 6 
#
# 1 0.026281 -0.002536 -0.005844 -0.001044 -0.002980 -0.010384
# 2 -0.002536 0.010582 -0.004683 -0.003694 -0.001533 -0.002973
# 3 -0.005844 -0.004683 0.018998 0.003962 0.000952 -0.000808
# 4 -0.001044 -0.003694 0.003962 0.033627 -0.018246 0.004378
# 5 -0.002980 -0.001533 0.000952 -0.018246 0.044839 -0.000816
# 6 -0.010384 -0.002973 -0.000808 0.004378 -0.000816 0.042676
#
#
# Mechanical properties :
#
#
# Convention : Reuss Voigt Hill
#
# Bulk Modulus (GPa) = 33.62884 48.01546 40.82215
# Shear Modulus (GPa) = 23.46989 31.09638 27.28314
#
# Velocity S-wave (km/s) = 3.30977 3.80975 3.56853
# Velocity P-wave (km/s) = 5.50476 6.46247 6.00274
#
# Compressibility (1/GPa) = 0.02973638
#
# Stress axis : x y z
#
# Youngs Moduli (GPa) = 38.05101 94.50169 52.63683
#
# Poissons Ratio (x) = 0.23962 0.30760
# Poissons Ratio (y) = 0.09648 0.24647
# Poissons Ratio (z) = 0.22237 0.44251
#
# Static dielectric constant tensor:
#      x y z
#    x 1.742200 0.049180 -0.018230 
#    y 0.049180 1.808720 0.017520 
#    z -0.018230 0.017520 1.833450 
# 
# From -- ./inp_files/420697.got.cif
#   From: 2010.05.17/outbox.cif.g08.bks.cpg/sg2_211_cif.got.tgz:420697.got - 2010.06.03 11:33:40.
