data_PCOD9077930
_publ_section_title
;
Structure prediction by ZEFSAII (Michael W. Deem and Ramdas Pophale) SiO2 
 PCOD9077930
Probable space group: P -1
;
_chemical_formula_sum "Si O2"
_cell_formula_units_Z 16
_cell_length_a 15.275402
_cell_length_b 12.453385
_cell_length_c 15.104331
_cell_angle_alpha 27.054530
_cell_angle_beta 28.900712
_cell_angle_gamma 38.850720
_cell_volume 631.605429
_symmetry_space_group_name_H-M "P -1"
_symmetry_group_IT_number 2
_symmetry_cell_setting 'triclinic'
loop_
_space_group_symop_operation_xyz
x,y,z
-x,-y,-z
loop_
_atom_site_type_symbol
_atom_site_label
_atom_site_fract_x
_atom_site_fract_y
_atom_site_fract_z
Si Si1 0.748930 0.570786 0.475593
Si Si2 0.718303 0.089054 0.492962
Si Si3 0.123515 0.109819 0.121779
Si Si4 0.348869 0.564969 0.867979
Si Si5 0.295397 0.602240 0.543546
Si Si6 0.335604 0.923730 0.918119
Si Si7 0.905440 0.257627 0.881433
Si Si8 0.635083 0.784214 0.026454
O O1 0.562398 0.560828 0.702270
O O2 0.769263 0.387680 0.510379
O O3 0.716864 0.823142 0.267360
O O4 0.921477 0.575120 0.382322
O O5 0.694923 0.282854 0.292854
O O6 0.715053 0.206874 0.507931
O O7 0.552125 0.915637 0.741815
O O8 0.924601 0.013979 0.352671
O O9 0.173992 0.377302 0.847429
O O10 0.261100 0.947382 0.065399
O O11 0.177157 0.141215 0.152138
O O12 0.321050 0.304638 0.044453
O O13 0.228093 0.670486 0.973750
O O14 0.513537 0.595249 0.331205
O O15 0.220247 0.745408 0.091597
O O16 0.000000 0.000000 0.000000
O O17 0.500000 0.000000 0.000000
#
# Coordination Sequence:
#
# PCOD9077930 Si02
#       8
#     2   2   2   2   2   2   2   2
#     4   8  18  28  49  77 114 151 177 225 289 338
#     4  11  19  30  58  89 112 148 192 232 300 341
#     4  11  20  34  60  85 115 151 188 239 296 343
#     4  10  20  33  54  83 117 151 186 239 291 334
#     4  10  18  35  56  84 118 143 187 241 285 345
#     4   9  19  31  48  80 117 148 178 238 277 342
#     4  10  19  33  50  82 123 149 189 230 292 342
#     4  11  23  38  58  85 121 157 190 236 293 349
#
# _framework density 25.332270999999999
#
# number of rings (size 3 to 8) (size 9 to 14) (size 15 to 20)
#    0.000    2.000    2.500    3.750    1.750    5.500 
#    0.000    0.625    0.000    0.750    0.000    4.375 
#    0.000    0.000    0.000    0.000    0.000    0.000 
#
# Total GULP energy -89245.220603 kJ/mol
# GULP energy per Si atom -5577.826288 kJ/mol
# Density = 2.527461 g / cm^3
# Si number density = 25.332271 Si / 1000 Ang^3
#
#
#
# Elastic Constant Matrix: (Units=GPa)
#
#
# Indices 1 2 3 4 5 6 
#
# 1 136.4254 38.6051 76.1768 1.5237 -45.2799 20.4209
# 2 38.6051 97.2324 40.6867 19.0760 0.3122 23.2154
# 3 76.1768 40.6867 105.2812 15.3692 -38.2036 6.2613
# 4 1.5237 19.0760 15.3692 34.7680 -8.7877 0.9677
# 5 -45.2799 0.3122 -38.2036 -8.7877 64.2878 -0.7982
# 6 20.4209 23.2154 6.2613 0.9677 -0.7982 33.5948
#
#
#
# Elastic Compliance Matrix: (Units=1/GPa)
#
#
# Indices 1 2 3 4 5 6 
#
# 1 0.016124 -0.002497 -0.008725 0.006467 0.006987 -0.006469
# 2 -0.002497 0.017497 -0.005473 -0.008416 -0.006364 -0.009462
# 3 -0.008725 -0.005473 0.020166 -0.004334 0.005342 0.005579
# 4 0.006467 -0.008416 -0.004334 0.036748 0.007065 0.001802
# 5 0.006987 -0.006364 0.005342 0.007065 0.024642 -0.000463
# 6 -0.006469 -0.009462 0.005579 0.001802 -0.000463 0.039135
#
#
# Mechanical properties :
#
#
# Convention : Reuss Voigt Hill
#
# Bulk Modulus (GPa) = 49.02922 72.20845 60.61884
# Shear Modulus (GPa) = 25.70678 38.76148 32.23413
#
# Velocity S-wave (km/s) = 3.18902 3.91592 3.57102
# Velocity P-wave (km/s) = 5.74076 7.00088 6.40190
#
# Compressibility (1/GPa) = 0.02039600
#
# Stress axis : x y z
#
# Youngs Moduli (GPa) = 62.01989 57.15222 49.58861
#
# Poissons Ratio (x) = 0.14272 0.43267
# Poissons Ratio (y) = 0.15488 0.27140
# Poissons Ratio (z) = 0.54114 0.31280
#
# Static dielectric constant tensor:
#      x y z
#    x 2.066640 -0.061630 0.082020 
#    y -0.061630 2.035850 -0.137690 
#    z 0.082020 -0.137690 2.105780 
# 
# From -- ./inp_files/532310.got.cif
#   From: 2010.05.17/outbox.cif.g08.bks.cpg/sg2_267_cif.got.tgz:532310.got - 2010.06.03 11:33:40.
