data_PCOD9077275
_publ_section_title
;
Structure prediction by ZEFSAII (Michael W. Deem and Ramdas Pophale) SiO2 
 PCOD9077275
Probable space group: P -1
;
_chemical_formula_sum "Si O2"
_cell_formula_units_Z 15
_cell_length_a 7.903867
_cell_length_b 14.580363
_cell_length_c 7.701025
_cell_angle_alpha 127.838707
_cell_angle_beta 98.576652
_cell_angle_gamma 104.962633
_cell_volume 619.676824
_symmetry_space_group_name_H-M "P -1"
_symmetry_group_IT_number 2
_symmetry_cell_setting 'triclinic'
loop_
_space_group_symop_operation_xyz
x,y,z
-x,-y,-z
loop_
_atom_site_type_symbol
_atom_site_label
_atom_site_fract_x
_atom_site_fract_y
_atom_site_fract_z
Si Si1 0.293347 0.198549 0.163538
Si Si2 0.108339 0.775083 0.632249
Si Si3 0.321647 0.415713 0.641197
Si Si4 0.023351 0.127251 0.752241
Si Si5 0.000000 0.000000 0.000000
Si Si6 0.656503 0.148927 0.586244
Si Si7 0.441578 0.905658 0.049278
Si Si8 0.562191 0.692188 0.126709
O O1 0.348861 0.342956 0.391625
O O2 0.233233 0.100441 0.201749
O O3 0.072152 0.121897 0.960483
O O4 0.431123 0.171136 0.031151
O O5 0.240450 0.778784 0.494809
O O6 0.907726 0.647821 0.449218
O O7 0.228839 0.797347 0.853064
O O8 0.065486 0.899778 0.769915
O O9 0.405635 0.364874 0.752520
O O10 0.426364 0.569402 0.846492
O O11 0.224519 0.238939 0.843855
O O12 0.839698 0.149653 0.715552
O O13 0.000000 0.000000 0.500000
O O14 0.546394 0.221307 0.743484
O O15 0.510321 0.004327 0.332683
O O16 0.500000 0.000000 0.000000
#
# Coordination Sequence:
#
# PCOD9077275 Si02
#       8
#     2   2   2   2   1   2   2   2
#     4  11  22  39  66  91 131 172 215 272 331 382
#     4  10  19  34  65  96 129 163 219 276 328 372
#     4  10  23  45  68  97 127 180 224 276 315 391
#     4  12  25  46  65  99 140 175 208 277 341 392
#     4  10  18  34  60  92 122 162 216 266 320 380
#     4  11  22  41  65  99 135 172 212 276 331 397
#     4  10  18  34  57  99 124 158 212 273 326 375
#     4  11  26  45  68  96 134 174 230 264 329 394
#
# _framework density 24.206166
#
# number of rings (size 3 to 8) (size 9 to 14) (size 15 to 20)
#    0.000    1.333    5.333    1.600    3.733    2.667 
#    7.200    0.667    0.000    0.000    0.000    0.000 
#    0.000    0.000    0.000    0.000    0.000    0.000 
#
# Total GULP energy -83737.264188 kJ/mol
# GULP energy per Si atom -5582.484279 kJ/mol
# Density = 2.415107 g / cm^3
# Si number density = 24.206166 Si / 1000 Ang^3
#
#
#
# Elastic Constant Matrix: (Units=GPa)
#
#
# Indices 1 2 3 4 5 6 
#
# 1 201.1410 50.4679 94.5137 13.1526 1.8186 7.0561
# 2 50.4679 74.3577 59.2215 3.7883 -3.5939 2.1452
# 3 94.5137 59.2215 220.1489 23.6957 8.8967 11.0192
# 4 13.1526 3.7883 23.6957 51.8041 6.3254 7.1637
# 5 1.8186 -3.5939 8.8967 6.3254 52.7262 -11.4056
# 6 7.0561 2.1452 11.0192 7.1637 -11.4056 36.6829
#
#
#
# Elastic Compliance Matrix: (Units=1/GPa)
#
#
# Indices 1 2 3 4 5 6 
#
# 1 0.006696 -0.002912 -0.002011 -0.000488 -0.000131 -0.000459
# 2 -0.002912 0.018641 -0.003997 0.000767 0.002215 0.001210
# 3 -0.002011 -0.003997 0.006823 -0.001934 -0.001447 -0.001501
# 4 -0.000488 0.000767 -0.001934 0.021259 -0.003127 -0.004494
# 5 -0.000131 0.002215 -0.001447 -0.003127 0.021382 0.007589
# 6 -0.000459 0.001210 -0.001501 -0.004494 0.007589 0.030967
#
#
# Mechanical properties :
#
#
# Convention : Reuss Voigt Hill
#
# Bulk Modulus (GPa) = 69.82745 100.45042 85.13894
# Shear Modulus (GPa) = 38.94653 47.67228 43.30940
#
# Velocity S-wave (km/s) = 4.01552 4.44264 4.23447
# Velocity P-wave (km/s) = 7.09992 8.24039 7.69132
#
# Compressibility (1/GPa) = 0.01432101
#
# Stress axis : x y z
#
# Youngs Moduli (GPa) = 149.33811 53.64426 146.57033
#
# Poissons Ratio (x) = 0.15619 0.29472
# Poissons Ratio (y) = 0.43481 0.58587
# Poissons Ratio (z) = 0.30028 0.21443
#
# Static dielectric constant tensor:
#      x y z
#    x 1.982710 0.019560 0.019200 
#    y 0.019560 2.214780 -0.125500 
#    z 0.019200 -0.125500 1.970360 
# 
# From -- ./inp_files/213887.got.cif
#   From: 2010.05.17/outbox.cif.g08.bks.cpg/sg2_107_cif.got.tgz:213887.got - 2010.06.03 11:33:40.
