data_PCOD9077991
_publ_section_title
;
Structure prediction by ZEFSAII (Michael W. Deem and Ramdas Pophale) SiO2 
 PCOD9077991
Probable space group: P -1
;
_chemical_formula_sum "Si O2"
_cell_formula_units_Z 16
_cell_length_a 14.204833
_cell_length_b 14.148823
_cell_length_c 12.267039
_cell_angle_alpha 59.472987
_cell_angle_beta 81.734062
_cell_angle_gamma 33.271954
_cell_volume 936.906117
_symmetry_space_group_name_H-M "P -1"
_symmetry_group_IT_number 2
_symmetry_cell_setting 'triclinic'
loop_
_space_group_symop_operation_xyz
x,y,z
-x,-y,-z
loop_
_atom_site_type_symbol
_atom_site_label
_atom_site_fract_x
_atom_site_fract_y
_atom_site_fract_z
Si Si1 0.160010 0.739284 0.813795
Si Si2 0.648369 0.601312 0.825659
Si Si3 0.845998 0.603796 0.702496
Si Si4 0.543145 0.977608 0.334344
Si Si5 0.863389 0.351930 0.364012
Si Si6 0.687833 0.773505 0.184786
Si Si7 0.312795 0.804951 0.647717
Si Si8 0.715174 0.282368 0.528870
O O1 0.162370 0.664424 0.746349
O O2 0.270220 0.743536 0.768824
O O3 0.259649 0.567703 0.994733
O O4 0.913606 0.023144 0.709174
O O5 0.822748 0.498905 0.797841
O O6 0.521966 0.654362 0.733272
O O7 0.484923 0.861427 0.748781
O O8 0.722293 0.754810 0.521386
O O9 0.089018 0.392522 0.778882
O O10 0.689044 0.820508 0.694949
O O11 0.604320 0.879149 0.260325
O O12 0.749099 0.583690 0.267486
O O13 0.769599 0.351094 0.452372
O O14 0.112179 0.095229 0.507046
O O15 0.500000 0.000000 0.000000
O O16 0.312512 0.752162 0.559805
O O17 0.500000 0.500000 0.500000
#
# Coordination Sequence:
#
# PCOD9077991 Si02
#       8
#     2   2   2   2   2   2   2   2
#     4   9  18  35  55  79 110 140 177 237 278 332
#     4  10  18  35  57  83 106 144 186 232 284 322
#     4   9  22  39  55  82 117 149 199 225 281 336
#     4   9  21  40  58  80 120 151 191 233 275 339
#     4   9  20  36  53  79 110 148 186 218 286 342
#     4  12  23  37  59  88 118 150 192 238 283 334
#     4   9  18  34  59  76 105 146 185 220 279 349
#     4   9  19  36  53  79 109 140 183 228 273 340
#
# _framework density 17.077483999999998
#
# number of rings (size 3 to 8) (size 9 to 14) (size 15 to 20)
#    0.750    1.750    0.000    3.750    0.000    2.500 
#    2.250    1.875    0.000    0.000    0.000    0.000 
#    0.000    0.000    0.000    0.000    0.000    0.000 
#
# Total GULP energy -89076.422219 kJ/mol
# GULP energy per Si atom -5567.276389 kJ/mol
# Density = 1.703861 g / cm^3
# Si number density = 17.077484 Si / 1000 Ang^3
#
#
#
# Elastic Constant Matrix: (Units=GPa)
#
#
# Indices 1 2 3 4 5 6 
#
# 1 63.1874 33.6426 41.4866 -9.7240 4.8656 9.4912
# 2 33.6426 87.9879 35.8940 -5.5556 2.0497 -15.3473
# 3 41.4866 35.8940 125.3480 -2.3479 -11.9051 -6.5242
# 4 -9.7240 -5.5556 -2.3479 11.4624 2.3188 1.0579
# 5 4.8656 2.0497 -11.9051 2.3188 23.9147 -15.5617
# 6 9.4912 -15.3473 -6.5242 1.0579 -15.5617 18.5802
#
#
#
# Elastic Compliance Matrix: (Units=1/GPa)
#
#
# Indices 1 2 3 4 5 6 
#
# 1 -0.018124 0.012233 0.011567 -0.026047 0.059628 0.074848
# 2 0.012233 0.007775 -0.010135 0.020578 -0.028927 -0.028785
# 3 0.011567 -0.010135 0.003551 0.013007 -0.021849 -0.032074
# 4 -0.026047 0.020578 0.013007 0.059699 0.054290 0.076942
# 5 0.059628 -0.028927 -0.021849 0.054290 -0.057913 -0.113621
# 6 0.074848 -0.028785 -0.032074 0.076942 -0.113621 -0.118996
#
#
# Mechanical properties :
#
#
# Convention : Reuss Voigt Hill
#
# Bulk Modulus (GPa) = 48.70825 55.39661 52.05243
# Shear Modulus (GPa) = -34.60359 21.82482 -6.38939
#
# Velocity S-wave (km/s) = -4.50629 3.57877 -1.93637
# Velocity P-wave (km/s) = 1.22811 7.04171 5.05440
#
# Compressibility (1/GPa) = 0.02053041
#
# Stress axis : x y z
#
# Youngs Moduli (GPa) = -55.17476 128.62017 281.61655
#
# Poissons Ratio (x) = -1.57341 -3.25739
# Poissons Ratio (y) = 0.67495 2.85427
# Poissons Ratio (z) = 0.63819 1.30361
#
# Static dielectric constant tensor:
#      x y z
#    x 1.572810 -0.016210 -0.000410 
#    y -0.016210 1.592210 -0.011970 
#    z -0.000410 -0.011970 1.562480 
# 
# From -- ./inp_files/453709.got.cif
#   From: 2010.05.17/outbox.cif.g08.bks.cpg/sg2_227_cif.got.tgz:453709.got - 2010.06.03 11:33:40.
