data_PCOD9077089
_publ_section_title
;
Structure prediction by ZEFSAII (Michael W. Deem and Ramdas Pophale) SiO2 
 PCOD9077089
Probable space group: P -1
;
_chemical_formula_sum "Si O2"
_cell_formula_units_Z 10
_cell_length_a 11.125284
_cell_length_b 6.347541
_cell_length_c 9.185025
_cell_angle_alpha 88.935405
_cell_angle_beta 59.917594
_cell_angle_gamma 62.587719
_cell_volume 478.855982
_symmetry_space_group_name_H-M "P -1"
_symmetry_group_IT_number 2
_symmetry_cell_setting 'triclinic'
loop_
_space_group_symop_operation_xyz
x,y,z
-x,-y,-z
loop_
_atom_site_type_symbol
_atom_site_label
_atom_site_fract_x
_atom_site_fract_y
_atom_site_fract_z
Si Si1 0.859189 0.335970 0.655962
Si Si2 0.576888 0.882565 0.770375
Si Si3 0.210004 0.971972 0.501879
Si Si4 0.647022 0.259793 0.991817
Si Si5 0.594047 0.261003 0.345150
O O1 0.731413 0.625997 0.735656
O O2 0.806468 0.205003 0.811713
O O3 0.047696 0.234743 0.566637
O O4 0.831912 0.230175 0.523711
O O5 0.641614 0.060954 0.688553
O O6 0.526068 0.822224 0.644405
O O7 0.417061 0.933190 0.958489
O O8 0.264444 0.937715 0.635463
O O9 0.500000 0.500000 0.000000
O O10 0.656633 0.312975 0.155478
O O11 0.500000 0.500000 0.500000
#
# Coordination Sequence:
#
# PCOD9077089 Si02
#       5
#     2   2   2   2   2
#     4  10  20  35  51  77 107 132 162 210 256 295
#     4   9  19  34  55  74  98 137 171 205 243 304
#     4  11  20  32  55  78 101 134 169 205 253 299
#     4   8  17  33  52  74 100 134 166 205 254 291
#     4  10  18  34  56  74 100 134 173 207 246 298
#
# _framework density 20.883106999999999
#
# number of rings (size 3 to 8) (size 9 to 14) (size 15 to 20)
#    1.200    1.200    2.000    1.200    0.000    1.600 
#    0.000    0.000    0.000    1.200    0.000    0.000 
#    0.000    0.000    0.000    0.000    0.000    0.000 
#
# Total GULP energy -55671.571350 kJ/mol
# GULP energy per Si atom -5567.157135 kJ/mol
# Density = 2.083558 g / cm^3
# Si number density = 20.883107 Si / 1000 Ang^3
#
#
#
# Elastic Constant Matrix: (Units=GPa)
#
#
# Indices 1 2 3 4 5 6 
#
# 1 83.1162 24.3872 26.3030 -17.2325 -4.3307 -11.8280
# 2 24.3872 46.8006 5.6559 -3.8270 7.0432 -15.5722
# 3 26.3030 5.6559 89.3155 -25.4911 -5.0941 -7.5347
# 4 -17.2325 -3.8270 -25.4911 32.9518 -4.0576 2.6312
# 5 -4.3307 7.0432 -5.0941 -4.0576 29.4025 -6.1863
# 6 -11.8280 -15.5722 -7.5347 2.6312 -6.1863 28.6375
#
#
#
# Elastic Compliance Matrix: (Units=1/GPa)
#
#
# Indices 1 2 3 4 5 6 
#
# 1 0.017162 -0.008065 -0.002000 0.006968 0.005655 0.002758
# 2 -0.008065 0.030300 0.000575 -0.001972 -0.006058 0.012169
# 3 -0.002000 0.000575 0.015537 0.011321 0.004563 0.003520
# 4 0.006968 -0.001972 0.011321 0.043526 0.010090 0.002965
# 5 0.005655 -0.006058 0.004563 0.010090 0.040159 0.007990
# 6 0.002758 0.012169 0.003520 0.002965 0.007990 0.045055
#
#
# Mechanical properties :
#
#
# Convention : Reuss Voigt Hill
#
# Bulk Modulus (GPa) = 22.71735 36.88049 29.79892
# Shear Modulus (GPa) = 22.18361 29.05746 25.62053
#
# Velocity S-wave (km/s) = 3.26279 3.73424 3.50645
# Velocity P-wave (km/s) = 5.00963 6.02424 5.54021
#
# Compressibility (1/GPa) = 0.04401921
#
# Stress axis : x y z
#
# Youngs Moduli (GPa) = 58.26724 33.00355 64.36265
#
# Poissons Ratio (x) = 0.26617 0.12870
# Poissons Ratio (y) = 0.46992 -0.03698
# Poissons Ratio (z) = 0.11651 -0.01896
#
# Static dielectric constant tensor:
#      x y z
#    x 1.784860 0.050870 0.023750 
#    y 0.050870 1.802860 -0.006480 
#    z 0.023750 -0.006480 1.817750 
# 
# From -- ./inp_files/22451.got.cif
#   From: 2010.05.17/outbox.cif.g08.bks.cpg/sg2_12_cif.got.tgz:22451.got - 2010.06.03 11:33:40.
