data_PCOD9077133
_publ_section_title
;
Structure prediction by ZEFSAII (Michael W. Deem and Ramdas Pophale) SiO2 
 PCOD9077133
Probable space group: P -1
;
_chemical_formula_sum "Si O2"
_cell_formula_units_Z 16
_cell_length_a 8.121993
_cell_length_b 19.015687
_cell_length_c 7.219091
_cell_angle_alpha 114.756999
_cell_angle_beta 125.851459
_cell_angle_gamma 42.679031
_cell_volume 612.477316
_symmetry_space_group_name_H-M "P -1"
_symmetry_group_IT_number 2
_symmetry_cell_setting 'triclinic'
loop_
_space_group_symop_operation_xyz
x,y,z
-x,-y,-z
loop_
_atom_site_type_symbol
_atom_site_label
_atom_site_fract_x
_atom_site_fract_y
_atom_site_fract_z
Si Si1 0.889083 0.514701 0.153246
Si Si2 0.742766 0.240411 0.504587
Si Si3 0.325642 0.906697 0.579073
Si Si4 0.853713 0.403027 0.462974
Si Si5 0.615939 0.946763 0.315652
Si Si6 0.686450 0.296567 0.139486
Si Si7 0.289449 0.889524 0.107159
Si Si8 0.233154 0.607648 0.188038
O O1 0.015908 0.545776 0.406824
O O2 0.573059 0.616519 0.053884
O O3 0.898751 0.418899 0.073628
O O4 0.000000 0.500000 0.000000
O O5 0.603412 0.192946 0.390012
O O6 0.598349 0.319205 0.324423
O O7 0.758519 0.302485 0.741178
O O8 0.058515 0.143608 0.558824
O O9 0.368346 0.878070 0.359637
O O10 0.448701 0.961129 0.751450
O O11 0.000000 0.000000 0.500000
O O12 0.912406 0.306771 0.291500
O O13 0.538572 0.499409 0.310142
O O14 0.909471 0.367826 0.677926
O O15 0.493029 0.893473 0.130719
O O16 0.500000 0.000000 0.500000
O O17 0.749631 0.191139 0.039736
O O18 0.000000 0.000000 0.000000
#
# Coordination Sequence:
#
# PCOD9077133 Si02
#       8
#     2   2   2   2   2   2   2   2
#     4   9  16  28  49  79 115 141 187 229 269 325
#     4  10  18  34  56  83 115 141 185 232 283 334
#     4   9  19  38  58  77 109 151 178 231 290 327
#     4   8  15  29  46  74 117 139 179 230 270 314
#     4   9  19  34  55  76 104 148 181 224 279 326
#     4  10  20  30  53  86 109 146 187 231 276 321
#     4  11  22  37  56  82 114 143 194 234 269 337
#     4   8  15  26  47  79 108 144 177 227 273 317
#
# _framework density 26.123417
#
# number of rings (size 3 to 8) (size 9 to 14) (size 15 to 20)
#    0.000    2.750    0.000    4.500    5.250    0.000 
#    0.000    5.625    0.000    3.000    0.000    4.375 
#    0.000    0.000    0.000    0.000    0.000    0.000 
#
# Total GULP energy -89297.827618 kJ/mol
# GULP energy per Si atom -5581.114226 kJ/mol
# Density = 2.606396 g / cm^3
# Si number density = 26.123417 Si / 1000 Ang^3
#
#
#
# Elastic Constant Matrix: (Units=GPa)
#
#
# Indices 1 2 3 4 5 6 
#
# 1 130.0255 44.1530 51.3435 19.1546 15.8546 40.7099
# 2 44.1530 107.9948 38.9926 46.7198 26.7949 28.7386
# 3 51.3435 38.9926 120.1053 54.7987 52.1317 20.8266
# 4 19.1546 46.7198 54.7987 55.9492 20.7151 22.4820
# 5 15.8546 26.7949 52.1317 20.7151 39.1801 15.5242
# 6 40.7099 28.7386 20.8266 22.4820 15.5242 42.5861
#
#
#
# Elastic Compliance Matrix: (Units=1/GPa)
#
#
# Indices 1 2 3 4 5 6 
#
# 1 0.024369 -0.013575 -0.030396 0.031405 0.034528 -0.028437
# 2 -0.013575 0.024853 0.024654 -0.033988 -0.031752 0.013666
# 3 -0.030396 0.024654 0.072604 -0.068080 -0.082125 0.042791
# 4 0.031405 -0.033988 -0.068080 0.096437 0.070037 -0.050233
# 5 0.034528 -0.031752 -0.082125 0.070037 0.127208 -0.054762
# 6 -0.028437 0.013666 0.042791 -0.050233 -0.054762 0.066999
#
#
# Mechanical properties :
#
#
# Convention : Reuss Voigt Hill
#
# Bulk Modulus (GPa) = 12.02002 69.67819 40.84910
# Shear Modulus (GPa) = 10.44201 42.45218 26.44709
#
# Velocity S-wave (km/s) = 2.00146 4.03558 3.18526
# Velocity P-wave (km/s) = 3.15474 6.96025 5.40359
#
# Compressibility (1/GPa) = 0.08319455
#
# Stress axis : x y z
#
# Youngs Moduli (GPa) = 41.03516 40.23606 13.77333
#
# Poissons Ratio (x) = 0.54619 0.41865
# Poissons Ratio (y) = 0.55704 -0.33957
# Poissons Ratio (z) = 1.24728 -0.99198
#
# Static dielectric constant tensor:
#      x y z
#    x 2.174830 0.046540 0.007690 
#    y 0.046540 2.036580 0.075110 
#    z 0.007690 0.075110 2.123300 
# 
# From -- ./inp_files/213188.got.cif
#   From: 2010.05.17/outbox.cif.g08.bks.cpg/sg2_107_cif.got.tgz:213188.got - 2010.06.03 11:33:40.
