data_PCOD9077910
_publ_section_title
;
Structure prediction by ZEFSAII (Michael W. Deem and Ramdas Pophale) SiO2 
 PCOD9077910
Probable space group: P -1
;
_chemical_formula_sum "Si O2"
_cell_formula_units_Z 16
_cell_length_a 7.198657
_cell_length_b 10.815383
_cell_length_c 17.313282
_cell_angle_alpha 98.766966
_cell_angle_beta 56.784546
_cell_angle_gamma 64.451681
_cell_volume 872.201489
_symmetry_space_group_name_H-M "P -1"
_symmetry_group_IT_number 2
_symmetry_cell_setting 'triclinic'
loop_
_space_group_symop_operation_xyz
x,y,z
-x,-y,-z
loop_
_atom_site_type_symbol
_atom_site_label
_atom_site_fract_x
_atom_site_fract_y
_atom_site_fract_z
Si Si1 0.307991 0.114105 0.835877
Si Si2 0.821890 0.557062 0.624074
Si Si3 0.184830 0.813204 0.959274
Si Si4 0.552290 0.037444 0.613128
Si Si5 0.486962 0.713708 0.261107
Si Si6 0.768789 0.366570 0.221395
Si Si7 0.934494 0.764700 0.383338
Si Si8 0.701110 0.791686 0.803298
O O1 0.418201 0.024161 0.719517
O O2 0.357691 0.245553 0.828786
O O3 0.506465 0.979182 0.842360
O O4 0.982562 0.193353 0.933556
O O5 0.512392 0.606404 0.681634
O O6 0.792156 0.694575 0.692656
O O7 0.000000 0.500000 0.500000
O O8 0.976410 0.406088 0.632138
O O9 0.168664 0.725222 0.882195
O O10 0.501685 0.757480 0.887738
O O11 0.000000 0.000000 0.000000
O O12 0.631781 0.148350 0.634186
O O13 0.303977 0.141035 0.617602
O O14 0.802597 0.873244 0.500941
O O15 0.684545 0.539182 0.237497
O O16 0.217012 0.737696 0.290602
O O17 0.031016 0.268820 0.210900
#
# Coordination Sequence:
#
# PCOD9077910 Si02
#       8
#     2   2   2   2   2   2   2   2
#     4   9  20  37  54  82 111 138 187 231 265 321
#     4  10  21  36  57  83 114 145 183 228 266 327
#     4   9  20  39  57  79 114 143 180 234 278 321
#     4   9  19  34  53  80 108 144 182 220 271 326
#     4   9  20  36  53  80 112 138 178 230 263 331
#     4  10  21  38  60  79 111 148 180 221 290 318
#     4  10  18  35  56  77 110 151 175 219 284 317
#     4  10  20  39  57  82 112 147 182 228 273 328
#
# _framework density 18.344387000000001
#
# number of rings (size 3 to 8) (size 9 to 14) (size 15 to 20)
#    0.750    1.750    0.000    1.875    0.000    3.000 
#   13.500    0.625    0.000    0.000    0.000    0.000 
#    0.000    0.000    0.000    0.000    0.000    0.000 
#
# Total GULP energy -89079.230727 kJ/mol
# GULP energy per Si atom -5567.451920 kJ/mol
# Density = 1.830263 g / cm^3
# Si number density = 18.344387 Si / 1000 Ang^3
#
#
#
# Elastic Constant Matrix: (Units=GPa)
#
#
# Indices 1 2 3 4 5 6 
#
# 1 52.4841 20.3059 11.5662 -7.5614 -11.9995 -12.6441
# 2 20.3059 37.6120 12.8676 -5.0538 0.8111 0.3813
# 3 11.5662 12.8676 78.7831 -15.8750 -14.5393 2.5645
# 4 -7.5614 -5.0538 -15.8750 31.3604 9.8438 -3.3404
# 5 -11.9995 0.8111 -14.5393 9.8438 17.7673 11.0724
# 6 -12.6441 0.3813 2.5645 -3.3404 11.0724 22.8884
#
#
#
# Elastic Compliance Matrix: (Units=1/GPa)
#
#
# Indices 1 2 3 4 5 6 
#
# 1 0.032189 -0.018058 0.001200 0.001397 0.016406 0.010216
# 2 -0.018058 0.040451 -0.007614 0.007231 -0.026959 0.004300
# 3 0.001200 -0.007614 0.018760 -0.000997 0.025726 -0.013903
# 4 0.001397 0.007231 -0.000997 0.051497 -0.048520 0.031751
# 5 0.016406 -0.026959 0.025726 -0.048520 0.167221 -0.081346
# 6 0.010216 0.004300 -0.013903 0.031751 -0.081346 0.094805
#
#
# Mechanical properties :
#
#
# Convention : Reuss Voigt Hill
#
# Bulk Modulus (GPa) = 23.55397 28.70652 26.13025
# Shear Modulus (GPa) = 10.68336 22.67918 16.68127
#
# Velocity S-wave (km/s) = 2.41587 3.51992 3.01880
# Velocity P-wave (km/s) = 4.54419 5.67472 5.14063
#
# Compressibility (1/GPa) = 0.04245568
#
# Stress axis : x y z
#
# Youngs Moduli (GPa) = 31.06667 24.72145 53.30573
#
# Poissons Ratio (x) = 0.44643 -0.06399
# Poissons Ratio (y) = 0.56101 0.40586
# Poissons Ratio (z) = -0.03729 0.18823
#
# Static dielectric constant tensor:
#      x y z
#    x 1.610480 0.026600 -0.001380 
#    y 0.026600 1.627090 -0.006660 
#    z -0.001380 -0.006660 1.659430 
# 
# From -- ./inp_files/549183.got.cif
#   From: 2010.05.17/outbox.cif.g08.bks.cpg/sg2_275_cif.got.tgz:549183.got - 2010.06.03 11:33:40.
