data_PCOD9077241
_publ_section_title
;
Structure prediction by ZEFSAII (Michael W. Deem and Ramdas Pophale) SiO2 
 PCOD9077241
Probable space group: P -1
;
_chemical_formula_sum "Si O2"
_cell_formula_units_Z 16
_cell_length_a 11.440803
_cell_length_b 11.356703
_cell_length_c 27.198760
_cell_angle_alpha 20.644541
_cell_angle_beta 29.453803
_cell_angle_gamma 36.036352
_cell_volume 612.271798
_symmetry_space_group_name_H-M "P -1"
_symmetry_group_IT_number 2
_symmetry_cell_setting 'triclinic'
loop_
_space_group_symop_operation_xyz
x,y,z
-x,-y,-z
loop_
_atom_site_type_symbol
_atom_site_label
_atom_site_fract_x
_atom_site_fract_y
_atom_site_fract_z
Si Si1 0.518201 0.556452 0.530163
Si Si2 0.311506 0.366480 0.968602
Si Si3 0.363828 0.301443 0.366288
Si Si4 0.999453 0.892806 0.985024
Si Si5 0.498489 0.385603 0.100255
Si Si6 0.025102 0.911320 0.581417
Si Si7 0.987713 0.997590 0.166168
Si Si8 0.461108 0.545482 0.657598
O O1 0.500000 0.500000 0.500000
O O2 0.249730 0.676108 0.591989
O O3 0.546087 0.362564 0.648171
O O4 0.756984 0.793280 0.348937
O O5 0.476253 0.539764 0.798238
O O6 0.446011 0.362057 0.973314
O O7 0.098779 0.620924 0.957596
O O8 0.194941 0.034566 0.116349
O O9 0.380781 0.496627 0.335177
O O10 0.110080 0.209239 0.470318
O O11 0.465304 0.938499 0.487043
O O12 0.806480 0.581320 0.179326
O O13 0.278012 0.852944 0.886340
O O14 0.928338 0.101812 0.880553
O O15 0.000000 0.000000 0.000000
O O16 0.235847 0.230970 0.258838
O O17 0.500000 0.500000 0.000000
O O18 0.000000 0.000000 0.500000
#
# Coordination Sequence:
#
# PCOD9077241 Si02
#       8
#     2   2   2   2   2   2   2   2
#     4  11  22  37  57  86 121 149 187 239 288 340
#     4  10  18  34  58  82 118 145 194 245 288 327
#     4  10  18  34  57  85 116 145 193 250 282 327
#     4  11  22  38  59  85 120 151 188 239 291 348
#     4  11  23  36  58  88 116 150 194 239 288 344
#     4  11  20  36  58  83 114 154 189 229 291 344
#     4  10  19  33  58  85 108 152 193 236 289 329
#     4  10  20  33  58  87 112 146 198 244 283 325
#
# _framework density 26.132186999999998
#
# number of rings (size 3 to 8) (size 9 to 14) (size 15 to 20)
#    0.000    1.500    5.000    3.000    0.000    1.000 
#    0.000    0.000    0.000    9.000    0.000    0.000 
#    0.000    0.000    0.000    0.000    0.000    0.000 
#
# Total GULP energy -89220.401972 kJ/mol
# GULP energy per Si atom -5576.275123 kJ/mol
# Density = 2.607271 g / cm^3
# Si number density = 26.132187 Si / 1000 Ang^3
#
#
#
# Elastic Constant Matrix: (Units=GPa)
#
#
# Indices 1 2 3 4 5 6 
#
# 1 265.4607 52.3049 89.9503 15.4265 -20.7421 79.9343
# 2 52.3049 91.3844 31.4202 25.3510 -12.5303 14.8895
# 3 89.9503 31.4202 204.8056 36.7607 -20.3492 38.0449
# 4 15.4265 25.3510 36.7607 38.0332 10.5900 2.2746
# 5 -20.7421 -12.5303 -20.3492 10.5900 62.3779 2.2225
# 6 79.9343 14.8895 38.0449 2.2746 2.2225 59.4213
#
#
#
# Elastic Compliance Matrix: (Units=1/GPa)
#
#
# Indices 1 2 3 4 5 6 
#
# 1 0.007348 -0.001872 -0.000890 -0.000970 0.002259 -0.008894
# 2 -0.001872 0.016173 0.001638 -0.012983 0.005446 -0.002289
# 3 -0.000890 0.001638 0.007877 -0.009307 0.004328 -0.004063
# 4 -0.000970 -0.012983 -0.009307 0.047796 -0.014410 0.009226
# 5 0.002259 0.005446 0.004328 -0.014410 0.022000 -0.007445
# 6 -0.008894 -0.002289 -0.004063 0.009226 -0.007445 0.031893
#
#
# Mechanical properties :
#
#
# Convention : Reuss Voigt Hill
#
# Bulk Modulus (GPa) = 34.30473 101.00018 67.65246
# Shear Modulus (GPa) = 34.47059 57.83151 46.15105
#
# Velocity S-wave (km/s) = 3.63586 4.70940 4.20701
# Velocity P-wave (km/s) = 5.54814 8.26468 7.03870
#
# Compressibility (1/GPa) = 0.02915050
#
# Stress axis : x y z
#
# Youngs Moduli (GPa) = 136.08848 61.83286 126.94760
#
# Poissons Ratio (x) = 0.11576 0.11292
# Poissons Ratio (y) = 0.25478 -0.20793
# Poissons Ratio (z) = 0.12105 -0.10128
#
# Static dielectric constant tensor:
#      x y z
#    x 2.159570 0.043180 -0.018940 
#    y 0.043180 2.287340 -0.166530 
#    z -0.018940 -0.166530 1.970190 
# 
# From -- ./inp_files/263430.got.cif
#   From: 2010.05.17/outbox.cif.g08.bks.cpg/sg2_132_cif.got.tgz:263430.got - 2010.06.03 11:33:40.
