data_PCOD9077114
_publ_section_title
;
Structure prediction by ZEFSAII (Michael W. Deem and Ramdas Pophale) SiO2 
 PCOD9077114
Probable space group: P -1
;
_chemical_formula_sum "Si O2"
_cell_formula_units_Z 16
_cell_length_a 7.619380
_cell_length_b 14.846163
_cell_length_c 9.353209
_cell_angle_alpha 100.299174
_cell_angle_beta 52.159887
_cell_angle_gamma 68.787048
_cell_volume 653.412920
_symmetry_space_group_name_H-M "P -1"
_symmetry_group_IT_number 2
_symmetry_cell_setting 'triclinic'
loop_
_space_group_symop_operation_xyz
x,y,z
-x,-y,-z
loop_
_atom_site_type_symbol
_atom_site_label
_atom_site_fract_x
_atom_site_fract_y
_atom_site_fract_z
Si Si1 0.082481 0.175712 0.777837
Si Si2 0.062668 0.172638 0.203352
Si Si3 0.607753 0.541423 0.085110
Si Si4 0.278335 0.983257 0.822009
Si Si5 0.688373 0.368883 0.219424
Si Si6 0.134196 0.439992 0.639002
Si Si7 0.490979 0.790523 0.468949
Si Si8 0.990555 0.726100 0.467036
O O1 0.027422 0.209462 0.650519
O O2 0.219761 0.047087 0.717526
O O3 0.313346 0.193471 0.719271
O O4 0.790341 0.263276 0.030374
O O5 0.887716 0.291522 0.230916
O O6 0.829218 0.157950 0.373103
O O7 0.178477 0.192667 0.290957
O O8 0.280219 0.063152 0.962473
O O9 0.731916 0.448434 0.125216
O O10 0.322167 0.655316 0.315445
O O11 0.500000 0.500000 0.000000
O O12 0.846719 0.541627 0.887350
O O13 0.485705 0.849276 0.640139
O O14 0.000000 0.000000 0.000000
O O15 0.361496 0.446262 0.448393
O O16 0.323283 0.345055 0.638880
O O17 0.055168 0.371402 0.561280
#
# Coordination Sequence:
#
# PCOD9077114 Si02
#       8
#     2   2   2   2   2   2   2   2
#     4  10  18  34  57  77 107 143 184 216 267 326
#     4   9  20  34  54  82 115 133 178 232 271 307
#     4  10  18  34  56  80 110 143 189 214 265 321
#     4   9  18  33  57  79 100 142 187 215 264 335
#     4  10  18  35  58  77 106 151 185 220 253 325
#     4   9  19  34  59  80 108 142 190 215 262 323
#     4   9  16  34  56  80 101 144 181 217 262 327
#     4  10  20  36  52  81 116 138 172 237 269 309
#
# _framework density 24.486813999999999
#
# number of rings (size 3 to 8) (size 9 to 14) (size 15 to 20)
#    0.000    2.500    3.750    1.125    0.000    2.500 
#    0.000   10.000    0.000    0.000    0.000    0.000 
#    0.000    0.000    0.000    0.000    0.000    0.000 
#
# Total GULP energy -89103.068433 kJ/mol
# GULP energy per Si atom -5568.941777 kJ/mol
# Density = 2.443108 g / cm^3
# Si number density = 24.486814 Si / 1000 Ang^3
#
#
#
# Elastic Constant Matrix: (Units=GPa)
#
#
# Indices 1 2 3 4 5 6 
#
# 1 69.5539 7.6310 9.1074 -14.1713 15.1725 5.5681
# 2 7.6310 56.6274 20.1438 -16.4041 9.4429 1.6487
# 3 9.1074 20.1438 109.0359 -0.5993 -7.3647 8.9041
# 4 -14.1713 -16.4041 -0.5993 37.6814 -0.5881 6.1907
# 5 15.1725 9.4429 -7.3647 -0.5881 45.3942 3.0011
# 6 5.5681 1.6487 8.9041 6.1907 3.0011 17.3122
#
#
#
# Elastic Compliance Matrix: (Units=1/GPa)
#
#
# Indices 1 2 3 4 5 6 
#
# 1 0.018059 0.001888 -0.001635 0.008674 -0.006106 -0.007190
# 2 0.001888 0.023362 -0.004518 0.011298 -0.005844 -0.003536
# 3 -0.001635 -0.004518 0.010747 -0.001599 0.003514 -0.004609
# 4 0.008674 0.011298 -0.001599 0.037203 -0.003992 -0.015655
# 5 -0.006106 -0.005844 0.003514 -0.003992 0.025960 -0.002360
# 6 -0.007190 -0.003536 -0.004609 -0.015655 -0.002360 0.068790
#
#
# Mechanical properties :
#
#
# Convention : Reuss Voigt Hill
#
# Bulk Modulus (GPa) = 22.91464 34.33130 28.62297
# Shear Modulus (GPa) = 24.13157 33.29989 28.71573
#
# Velocity S-wave (km/s) = 3.14266 3.69170 3.42819
# Velocity P-wave (km/s) = 4.74834 5.67647 5.23302
#
# Compressibility (1/GPa) = 0.04364022
#
# Stress axis : x y z
#
# Youngs Moduli (GPa) = 55.37364 42.80408 93.04577
#
# Poissons Ratio (x) = -0.08082 0.15211
# Poissons Ratio (y) = -0.10456 0.42035
# Poissons Ratio (z) = 0.09053 0.19337
#
# Static dielectric constant tensor:
#      x y z
#    x 2.225080 -0.025940 -0.046910 
#    y -0.025940 1.988020 0.040790 
#    z -0.046910 0.040790 2.013020 
# 
# From -- ./inp_files/215045.got.cif
#   From: 2010.05.17/outbox.cif.g08.bks.cpg/sg2_108_cif.got.tgz:215045.got - 2010.06.03 11:33:40.
