data_PCOD9077125
_publ_section_title
;
Structure prediction by ZEFSAII (Michael W. Deem and Ramdas Pophale) SiO2 
 PCOD9077125
Probable space group: P -1
;
_chemical_formula_sum "Si O2"
_cell_formula_units_Z 16
_cell_length_a 22.013320
_cell_length_b 15.045388
_cell_length_c 24.581818
_cell_angle_alpha 162.865982
_cell_angle_beta 18.181542
_cell_angle_gamma 152.716947
_cell_volume 731.987628
_symmetry_space_group_name_H-M "P -1"
_symmetry_group_IT_number 2
_symmetry_cell_setting 'triclinic'
loop_
_space_group_symop_operation_xyz
x,y,z
-x,-y,-z
loop_
_atom_site_type_symbol
_atom_site_label
_atom_site_fract_x
_atom_site_fract_y
_atom_site_fract_z
Si Si1 0.612673 0.431621 0.493582
Si Si2 0.534733 0.706865 0.040779
Si Si3 0.887892 0.819161 0.947053
Si Si4 0.464194 0.324541 0.780851
Si Si5 0.664685 0.633105 0.403015
Si Si6 0.957763 0.746370 0.728362
Si Si7 0.971270 0.429079 0.108780
Si Si8 0.597118 0.572684 0.227472
O O1 0.411936 0.425164 0.626258
O O2 0.783551 0.539974 0.375284
O O3 0.533587 0.564749 0.697416
O O4 0.727719 0.091543 0.214672
O O5 0.359757 0.000763 0.354203
O O6 0.500000 0.500000 0.000000
O O7 0.574950 0.493516 0.829101
O O8 0.721541 0.851766 0.980573
O O9 0.996978 0.646433 0.700007
O O10 0.762702 0.622462 0.973055
O O11 0.000000 0.000000 0.000000
O O12 0.460580 0.477093 0.814393
O O13 0.544582 0.953807 0.495861
O O14 0.500000 0.500000 0.500000
O O15 0.878621 0.494107 0.165453
O O16 0.000000 0.500000 0.500000
O O17 0.036877 0.057429 0.837950
O O18 0.169462 0.539088 0.022511
#
# Coordination Sequence:
#
# PCOD9077125 Si02
#       8
#     2   2   2   2   2   2   2   2
#     4   9  18  34  56  82 112 152 198 242 288 352
#     4  12  20  37  60  87 119 151 201 253 304 353
#     4  10  18  34  56  82 119 162 195 235 307 374
#     4  10  20  33  57  85 121 157 195 250 308 353
#     4  10  19  38  62  82 115 169 201 234 312 370
#     4  11  21  34  55  92 121 146 195 262 307 346
#     4  10  20  38  60  85 116 162 203 242 297 372
#     4  10  20  36  55  91 118 155 206 245 298 370
#
# _framework density 21.858291999999999
#
# number of rings (size 3 to 8) (size 9 to 14) (size 15 to 20)
#    0.000    1.750    5.000    3.000    0.000    2.500 
#    0.000    0.625    0.000    3.000    0.000    0.000 
#    0.000    0.000    0.000    0.000    0.000    0.000 
#
# Total GULP energy -89083.866486 kJ/mol
# GULP energy per Si atom -5567.741655 kJ/mol
# Density = 2.180854 g / cm^3
# Si number density = 21.858292 Si / 1000 Ang^3
#
#
#
# Elastic Constant Matrix: (Units=GPa)
#
#
# Indices 1 2 3 4 5 6 
#
# 1 176.6981 17.8608 35.3250 -17.6305 20.8602 -0.7174
# 2 17.8608 33.6249 9.8169 -6.3633 4.6138 3.2291
# 3 35.3250 9.8169 44.9041 -15.6219 3.0345 -7.5491
# 4 -17.6305 -6.3633 -15.6219 20.9962 3.3791 -5.8794
# 5 20.8602 4.6138 3.0345 3.3791 28.6557 1.1078
# 6 -0.7174 3.2291 -7.5491 -5.8794 1.1078 31.8016
#
#
#
# Elastic Compliance Matrix: (Units=1/GPa)
#
#
# Indices 1 2 3 4 5 6 
#
# 1 0.007618 -0.001449 -0.003837 0.004069 -0.005399 0.000349
# 2 -0.001449 0.033813 -0.004705 0.005267 -0.004379 -0.003457
# 3 -0.003837 -0.004705 0.039687 0.029999 -0.004790 0.015525
# 4 0.004069 0.005267 0.029999 0.084231 -0.017804 0.022871
# 5 -0.005399 -0.004379 -0.004790 -0.017804 0.042355 -0.005581
# 6 0.000349 -0.003457 0.015525 0.022871 -0.005581 0.039912
#
#
# Mechanical properties :
#
#
# Convention : Reuss Voigt Hill
#
# Bulk Modulus (GPa) = 16.35713 42.35918 29.35816
# Shear Modulus (GPa) = 17.36266 29.10565 23.23415
#
# Velocity S-wave (km/s) = 2.82144 3.65301 3.26382
# Velocity P-wave (km/s) = 4.25600 6.10031 5.25962
#
# Compressibility (1/GPa) = 0.06113542
#
# Stress axis : x y z
#
# Youngs Moduli (GPa) = 131.27322 29.57473 25.19739
#
# Poissons Ratio (x) = 0.04285 0.09668
# Poissons Ratio (y) = 0.19018 0.11856
# Poissons Ratio (z) = 0.50367 0.13916
#
# Static dielectric constant tensor:
#      x y z
#    x 2.307440 0.441430 -0.193640 
#    y 0.441430 2.337720 -0.307700 
#    z -0.193640 -0.307700 2.000640 
# 
# From -- ./inp_files/613810.got.cif
#   From: 2010.05.17/outbox.cif.g08.bks.cpg/sg2_307_cif.got.tgz:613810.got - 2010.06.03 11:33:40.
