data_PCOD9077624
_publ_section_title
;
Structure prediction by ZEFSAII (Michael W. Deem and Ramdas Pophale) SiO2 
 PCOD9077624
Probable space group: P -1
;
_chemical_formula_sum "Si O2"
_cell_formula_units_Z 16
_cell_length_a 13.309756
_cell_length_b 12.589861
_cell_length_c 10.615126
_cell_angle_alpha 68.461859
_cell_angle_beta 138.397057
_cell_angle_gamma 138.746875
_cell_volume 697.199787
_symmetry_space_group_name_H-M "P -1"
_symmetry_group_IT_number 2
_symmetry_cell_setting 'triclinic'
loop_
_space_group_symop_operation_xyz
x,y,z
-x,-y,-z
loop_
_atom_site_type_symbol
_atom_site_label
_atom_site_fract_x
_atom_site_fract_y
_atom_site_fract_z
Si Si1 0.406200 0.021991 0.517100
Si Si2 0.675905 0.057668 0.246425
Si Si3 0.395347 0.243957 0.299511
Si Si4 0.872504 0.401571 0.291398
Si Si5 0.314285 0.133704 0.830969
Si Si6 0.972843 0.680338 0.133643
Si Si7 0.063309 0.914135 0.934946
Si Si8 0.544036 0.541291 0.172357
O O1 0.440415 0.002450 0.699074
O O2 0.121050 0.841499 0.304837
O O3 0.500000 0.000000 0.500000
O O4 0.495838 0.201201 0.497670
O O5 0.884520 0.272582 0.341482
O O6 0.718196 0.952130 0.292912
O O7 0.588029 0.269000 0.079529
O O8 0.500000 0.000000 0.000000
O O9 0.570399 0.436840 0.315157
O O10 0.256336 0.097672 0.119146
O O11 0.192156 0.185222 0.219610
O O12 0.000000 0.500000 0.500000
O O13 0.991000 0.557394 0.234819
O O14 0.280165 0.249563 0.738429
O O15 0.135679 0.975475 0.833640
O O16 0.058726 0.780688 0.037484
O O17 0.700968 0.555057 0.954523
O O18 0.500000 0.500000 0.000000
#
# Coordination Sequence:
#
# PCOD9077624 Si02
#       8
#     2   2   2   2   2   2   2   2
#     4  11  23  37  63  90 122 161 207 251 302 367
#     4  10  23  39  58  87 128 165 197 250 317 370
#     4   9  19  33  57  87 122 149 211 252 288 357
#     4  10  19  36  56  85 122 160 203 256 290 355
#     4  10  21  35  62  87 121 163 203 249 318 359
#     4   9  20  32  58  89 117 145 210 259 283 350
#     4   9  17  34  57  89 118 156 197 256 301 353
#     4  10  18  34  61  92 117 160 205 255 298 357
#
# _framework density 22.948944999999998
#
# number of rings (size 3 to 8) (size 9 to 14) (size 15 to 20)
#    0.000    2.250    2.500    0.750    7.000    0.000 
#    0.000    1.875    5.500    0.000    0.000    0.000 
#    0.000    0.000    0.000    0.000    0.000    0.000 
#
# Total GULP energy -89289.556419 kJ/mol
# GULP energy per Si atom -5580.597276 kJ/mol
# Density = 2.289671 g / cm^3
# Si number density = 22.948945 Si / 1000 Ang^3
#
#
#
# Elastic Constant Matrix: (Units=GPa)
#
#
# Indices 1 2 3 4 5 6 
#
# 1 72.7073 65.4651 18.3618 -14.7830 -20.6440 3.0571
# 2 65.4651 202.5077 47.1112 -54.2908 -11.2582 -12.4385
# 3 18.3618 47.1112 62.7226 -14.7753 -6.4848 7.5093
# 4 -14.7830 -54.2908 -14.7753 47.6096 4.1916 -1.2499
# 5 -20.6440 -11.2582 -6.4848 4.1916 22.6584 -0.6416
# 6 3.0571 -12.4385 7.5093 -1.2499 -0.6416 45.9674
#
#
#
# Elastic Compliance Matrix: (Units=1/GPa)
#
#
# Indices 1 2 3 4 5 6 
#
# 1 0.027011 -0.008911 0.000606 -0.003534 0.020892 -0.004111
# 2 -0.008911 0.011461 -0.004912 0.009379 -0.005433 0.004676
# 3 0.000606 -0.004912 0.020519 0.000502 0.003759 -0.004655
# 4 -0.003534 0.009379 0.000502 0.031210 -0.004091 0.003483
# 5 0.020892 -0.005433 0.003759 -0.004091 0.062225 -0.002716
# 6 -0.004111 0.004676 -0.004655 0.003483 -0.002716 0.024110
#
#
# Mechanical properties :
#
#
# Convention : Reuss Voigt Hill
#
# Bulk Modulus (GPa) = 30.71576 66.64598 48.68087
# Shear Modulus (GPa) = 23.38377 37.04707 30.21542
#
# Velocity S-wave (km/s) = 3.19556 4.02223 3.63249
# Velocity P-wave (km/s) = 5.19893 7.11864 6.23314
#
# Compressibility (1/GPa) = 0.03255658
#
# Stress axis : x y z
#
# Youngs Moduli (GPa) = 37.02229 87.25090 48.73426
#
# Poissons Ratio (x) = 0.77751 -0.02952
# Poissons Ratio (y) = 0.32991 0.23937
# Poissons Ratio (z) = -0.02242 0.42856
#
# Static dielectric constant tensor:
#      x y z
#    x 1.877280 -0.031760 0.093570 
#    y -0.031760 1.918050 -0.004410 
#    z 0.093570 -0.004410 1.937580 
# 
# From -- ./inp_files/425680.got.cif
#   From: 2010.05.17/outbox.cif.g08.bks.cpg/sg2_213_cif.got.tgz:425680.got - 2010.06.03 11:33:40.
