data_PCOD9077934
_publ_section_title
;
Structure prediction by ZEFSAII (Michael W. Deem and Ramdas Pophale) SiO2 
 PCOD9077934
Probable space group: P -1
;
_chemical_formula_sum "Si O2"
_cell_formula_units_Z 16
_cell_length_a 14.781648
_cell_length_b 11.682900
_cell_length_c 8.213744
_cell_angle_alpha 51.561784
_cell_angle_beta 55.985720
_cell_angle_gamma 50.897140
_cell_volume 828.884161
_symmetry_space_group_name_H-M "P -1"
_symmetry_group_IT_number 2
_symmetry_cell_setting 'triclinic'
loop_
_space_group_symop_operation_xyz
x,y,z
-x,-y,-z
loop_
_atom_site_type_symbol
_atom_site_label
_atom_site_fract_x
_atom_site_fract_y
_atom_site_fract_z
Si Si1 0.237554 0.281085 0.613106
Si Si2 0.380994 0.447017 0.489001
Si Si3 0.506694 0.378062 0.960065
Si Si4 0.980576 0.510754 0.816476
Si Si5 0.786136 0.818949 0.640020
Si Si6 0.728235 0.561760 0.053833
Si Si7 0.408076 0.880484 0.342303
Si Si8 0.586528 0.031938 0.116870
O O1 0.320154 0.375929 0.479506
O O2 0.101758 0.397982 0.702102
O O3 0.238770 0.226961 0.474383
O O4 0.293198 0.119646 0.810852
O O5 0.399012 0.600579 0.277432
O O6 0.298262 0.478268 0.704097
O O7 0.514889 0.306955 0.523897
O O8 0.375313 0.438574 0.956947
O O9 0.500000 0.500000 0.000000
O O10 0.551201 0.189924 0.124841
O O11 0.925274 0.699306 0.647715
O O12 0.000000 0.500000 0.000000
O O13 0.866974 0.466387 0.940327
O O14 0.728542 0.010724 0.555534
O O15 0.717813 0.745665 0.897967
O O16 0.485200 0.965171 0.275565
O O17 0.410206 0.906168 0.123982
#
# Coordination Sequence:
#
# PCOD9077934 Si02
#       8
#     2   2   2   2   2   2   2   2
#     4  11  21  35  58  93 111 152 191 250 291 328
#     4  11  22  34  62  82 121 153 193 231 290 357
#     4  12  24  38  56  89 123 157 186 234 299 349
#     4  10  19  37  60  84 115 148 200 241 288 335
#     4  10  20  32  58  87 118 138 188 246 295 329
#     4  10  20  38  57  83 115 156 189 236 278 350
#     4  10  18  35  56  85 114 151 191 243 286 339
#     4  10  20  35  57  79 122 149 195 233 290 347
#
# _framework density 19.303059000000001
#
# number of rings (size 3 to 8) (size 9 to 14) (size 15 to 20)
#    0.750    0.750    3.750    3.750    1.750    1.000 
#    0.000    0.000    0.000    3.000    0.000    0.000 
#    0.000    0.000    0.000    0.000    0.000    0.000 
#
# Total GULP energy -89216.636509 kJ/mol
# GULP energy per Si atom -5576.039782 kJ/mol
# Density = 1.925912 g / cm^3
# Si number density = 19.303059 Si / 1000 Ang^3
#
#
#
# Elastic Constant Matrix: (Units=GPa)
#
#
# Indices 1 2 3 4 5 6 
#
# 1 58.7979 23.2032 0.5474 -3.4891 0.8809 -12.1882
# 2 23.2032 89.8238 6.0830 0.2530 -5.4958 -17.8182
# 3 0.5474 6.0830 41.2793 -0.4087 -5.8324 -6.1729
# 4 -3.4891 0.2530 -0.4087 26.4263 1.4956 -1.1082
# 5 0.8809 -5.4958 -5.8324 1.4956 23.4485 -2.0259
# 6 -12.1882 -17.8182 -6.1729 -1.1082 -2.0259 37.0805
#
#
#
# Elastic Compliance Matrix: (Units=1/GPa)
#
#
# Indices 1 2 3 4 5 6 
#
# 1 0.019873 -0.004373 0.000909 0.002948 -0.001336 0.004597
# 2 -0.004373 0.013554 -0.000659 -0.000709 0.003667 0.005145
# 3 0.000909 -0.000659 0.025952 0.000347 0.006648 0.004676
# 4 0.002948 -0.000709 0.000347 0.038455 -0.002496 0.001699
# 5 -0.001336 0.003667 0.006648 -0.002496 0.045789 0.004857
# 6 0.004597 0.005145 0.004676 0.001699 0.004857 0.032046
#
#
# Mechanical properties :
#
#
# Convention : Reuss Voigt Hill
#
# Bulk Modulus (GPa) = 19.55708 27.72981 23.64344
# Shear Modulus (GPa) = 24.88057 28.06224 26.47141
#
# Velocity S-wave (km/s) = 3.59408 3.81697 3.70720
# Velocity P-wave (km/s) = 5.23229 5.81570 5.53169
#
# Compressibility (1/GPa) = 0.05113238
#
# Stress axis : x y z
#
# Youngs Moduli (GPa) = 50.32059 73.77788 38.53221
#
# Poissons Ratio (x) = 0.32264 -0.03501
# Poissons Ratio (y) = 0.22006 0.02539
# Poissons Ratio (z) = -0.04573 0.04861
#
# Static dielectric constant tensor:
#      x y z
#    x 1.690650 -0.012020 0.032850 
#    y -0.012020 1.733160 0.006720 
#    z 0.032850 0.006720 1.711920 
# 
# From -- ./inp_files/171481.got.cif
#   From: 2010.05.17/outbox.cif.g08.bks.cpg/sg2_86_cif.got.tgz:171481.got - 2010.06.03 11:33:40.
