data_PCOD9077718
_publ_section_title
;
Structure prediction by ZEFSAII (Michael W. Deem and Ramdas Pophale) SiO2 
 PCOD9077718
Probable space group: P -1
;
_chemical_formula_sum "Si O2"
_cell_formula_units_Z 16
_cell_length_a 8.431016
_cell_length_b 11.091323
_cell_length_c 16.034376
_cell_angle_alpha 87.737391
_cell_angle_beta 44.279953
_cell_angle_gamma 58.206840
_cell_volume 731.609912
_symmetry_space_group_name_H-M "P -1"
_symmetry_group_IT_number 2
_symmetry_cell_setting 'triclinic'
loop_
_space_group_symop_operation_xyz
x,y,z
-x,-y,-z
loop_
_atom_site_type_symbol
_atom_site_label
_atom_site_fract_x
_atom_site_fract_y
_atom_site_fract_z
Si Si1 0.420661 0.436029 0.219872
Si Si2 0.360578 0.185292 0.288686
Si Si3 0.077661 0.855881 0.090963
Si Si4 0.109678 0.599769 0.852240
Si Si5 0.627497 0.849625 0.896037
Si Si6 0.379338 0.251174 0.829253
Si Si7 0.234671 0.021186 0.440443
Si Si8 0.953834 0.187364 0.702528
O O1 0.286803 0.354041 0.294715
O O2 0.594465 0.425508 0.236345
O O3 0.164575 0.631630 0.277788
O O4 0.707074 0.313736 0.044854
O O5 0.302585 0.139154 0.224539
O O6 0.155866 0.185946 0.432472
O O7 0.743053 0.032944 0.172944
O O8 0.007893 0.840491 0.212440
O O9 0.335142 0.866393 0.002008
O O10 0.205049 0.427601 0.843209
O O11 0.950473 0.672838 0.820650
O O12 0.833270 0.731305 0.021168
O O13 0.500000 0.000000 0.000000
O O14 0.666793 0.208238 0.774239
O O15 0.459815 0.130458 0.726957
O O16 0.242459 0.032790 0.536487
O O17 0.000000 0.000000 0.500000
#
# Coordination Sequence:
#
# PCOD9077718 Si02
#       8
#     2   2   2   2   2   2   2   2
#     4  10  21  38  58  92 125 147 187 255 299 345
#     4  11  24  39  57  87 124 153 191 246 303 343
#     4  11  21  37  59  93 120 152 194 243 296 351
#     4  10  18  34  63  92 117 154 191 243 301 337
#     4  11  20  33  60  92 121 154 190 240 301 355
#     4   9  18  35  59  92 120 146 201 251 277 338
#     4  10  22  41  62  82 114 160 201 243 285 351
#     4  10  21  37  63  84 117 163 203 229 290 352
#
# _framework density 21.869578000000001
#
# number of rings (size 3 to 8) (size 9 to 14) (size 15 to 20)
#    0.000    1.750    1.250    4.875    1.750    1.000 
#    4.500    0.000    2.750    2.250    0.000    0.000 
#    0.000    0.000    0.000    0.000    0.000    0.000 
#
# Total GULP energy -89262.543939 kJ/mol
# GULP energy per Si atom -5578.908996 kJ/mol
# Density = 2.181980 g / cm^3
# Si number density = 21.869578 Si / 1000 Ang^3
#
#
#
# Elastic Constant Matrix: (Units=GPa)
#
#
# Indices 1 2 3 4 5 6 
#
# 1 82.0946 29.9860 10.8115 -4.9680 18.2985 -12.9892
# 2 29.9860 61.0859 13.5575 -7.6721 17.5181 -5.1379
# 3 10.8115 13.5575 63.8148 -11.2208 23.4457 0.6756
# 4 -4.9680 -7.6721 -11.2208 29.3198 1.0355 5.0237
# 5 18.2985 17.5181 23.4457 1.0355 27.1104 -9.1224
# 6 -12.9892 -5.1379 0.6756 5.0237 -9.1224 45.2060
#
#
#
# Elastic Compliance Matrix: (Units=1/GPa)
#
#
# Indices 1 2 3 4 5 6 
#
# 1 0.016289 -0.005601 0.001779 0.001901 -0.008267 0.002138
# 2 -0.005601 0.023492 0.002798 0.007285 -0.015048 -0.002828
# 3 0.001779 0.002798 0.028747 0.014402 -0.030924 -0.007441
# 4 0.001901 0.007285 0.014402 0.044091 -0.022946 -0.008371
# 5 -0.008267 -0.015048 -0.030924 -0.022946 0.085236 0.016127
# 6 0.002138 -0.002828 -0.007441 -0.008371 0.016127 0.026710
#
#
# Mechanical properties :
#
#
# Convention : Reuss Voigt Hill
#
# Bulk Modulus (GPa) = 15.04247 35.07838 25.06042
# Shear Modulus (GPa) = 20.09863 30.50328 25.30095
#
# Velocity S-wave (km/s) = 3.03483 3.73873 3.40502
# Velocity P-wave (km/s) = 4.37875 5.89170 5.19064
#
# Compressibility (1/GPa) = 0.06647844
#
# Stress axis : x y z
#
# Youngs Moduli (GPa) = 61.39264 42.56830 34.78594
#
# Poissons Ratio (x) = 0.23844 -0.06189
# Poissons Ratio (y) = 0.34389 -0.09732
# Poissons Ratio (z) = -0.10923 -0.11909
#
# Static dielectric constant tensor:
#      x y z
#    x 1.838670 -0.005420 -0.018070 
#    y -0.005420 1.880130 -0.003400 
#    z -0.018070 -0.003400 1.911650 
# 
# From -- ./inp_files/354418.got.cif
#   From: 2010.05.17/outbox.cif.g08.bks.cpg/sg2_178_cif.got.tgz:354418.got - 2010.06.03 11:33:40.
