data_PCOD9077271
_publ_section_title
;
Structure prediction by ZEFSAII (Michael W. Deem and Ramdas Pophale) SiO2 
 PCOD9077271
Probable space group: P -1
;
_chemical_formula_sum "Si O2"
_cell_formula_units_Z 14
_cell_length_a 11.449261
_cell_length_b 8.693170
_cell_length_c 14.327068
_cell_angle_alpha 67.273871
_cell_angle_beta 145.764613
_cell_angle_gamma 133.627606
_cell_volume 517.974243
_symmetry_space_group_name_H-M "P -1"
_symmetry_group_IT_number 2
_symmetry_cell_setting 'triclinic'
loop_
_space_group_symop_operation_xyz
x,y,z
-x,-y,-z
loop_
_atom_site_type_symbol
_atom_site_label
_atom_site_fract_x
_atom_site_fract_y
_atom_site_fract_z
Si Si1 0.278908 0.698424 0.273797
Si Si2 0.249975 0.061460 0.220947
Si Si3 0.062092 0.916322 0.865409
Si Si4 0.777166 0.597109 0.382020
Si Si5 0.014652 0.680264 0.708149
Si Si6 0.677320 0.427425 0.844388
Si Si7 0.658903 0.418836 0.153908
O O1 0.292615 0.561854 0.391430
O O2 0.300448 0.896088 0.277233
O O3 0.460558 0.760819 0.285996
O O4 0.936930 0.487152 0.058320
O O5 0.554488 0.327357 0.336988
O O6 0.112213 0.011970 0.244929
O O7 0.000000 0.000000 0.000000
O O8 0.110316 0.870842 0.804281
O O9 0.855511 0.674905 0.847373
O O10 0.388896 0.139353 0.068996
O O11 0.563253 0.635094 0.231033
O O12 0.859112 0.583474 0.336655
O O13 0.995496 0.748240 0.577131
O O14 0.175633 0.596470 0.810126
O O15 0.500000 0.500000 0.000000
#
# Coordination Sequence:
#
# PCOD9077271 Si02
#       7
#     2   2   2   2   2   2   2
#     4  10  18  34  57  94 113 151 198 234 285 355
#     4  11  18  36  64  89 117 152 195 241 289 349
#     4  10  20  38  61  86 114 155 197 238 292 342
#     4  11  22  40  59  87 122 154 189 250 306 332
#     4  11  25  37  58  89 124 153 192 245 301 344
#     4   9  18  34  62  85 119 148 196 240 288 348
#     4  12  23  41  64  82 112 162 210 238 275 363
#
# _framework density 27.028371
#
# number of rings (size 3 to 8) (size 9 to 14) (size 15 to 20)
#    0.000    1.429    4.286    2.571    0.000    5.714 
#    0.000    2.143    0.000    0.000    0.000    0.000 
#    0.000    0.000    0.000    0.000    0.000    0.000 
#
# Total GULP energy -78181.649983 kJ/mol
# GULP energy per Si atom -5584.403570 kJ/mol
# Density = 2.696685 g / cm^3
# Si number density = 27.028371 Si / 1000 Ang^3
#
#
#
# Elastic Constant Matrix: (Units=GPa)
#
#
# Indices 1 2 3 4 5 6 
#
# 1 198.7772 35.3460 29.6483 13.2295 -39.4486 -46.4714
# 2 35.3460 72.8867 0.3210 -0.3168 -7.6788 -18.1043
# 3 29.6483 0.3210 69.3031 -7.7184 -28.5872 -6.3120
# 4 13.2295 -0.3168 -7.7184 16.2988 -5.0707 -6.5468
# 5 -39.4486 -7.6788 -28.5872 -5.0707 46.9112 6.5651
# 6 -46.4714 -18.1043 -6.3120 -6.5468 6.5651 57.2863
#
#
#
# Elastic Compliance Matrix: (Units=1/GPa)
#
#
# Indices 1 2 3 4 5 6 
#
# 1 0.007826 -0.002253 -0.001690 -0.004107 0.004108 0.004511
# 2 -0.002253 0.016093 0.003022 0.005999 0.002674 0.003971
# 3 -0.001690 0.003022 0.023649 0.018358 0.015112 0.002556
# 4 -0.004107 0.005999 0.018358 0.081848 0.016435 0.008057
# 5 0.004108 0.002674 0.015112 0.016435 0.035686 0.003631
# 6 0.004511 0.003971 0.002556 0.008057 0.003631 0.023157
#
#
# Mechanical properties :
#
#
# Convention : Reuss Voigt Hill
#
# Bulk Modulus (GPa) = 21.86848 52.39973 37.13411
# Shear Modulus (GPa) = 24.34956 42.47605 33.41280
#
# Velocity S-wave (km/s) = 3.00474 3.96856 3.51980
# Velocity P-wave (km/s) = 4.48848 6.35833 5.50340
#
# Compressibility (1/GPa) = 0.04572792
#
# Stress axis : x y z
#
# Youngs Moduli (GPa) = 127.77187 62.13833 42.28471
#
# Poissons Ratio (x) = 0.13997 0.07146
# Poissons Ratio (y) = 0.28782 -0.12779
# Poissons Ratio (z) = 0.21593 -0.18779
#
# Static dielectric constant tensor:
#      x y z
#    x 2.173840 -0.052780 -0.054710 
#    y -0.052780 2.146230 -0.008190 
#    z -0.054710 -0.008190 2.230210 
# 
# From -- ./inp_files/460427.got.cif
#   From: 2010.05.17/outbox.cif.g08.bks.cpg/sg2_231_cif.got.tgz:460427.got - 2010.06.03 11:33:40.
