data_PCOD9077935
_publ_section_title
;
Structure prediction by ZEFSAII (Michael W. Deem and Ramdas Pophale) SiO2 
 PCOD9077935
Probable space group: P -1
;
_chemical_formula_sum "Si O2"
_cell_formula_units_Z 16
_cell_length_a 11.726385
_cell_length_b 13.464014
_cell_length_c 8.492978
_cell_angle_alpha 41.340739
_cell_angle_beta 66.085189
_cell_angle_gamma 55.066603
_cell_volume 725.380665
_symmetry_space_group_name_H-M "P -1"
_symmetry_group_IT_number 2
_symmetry_cell_setting 'triclinic'
loop_
_space_group_symop_operation_xyz
x,y,z
-x,-y,-z
loop_
_atom_site_type_symbol
_atom_site_label
_atom_site_fract_x
_atom_site_fract_y
_atom_site_fract_z
Si Si1 0.713424 0.758231 0.052816
Si Si2 0.415305 0.183100 0.625804
Si Si3 0.552433 0.148655 0.114183
Si Si4 0.642023 0.581927 0.880786
Si Si5 0.706073 0.328925 0.697465
Si Si6 0.584998 0.356364 0.403517
Si Si7 0.876267 0.656902 0.802521
Si Si8 0.939622 0.422468 0.488719
O O1 0.656962 0.850309 0.140491
O O2 0.825636 0.579191 0.266956
O O3 0.574298 0.763556 0.045616
O O4 0.794047 0.795567 0.818133
O O5 0.336394 0.364181 0.369837
O O6 0.555108 0.195765 0.585224
O O7 0.426838 0.039702 0.670154
O O8 0.495376 0.257366 0.172818
O O9 0.683834 0.171316 0.956107
O O10 0.768503 0.585859 0.898893
O O11 0.624644 0.421588 0.141931
O O12 0.695083 0.330558 0.511050
O O13 0.562549 0.490845 0.638263
O O14 0.844614 0.328705 0.691428
O O15 0.937791 0.690908 0.566439
O O16 0.000000 0.500000 0.000000
O O17 0.000000 0.500000 0.500000
#
# Coordination Sequence:
#
# PCOD9077935 Si02
#       8
#     2   2   2   2   2   2   2   2
#     4  10  19  35  56  83 113 145 192 231 271 348
#     4  12  20  33  57  91 114 150 184 224 295 351
#     4  10  21  36  58  84 118 154 179 222 298 350
#     4  10  21  35  53  87 122 140 182 247 285 329
#     4  10  18  35  56  85 115 144 183 237 284 336
#     4  10  19  33  58  85 118 141 182 239 294 328
#     4   9  19  34  54  80 109 151 188 232 281 321
#     4  11  20  34  59  86 109 147 197 240 278 325
#
# _framework density 22.057383999999999
#
# number of rings (size 3 to 8) (size 9 to 14) (size 15 to 20)
#    0.000    1.750    2.500    4.875    0.000    0.000 
#    0.000    0.000    0.000    3.750    6.500    0.000 
#    0.000    0.000    0.000    0.000    0.000    0.000 
#
# Total GULP energy -89078.825614 kJ/mol
# GULP energy per Si atom -5567.426601 kJ/mol
# Density = 2.200718 g / cm^3
# Si number density = 22.057384 Si / 1000 Ang^3
#
#
#
# Elastic Constant Matrix: (Units=GPa)
#
#
# Indices 1 2 3 4 5 6 
#
# 1 98.1931 16.1729 41.8449 14.7209 -15.8254 10.8478
# 2 16.1729 59.4891 32.3612 14.0980 -16.0873 7.1138
# 3 41.8449 32.3612 107.6962 10.7410 -20.4373 3.6024
# 4 14.7209 14.0980 10.7410 27.9423 4.8196 -4.2682
# 5 -15.8254 -16.0873 -20.4373 4.8196 34.4278 3.9749
# 6 10.8478 7.1138 3.6024 -4.2682 3.9749 25.0855
#
#
#
# Elastic Compliance Matrix: (Units=1/GPa)
#
#
# Indices 1 2 3 4 5 6 
#
# 1 0.016042 0.005255 -0.004097 -0.013152 0.010597 -0.011756
# 2 0.005255 0.030319 -0.004833 -0.022022 0.018747 -0.016894
# 3 -0.004097 -0.004833 0.013123 -0.001016 0.003734 0.000493
# 4 -0.013152 -0.022022 -0.001016 0.063413 -0.028987 0.027461
# 5 0.010597 0.018747 0.003734 -0.028987 0.051671 -0.023555
# 6 -0.011756 -0.016894 0.000493 0.027461 -0.023555 0.058072
#
#
# Mechanical properties :
#
#
# Convention : Reuss Voigt Hill
#
# Bulk Modulus (GPa) = 19.18078 49.57072 34.37575
# Shear Modulus (GPa) = 19.42734 29.15775 24.29254
#
# Velocity S-wave (km/s) = 2.97099 3.63974 3.32224
# Velocity P-wave (km/s) = 4.52590 6.33924 5.50771
#
# Compressibility (1/GPa) = 0.05213551
#
# Stress axis : x y z
#
# Youngs Moduli (GPa) = 62.33451 32.98234 76.20285
#
# Poissons Ratio (x) = -0.17333 0.31217
# Poissons Ratio (y) = -0.32759 0.36831
# Poissons Ratio (z) = 0.25536 0.15941
#
# Static dielectric constant tensor:
#      x y z
#    x 1.837480 0.019720 0.015910 
#    y 0.019720 1.905230 0.076870 
#    z 0.015910 0.076870 1.909350 
# 
# From -- ./inp_files/208979.got.cif
#   From: 2010.05.17/outbox.cif.g08.bks.cpg/sg2_105_cif.got.tgz:208979.got - 2010.06.03 11:33:40.
