data_PCOD9077999
_publ_section_title
;
Structure prediction by ZEFSAII (Michael W. Deem and Ramdas Pophale) SiO2 
 PCOD9077999
Probable space group: P -1
;
_chemical_formula_sum "Si O2"
_cell_formula_units_Z 16
_cell_length_a 12.561872
_cell_length_b 10.874890
_cell_length_c 23.510172
_cell_angle_alpha 155.512532
_cell_angle_beta 150.192207
_cell_angle_gamma 41.132605
_cell_volume 651.300880
_symmetry_space_group_name_H-M "P -1"
_symmetry_group_IT_number 2
_symmetry_cell_setting 'triclinic'
loop_
_space_group_symop_operation_xyz
x,y,z
-x,-y,-z
loop_
_atom_site_type_symbol
_atom_site_label
_atom_site_fract_x
_atom_site_fract_y
_atom_site_fract_z
Si Si1 0.994136 0.566342 0.764769
Si Si2 0.055220 0.858996 0.601567
Si Si3 0.164041 0.248827 0.123663
Si Si4 0.802326 0.907005 0.123803
Si Si5 0.714082 0.241968 0.844373
Si Si6 0.880311 0.752119 0.665782
Si Si7 0.710884 0.686423 0.273366
Si Si8 0.505706 0.991859 0.890460
O O1 0.830274 0.534418 0.728190
O O2 0.142601 0.317061 0.716459
O O3 0.887153 0.607236 0.671011
O O4 0.138087 0.896468 0.983167
O O5 0.297397 0.038353 0.774968
O O6 0.862376 0.833680 0.457007
O O7 0.012175 0.996541 0.700555
O O8 0.111090 0.521175 0.487659
O O9 0.373345 0.260196 0.185669
O O10 0.943595 0.270538 0.996274
O O11 0.906183 0.010811 0.155903
O O12 0.616845 0.078867 0.135865
O O13 0.721981 0.551875 0.944083
O O14 0.700705 0.960782 0.677218
O O15 0.515806 0.199253 0.779148
O O16 0.647225 0.324594 0.101564
#
# Coordination Sequence:
#
# PCOD9077999 Si02
#       8
#     2   2   2   2   2   2   2   2
#     4   8  17  31  58  81 107 150 190 232 267 336
#     4   9  19  36  59  81 111 153 191 227 273 340
#     4   9  16  34  55  86 111 141 194 232 279 325
#     4   9  19  36  57  82 116 150 179 234 287 335
#     4  10  20  33  56  84 120 149 177 236 285 337
#     4  10  18  35  57  83 116 143 193 234 275 331
#     4   9  17  36  53  81 115 150 185 223 286 337
#     4   8  18  34  59  81 111 150 188 235 271 333
#
# _framework density 24.566217000000002
#
# number of rings (size 3 to 8) (size 9 to 14) (size 15 to 20)
#    0.750    2.250    0.000    1.500    0.000    0.500 
#    2.250   29.375    0.000    3.000    0.000    0.000 
#    0.000    0.000    0.000    0.000    0.000    0.000 
#
# Total GULP energy -89072.554316 kJ/mol
# GULP energy per Si atom -5567.034645 kJ/mol
# Density = 2.451030 g / cm^3
# Si number density = 24.566217 Si / 1000 Ang^3
#
#
#
# Elastic Constant Matrix: (Units=GPa)
#
#
# Indices 1 2 3 4 5 6 
#
# 1 134.8922 52.8137 14.5749 -4.5698 -16.7647 -34.9113
# 2 52.8137 82.9704 17.7524 -2.2456 -0.0729 -17.1753
# 3 14.5749 17.7524 71.3593 -0.8340 -6.6692 11.0598
# 4 -4.5698 -2.2456 -0.8340 39.2708 -8.9824 -1.9465
# 5 -16.7647 -0.0729 -6.6692 -8.9824 23.7688 -0.5746
# 6 -34.9113 -17.1753 11.0598 -1.9465 -0.5746 37.4164
#
#
#
# Elastic Compliance Matrix: (Units=1/GPa)
#
#
# Indices 1 2 3 4 5 6 
#
# 1 0.014907 -0.006403 -0.002146 0.004650 0.011941 0.012029
# 2 -0.006403 0.017646 -0.004146 -0.001023 -0.005934 0.003207
# 3 -0.002146 -0.004146 0.017160 0.000151 0.003130 -0.008922
# 4 0.004650 -0.001023 0.000151 0.029573 0.014630 0.005588
# 5 0.011941 -0.005934 0.003130 0.014630 0.057104 0.009130
# 6 0.012029 0.003207 -0.008922 0.005588 0.009130 0.042490
#
#
# Mechanical properties :
#
#
# Convention : Reuss Voigt Hill
#
# Bulk Modulus (GPa) = 41.11145 51.05597 46.08371
# Shear Modulus (GPa) = 23.54284 33.69658 28.61971
#
# Velocity S-wave (km/s) = 3.09907 3.70762 3.41692
# Velocity P-wave (km/s) = 5.43847 6.25753 5.86232
#
# Compressibility (1/GPa) = 0.02432412
#
# Stress axis : x y z
#
# Youngs Moduli (GPa) = 67.08225 56.66890 58.27414
#
# Poissons Ratio (x) = 0.36287 0.12505
# Poissons Ratio (y) = 0.42955 0.24159
# Poissons Ratio (z) = 0.14395 0.23493
#
# Static dielectric constant tensor:
#      x y z
#    x 2.042180 -0.029490 0.029010 
#    y -0.029490 2.013980 -0.064310 
#    z 0.029010 -0.064310 2.059130 
# 
# From -- ./inp_files/610233.got.cif
#   From: 2010.05.17/outbox.cif.g08.bks.cpg/sg2_306_cif.got.tgz:610233.got - 2010.06.03 11:33:40.
