data_PCOD9077367
_publ_section_title
;
Structure prediction by ZEFSAII (Michael W. Deem and Ramdas Pophale) SiO2 
 PCOD9077367
Probable space group: P -1
;
_chemical_formula_sum "Si O2"
_cell_formula_units_Z 16
_cell_length_a 16.479818
_cell_length_b 11.409795
_cell_length_c 16.511154
_cell_angle_alpha 46.453090
_cell_angle_beta 148.524961
_cell_angle_gamma 152.143061
_cell_volume 729.987506
_symmetry_space_group_name_H-M "P -1"
_symmetry_group_IT_number 2
_symmetry_cell_setting 'triclinic'
loop_
_space_group_symop_operation_xyz
x,y,z
-x,-y,-z
loop_
_atom_site_type_symbol
_atom_site_label
_atom_site_fract_x
_atom_site_fract_y
_atom_site_fract_z
Si Si1 0.039456 0.277700 0.172369
Si Si2 0.946116 0.398787 0.590296
Si Si3 0.315186 0.564801 0.429887
Si Si4 0.600286 0.980033 0.709841
Si Si5 0.181981 0.753713 0.765783
Si Si6 0.720781 0.317992 0.950163
Si Si7 0.710629 0.806080 0.013398
Si Si8 0.825940 0.979095 0.752528
O O1 0.242100 0.429299 0.344974
O O2 0.170099 0.445554 0.120782
O O3 0.864964 0.985150 0.139505
O O4 0.850948 0.265734 0.046588
O O5 0.674441 0.244560 0.456676
O O6 0.923417 0.189752 0.670805
O O7 0.000000 0.500000 0.500000
O O8 0.144936 0.624824 0.714441
O O9 0.065064 0.346663 0.374651
O O10 0.345148 0.785826 0.338393
O O11 0.563414 0.704756 0.620755
O O12 0.770454 0.035042 0.760117
O O13 0.598815 0.873466 0.841244
O O14 0.423768 0.061339 0.816063
O O15 0.217658 0.652853 0.916667
O O16 0.931407 0.933934 0.078042
O O17 0.500000 0.500000 0.000000
#
# Coordination Sequence:
#
# PCOD9077367 Si02
#       8
#     2   2   2   2   2   2   2   2
#     4  10  22  39  62  90 126 164 209 254 319 365
#     4  11  22  34  63  95 127 159 208 266 305 364
#     4  10  20  41  69  94 123 160 212 266 307 368
#     4  11  21  42  64  92 125 167 212 253 317 373
#     4  10  18  34  58  95 126 151 204 262 316 358
#     4   9  20  35  62  94 121 161 203 272 305 361
#     4  12  27  42  61  92 131 169 209 256 314 383
#     4  11  23  41  62  92 129 175 202 254 319 379
#
# _framework density 21.918182999999999
#
# number of rings (size 3 to 8) (size 9 to 14) (size 15 to 20)
#    0.000    1.500    2.500    4.125    7.000    0.500 
#    0.000    0.000    0.000    1.500    0.000    0.000 
#    0.000    0.000    0.000    0.000    0.000    0.000 
#
# Total GULP energy -89322.346820 kJ/mol
# GULP energy per Si atom -5582.646676 kJ/mol
# Density = 2.186830 g / cm^3
# Si number density = 21.918183 Si / 1000 Ang^3
#
#
#
# Elastic Constant Matrix: (Units=GPa)
#
#
# Indices 1 2 3 4 5 6 
#
# 1 81.2943 41.0819 24.1465 12.8522 -16.6283 1.9463
# 2 41.0819 85.0780 43.6764 28.2857 -16.5819 8.3974
# 3 24.1465 43.6764 82.8842 21.6670 0.4058 2.0130
# 4 12.8522 28.2857 21.6670 26.3707 -10.5051 -7.6992
# 5 -16.6283 -16.5819 0.4058 -10.5051 36.5415 3.6106
# 6 1.9463 8.3974 2.0130 -7.6992 3.6106 31.0370
#
#
#
# Elastic Compliance Matrix: (Units=1/GPa)
#
#
# Indices 1 2 3 4 5 6 
#
# 1 0.017249 -0.007768 -0.002119 0.004292 0.005424 0.001591
# 2 -0.007768 0.028985 -0.006306 -0.024471 0.003985 -0.013480
# 3 -0.002119 -0.006306 0.018932 -0.010943 -0.007055 -0.001283
# 4 0.004292 -0.024471 -0.010943 0.083725 0.012433 0.026385
# 5 0.005424 0.003985 -0.007055 0.012433 0.035494 -0.002006
# 6 0.001591 -0.013480 -0.001283 0.026385 -0.002006 0.042629
#
#
# Mechanical properties :
#
#
# Convention : Reuss Voigt Hill
#
# Bulk Modulus (GPa) = 30.50615 51.89623 41.20119
# Shear Modulus (GPa) = 18.49624 28.14662 23.32143
#
# Velocity S-wave (km/s) = 2.90811 3.58742 3.26547
# Velocity P-wave (km/s) = 5.02240 6.39438 5.74946
#
# Compressibility (1/GPa) = 0.03278028
#
# Stress axis : x y z
#
# Youngs Moduli (GPa) = 57.97530 34.50023 52.82129
#
# Poissons Ratio (x) = 0.26800 0.11192
# Poissons Ratio (y) = 0.45035 0.33309
# Poissons Ratio (z) = 0.12284 0.21756
#
# Static dielectric constant tensor:
#      x y z
#    x 1.850700 -0.007480 0.033210 
#    y -0.007480 1.799140 0.013490 
#    z 0.033210 0.013490 1.918590 
# 
# From -- ./inp_files/575965.got.cif
#   From: 2010.05.17/outbox.cif.g08.bks.cpg/sg2_288_cif.got.tgz:575965.got - 2010.06.03 11:33:40.
