data_PCOD9077005
_publ_section_title
;
Structure prediction by ZEFSAII (Michael W. Deem and Ramdas Pophale) SiO2 
 PCOD9077005
Probable space group: P -1
;
_chemical_formula_sum "Si O2"
_cell_formula_units_Z 14
_cell_length_a 10.073489
_cell_length_b 22.835252
_cell_length_c 9.730054
_cell_angle_alpha 147.422472
_cell_angle_beta 114.851640
_cell_angle_gamma 40.487717
_cell_volume 607.007643
_symmetry_space_group_name_H-M "P -1"
_symmetry_group_IT_number 2
_symmetry_cell_setting 'triclinic'
loop_
_space_group_symop_operation_xyz
x,y,z
-x,-y,-z
loop_
_atom_site_type_symbol
_atom_site_label
_atom_site_fract_x
_atom_site_fract_y
_atom_site_fract_z
Si Si1 0.143593 0.403240 0.721317
Si Si2 0.803519 0.793455 0.264856
Si Si3 0.635275 0.215054 0.675795
Si Si4 0.184545 0.141274 0.284137
Si Si5 0.299231 0.854458 0.875836
Si Si6 0.139567 0.020888 0.430970
Si Si7 0.415736 0.555966 0.415621
O O1 0.403396 0.315032 0.678888
O O2 0.221660 0.228884 0.385713
O O3 0.000000 0.500000 0.000000
O O4 0.937726 0.592941 0.907712
O O5 0.818823 0.812860 0.470715
O O6 0.958760 0.795119 0.261253
O O7 0.500000 0.000000 0.500000
O O8 0.904953 0.078503 0.447851
O O9 0.696616 0.092447 0.582125
O O10 0.551291 0.376219 0.035501
O O11 0.894500 0.278544 0.392837
O O12 0.356882 0.924020 0.943646
O O13 0.300290 0.894437 0.113610
O O14 0.462912 0.642150 0.531635
O O15 0.000000 0.000000 0.000000
O O16 0.500000 0.500000 0.500000
#
# Coordination Sequence:
#
# PCOD9077005 Si02
#       7
#     2   2   2   2   2   2   2
#     4  10  18  34  54  81 114 143 194 238 279 339
#     4  10  19  31  54  84 112 146 182 238 286 331
#     4  11  21  35  56  89 114 150 186 241 290 330
#     4   9  19  33  53  82 109 141 195 231 274 331
#     4   9  19  35  52  81 112 147 187 227 274 345
#     4  10  21  35  53  87 119 143 190 238 289 329
#     4  11  19  33  57  82 114 153 192 228 280 348
#
# _framework density 23.063959000000001
#
# number of rings (size 3 to 8) (size 9 to 14) (size 15 to 20)
#    0.000    2.000    4.286    1.714    0.000    0.571 
#    0.000    0.000    0.000    3.429    3.714    7.000 
#    0.000    0.000    0.000    0.000    0.000    0.000 
#
# Total GULP energy -78122.621645 kJ/mol
# GULP energy per Si atom -5580.187260 kJ/mol
# Density = 2.301146 g / cm^3
# Si number density = 23.063959 Si / 1000 Ang^3
#
#
#
# Elastic Constant Matrix: (Units=GPa)
#
#
# Indices 1 2 3 4 5 6 
#
# 1 86.3598 30.6189 57.2809 9.8213 42.2511 9.6113
# 2 30.6189 111.0858 31.5524 23.0266 4.1991 -4.8490
# 3 57.2809 31.5524 102.5260 5.2604 47.9901 17.3911
# 4 9.8213 23.0266 5.2604 32.2327 8.5728 6.0175
# 5 42.2511 4.1991 47.9901 8.5728 55.2684 8.7156
# 6 9.6113 -4.8490 17.3911 6.0175 8.7156 25.8781
#
#
#
# Elastic Compliance Matrix: (Units=1/GPa)
#
#
# Indices 1 2 3 4 5 6 
#
# 1 0.022898 -0.004568 -0.005337 0.000780 -0.012362 -0.001792
# 2 -0.004568 0.014878 -0.007181 -0.012169 0.009051 0.009092
# 3 -0.005337 -0.007181 0.023852 0.009307 -0.015588 -0.012307
# 4 0.000780 -0.012169 0.009307 0.044001 -0.012222 -0.014940
# 5 -0.012362 0.009051 -0.015588 -0.012222 0.041394 0.005664
# 6 -0.001792 0.009092 -0.012307 -0.014940 0.005664 0.050849
#
#
# Mechanical properties :
#
#
# Convention : Reuss Voigt Hill
#
# Bulk Modulus (GPa) = 36.42194 59.87510 48.14852
# Shear Modulus (GPa) = 20.73010 34.71046 27.72028
#
# Velocity S-wave (km/s) = 3.00127 3.88360 3.47059
# Velocity P-wave (km/s) = 5.27600 6.79166 6.08123
#
# Compressibility (1/GPa) = 0.02745598
#
# Stress axis : x y z
#
# Youngs Moduli (GPa) = 43.67279 67.21288 41.92584
#
# Poissons Ratio (x) = 0.30703 0.22375
# Poissons Ratio (y) = 0.19950 0.30107
# Poissons Ratio (z) = 0.23307 0.48265
#
# Static dielectric constant tensor:
#      x y z
#    x 1.943620 0.002490 0.059440 
#    y 0.002490 1.855510 -0.025760 
#    z 0.059440 -0.025760 1.958800 
# 
# From -- ./inp_files/406803.got.cif
#   From: 2010.05.17/outbox.cif.g08.bks.cpg/sg2_204_cif.got.tgz:406803.got - 2010.06.03 11:33:40.
