data_PCOD9077401
_publ_section_title
;
Structure prediction by ZEFSAII (Michael W. Deem and Ramdas Pophale) SiO2 
 PCOD9077401
Probable space group: P -1
;
_chemical_formula_sum "Si O2"
_cell_formula_units_Z 16
_cell_length_a 5.019827
_cell_length_b 10.755964
_cell_length_c 16.228040
_cell_angle_alpha 72.404960
_cell_angle_beta 76.028907
_cell_angle_gamma 74.356514
_cell_volume 791.972332
_symmetry_space_group_name_H-M "P -1"
_symmetry_group_IT_number 2
_symmetry_cell_setting 'triclinic'
loop_
_space_group_symop_operation_xyz
x,y,z
-x,-y,-z
loop_
_atom_site_type_symbol
_atom_site_label
_atom_site_fract_x
_atom_site_fract_y
_atom_site_fract_z
Si Si1 0.104757 0.736552 0.707941
Si Si2 0.250767 0.427000 0.052508
Si Si3 0.885407 0.281907 0.732558
Si Si4 0.314246 0.431356 0.239664
Si Si5 0.465270 0.189464 0.654093
Si Si6 0.707219 0.096547 0.483348
Si Si7 0.230661 0.032467 0.824268
Si Si8 0.788612 0.867158 0.863551
O O1 0.365219 0.648360 0.757466
O O2 0.246953 0.815480 0.615245
O O3 0.895643 0.830006 0.768942
O O4 0.909830 0.650737 0.692712
O O5 0.217546 0.445339 0.149203
O O6 0.280258 0.268333 0.068392
O O7 0.500000 0.500000 0.000000
O O8 0.000000 0.500000 0.000000
O O9 0.170863 0.296058 0.661412
O O10 0.722214 0.423051 0.748400
O O11 0.686532 0.218223 0.699784
O O12 0.016659 0.176636 0.816627
O O13 0.596191 0.178666 0.557108
O O14 0.358986 0.055605 0.718861
O O15 0.500000 0.000000 0.500000
O O16 0.000000 0.000000 0.500000
O O17 0.510583 0.983992 0.865385
O O18 0.049395 0.920871 0.869260
#
# Coordination Sequence:
#
# PCOD9077401 Si02
#       8
#     2   2   2   2   2   2   2   2
#     4  11  23  37  58  90 117 160 201 245 303 340
#     4  11  23  40  62  92 118 149 186 242 312 358
#     4  10  21  38  61  84 116 162 212 230 283 350
#     4  11  23  43  63  85 121 156 202 240 285 370
#     4  10  20  36  55  89 113 160 210 234 292 335
#     4  12  23  37  57  86 130 157 195 258 307 336
#     4  10  18  34  59  85 114 149 205 232 285 337
#     4  11  19  35  60  87 117 147 192 246 289 358
#
# _framework density 20.202726999999999
#
# number of rings (size 3 to 8) (size 9 to 14) (size 15 to 20)
#    0.750    0.500    1.250    7.500    0.000    0.000 
#    0.000    3.750    0.000    4.500    0.000    0.000 
#    0.000    0.000    0.000    0.000    0.000    0.000 
#
# Total GULP energy -89161.159588 kJ/mol
# GULP energy per Si atom -5572.572474 kJ/mol
# Density = 2.015674 g / cm^3
# Si number density = 20.202727 Si / 1000 Ang^3
#
#
#
# Elastic Constant Matrix: (Units=GPa)
#
#
# Indices 1 2 3 4 5 6 
#
# 1 151.8908 32.0009 16.0834 -6.6562 -3.5588 5.6879
# 2 32.0009 54.7701 0.1360 -8.8344 0.4309 -0.3594
# 3 16.0834 0.1360 40.6387 -23.0415 -6.3702 2.9326
# 4 -6.6562 -8.8344 -23.0415 19.4610 8.7560 -5.4306
# 5 -3.5588 0.4309 -6.3702 8.7560 28.9758 -9.7605
# 6 5.6879 -0.3594 2.9326 -5.4306 -9.7605 27.0373
#
#
#
# Elastic Compliance Matrix: (Units=1/GPa)
#
#
# Indices 1 2 3 4 5 6 
#
# 1 0.009211 -0.008564 -0.014053 -0.019660 0.002962 -0.003407
# 2 -0.008564 0.033041 0.035519 0.060418 -0.009616 0.007052
# 3 -0.014053 0.035519 0.121620 0.169461 -0.021116 0.016652
# 4 -0.019660 0.060418 0.169461 0.302429 -0.047260 0.030242
# 5 0.002962 -0.009616 -0.021116 -0.047260 0.047790 0.009299
# 6 -0.003407 0.007052 0.016652 0.030242 0.009299 0.045422
#
#
# Mechanical properties :
#
#
# Convention : Reuss Voigt Hill
#
# Bulk Modulus (GPa) = 5.27217 38.19335 21.73276
# Shear Modulus (GPa) = 8.37611 28.36677 18.37144
#
# Velocity S-wave (km/s) = 2.03839 3.75121 3.01882
# Velocity P-wave (km/s) = 2.85576 6.14070 4.78871
#
# Compressibility (1/GPa) = 0.18967515
#
# Stress axis : x y z
#
# Youngs Moduli (GPa) = 108.56000 30.26545 8.22231
#
# Poissons Ratio (x) = 0.25919 0.11555
# Poissons Ratio (y) = 0.92970 -0.29204
# Poissons Ratio (z) = 1.52564 -1.07498
#
# Static dielectric constant tensor:
#      x y z
#    x 1.742520 0.004040 -0.078120 
#    y 0.004040 1.755110 -0.036060 
#    z -0.078120 -0.036060 1.825420 
# 
# From -- ./inp_files/547964.got.cif
#   From: 2010.05.17/outbox.cif.g08.bks.cpg/sg2_274_cif.got.tgz:547964.got - 2010.06.03 11:33:40.
