data_PCOD9077132
_publ_section_title
;
Structure prediction by ZEFSAII (Michael W. Deem and Ramdas Pophale) SiO2 
 PCOD9077132
Probable space group: P -1
;
_chemical_formula_sum "Si O2"
_cell_formula_units_Z 16
_cell_length_a 10.940119
_cell_length_b 11.071188
_cell_length_c 13.954090
_cell_angle_alpha 31.876416
_cell_angle_beta 80.956760
_cell_angle_gamma 74.149567
_cell_volume 849.250731
_symmetry_space_group_name_H-M "P -1"
_symmetry_group_IT_number 2
_symmetry_cell_setting 'triclinic'
loop_
_space_group_symop_operation_xyz
x,y,z
-x,-y,-z
loop_
_atom_site_type_symbol
_atom_site_label
_atom_site_fract_x
_atom_site_fract_y
_atom_site_fract_z
Si Si1 0.416364 0.656451 0.321470
Si Si2 0.747671 0.853518 0.925970
Si Si3 0.826091 0.998830 0.611627
Si Si4 0.002639 0.193696 0.950512
Si Si5 0.091816 0.119915 0.702339
Si Si6 0.191100 0.505504 0.527231
Si Si7 0.062146 0.248357 0.421417
Si Si8 0.339995 0.514720 0.704639
O O1 0.500000 0.500000 0.500000
O O2 0.286020 0.573489 0.392155
O O3 0.510647 0.606203 0.253582
O O4 0.372470 0.926475 0.180848
O O5 0.802660 0.889507 0.790381
O O6 0.710529 0.612477 0.115968
O O7 0.857355 0.860403 0.984140
O O8 0.697103 0.203730 0.466123
O O9 0.937952 0.139978 0.505060
O O10 0.868260 0.809401 0.649833
O O11 0.967659 0.470788 0.741882
O O12 0.912354 0.130654 0.086316
O O13 0.000000 0.000000 0.000000
O O14 0.163944 0.258895 0.669289
O O15 0.141545 0.114334 0.592093
O O16 0.944106 0.291127 0.598467
O O17 0.261610 0.488776 0.632945
#
# Coordination Sequence:
#
# PCOD9077132 Si02
#       8
#     2   2   2   2   2   2   2   2
#     4  10  19  34  57  83 115 145 189 230 288 327
#     4  12  20  35  55  87 113 148 184 232 287 325
#     4  11  22  37  54  78 118 152 192 226 271 339
#     4  12  22  33  57  87 117 146 180 226 285 346
#     4  11  19  35  54  79 119 144 178 227 285 330
#     4  10  18  34  56  83 113 145 176 233 283 333
#     4  11  23  36  53  82 114 155 188 227 275 336
#     4  11  20  36  55  84 113 147 188 234 280 331
#
# _framework density 18.840136999999999
#
# number of rings (size 3 to 8) (size 9 to 14) (size 15 to 20)
#    0.000    1.000    7.500    2.625    0.000    1.500 
#    0.000    0.000    0.000    0.750    0.000    1.750 
#    0.000    0.000    0.000    0.000    0.000    0.000 
#
# Total GULP energy -89215.358027 kJ/mol
# GULP energy per Si atom -5575.959877 kJ/mol
# Density = 1.879726 g / cm^3
# Si number density = 18.840137 Si / 1000 Ang^3
#
#
#
# Elastic Constant Matrix: (Units=GPa)
#
#
# Indices 1 2 3 4 5 6 
#
# 1 42.6864 23.4106 10.3845 3.6153 -11.5723 -11.1707
# 2 23.4106 104.1013 32.8583 9.8897 -6.7397 -13.8813
# 3 10.3845 32.8583 101.3278 20.2803 -23.7908 -3.8186
# 4 3.6153 9.8897 20.2803 20.4294 -3.7091 -11.9282
# 5 -11.5723 -6.7397 -23.7908 -3.7091 25.0817 2.1166
# 6 -11.1707 -13.8813 -3.8186 -11.9282 2.1166 18.7691
#
#
#
# Elastic Compliance Matrix: (Units=1/GPa)
#
#
# Indices 1 2 3 4 5 6 
#
# 1 0.035344 -0.004951 -0.000309 0.013110 0.014598 0.023996
# 2 -0.004951 0.012795 -0.004953 0.003799 -0.003687 0.008338
# 3 -0.000309 -0.004953 0.018949 -0.023345 0.014436 -0.016457
# 4 0.013110 0.003799 -0.023345 0.112585 -0.005005 0.077977
# 5 0.014598 -0.003687 0.014436 -0.005005 0.058643 -0.000896
# 6 0.023996 0.008338 -0.016457 0.077977 -0.000896 0.120037
#
#
# Mechanical properties :
#
#
# Convention : Reuss Voigt Hill
#
# Bulk Modulus (GPa) = 21.43128 42.38028 31.90578
# Shear Modulus (GPa) = 12.67963 24.95352 18.81658
#
# Velocity S-wave (km/s) = 2.59706 3.64330 3.16373
# Velocity P-wave (km/s) = 4.51586 6.34363 5.50612
#
# Compressibility (1/GPa) = 0.04666077
#
# Stress axis : x y z
#
# Youngs Moduli (GPa) = 28.29339 78.15352 52.77410
#
# Poissons Ratio (x) = 0.38697 0.01629
# Poissons Ratio (y) = 0.14009 0.26141
# Poissons Ratio (z) = 0.00873 0.38713
#
# Static dielectric constant tensor:
#      x y z
#    x 1.681490 -0.024100 -0.018050 
#    y -0.024100 1.702420 0.029160 
#    z -0.018050 0.029160 1.708960 
# 
# From -- ./inp_files/518567.got.cif
#   From: 2010.05.17/outbox.cif.g08.bks.cpg/sg2_260_cif.got.tgz:518567.got - 2010.06.03 11:33:40.
