data_PCOD9077369
_publ_section_title
;
Structure prediction by ZEFSAII (Michael W. Deem and Ramdas Pophale) SiO2 
 PCOD9077369
Probable space group: P -1
;
_chemical_formula_sum "Si O2"
_cell_formula_units_Z 10
_cell_length_a 6.190106
_cell_length_b 7.224369
_cell_length_c 9.744447
_cell_angle_alpha 95.706020
_cell_angle_beta 76.417739
_cell_angle_gamma 62.402989
_cell_volume 364.259006
_symmetry_space_group_name_H-M "P -1"
_symmetry_group_IT_number 2
_symmetry_cell_setting 'triclinic'
loop_
_space_group_symop_operation_xyz
x,y,z
-x,-y,-z
loop_
_atom_site_type_symbol
_atom_site_label
_atom_site_fract_x
_atom_site_fract_y
_atom_site_fract_z
Si Si1 0.189796 0.266653 0.707077
Si Si2 0.646180 0.190046 0.438690
Si Si3 0.529625 0.201712 0.879577
Si Si4 0.984897 0.726990 0.736733
Si Si5 0.471677 0.632303 0.816582
O O1 0.449987 0.238603 0.593257
O O2 0.265421 0.241045 0.853450
O O3 0.181303 0.064399 0.634407
O O4 0.971991 0.509607 0.728211
O O5 0.838266 0.283209 0.420138
O O6 0.480318 0.292785 0.332644
O O7 0.514300 0.238230 0.046644
O O8 0.589234 0.383882 0.825262
O O9 0.744341 0.962064 0.792052
O O10 0.169715 0.704944 0.835704
#
# Coordination Sequence:
#
# PCOD9077369 Si02
#       5
#     2   2   2   2   2
#     4  10  20  37  52  78 105 138 170 214 251 311
#     4   9  20  38  52  73 114 133 166 217 263 289
#     4  10  18  34  59  76 101 137 179 204 256 310
#     4   9  19  35  56  75 105 136 170 214 256 300
#     4   8  19  35  54  76 106 137 164 217 259 300
#
# _framework density 27.452995000000001
#
# number of rings (size 3 to 8) (size 9 to 14) (size 15 to 20)
#    1.200    1.600    0.000    1.200    0.000    1.600 
#    3.600    3.000    0.000    0.000    0.000    0.000 
#    0.000    0.000    0.000    0.000    0.000    0.000 
#
# Total GULP energy -55967.986616 kJ/mol
# GULP energy per Si atom -5596.798662 kJ/mol
# Density = 2.739051 g / cm^3
# Si number density = 27.452995 Si / 1000 Ang^3
#
#
#
# Elastic Constant Matrix: (Units=GPa)
#
#
# Indices 1 2 3 4 5 6 
#
# 1 54.0580 26.7823 21.8838 -3.1613 -1.4446 32.0898
# 2 26.7823 209.7327 33.0005 15.0174 8.1160 15.1659
# 3 21.8838 33.0005 103.1946 -11.1904 6.2086 1.5851
# 4 -3.1613 15.0174 -11.1904 44.3565 2.5703 7.4734
# 5 -1.4446 8.1160 6.2086 2.5703 37.6418 -8.4183
# 6 32.0898 15.1659 1.5851 7.4734 -8.4183 41.4553
#
#
#
# Elastic Compliance Matrix: (Units=1/GPa)
#
#
# Indices 1 2 3 4 5 6 
#
# 1 0.043700 -0.002375 -0.006737 0.008462 -0.005166 -0.035275
# 2 -0.002375 0.005494 -0.001462 -0.002373 -0.000841 0.000142
# 3 -0.006737 -0.001462 0.011820 0.002265 -0.001000 0.004687
# 4 0.008462 -0.002373 0.002265 0.026664 -0.003900 -0.011367
# 5 -0.005166 -0.000841 -0.001000 -0.003900 0.029447 0.011028
# 6 -0.035275 0.000142 0.004687 -0.011367 0.011028 0.055486
#
#
# Mechanical properties :
#
#
# Convention : Reuss Voigt Hill
#
# Bulk Modulus (GPa) = 25.08510 58.92425 42.00468
# Shear Modulus (GPa) = 24.14912 43.71197 33.93054
#
# Velocity S-wave (km/s) = 2.96911 3.99463 3.51942
# Velocity P-wave (km/s) = 4.57291 6.54113 5.64348
#
# Compressibility (1/GPa) = 0.03986430
#
# Stress axis : x y z
#
# Youngs Moduli (GPa) = 22.88352 182.03213 84.59912
#
# Poissons Ratio (x) = 0.43241 0.56996
# Poissons Ratio (y) = 0.05436 0.12368
# Poissons Ratio (z) = 0.15417 0.26613
#
# Static dielectric constant tensor:
#      x y z
#    x 2.250770 -0.043550 -0.091280 
#    y -0.043550 2.104240 -0.011040 
#    z -0.091280 -0.011040 2.079560 
# 
# From -- ./inp_files/197183.got.cif
#   From: 2010.05.17/outbox.cif.g08.bks.cpg/sg2_99_cif.got.tgz:197183.got - 2010.06.03 11:33:40.
