data_PCOD9077211
_publ_section_title
;
Structure prediction by ZEFSAII (Michael W. Deem and Ramdas Pophale) SiO2 
 PCOD9077211
Probable space group: P -1
;
_chemical_formula_sum "Si O2"
_cell_formula_units_Z 14
_cell_length_a 19.822013
_cell_length_b 8.158039
_cell_length_c 9.590446
_cell_angle_alpha 133.448063
_cell_angle_beta 43.994542
_cell_angle_gamma 147.003880
_cell_volume 571.867161
_symmetry_space_group_name_H-M "P -1"
_symmetry_group_IT_number 2
_symmetry_cell_setting 'triclinic'
loop_
_space_group_symop_operation_xyz
x,y,z
-x,-y,-z
loop_
_atom_site_type_symbol
_atom_site_label
_atom_site_fract_x
_atom_site_fract_y
_atom_site_fract_z
Si Si1 0.889652 0.104516 0.332464
Si Si2 0.654144 0.682811 0.655199
Si Si3 0.251382 0.890754 0.678763
Si Si4 0.173394 0.446489 0.076158
Si Si5 0.498763 0.954063 0.652359
Si Si6 0.284100 0.969392 0.989671
Si Si7 0.421032 0.602917 0.849565
O O1 0.042819 0.326261 0.277726
O O2 0.781579 0.940213 0.519355
O O3 0.864821 0.262741 0.348673
O O4 0.861923 0.831321 0.124992
O O5 0.587654 0.356218 0.495975
O O6 0.543855 0.707998 0.817796
O O7 0.698225 0.769879 0.801367
O O8 0.346277 0.827382 0.482301
O O9 0.351772 0.257357 0.707170
O O10 0.215906 0.868215 0.880736
O O11 0.214239 0.692912 0.042397
O O12 0.296965 0.562945 0.056634
O O13 0.476442 0.825577 0.765798
O O14 0.427391 0.080405 0.814241
#
# Coordination Sequence:
#
# PCOD9077211 Si02
#       7
#     2   2   2   2   2   2   2
#     4  10  18  38  64  74 106 159 183 220 274 327
#     4  11  19  35  63  81 109 146 184 226 276 319
#     4  10  18  34  57  82 114 146 180 226 279 322
#     4   9  20  35  57  85 105 147 191 221 270 331
#     4  10  18  37  55  81 113 148 178 227 268 333
#     4  11  23  32  55  90 115 137 181 235 276 324
#     4   9  17  35  59  82 106 146 186 225 261 330
#
# _framework density 24.481209
#
# number of rings (size 3 to 8) (size 9 to 14) (size 15 to 20)
#    0.000    2.000    5.714    1.286    0.000    5.714 
#    0.000    0.000    3.143    7.714    0.000    0.000 
#    0.000    0.000    0.000    0.000    0.000    0.000 
#
# Total GULP energy -78231.171491 kJ/mol
# GULP energy per Si atom -5587.940821 kJ/mol
# Density = 2.442549 g / cm^3
# Si number density = 24.481209 Si / 1000 Ang^3
#
#
#
# Elastic Constant Matrix: (Units=GPa)
#
#
# Indices 1 2 3 4 5 6 
#
# 1 96.9080 24.7287 71.2007 -10.2264 -10.5345 11.6888
# 2 24.7287 47.6108 32.6788 -5.2188 -11.7644 9.0487
# 3 71.2007 32.6788 131.8126 -9.6307 -1.4449 26.4793
# 4 -10.2264 -5.2188 -9.6307 38.1288 9.0111 -9.0304
# 5 -10.5345 -11.7644 -1.4449 9.0111 37.7015 -5.6028
# 6 11.6888 9.0487 26.4793 -9.0304 -5.6028 26.8978
#
#
#
# Elastic Compliance Matrix: (Units=1/GPa)
#
#
# Indices 1 2 3 4 5 6 
#
# 1 0.018448 -0.002205 -0.010065 0.002109 0.004204 0.004217
# 2 -0.002205 0.028026 -0.005356 -0.000343 0.007754 -0.001697
# 3 -0.010065 -0.005356 0.016545 -0.000696 -0.005388 -0.011468
# 4 0.002109 -0.000343 -0.000696 0.029930 -0.005389 0.008810
# 5 0.004204 0.007754 -0.005388 -0.005389 0.032052 0.005736
# 6 0.004217 -0.001697 -0.011468 0.008810 0.005736 0.051358
#
#
# Mechanical properties :
#
#
# Convention : Reuss Voigt Hill
#
# Bulk Modulus (GPa) = 36.01498 59.28309 47.64903
# Shear Modulus (GPa) = 22.63806 30.39383 26.51594
#
# Velocity S-wave (km/s) = 3.04421 3.52734 3.29464
# Velocity P-wave (km/s) = 5.20571 6.39201 5.82912
#
# Compressibility (1/GPa) = 0.02776623
#
# Stress axis : x y z
#
# Youngs Moduli (GPa) = 54.20739 35.68101 60.44060
#
# Poissons Ratio (x) = 0.07867 0.60835
# Poissons Ratio (y) = 0.11951 0.32374
# Poissons Ratio (z) = 0.54561 0.19112
#
# Static dielectric constant tensor:
#      x y z
#    x 1.978950 -0.002390 -0.012240 
#    y -0.002390 1.983610 0.013690 
#    z -0.012240 0.013690 1.968410 
# 
# From -- ./inp_files/178666.got.cif
#   From: 2010.05.17/outbox.cif.g08.bks.cpg/sg2_90_cif.got.tgz:178666.got - 2010.06.03 11:33:40.
