data_PCOD9077672
_publ_section_title
;
Structure prediction by ZEFSAII (Michael W. Deem and Ramdas Pophale) SiO2 
 PCOD9077672
Probable space group: P -1
;
_chemical_formula_sum "Si O2"
_cell_formula_units_Z 16
_cell_length_a 15.930081
_cell_length_b 9.785515
_cell_length_c 8.058262
_cell_angle_alpha 106.678796
_cell_angle_beta 64.877837
_cell_angle_gamma 55.148636
_cell_volume 654.612333
_symmetry_space_group_name_H-M "P -1"
_symmetry_group_IT_number 2
_symmetry_cell_setting 'triclinic'
loop_
_space_group_symop_operation_xyz
x,y,z
-x,-y,-z
loop_
_atom_site_type_symbol
_atom_site_label
_atom_site_fract_x
_atom_site_fract_y
_atom_site_fract_z
Si Si1 0.598583 0.415997 0.049598
Si Si2 0.132388 0.115835 0.290587
Si Si3 0.190118 0.629943 0.331177
Si Si4 0.770191 0.357340 0.329365
Si Si5 0.903361 0.896254 0.037904
Si Si6 0.028981 0.335135 0.793099
Si Si7 0.693469 0.738110 0.084571
Si Si8 0.494510 0.780105 0.483108
O O1 0.732474 0.366363 0.871562
O O2 0.696593 0.159315 0.936172
O O3 0.500000 0.500000 0.000000
O O4 0.491485 0.627924 0.348498
O O5 0.100497 0.198795 0.155392
O O6 0.106417 0.251865 0.517595
O O7 0.993833 0.168814 0.453415
O O8 0.238363 0.641242 0.465946
O O9 0.267694 0.376420 0.166725
O O10 0.622661 0.606501 0.456501
O O11 0.920887 0.268152 0.144238
O O12 0.807194 0.154704 0.160107
O O13 0.865793 0.891290 0.253610
O O14 0.000000 0.500000 0.000000
O O15 0.853617 0.503542 0.960615
O O16 0.556665 0.810701 0.299476
O O17 0.647070 0.958341 0.229306
#
# Coordination Sequence:
#
# PCOD9077672 Si02
#       8
#     2   2   2   2   2   2   2   2
#     4  11  22  36  57  88 123 158 195 245 314 363
#     4  10  21  39  63  88 115 159 207 255 291 355
#     4   9  20  36  60  86 117 155 205 250 292 357
#     4  10  18  34  62  90 113 149 201 264 289 346
#     4  10  20  36  60  94 118 149 208 253 305 344
#     4  11  23  38  61  86 123 160 202 248 301 361
#     4   9  20  37  55  83 114 160 199 233 293 368
#     4  10  19  36  60  81 117 154 196 240 299 363
#
# _framework density 24.441946999999999
#
# number of rings (size 3 to 8) (size 9 to 14) (size 15 to 20)
#    0.000    2.000    2.500    1.125    1.750    1.000 
#    0.000    1.875    0.000    0.000    0.000    0.000 
#    0.000    0.000    0.000    0.000    0.000    0.000 
#
# Total GULP energy -89279.890448 kJ/mol
# GULP energy per Si atom -5579.993153 kJ/mol
# Density = 2.438632 g / cm^3
# Si number density = 24.441947 Si / 1000 Ang^3
#
#
#
# Elastic Constant Matrix: (Units=GPa)
#
#
# Indices 1 2 3 4 5 6 
#
# 1 67.9216 9.9575 41.5475 -3.2987 8.1666 -15.1913
# 2 9.9575 70.8052 43.3955 20.2926 9.5254 -19.6358
# 3 41.5475 43.3955 133.8265 19.9663 34.0139 -5.5126
# 4 -3.2987 20.2926 19.9663 35.1103 -6.4335 -2.0428
# 5 8.1666 9.5254 34.0139 -6.4335 54.8905 -10.7349
# 6 -15.1913 -19.6358 -5.5126 -2.0428 -10.7349 25.7313
#
#
#
# Elastic Compliance Matrix: (Units=1/GPa)
#
#
# Indices 1 2 3 4 5 6 
#
# 1 0.025635 0.006470 -0.012460 0.008458 0.007960 0.021395
# 2 0.006470 0.027449 -0.009869 -0.007497 0.004164 0.023794
# 3 -0.012460 -0.009869 0.018275 -0.009048 -0.012091 -0.016735
# 4 0.008458 -0.007497 -0.009048 0.041184 0.011536 0.005417
# 5 0.007960 0.004164 -0.012091 0.011536 0.028711 0.018181
# 6 0.021395 0.023794 -0.016735 0.005417 0.018181 0.074082
#
#
# Mechanical properties :
#
#
# Convention : Reuss Voigt Hill
#
# Bulk Modulus (GPa) = 25.22738 51.37270 38.30004
# Shear Modulus (GPa) = 19.21090 34.98995 27.10042
#
# Velocity S-wave (km/s) = 2.80658 3.78769 3.33343
# Velocity P-wave (km/s) = 4.56577 6.33977 5.52444
#
# Compressibility (1/GPa) = 0.03963947
#
# Stress axis : x y z
#
# Youngs Moduli (GPa) = 39.00882 36.43101 54.71991
#
# Poissons Ratio (x) = -0.23571 0.68184
# Poissons Ratio (y) = -0.25238 0.54005
# Poissons Ratio (z) = 0.48607 0.35955
#
# Static dielectric constant tensor:
#      x y z
#    x 2.050110 0.069520 0.069790 
#    y 0.069520 1.983590 0.000450 
#    z 0.069790 0.000450 2.005520 
# 
# From -- ./inp_files/252210.got.cif
#   From: 2010.05.17/outbox.cif.g08.bks.cpg/sg2_127_cif.got.tgz:252210.got - 2010.06.03 11:33:40.
