data_PCOD9077716
_publ_section_title
;
Structure prediction by ZEFSAII (Michael W. Deem and Ramdas Pophale) SiO2 
 PCOD9077716
Probable space group: P -1
;
_chemical_formula_sum "Si O2"
_cell_formula_units_Z 14
_cell_length_a 9.130291
_cell_length_b 16.829879
_cell_length_c 9.509116
_cell_angle_alpha 38.468503
_cell_angle_beta 127.977923
_cell_angle_gamma 142.813685
_cell_volume 549.259349
_symmetry_space_group_name_H-M "P -1"
_symmetry_group_IT_number 2
_symmetry_cell_setting 'triclinic'
loop_
_space_group_symop_operation_xyz
x,y,z
-x,-y,-z
loop_
_atom_site_type_symbol
_atom_site_label
_atom_site_fract_x
_atom_site_fract_y
_atom_site_fract_z
Si Si1 0.670281 0.624039 0.765576
Si Si2 0.055211 0.971675 0.887684
Si Si3 0.150150 0.636565 0.280875
Si Si4 0.519604 0.722107 0.814835
Si Si5 0.652914 0.125220 0.687283
Si Si6 0.483617 0.353016 0.634136
Si Si7 0.873612 0.144287 0.190841
O O1 0.610042 0.674780 0.802307
O O2 0.495228 0.612763 0.567517
O O3 0.943882 0.791405 0.662469
O O4 0.633250 0.456062 0.952239
O O5 0.240536 0.164742 0.777660
O O6 0.128595 0.962972 0.782694
O O7 0.764528 0.865975 0.847501
O O8 0.131713 0.883391 0.155274
O O9 0.337386 0.799855 0.259493
O O10 0.270100 0.617304 0.247892
O O11 0.000000 0.500000 0.500000
O O12 0.997233 0.679933 0.055522
O O13 0.373063 0.778434 0.584393
O O14 0.391065 0.943520 0.787487
O O15 0.500000 0.500000 0.500000
#
# Coordination Sequence:
#
# PCOD9077716 Si02
#       7
#     2   2   2   2   2   2   2
#     4  10  21  36  56  97 126 158 203 261 324 361
#     4  10  20  36  59  92 121 161 210 254 315 365
#     4  11  21  35  61  95 122 157 212 262 313 358
#     4  10  20  35  63  93 128 150 208 279 311 351
#     4  11  18  34  62  93 122 152 205 271 314 359
#     4  12  24  41  60  87 133 172 203 246 317 398
#     4  10  18  34  63  90 120 153 207 277 301 356
#
# _framework density 25.488869000000001
#
# number of rings (size 3 to 8) (size 9 to 14) (size 15 to 20)
#    0.000    1.429    4.286    2.571    6.000    2.286 
#    0.000    1.429    0.000    0.857    0.000    0.000 
#    0.000    0.000    0.000    0.000    0.000    0.000 
#
# Total GULP energy -78012.037001 kJ/mol
# GULP energy per Si atom -5572.288357 kJ/mol
# Density = 2.543086 g / cm^3
# Si number density = 25.488869 Si / 1000 Ang^3
#
#
#
# Elastic Constant Matrix: (Units=GPa)
#
#
# Indices 1 2 3 4 5 6 
#
# 1 45.4975 32.2156 8.2891 -8.1394 14.5814 -4.3643
# 2 32.2156 91.6514 30.1829 -20.4503 14.9088 17.5072
# 3 8.2891 30.1829 165.1237 -13.0521 18.1644 -0.3461
# 4 -8.1394 -20.4503 -13.0521 43.0871 -1.6295 6.4553
# 5 14.5814 14.9088 18.1644 -1.6295 24.0381 -2.1898
# 6 -4.3643 17.5072 -0.3461 6.4553 -2.1898 27.9568
#
#
#
# Elastic Compliance Matrix: (Units=1/GPa)
#
#
# Indices 1 2 3 4 5 6 
#
# 1 0.037727 -0.014956 0.002265 -0.002013 -0.014124 0.014642
# 2 -0.014956 0.024045 -0.002259 0.010748 -0.005256 -0.020314
# 3 0.002265 -0.002259 0.007004 0.001105 -0.005081 0.001202
# 4 -0.002013 0.010748 0.001105 0.030218 -0.005547 -0.014443
# 5 -0.014124 -0.005256 -0.005081 -0.005547 0.057511 0.006809
# 6 0.014642 -0.020314 0.001202 -0.014443 0.006809 0.054659
#
#
# Mechanical properties :
#
#
# Convention : Reuss Voigt Hill
#
# Bulk Modulus (GPa) = 25.72231 49.29420 37.50826
# Shear Modulus (GPa) = 19.68316 34.45541 27.06928
#
# Velocity S-wave (km/s) = 2.78191 3.68065 3.26238
# Velocity P-wave (km/s) = 4.52020 6.11918 5.37943
#
# Compressibility (1/GPa) = 0.03887675
#
# Stress axis : x y z
#
# Youngs Moduli (GPa) = 26.50616 41.58818 142.77267
#
# Poissons Ratio (x) = 0.62198 -0.32339
# Poissons Ratio (y) = 0.39642 0.32257
# Poissons Ratio (z) = -0.06004 0.09396
#
# Static dielectric constant tensor:
#      x y z
#    x 2.055550 0.017000 -0.002860 
#    y 0.017000 2.102920 0.000070 
#    z -0.002860 0.000070 2.142670 
# 
# From -- ./inp_files/158482.got.cif
#   From: 2010.05.17/outbox.cif.g08.bks.cpg/sg2_80_cif.got.tgz:158482.got - 2010.06.03 11:33:40.
