data_PCOD9077891
_publ_section_title
;
Structure prediction by ZEFSAII (Michael W. Deem and Ramdas Pophale) SiO2 
 PCOD9077891
Probable space group: P -1
;
_chemical_formula_sum "Si O2"
_cell_formula_units_Z 12
_cell_length_a 11.465473
_cell_length_b 11.328955
_cell_length_c 7.970489
_cell_angle_alpha 94.546247
_cell_angle_beta 132.702801
_cell_angle_gamma 119.331692
_cell_volume 508.388716
_symmetry_space_group_name_H-M "P -1"
_symmetry_group_IT_number 2
_symmetry_cell_setting 'triclinic'
loop_
_space_group_symop_operation_xyz
x,y,z
-x,-y,-z
loop_
_atom_site_type_symbol
_atom_site_label
_atom_site_fract_x
_atom_site_fract_y
_atom_site_fract_z
Si Si1 0.691659 0.572329 0.495863
Si Si2 0.744838 0.839322 0.433678
Si Si3 0.771407 0.118379 0.470692
Si Si4 0.895586 0.315373 0.924555
Si Si5 0.213491 0.208625 0.915868
Si Si6 0.921938 0.331162 0.328692
O O1 0.633196 0.676754 0.419832
O O2 0.884003 0.653842 0.834968
O O3 0.836856 0.607411 0.476262
O O4 0.456560 0.365749 0.264627
O O5 0.660822 0.927770 0.365896
O O6 0.727538 0.793175 0.217796
O O7 0.027117 0.005886 0.774093
O O8 0.755275 0.174654 0.283336
O O9 0.050848 0.235234 0.753421
O O10 0.731342 0.178884 0.599028
O O11 0.808656 0.276176 0.026644
O O12 0.000000 0.500000 0.000000
O O13 0.000000 0.500000 0.500000
#
# Coordination Sequence:
#
# PCOD9077891 Si02
#       6
#     2   2   2   2   2   2
#     4  10  19  33  58  87 106 151 189 220 289 336
#     4   9  18  32  56  88 117 141 175 240 283 334
#     4  10  18  35  55  83 115 141 178 237 283 324
#     4  10  21  34  56  83 109 151 196 221 270 340
#     4   9  17  32  56  86 118 138 182 232 286 331
#     4  10  19  33  57  80 105 154 191 220 273 332
#
# _framework density 23.603985000000002
#
# number of rings (size 3 to 8) (size 9 to 14) (size 15 to 20)
#    2.000    0.333    3.333    0.500    0.000    1.333 
#    0.000    0.000    0.000   10.000    0.000    0.000 
#    0.000    0.000    0.000    0.000    0.000    0.000 
#
# Total GULP energy -66864.781770 kJ/mol
# GULP energy per Si atom -5572.065147 kJ/mol
# Density = 2.355026 g / cm^3
# Si number density = 23.603985 Si / 1000 Ang^3
#
#
#
# Elastic Constant Matrix: (Units=GPa)
#
#
# Indices 1 2 3 4 5 6 
#
# 1 76.6704 49.0062 46.8070 -1.8141 -23.0641 12.1392
# 2 49.0062 69.5735 54.9285 -0.9427 -35.6906 -23.4239
# 3 46.8070 54.9285 50.7807 7.4276 -10.5095 33.8841
# 4 -1.8141 -0.9427 7.4276 23.4966 3.6188 -12.9031
# 5 -23.0641 -35.6906 -10.5095 3.6188 50.6938 -0.1455
# 6 12.1392 -23.4239 33.8841 -12.9031 -0.1455 13.3528
#
#
#
# Elastic Compliance Matrix: (Units=1/GPa)
#
#
# Indices 1 2 3 4 5 6 
#
# 1 0.029248 -0.009183 -0.013840 0.003305 0.003724 -0.004345
# 2 -0.009183 0.009824 0.011110 -0.013078 0.005932 -0.015184
# 3 -0.013840 0.011110 0.007934 0.006427 0.002763 0.018179
# 4 0.003305 -0.013078 0.006427 0.039232 -0.009185 -0.004444
# 5 0.003724 0.005932 0.002763 -0.009185 0.026801 -0.008576
# 6 -0.004345 -0.015184 0.018179 -0.004444 -0.008576 0.001686
#
#
# Mechanical properties :
#
#
# Convention : Reuss Voigt Hill
#
# Bulk Modulus (GPa) = 43.14004 55.38978 49.26491
# Shear Modulus (GPa) = 34.18178 20.59417 27.38798
#
# Velocity S-wave (km/s) = 3.80957 2.95699 3.41003
# Velocity P-wave (km/s) = 6.13732 5.93091 6.03499
#
# Compressibility (1/GPa) = 0.02318032
#
# Stress axis : x y z
#
# Youngs Moduli (GPa) = 34.19059 101.79061 126.04672
#
# Poissons Ratio (x) = 0.93473 1.74442
# Poissons Ratio (y) = 0.31397 -1.40036
# Poissons Ratio (z) = 0.47318 -1.13088
#
# Static dielectric constant tensor:
#      x y z
#    x 1.975590 0.013280 0.025490 
#    y 0.013280 1.854720 -0.030620 
#    z 0.025490 -0.030620 1.916130 
# 
# From -- ./inp_files/87639.got.cif
#   From: 2010.05.17/outbox.cif.g08.bks.cpg/sg2_44_cif.got.tgz:87639.got - 2010.06.03 11:33:40.
