data_PCOD9077212
_publ_section_title
;
Structure prediction by ZEFSAII (Michael W. Deem and Ramdas Pophale) SiO2 
 PCOD9077212
Probable space group: P -1
;
_chemical_formula_sum "Si O2"
_cell_formula_units_Z 14
_cell_length_a 7.774153
_cell_length_b 11.228633
_cell_length_c 7.528669
_cell_angle_alpha 112.170422
_cell_angle_beta 84.263543
_cell_angle_gamma 70.583586
_cell_volume 554.553984
_symmetry_space_group_name_H-M "P -1"
_symmetry_group_IT_number 2
_symmetry_cell_setting 'triclinic'
loop_
_space_group_symop_operation_xyz
x,y,z
-x,-y,-z
loop_
_atom_site_type_symbol
_atom_site_label
_atom_site_fract_x
_atom_site_fract_y
_atom_site_fract_z
Si Si1 0.101137 0.649623 0.232860
Si Si2 0.416037 0.880924 0.458691
Si Si3 0.954013 0.944381 0.261957
Si Si4 0.784395 0.951305 0.909877
Si Si5 0.458814 0.211547 0.215002
Si Si6 0.278648 0.405679 0.802287
Si Si7 0.795433 0.490457 0.518179
O O1 0.170045 0.636632 0.422415
O O2 0.088873 0.790866 0.224356
O O3 0.892377 0.646204 0.239287
O O4 0.229046 0.515256 0.028446
O O5 0.444660 0.820624 0.621848
O O6 0.537064 0.737241 0.262763
O O7 0.500000 0.000000 0.500000
O O8 0.193172 0.972628 0.523159
O O9 0.840187 0.916182 0.089538
O O10 0.048593 0.037622 0.211260
O O11 0.711691 0.839044 0.782683
O O12 0.610425 0.104505 0.007081
O O13 0.361376 0.375796 0.291828
O O14 0.273926 0.491930 0.668487
O O15 0.000000 0.500000 0.500000
#
# Coordination Sequence:
#
# PCOD9077212 Si02
#       7
#     2   2   2   2   2   2   2
#     4  10  19  32  58  86 112 155 190 236 288 346
#     4  10  18  34  57  82 115 150 192 240 283 345
#     4  10  20  35  58  85 119 148 191 244 294 336
#     4   9  20  36  57  84 111 150 196 240 287 346
#     4   9  19  35  59  78 109 155 196 232 287 348
#     4   9  19  32  54  87 113 150 198 230 283 346
#     4   9  19  33  55  84 115 145 195 239 276 343
#
# _framework density 25.245511
#
# number of rings (size 3 to 8) (size 9 to 14) (size 15 to 20)
#    0.000    2.571    1.429    0.000    6.000    1.143 
#    0.000    1.429    3.143    3.429    0.000    0.000 
#    0.000    0.000    0.000    0.000    0.000    0.000 
#
# Total GULP energy -78307.592919 kJ/mol
# GULP energy per Si atom -5593.399494 kJ/mol
# Density = 2.518805 g / cm^3
# Si number density = 25.245511 Si / 1000 Ang^3
#
#
#
# Elastic Constant Matrix: (Units=GPa)
#
#
# Indices 1 2 3 4 5 6 
#
# 1 45.4557 2.7056 14.2976 11.0561 -7.7518 4.0545
# 2 2.7056 128.9665 44.3439 -4.5442 -3.2815 -22.3158
# 3 14.2976 44.3439 82.7790 9.1657 -8.7518 -2.5758
# 4 11.0561 -4.5442 9.1657 39.3566 -15.7345 2.5146
# 5 -7.7518 -3.2815 -8.7518 -15.7345 33.7888 -1.1426
# 6 4.0545 -22.3158 -2.5758 2.5146 -1.1426 22.4766
#
#
#
# Elastic Compliance Matrix: (Units=1/GPa)
#
#
# Indices 1 2 3 4 5 6 
#
# 1 0.025156 -0.000185 -0.003580 -0.005039 0.002329 -0.004450
# 2 -0.000185 0.011882 -0.006167 0.002602 0.001094 0.010888
# 3 -0.003580 -0.006167 0.016356 -0.002737 0.001433 -0.003223
# 4 -0.005039 0.002602 -0.002737 0.033311 0.013905 0.000159
# 5 0.002329 0.001094 0.001433 0.013905 0.037122 0.001162
# 6 -0.004450 0.010888 -0.003223 0.000159 0.001162 0.055775
#
#
# Mechanical properties :
#
#
# Convention : Reuss Voigt Hill
#
# Bulk Modulus (GPa) = 29.82330 42.21058 36.01694
# Shear Modulus (GPa) = 23.73686 32.18133 27.95910
#
# Velocity S-wave (km/s) = 3.06966 3.57422 3.33150
# Velocity P-wave (km/s) = 4.93991 5.81289 5.39409
#
# Compressibility (1/GPa) = 0.03353083
#
# Stress axis : x y z
#
# Youngs Moduli (GPa) = 39.75148 84.16353 61.13860
#
# Poissons Ratio (x) = 0.01557 0.21889
# Poissons Ratio (y) = 0.00735 0.37701
# Poissons Ratio (z) = 0.14232 0.51900
#
# Static dielectric constant tensor:
#      x y z
#    x 2.077170 -0.047600 -0.009240 
#    y -0.047600 1.929040 0.003160 
#    z -0.009240 0.003160 2.014380 
# 
# From -- ./inp_files/180026.got.cif
#   From: 2010.05.17/outbox.cif.g08.bks.cpg/sg2_91_cif.got.tgz:180026.got - 2010.06.03 11:33:40.
