data_PCOD9077050
_publ_section_title
;
Structure prediction by ZEFSAII (Michael W. Deem and Ramdas Pophale) SiO2 
 PCOD9077050
Probable space group: P -1
;
_chemical_formula_sum "Si O2"
_cell_formula_units_Z 16
_cell_length_a 13.519737
_cell_length_b 11.119939
_cell_length_c 10.550516
_cell_angle_alpha 154.515003
_cell_angle_beta 57.805518
_cell_angle_gamma 122.324598
_cell_volume 571.215102
_symmetry_space_group_name_H-M "P -1"
_symmetry_group_IT_number 2
_symmetry_cell_setting 'triclinic'
loop_
_space_group_symop_operation_xyz
x,y,z
-x,-y,-z
loop_
_atom_site_type_symbol
_atom_site_label
_atom_site_fract_x
_atom_site_fract_y
_atom_site_fract_z
Si Si1 0.255245 0.715473 0.639902
Si Si2 0.577745 0.956493 0.746706
Si Si3 0.678716 0.767372 0.725268
Si Si4 0.464838 0.762811 0.196599
Si Si5 0.870438 0.819848 0.932960
Si Si6 0.069958 0.066236 0.383658
Si Si7 0.056519 0.453456 0.129836
Si Si8 0.284434 0.509435 0.900034
O O1 0.348864 0.508908 0.428601
O O2 0.161917 0.436497 0.391577
O O3 0.277530 0.946273 0.956308
O O4 0.222584 0.953120 0.786949
O O5 0.492890 0.090180 0.830196
O O6 0.569649 0.798109 0.736369
O O7 0.645477 0.750409 0.417696
O O8 0.669553 0.237826 0.984942
O O9 0.797194 0.763834 0.552625
O O10 0.500000 0.000000 0.500000
O O11 0.500000 0.500000 0.000000
O O12 0.331804 0.653060 0.138593
O O13 0.878349 0.661429 0.907473
O O14 0.000000 0.000000 0.000000
O O15 0.000000 0.000000 0.500000
O O16 0.057802 0.768661 0.036774
O O17 0.984349 0.248095 0.540488
O O18 0.145668 0.457793 0.955812
#
# Coordination Sequence:
#
# PCOD9077050 Si02
#       8
#     2   2   2   2   2   2   2   2
#     4  10  22  34  52  71  95 131 184 236 268 305
#     4  10  20  33  55  78 114 143 170 209 261 317
#     4  11  20  36  51  73 106 143 180 223 267 301
#     4  10  18  34  55  80 111 140 167 205 255 320
#     4  11  21  37  53  72  97 136 191 241 278 292
#     4  12  24  34  50  73 106 145 191 211 248 312
#     4  12  23  37  53  74 106 148 183 226 265 299
#     4  10  20  33  52  79 111 141 174 206 264 312
#
# _framework density 28.010465
#
# number of rings (size 3 to 8) (size 9 to 14) (size 15 to 20)
#    0.750    0.500    1.250    7.500    0.000    0.000 
#    0.000    0.000    0.000    0.000    0.000    0.000 
#    0.000   20.000    0.000    0.000    0.000    0.000 
#
# Total GULP energy -89146.215024 kJ/mol
# GULP energy per Si atom -5571.638439 kJ/mol
# Density = 2.794671 g / cm^3
# Si number density = 28.010465 Si / 1000 Ang^3
#
#
#
# Elastic Constant Matrix: (Units=GPa)
#
#
# Indices 1 2 3 4 5 6 
#
# 1 96.1759 58.4740 24.2465 11.5488 -13.3051 -18.5244
# 2 58.4740 123.8975 36.6301 33.1588 -7.3646 -22.3017
# 3 24.2465 36.6301 193.0998 34.9348 -8.5043 -14.5629
# 4 11.5488 33.1588 34.9348 41.1058 -18.1374 -11.5661
# 5 -13.3051 -7.3646 -8.5043 -18.1374 52.7833 5.0250
# 6 -18.5244 -22.3017 -14.5629 -11.5661 5.0250 69.7142
#
#
#
# Elastic Compliance Matrix: (Units=1/GPa)
#
#
# Indices 1 2 3 4 5 6 
#
# 1 0.015884 -0.007999 -0.001116 0.005441 0.004386 0.002015
# 2 -0.007999 0.014759 0.000138 -0.011193 -0.003881 0.001047
# 3 -0.001116 0.000138 0.006268 -0.005590 -0.001194 0.000215
# 4 0.005441 -0.011193 -0.005590 0.043372 0.013535 0.002917
# 5 0.004386 -0.003881 -0.001194 0.013535 0.023949 0.000194
# 6 0.002015 0.001047 0.000215 0.002917 0.000194 0.015730
#
#
# Mechanical properties :
#
#
# Convention : Reuss Voigt Hill
#
# Bulk Modulus (GPa) = 52.75527 72.43051 62.59289
# Shear Modulus (GPa) = 34.66532 52.30885 43.48708
#
# Velocity S-wave (km/s) = 3.52175 4.32612 3.94449
# Velocity P-wave (km/s) = 5.95080 7.13220 6.56811
#
# Compressibility (1/GPa) = 0.01895545
#
# Stress axis : x y z
#
# Youngs Moduli (GPa) = 62.95635 67.75426 159.54640
#
# Poissons Ratio (x) = 0.54198 0.17810
# Poissons Ratio (y) = 0.50360 -0.02198
# Poissons Ratio (z) = 0.07028 -0.00933
#
# Static dielectric constant tensor:
#      x y z
#    x 2.377780 -0.184680 -0.156910 
#    y -0.184680 2.724120 0.114040 
#    z -0.156910 0.114040 2.202410 
# 
# From -- ./inp_files/465192.got.cif
#   From: 2010.05.17/outbox.cif.g08.bks.cpg/sg2_233_cif.got.tgz:465192.got - 2010.06.03 11:33:40.
