data_PCOD9077480
_publ_section_title
;
Structure prediction by ZEFSAII (Michael W. Deem and Ramdas Pophale) SiO2 
 PCOD9077480
Probable space group: P -1
;
_chemical_formula_sum "Si O2"
_cell_formula_units_Z 16
_cell_length_a 13.425254
_cell_length_b 9.141944
_cell_length_c 10.554550
_cell_angle_alpha 125.084362
_cell_angle_beta 86.822727
_cell_angle_gamma 122.786387
_cell_volume 827.251361
_symmetry_space_group_name_H-M "P -1"
_symmetry_group_IT_number 2
_symmetry_cell_setting 'triclinic'
loop_
_space_group_symop_operation_xyz
x,y,z
-x,-y,-z
loop_
_atom_site_type_symbol
_atom_site_label
_atom_site_fract_x
_atom_site_fract_y
_atom_site_fract_z
Si Si1 0.973206 0.311909 0.505626
Si Si2 0.261435 0.160183 0.654967
Si Si3 0.484853 0.175657 0.528347
Si Si4 0.617059 0.641595 0.666501
Si Si5 0.672823 0.381928 0.119145
Si Si6 0.127248 0.124542 0.392096
Si Si7 0.961246 0.596249 0.160751
Si Si8 0.508978 0.877025 0.795049
O O1 0.071639 0.259517 0.451071
O O2 0.985133 0.382346 0.689272
O O3 0.000000 0.500000 0.500000
O O4 0.834113 0.067256 0.370681
O O5 0.362803 0.142248 0.574827
O O6 0.327447 0.414239 0.828060
O O7 0.173219 0.146001 0.543503
O O8 0.595774 0.449807 0.664681
O O9 0.476144 0.123760 0.355205
O O10 0.500000 0.000000 0.500000
O O11 0.500000 0.500000 0.500000
O O12 0.751295 0.776992 0.655365
O O13 0.595751 0.812727 0.813496
O O14 0.808973 0.447646 0.111618
O O15 0.632219 0.325192 0.242684
O O16 0.561599 0.131030 0.948759
O O17 0.020681 0.853746 0.244378
O O18 0.000000 0.500000 0.000000
#
# Coordination Sequence:
#
# PCOD9077480 Si02
#       8
#     2   2   2   2   2   2   2   2
#     4  11  25  39  62  94 123 158 205 258 306 360
#     4  11  19  40  62  87 116 162 207 246 291 371
#     4  11  23  36  60  91 123 156 193 250 310 356
#     4  10  18  34  60  84 117 146 204 253 292 348
#     4  11  20  37  64  86 115 156 208 250 290 353
#     4  11  19  39  62  87 114 161 213 246 293 373
#     4  11  23  38  64  90 120 160 211 251 302 362
#     4  10  21  36  61  90 116 150 205 250 296 357
#
# _framework density 19.341158
#
# number of rings (size 3 to 8) (size 9 to 14) (size 15 to 20)
#    0.000    1.250    6.250    2.250    3.500    0.000 
#    0.000    1.250    5.500    0.000    0.000    0.000 
#    0.000    0.000    0.000    0.000    0.000    0.000 
#
# Total GULP energy -89182.543644 kJ/mol
# GULP energy per Si atom -5573.908978 kJ/mol
# Density = 1.929714 g / cm^3
# Si number density = 19.341158 Si / 1000 Ang^3
#
#
#
# Elastic Constant Matrix: (Units=GPa)
#
#
# Indices 1 2 3 4 5 6 
#
# 1 79.4804 67.4815 37.1025 0.7829 -33.6239 11.9846
# 2 67.4815 174.3881 48.1146 30.1740 -23.3348 2.4780
# 3 37.1025 48.1146 89.5908 15.2256 -32.8941 -4.6097
# 4 0.7829 30.1740 15.2256 26.3116 2.8015 -8.6366
# 5 -33.6239 -23.3348 -32.8941 2.8015 29.0700 2.4776
# 6 11.9846 2.4780 -4.6097 -8.6366 2.4776 50.3800
#
#
#
# Elastic Compliance Matrix: (Units=1/GPa)
#
#
# Indices 1 2 3 4 5 6 
#
# 1 0.039067 -0.010576 0.004615 0.000328 0.042775 -0.010398
# 2 -0.010576 0.011954 -0.000628 -0.012886 -0.002086 -0.000236
# 3 0.004615 -0.000628 0.026260 -0.019799 0.036786 -0.003867
# 4 0.000328 -0.012886 -0.019799 0.072889 -0.040520 0.013232
# 5 0.042775 -0.002086 0.036786 -0.040520 0.129437 -0.020019
# 6 -0.010398 -0.000236 -0.003867 0.013232 -0.020019 0.025233
#
#
# Mechanical properties :
#
#
# Convention : Reuss Voigt Hill
#
# Bulk Modulus (GPa) = 15.59986 72.09518 43.84752
# Shear Modulus (GPa) = 14.73247 33.86970 24.30109
#
# Velocity S-wave (km/s) = 2.76291 4.18924 3.54848
# Velocity P-wave (km/s) = 4.27334 7.79462 6.28560
#
# Compressibility (1/GPa) = 0.06410314
#
# Stress axis : x y z
#
# Youngs Moduli (GPa) = 25.59695 83.65341 38.08059
#
# Poissons Ratio (x) = 0.88474 -0.17575
# Poissons Ratio (y) = 0.27072 0.02392
# Poissons Ratio (z) = -0.11814 0.05254
#
# Static dielectric constant tensor:
#      x y z
#    x 1.684970 0.020100 -0.032850 
#    y 0.020100 1.650260 0.045590 
#    z -0.032850 0.045590 1.789190 
# 
# From -- ./inp_files/446405.got.cif
#   From: 2010.05.17/outbox.cif.g08.bks.cpg/sg2_224_cif.got.tgz:446405.got - 2010.06.03 11:33:40.
