data_PCOD9077507
_publ_section_title
;
Structure prediction by ZEFSAII (Michael W. Deem and Ramdas Pophale) SiO2 
 PCOD9077507
Probable space group: P -1
;
_chemical_formula_sum "Si O2"
_cell_formula_units_Z 14
_cell_length_a 10.727176
_cell_length_b 17.793309
_cell_length_c 8.524761
_cell_angle_alpha 78.354837
_cell_angle_beta 102.337160
_cell_angle_gamma 30.528123
_cell_volume 507.629286
_symmetry_space_group_name_H-M "P -1"
_symmetry_group_IT_number 2
_symmetry_cell_setting 'triclinic'
loop_
_space_group_symop_operation_xyz
x,y,z
-x,-y,-z
loop_
_atom_site_type_symbol
_atom_site_label
_atom_site_fract_x
_atom_site_fract_y
_atom_site_fract_z
Si Si1 0.458894 0.275713 0.100399
Si Si2 0.942026 0.236826 0.800389
Si Si3 0.920712 0.612629 0.311052
Si Si4 0.302400 0.486499 0.213586
Si Si5 0.275609 0.746788 0.028623
Si Si6 0.174664 0.192286 0.594620
Si Si7 0.914388 0.895831 0.565218
O O1 0.226990 0.474327 0.048971
O O2 0.262849 0.326064 0.913018
O O3 0.734709 0.166401 0.100265
O O4 0.642277 0.122573 0.355647
O O5 0.500000 0.500000 0.500000
O O6 0.986313 0.279249 0.924355
O O7 0.949830 0.148897 0.917993
O O8 0.190943 0.119428 0.768232
O O9 0.000000 0.500000 0.500000
O O10 0.276206 0.454449 0.384082
O O11 0.707060 0.797094 0.287250
O O12 0.711751 0.294767 0.363461
O O13 0.729802 0.469526 0.303726
O O14 0.090637 0.797071 0.826468
O O15 0.287450 0.070743 0.536058
#
# Coordination Sequence:
#
# PCOD9077507 Si02
#       7
#     2   2   2   2   2   2   2
#     4  11  24  38  56  90 128 153 185 243 300 349
#     4   9  17  31  58  90 109 141 203 245 279 321
#     4  11  23  39  62  86 114 161 204 232 284 359
#     4  10  20  37  62  85 115 152 200 241 282 341
#     4  10  18  34  60  87 110 153 200 240 278 350
#     4  10  20  36  62  85 116 152 202 243 283 344
#     4  11  22  37  60  92 121 149 190 251 302 331
#
# _framework density 27.579183
#
# number of rings (size 3 to 8) (size 9 to 14) (size 15 to 20)
#    0.000    1.714    4.286    2.571    2.000    0.571 
#    0.000    4.286    0.000    4.286    0.000    0.000 
#    0.000    0.000    0.000    0.000    0.000    0.000 
#
# Total GULP energy -78155.401844 kJ/mol
# GULP energy per Si atom -5582.528703 kJ/mol
# Density = 2.751641 g / cm^3
# Si number density = 27.579183 Si / 1000 Ang^3
#
#
#
# Elastic Constant Matrix: (Units=GPa)
#
#
# Indices 1 2 3 4 5 6 
#
# 1 166.4496 47.5458 40.6034 24.9797 -22.7484 0.5122
# 2 47.5458 130.3228 32.1708 15.8150 8.2414 34.4244
# 3 40.6034 32.1708 119.7855 22.7600 -2.7228 19.0573
# 4 24.9797 15.8150 22.7600 27.7769 8.7021 12.0305
# 5 -22.7484 8.2414 -2.7228 8.7021 54.3479 24.4032
# 6 0.5122 34.4244 19.0573 12.0305 24.4032 47.3968
#
#
#
# Elastic Compliance Matrix: (Units=1/GPa)
#
#
# Indices 1 2 3 4 5 6 
#
# 1 0.008826 -0.002865 -0.000976 -0.007788 0.004385 0.002097
# 2 -0.002865 0.010951 -0.000712 0.000192 0.000682 -0.008036
# 3 -0.000976 -0.000712 0.010833 -0.006969 0.002969 -0.003587
# 4 -0.007788 0.000192 -0.006969 0.054246 -0.009592 -0.006084
# 5 0.004385 0.000682 0.002969 -0.009592 0.027969 -0.013702
# 6 0.002097 -0.008036 -0.003587 -0.006084 -0.013702 0.036954
#
#
# Mechanical properties :
#
#
# Convention : Reuss Voigt Hill
#
# Bulk Modulus (GPa) = 46.50809 73.02197 59.76503
# Shear Modulus (GPa) = 30.11082 45.65353 37.88217
#
# Velocity S-wave (km/s) = 3.30782 4.07303 3.71020
# Velocity P-wave (km/s) = 5.61150 6.97525 6.33021
#
# Compressibility (1/GPa) = 0.02150164
#
# Stress axis : x y z
#
# Youngs Moduli (GPa) = 113.30043 91.31903 92.31131
#
# Poissons Ratio (x) = 0.26164 0.09014
# Poissons Ratio (y) = 0.32462 0.06576
# Poissons Ratio (z) = 0.11063 0.06505
#
# Static dielectric constant tensor:
#      x y z
#    x 2.187520 -0.060860 0.137160 
#    y -0.060860 2.221370 -0.089840 
#    z 0.137160 -0.089840 2.227580 
# 
# From -- ./inp_files/260575.got.cif
#   From: 2010.05.17/outbox.cif.g08.bks.cpg/sg2_131_cif.got.tgz:260575.got - 2010.06.03 11:33:40.
