data_PCOD9077036
_publ_section_title
;
Structure prediction by ZEFSAII (Michael W. Deem and Ramdas Pophale) SiO2 
 PCOD9077036
Probable space group: P -1
;
_chemical_formula_sum "Si O2"
_cell_formula_units_Z 16
_cell_length_a 15.015985
_cell_length_b 9.309674
_cell_length_c 12.630488
_cell_angle_alpha 75.707514
_cell_angle_beta 28.780135
_cell_angle_gamma 89.859308
_cell_volume 732.069684
_symmetry_space_group_name_H-M "P -1"
_symmetry_group_IT_number 2
_symmetry_cell_setting 'triclinic'
loop_
_space_group_symop_operation_xyz
x,y,z
-x,-y,-z
loop_
_atom_site_type_symbol
_atom_site_label
_atom_site_fract_x
_atom_site_fract_y
_atom_site_fract_z
Si Si1 0.711331 0.675340 0.967949
Si Si2 0.442922 0.811115 0.808534
Si Si3 0.467390 0.360825 0.430400
Si Si4 0.223734 0.538345 0.715319
Si Si5 0.681337 0.743690 0.760041
Si Si6 0.545243 0.160231 0.726523
Si Si7 0.181412 0.882902 0.379424
Si Si8 0.048408 0.670314 0.355868
O O1 0.610574 0.518844 0.178110
O O2 0.655668 0.812721 0.051755
O O3 0.609473 0.638502 0.962872
O O4 0.956794 0.750056 0.682546
O O5 0.552735 0.789968 0.593690
O O6 0.523445 0.747133 0.837831
O O7 0.502989 0.003157 0.727458
O O8 0.193179 0.700559 0.097556
O O9 0.263353 0.382475 0.666579
O O10 0.597853 0.374550 0.397132
O O11 0.283602 0.668892 0.533802
O O12 0.000000 0.500000 0.000000
O O13 0.840796 0.688031 0.549996
O O14 0.794758 0.934157 0.653339
O O15 0.635773 0.134191 0.747177
O O16 0.176883 0.824035 0.274890
O O17 0.000000 0.500000 0.500000
#
# Coordination Sequence:
#
# PCOD9077036 Si02
#       8
#     2   2   2   2   2   2   2   2
#     4  10  18  34  55  78 111 150 184 217 259 321
#     4  11  22  37  54  85 118 140 181 226 268 325
#     4  10  23  38  58  82 107 139 179 231 282 324
#     4  10  22  43  62  79 102 138 186 231 281 336
#     4  10  21  34  53  80 116 155 181 214 263 318
#     4  10  21  35  60  82 104 148 185 224 277 321
#     4  10  19  34  53  80 114 150 188 216 257 322
#     4  11  22  33  53  83 117 154 185 218 261 312
#
# _framework density 21.855841000000002
#
# number of rings (size 3 to 8) (size 9 to 14) (size 15 to 20)
#    0.000    1.750    0.000    6.000    0.000    7.500 
#    0.000    0.625    0.000    0.000    0.000    0.000 
#    0.000    0.000    0.000    0.000    0.000    0.000 
#
# Total GULP energy -89459.103348 kJ/mol
# GULP energy per Si atom -5591.193959 kJ/mol
# Density = 2.180610 g / cm^3
# Si number density = 21.855841 Si / 1000 Ang^3
#
#
#
# Elastic Constant Matrix: (Units=GPa)
#
#
# Indices 1 2 3 4 5 6 
#
# 1 39.6876 0.7511 -6.7081 6.8360 1.3134 -7.3231
# 2 0.7511 94.2677 18.0456 33.8511 -15.5526 0.9883
# 3 -6.7081 18.0456 84.1790 30.1993 -10.2547 -2.6614
# 4 6.8360 33.8511 30.1993 37.8966 -3.0492 3.8769
# 5 1.3134 -15.5526 -10.2547 -3.0492 24.0980 6.8466
# 6 -7.3231 0.9883 -2.6614 3.8769 6.8466 30.9753
#
#
#
# Elastic Compliance Matrix: (Units=1/GPa)
#
#
# Indices 1 2 3 4 5 6 
#
# 1 0.031152 0.003910 0.007742 -0.016386 -0.000835 0.010141
# 2 0.003910 0.018969 0.005167 -0.020945 0.011327 0.000881
# 3 0.007742 0.005167 0.020378 -0.022110 0.007501 0.004526
# 4 -0.016386 -0.020945 -0.022110 0.065951 -0.010556 -0.011027
# 5 -0.000835 0.011327 0.007501 -0.010556 0.053681 -0.010458
# 6 0.010141 0.000881 0.004526 -0.011027 -0.010458 0.038734
#
#
# Mechanical properties :
#
#
# Convention : Reuss Voigt Hill
#
# Bulk Modulus (GPa) = 9.60283 26.92351 18.26317
# Shear Modulus (GPa) = 21.74489 32.33034 27.03762
#
# Velocity S-wave (km/s) = 3.15766 3.85028 3.52104
# Velocity P-wave (km/s) = 4.20686 5.66671 4.99046
#
# Compressibility (1/GPa) = 0.10413601
#
# Stress axis : x y z
#
# Youngs Moduli (GPa) = 32.10020 52.71813 49.07367
#
# Poissons Ratio (x) = -0.20612 -0.37991
# Poissons Ratio (y) = -0.12551 -0.25357
# Poissons Ratio (z) = -0.24851 -0.27240
#
# Static dielectric constant tensor:
#      x y z
#    x 1.787440 0.027670 0.002770 
#    y 0.027670 1.848300 -0.000880 
#    z 0.002770 -0.000880 1.802310 
# 
# From -- ./inp_files/202277.got.cif
#   From: 2010.05.17/outbox.cif.g08.bks.cpg/sg2_102_cif.got.tgz:202277.got - 2010.06.03 11:33:40.
