data_PCOD9077842
_publ_section_title
;
Structure prediction by ZEFSAII (Michael W. Deem and Ramdas Pophale) SiO2 
 PCOD9077842
Probable space group: P -1
;
_chemical_formula_sum "Si O2"
_cell_formula_units_Z 16
_cell_length_a 8.710804
_cell_length_b 19.856536
_cell_length_c 14.897399
_cell_angle_alpha 41.155064
_cell_angle_beta 156.405510
_cell_angle_gamma 140.002570
_cell_volume 649.813314
_symmetry_space_group_name_H-M "P -1"
_symmetry_group_IT_number 2
_symmetry_cell_setting 'triclinic'
loop_
_space_group_symop_operation_xyz
x,y,z
-x,-y,-z
loop_
_atom_site_type_symbol
_atom_site_label
_atom_site_fract_x
_atom_site_fract_y
_atom_site_fract_z
Si Si1 0.476860 0.597431 0.267876
Si Si2 0.650515 0.626601 0.964057
Si Si3 0.292190 0.767669 0.868938
Si Si4 0.839330 0.642283 0.602414
Si Si5 0.345088 0.713409 0.568847
Si Si6 0.489757 0.012788 0.180272
Si Si7 0.849713 0.219533 0.783217
Si Si8 0.334726 0.948825 0.366042
O O1 0.530240 0.636959 0.360879
O O2 0.277671 0.471318 0.295041
O O3 0.932334 0.619983 0.455301
O O4 0.297058 0.666565 0.034328
O O5 0.998450 0.690177 0.151847
O O6 0.500000 0.500000 0.000000
O O7 0.694688 0.678288 0.838035
O O8 0.261311 0.651990 0.771024
O O9 0.968095 0.736619 0.647637
O O10 0.236046 0.865563 0.799707
O O11 0.743485 0.798640 0.030305
O O12 0.365090 0.733031 0.455798
O O13 0.307852 0.823826 0.481041
O O14 0.435725 0.896458 0.225346
O O15 0.543877 0.991135 0.338806
O O16 0.090160 0.033416 0.902696
O O17 0.500000 0.000000 0.500000
#
# Coordination Sequence:
#
# PCOD9077842 Si02
#       8
#     2   2   2   2   2   2   2   2
#     4   9  16  29  41  63  88 115 141 168 219 266
#     4  10  20  31  44  61  83 117 155 181 209 242
#     4  10  15  25  42  63  90 113 134 166 218 269
#     4   9  19  28  43  60  88 116 142 181 210 252
#     4   9  17  28  44  64  89 115 136 173 218 259
#     4  10  16  25  38  66  91 115 135 165 216 278
#     4   9  16  29  41  61  92 113 137 177 210 261
#     4  10  16  23  40  62  93 119 132 162 212 270
#
# _framework density 24.622456
#
# number of rings (size 3 to 8) (size 9 to 14) (size 15 to 20)
#    0.000    2.500    5.000    1.125    3.500    0.500 
#    0.000    0.000    0.000    0.000    0.000    0.875 
#    0.000   11.250    0.000    0.000    0.000    0.000 
#
# Total GULP energy -89218.957703 kJ/mol
# GULP energy per Si atom -5576.184856 kJ/mol
# Density = 2.456641 g / cm^3
# Si number density = 24.622456 Si / 1000 Ang^3
#
#
#
# Elastic Constant Matrix: (Units=GPa)
#
#
# Indices 1 2 3 4 5 6 
#
# 1 57.4109 21.1345 19.2707 9.1725 10.1520 -15.2573
# 2 21.1345 125.7800 64.6036 12.6792 -33.0519 -24.4237
# 3 19.2707 64.6036 120.3819 1.3355 -42.0479 -24.5731
# 4 9.1725 12.6792 1.3355 41.2910 -2.3436 -15.1857
# 5 10.1520 -33.0519 -42.0479 -2.3436 30.2312 11.3729
# 6 -15.2573 -24.4237 -24.5731 -15.1857 11.3729 41.2709
#
#
#
# Elastic Compliance Matrix: (Units=1/GPa)
#
#
# Indices 1 2 3 4 5 6 
#
# 1 0.038924 -0.008450 -0.016916 -0.004049 -0.050577 0.011765
# 2 -0.008450 0.014297 0.000165 -0.001564 0.018685 -0.000289
# 3 -0.016916 0.000165 0.025278 0.004975 0.041692 -0.000764
# 4 -0.004049 -0.001564 0.004975 0.029384 0.005106 0.009945
# 5 -0.050577 0.018685 0.041692 0.005106 0.135780 -0.018354
# 6 0.011765 -0.000289 -0.000764 0.009945 -0.018354 0.036670
#
#
# Mechanical properties :
#
#
# Convention : Reuss Voigt Hill
#
# Bulk Modulus (GPa) = 35.59018 57.06559 46.32789
# Shear Modulus (GPa) = 14.70156 35.79621 25.24888
#
# Velocity S-wave (km/s) = 2.44617 3.81701 3.20573
# Velocity P-wave (km/s) = 4.73963 6.53090 5.70599
#
# Compressibility (1/GPa) = 0.02809764
#
# Stress axis : x y z
#
# Youngs Moduli (GPa) = 25.69125 69.94457 39.56072
#
# Poissons Ratio (x) = 0.59100 0.66920
# Poissons Ratio (y) = 0.21708 -0.00652
# Poissons Ratio (z) = 0.43459 -0.01153
#
# Static dielectric constant tensor:
#      x y z
#    x 2.103350 -0.011060 0.053160 
#    y -0.011060 2.005790 -0.004340 
#    z 0.053160 -0.004340 1.975750 
# 
# From -- ./inp_files/475199.got.cif
#   From: 2010.05.17/outbox.cif.g08.bks.cpg/sg2_238_cif.got.tgz:475199.got - 2010.06.03 11:33:40.
