data_PCOD9077902
_publ_section_title
;
Structure prediction by ZEFSAII (Michael W. Deem and Ramdas Pophale) SiO2 
 PCOD9077902
Probable space group: P -1
;
_chemical_formula_sum "Si O2"
_cell_formula_units_Z 12
_cell_length_a 5.264396
_cell_length_b 10.023141
_cell_length_c 11.672123
_cell_angle_alpha 64.264814
_cell_angle_beta 71.654243
_cell_angle_gamma 80.587930
_cell_volume 526.341054
_symmetry_space_group_name_H-M "P -1"
_symmetry_group_IT_number 2
_symmetry_cell_setting 'triclinic'
loop_
_space_group_symop_operation_xyz
x,y,z
-x,-y,-z
loop_
_atom_site_type_symbol
_atom_site_label
_atom_site_fract_x
_atom_site_fract_y
_atom_site_fract_z
Si Si1 0.974973 0.696690 0.056470
Si Si2 0.270839 0.058303 0.664678
Si Si3 0.353662 0.951179 0.924662
Si Si4 0.533649 0.472781 0.866657
Si Si5 0.636413 0.776794 0.628117
Si Si6 0.874233 0.820354 0.797778
O O1 0.165253 0.595564 0.146000
O O2 0.677084 0.636739 0.120181
O O3 0.079242 0.861220 0.009664
O O4 0.018902 0.705888 0.907219
O O5 0.297043 0.192767 0.524222
O O6 0.335965 0.076426 0.782033
O O7 0.453168 0.919417 0.640962
O O8 0.982480 0.984807 0.732879
O O9 0.567847 0.832214 0.880751
O O10 0.500000 0.000000 0.000000
O O11 0.518963 0.621981 0.738551
O O12 0.500000 0.500000 0.000000
O O13 0.889287 0.782474 0.676774
#
# Coordination Sequence:
#
# PCOD9077902 Si02
#       6
#     2   2   2   2   2   2
#     4  11  22  36  53  88 115 145 199 234 280 350
#     4   9  20  35  53  87 116 150 197 229 286 347
#     4  10  21  39  62  83 111 150 197 253 289 323
#     4  12  21  34  56  84 122 158 185 227 290 348
#     4  10  20  33  55  82 125 154 179 234 287 352
#     4  10  18  35  55  86 113 146 191 241 284 345
#
# _framework density 22.798905999999999
#
# number of rings (size 3 to 8) (size 9 to 14) (size 15 to 20)
#    0.000    1.667    3.333    3.000    2.333    2.667 
#    0.000    0.000    0.000    2.000    0.000    0.000 
#    0.000    0.000    0.000    0.000    0.000    0.000 
#
# Total GULP energy -66849.173937 kJ/mol
# GULP energy per Si atom -5570.764495 kJ/mol
# Density = 2.274701 g / cm^3
# Si number density = 22.798906 Si / 1000 Ang^3
#
#
#
# Elastic Constant Matrix: (Units=GPa)
#
#
# Indices 1 2 3 4 5 6 
#
# 1 119.2189 27.5256 52.3181 1.1889 17.0424 36.0746
# 2 27.5256 53.5954 54.7374 -3.9647 10.2176 27.2599
# 3 52.3181 54.7374 215.2322 -14.1523 19.1856 21.2520
# 4 1.1889 -3.9647 -14.1523 37.3531 3.4586 5.6585
# 5 17.0424 10.2176 19.1856 3.4586 24.3826 4.0078
# 6 36.0746 27.2599 21.2520 5.6585 4.0078 39.1407
#
#
#
# Elastic Compliance Matrix: (Units=1/GPa)
#
#
# Indices 1 2 3 4 5 6 
#
# 1 0.013560 0.003470 -0.002089 0.001841 -0.007365 -0.013292
# 2 0.003470 0.040548 -0.007091 0.006622 -0.010257 -0.027495
# 3 -0.002089 -0.007091 0.006919 0.001635 -0.001746 0.003049
# 4 0.001841 0.006622 0.001635 0.030399 -0.007888 -0.010783
# 5 -0.007365 -0.010257 -0.001746 -0.007888 0.051180 0.010780
# 6 -0.013292 -0.027495 0.003049 -0.010783 0.010780 0.055749
#
#
# Mechanical properties :
#
#
# Convention : Reuss Voigt Hill
#
# Bulk Modulus (GPa) = 20.15784 73.02319 46.59052
# Shear Modulus (GPa) = 22.09346 37.07297 29.58321
#
# Velocity S-wave (km/s) = 3.11635 4.03685 3.60609
# Velocity P-wave (km/s) = 4.67007 7.33669 6.14966
#
# Compressibility (1/GPa) = 0.04960848
#
# Stress axis : x y z
#
# Youngs Moduli (GPa) = 73.74669 24.66186 144.52259
#
# Poissons Ratio (x) = -0.08558 0.30185
# Poissons Ratio (y) = -0.25590 1.02482
# Poissons Ratio (z) = 0.15403 0.17488
#
# Static dielectric constant tensor:
#      x y z
#    x 2.012260 -0.076700 -0.013870 
#    y -0.076700 1.974570 -0.011990 
#    z -0.013870 -0.011990 1.848160 
# 
# From -- ./inp_files/62652.got.cif
#   From: 2010.05.17/outbox.cif.g08.bks.cpg/sg2_32_cif.got.tgz:62652.got - 2010.06.03 11:33:40.
