data_PCOD9077593
_publ_section_title
;
Structure prediction by ZEFSAII (Michael W. Deem and Ramdas Pophale) SiO2 
 PCOD9077593
Probable space group: P -1
;
_chemical_formula_sum "Si O2"
_cell_formula_units_Z 16
_cell_length_a 10.468866
_cell_length_b 15.579581
_cell_length_c 19.826231
_cell_angle_alpha 153.644340
_cell_angle_beta 149.358618
_cell_angle_gamma 33.187750
_cell_volume 699.893719
_symmetry_space_group_name_H-M "P -1"
_symmetry_group_IT_number 2
_symmetry_cell_setting 'triclinic'
loop_
_space_group_symop_operation_xyz
x,y,z
-x,-y,-z
loop_
_atom_site_type_symbol
_atom_site_label
_atom_site_fract_x
_atom_site_fract_y
_atom_site_fract_z
Si Si1 0.825876 0.334024 0.516851
Si Si2 0.904946 0.742749 0.634083
Si Si3 0.977915 0.318729 0.724198
Si Si4 0.412646 0.093202 0.124111
Si Si5 0.822429 0.754396 0.750744
Si Si6 0.193883 0.027476 0.383017
Si Si7 0.362729 0.954333 0.593988
Si Si8 0.849171 0.749584 0.026792
O O1 0.823953 0.386909 0.631910
O O2 0.594425 0.241061 0.325243
O O3 0.845863 0.523450 0.615421
O O4 0.085885 0.156944 0.491608
O O5 0.982817 0.772996 0.769192
O O6 0.963568 0.846774 0.665349
O O7 0.590912 0.852215 0.573042
O O8 0.000000 0.500000 0.500000
O O9 0.866327 0.151374 0.591045
O O10 0.935677 0.508899 0.887592
O O11 0.259443 0.190556 0.732161
O O12 0.173604 0.138423 0.100785
O O13 0.616875 0.866822 0.055175
O O14 0.279525 0.158793 0.038160
O O15 0.524512 0.862479 0.669850
O O16 0.500000 0.000000 0.500000
O O17 0.103023 0.827009 0.205908
#
# Coordination Sequence:
#
# PCOD9077593 Si02
#       8
#     2   2   2   2   2   2   2   2
#     4  11  18  33  68  88 115 158 202 250 297 371
#     4  10  20  38  60  87 117 158 209 244 290 356
#     4  11  19  38  61  96 121 154 201 247 324 357
#     4  10  19  36  59  97 119 147 205 252 311 346
#     4  10  18  34  61  87 116 156 199 248 298 358
#     4  11  23  41  60  86 120 167 210 245 295 365
#     4   9  21  33  62  89 123 158 187 255 300 370
#     4  10  23  35  64  90 125 155 202 264 294 359
#
# _framework density 22.860614000000002
#
# number of rings (size 3 to 8) (size 9 to 14) (size 15 to 20)
#    0.750    1.000    3.750    1.875    0.000    1.000 
#    0.000    3.750    2.750    0.000    0.000    0.000 
#    0.000    0.000    0.000    0.000    0.000    0.000 
#
# Total GULP energy -89070.285209 kJ/mol
# GULP energy per Si atom -5566.892826 kJ/mol
# Density = 2.280858 g / cm^3
# Si number density = 22.860614 Si / 1000 Ang^3
#
#
#
# Elastic Constant Matrix: (Units=GPa)
#
#
# Indices 1 2 3 4 5 6 
#
# 1 90.8072 -9.9872 13.6744 17.0927 -27.3844 5.8730
# 2 -9.9872 69.1799 25.1619 29.6486 -5.4585 -16.9958
# 3 13.6744 25.1619 98.9955 39.1833 -13.8546 -14.5557
# 4 17.0927 29.6486 39.1833 41.6323 -6.1836 -9.7978
# 5 -27.3844 -5.4585 -13.8546 -6.1836 21.6592 6.9249
# 6 5.8730 -16.9958 -14.5557 -9.7978 6.9249 43.0943
#
#
#
# Elastic Compliance Matrix: (Units=1/GPa)
#
#
# Indices 1 2 3 4 5 6 
#
# 1 0.027534 0.012189 0.005832 -0.021720 0.037976 -0.008016
# 2 0.012189 0.027454 0.004064 -0.025372 0.017037 0.002033
# 3 0.005832 0.004064 0.018358 -0.020429 0.014286 0.000069
# 4 -0.021720 -0.025372 -0.020429 0.067265 -0.029674 0.006115
# 5 0.037976 0.017037 0.014286 -0.029674 0.104642 -0.017193
# 6 -0.008016 0.002033 0.000069 0.006115 -0.017193 0.029275
#
#
# Mechanical properties :
#
#
# Convention : Reuss Voigt Hill
#
# Bulk Modulus (GPa) = 8.50944 35.18675 21.84810
# Shear Modulus (GPa) = 18.55078 36.61938 27.58508
#
# Velocity S-wave (km/s) = 2.85173 4.00666 3.47748
# Velocity P-wave (km/s) = 3.81753 6.06875 5.06968
#
# Compressibility (1/GPa) = 0.11751648
#
# Stress axis : x y z
#
# Youngs Moduli (GPa) = 36.31881 36.42436 54.47097
#
# Poissons Ratio (x) = -0.44399 -0.31765
# Poissons Ratio (y) = -0.44271 -0.22137
# Poissons Ratio (z) = -0.21180 -0.14803
#
# Static dielectric constant tensor:
#      x y z
#    x 1.999060 0.007590 -0.078060 
#    y 0.007590 1.909670 -0.006150 
#    z -0.078060 -0.006150 1.852990 
# 
# From -- ./inp_files/610800.got.cif
#   From: 2010.05.17/outbox.cif.g08.bks.cpg/sg2_306_cif.got.tgz:610800.got - 2010.06.03 11:33:40.
