data_PCOD9077730
_publ_section_title
;
Structure prediction by ZEFSAII (Michael W. Deem and Ramdas Pophale) SiO2 
 PCOD9077730
Probable space group: P -1
;
_chemical_formula_sum "Si O2"
_cell_formula_units_Z 16
_cell_length_a 10.316384
_cell_length_b 21.959121
_cell_length_c 10.129578
_cell_angle_alpha 147.183441
_cell_angle_beta 49.467688
_cell_angle_gamma 145.552773
_cell_volume 696.451234
_symmetry_space_group_name_H-M "P -1"
_symmetry_group_IT_number 2
_symmetry_cell_setting 'triclinic'
loop_
_space_group_symop_operation_xyz
x,y,z
-x,-y,-z
loop_
_atom_site_type_symbol
_atom_site_label
_atom_site_fract_x
_atom_site_fract_y
_atom_site_fract_z
Si Si1 0.070343 0.985935 0.284690
Si Si2 0.587000 0.119450 0.777989
Si Si3 0.611063 0.812310 0.162032
Si Si4 0.474260 0.876106 0.878671
Si Si5 0.992204 0.308247 0.244542
Si Si6 0.518027 0.508959 0.664914
Si Si7 0.931544 0.630459 0.167538
Si Si8 0.801757 0.322817 0.657252
O O1 0.882148 0.953580 0.249134
O O2 0.000000 0.000000 0.500000
O O3 0.331199 0.118445 0.301678
O O4 0.026258 0.831521 0.034499
O O5 0.512304 0.206417 0.925126
O O6 0.863386 0.227676 0.797294
O O7 0.500000 0.000000 0.500000
O O8 0.479010 0.069753 0.902745
O O9 0.468671 0.808374 0.367025
O O10 0.567034 0.662053 0.936521
O O11 0.205183 0.718088 0.759669
O O12 0.500000 0.000000 0.000000
O O13 0.891552 0.285396 0.414845
O O14 0.263398 0.458360 0.356382
O O15 0.500000 0.500000 0.500000
O O16 0.278018 0.383619 0.673318
O O17 0.057776 0.649550 0.254793
O O18 0.849706 0.475893 0.876725
#
# Coordination Sequence:
#
# PCOD9077730 Si02
#       8
#     2   2   2   2   2   2   2   2
#     4  10  21  36  61  90 127 159 206 259 307 375
#     4  11  25  39  64  92 128 165 210 266 310 366
#     4   9  21  35  60  94 125 156 210 254 311 355
#     4  10  24  41  61  87 121 174 215 247 315 383
#     4  10  20  33  63  89 119 160 217 242 309 369
#     4  10  18  34  63  97 123 161 202 257 306 376
#     4   9  19  34  58  90 129 151 206 252 313 355
#     4   9  16  33  61  90 117 163 196 257 297 382
#
# _framework density 22.973611999999999
#
# number of rings (size 3 to 8) (size 9 to 14) (size 15 to 20)
#    0.000    2.250    1.250    1.500   10.500    0.500 
#    0.000    1.250    0.000    0.000    0.000    0.000 
#    0.000    0.000    0.000    0.000    0.000    0.000 
#
# Total GULP energy -89213.114809 kJ/mol
# GULP energy per Si atom -5575.819676 kJ/mol
# Density = 2.292132 g / cm^3
# Si number density = 22.973612 Si / 1000 Ang^3
#
#
#
# Elastic Constant Matrix: (Units=GPa)
#
#
# Indices 1 2 3 4 5 6 
#
# 1 57.9871 49.9851 15.0217 -17.5791 6.4192 27.1660
# 2 49.9851 137.8178 38.4945 -37.5870 1.6048 39.9297
# 3 15.0217 38.4945 98.9104 -38.6527 14.7271 0.8735
# 4 -17.5791 -37.5870 -38.6527 37.1887 -3.4322 -1.0801
# 5 6.4192 1.6048 14.7271 -3.4322 25.4106 -7.5359
# 6 27.1660 39.9297 0.8735 -1.0801 -7.5359 51.6630
#
#
#
# Elastic Compliance Matrix: (Units=1/GPa)
#
#
# Indices 1 2 3 4 5 6 
#
# 1 0.033109 -0.004955 0.004233 0.013377 -0.013236 -0.015303
# 2 -0.004955 0.015048 -0.000050 0.012503 -0.000606 -0.008852
# 3 0.004233 -0.000050 0.019231 0.020869 -0.010462 -0.003602
# 4 0.013377 0.012503 0.020869 0.065873 -0.012558 -0.017505
# 5 -0.013236 -0.000606 -0.010462 -0.012558 0.051509 0.014856
# 6 -0.015303 -0.008852 -0.003602 -0.017505 0.014856 0.036106
#
#
# Mechanical properties :
#
#
# Convention : Reuss Voigt Hill
#
# Bulk Modulus (GPa) = 15.18677 55.74642 35.46659
# Shear Modulus (GPa) = 20.46094 35.60007 28.03050
#
# Velocity S-wave (km/s) = 2.98758 3.94078 3.49681
# Velocity P-wave (km/s) = 4.30415 6.71002 5.63693
#
# Compressibility (1/GPa) = 0.06584679
#
# Stress axis : x y z
#
# Youngs Moduli (GPa) = 30.20298 66.45265 51.99810
#
# Poissons Ratio (x) = 0.32925 -0.22013
# Poissons Ratio (y) = 0.14965 0.00259
# Poissons Ratio (z) = -0.12786 0.00331
#
# Static dielectric constant tensor:
#      x y z
#    x 1.928170 0.064050 -0.015250 
#    y 0.064050 1.949990 0.047230 
#    z -0.015250 0.047230 1.894100 
# 
# From -- ./inp_files/439421.got.cif
#   From: 2010.05.17/outbox.cif.g08.bks.cpg/sg2_220_cif.got.tgz:439421.got - 2010.06.03 11:33:40.
