data_PCOD9077826
_publ_section_title
;
Structure prediction by ZEFSAII (Michael W. Deem and Ramdas Pophale) SiO2 
 PCOD9077826
Probable space group: P -1
;
_chemical_formula_sum "Si O2"
_cell_formula_units_Z 16
_cell_length_a 8.508751
_cell_length_b 12.819337
_cell_length_c 11.111365
_cell_angle_alpha 99.664486
_cell_angle_beta 70.404006
_cell_angle_gamma 44.540509
_cell_volume 630.993935
_symmetry_space_group_name_H-M "P -1"
_symmetry_group_IT_number 2
_symmetry_cell_setting 'triclinic'
loop_
_space_group_symop_operation_xyz
x,y,z
-x,-y,-z
loop_
_atom_site_type_symbol
_atom_site_label
_atom_site_fract_x
_atom_site_fract_y
_atom_site_fract_z
Si Si1 0.056020 0.604832 0.761132
Si Si2 0.827459 0.872128 0.663117
Si Si3 0.199751 0.263585 0.881931
Si Si4 0.563239 0.702748 0.563786
Si Si5 0.402374 0.362645 0.955375
Si Si6 0.976852 0.032255 0.652397
Si Si7 0.356927 0.797089 0.886995
Si Si8 0.433627 0.508799 0.336267
O O1 0.153096 0.450000 0.627353
O O2 0.375397 0.487931 0.693396
O O3 0.885374 0.768542 0.742432
O O4 0.883249 0.704497 0.950142
O O5 0.081386 0.711140 0.469157
O O6 0.491574 0.043514 0.734940
O O7 0.895115 0.956605 0.704240
O O8 0.310948 0.327529 0.865683
O O9 0.897422 0.412294 0.913152
O O10 0.533020 0.757070 0.720824
O O11 0.513037 0.603656 0.589635
O O12 0.290629 0.896180 0.601148
O O13 0.711024 0.247523 0.805248
O O14 0.495298 0.254452 0.033836
O O15 0.000000 0.000000 0.500000
O O16 0.426549 0.634596 0.832672
O O17 0.000000 0.000000 0.000000
#
# Coordination Sequence:
#
# PCOD9077826 Si02
#       8
#     2   2   2   2   2   2   2   2
#     4  11  17  35  59  89 108 138 195 237 279 323
#     4  10  18  35  52  85 109 144 189 228 280 324
#     4  10  23  34  58  80 118 152 179 235 279 339
#     4   9  17  31  55  86 103 140 179 236 281 312
#     4  10  21  39  50  82 119 151 186 222 289 338
#     4  11  18  29  57  84 111 137 182 240 278 321
#     4  10  19  35  60  80 114 153 181 234 287 326
#     4   9  18  31  61  82 105 139 189 239 271 312
#
# _framework density 25.356821
#
# number of rings (size 3 to 8) (size 9 to 14) (size 15 to 20)
#    0.750    1.250    3.750    1.875    1.750    0.000 
#    0.000    1.875    0.000    0.000    0.000    0.000 
#    0.000    0.000    0.000    0.000    0.000    0.000 
#
# Total GULP energy -89193.642558 kJ/mol
# GULP energy per Si atom -5574.602660 kJ/mol
# Density = 2.529911 g / cm^3
# Si number density = 25.356821 Si / 1000 Ang^3
#
#
#
# Elastic Constant Matrix: (Units=GPa)
#
#
# Indices 1 2 3 4 5 6 
#
# 1 31.1409 21.9028 20.8214 5.0293 2.1280 -8.7242
# 2 21.9028 154.2934 68.2373 41.3738 -8.6426 -35.6710
# 3 20.8214 68.2373 145.7596 37.5590 -5.7042 -19.6918
# 4 5.0293 41.3738 37.5590 64.7176 -8.1002 -7.8525
# 5 2.1280 -8.6426 -5.7042 -8.1002 22.4975 0.9759
# 6 -8.7242 -35.6710 -19.6918 -7.8525 0.9759 32.9517
#
#
#
# Elastic Compliance Matrix: (Units=1/GPa)
#
#
# Indices 1 2 3 4 5 6 
#
# 1 0.038541 -0.003310 -0.003847 0.001226 -0.005659 0.004782
# 2 -0.003310 0.011342 -0.002470 -0.004218 0.002141 0.008857
# 3 -0.003847 -0.002470 0.009658 -0.003510 0.000547 0.001227
# 4 0.001226 -0.004218 -0.003510 0.020500 0.004824 -0.001596
# 5 -0.005659 0.002141 0.000547 0.004824 0.047644 0.000885
# 6 0.004782 0.008857 0.001227 -0.001596 0.000885 0.041528
#
#
# Mechanical properties :
#
#
# Convention : Reuss Voigt Hill
#
# Bulk Modulus (GPa) = 24.82191 61.45745 43.13968
# Shear Modulus (GPa) = 24.76533 38.71551 31.74042
#
# Velocity S-wave (km/s) = 3.12857 3.91170 3.54185
# Velocity P-wave (km/s) = 4.78131 6.68518 5.81173
#
# Compressibility (1/GPa) = 0.04028698
#
# Stress axis : x y z
#
# Youngs Moduli (GPa) = 25.94663 88.16940 103.54186
#
# Poissons Ratio (x) = 0.29181 0.39835
# Poissons Ratio (y) = 0.08588 0.25572
# Poissons Ratio (z) = 0.09982 0.21775
#
# Static dielectric constant tensor:
#      x y z
#    x 2.115290 0.041460 0.015660 
#    y 0.041460 2.049540 -0.017760 
#    z 0.015660 -0.017760 2.194450 
# 
# From -- ./inp_files/436759.got.cif
#   From: 2010.05.17/outbox.cif.g08.bks.cpg/sg2_219_cif.got.tgz:436759.got - 2010.06.03 11:33:40.
