data_PCOD9077675
_publ_section_title
;
Structure prediction by ZEFSAII (Michael W. Deem and Ramdas Pophale) SiO2 
 PCOD9077675
Probable space group: P -1
;
_chemical_formula_sum "Si O2"
_cell_formula_units_Z 15
_cell_length_a 13.153398
_cell_length_b 16.343663
_cell_length_c 10.243320
_cell_angle_alpha 126.264519
_cell_angle_beta 53.522959
_cell_angle_gamma 156.538919
_cell_volume 697.579604
_symmetry_space_group_name_H-M "P -1"
_symmetry_group_IT_number 2
_symmetry_cell_setting 'triclinic'
loop_
_space_group_symop_operation_xyz
x,y,z
-x,-y,-z
loop_
_atom_site_type_symbol
_atom_site_label
_atom_site_fract_x
_atom_site_fract_y
_atom_site_fract_z
Si Si1 0.500000 0.500000 0.500000
Si Si2 0.324393 0.892465 0.727406
Si Si3 0.631792 0.229809 0.988518
Si Si4 0.059984 0.682204 0.991187
Si Si5 0.161945 0.253850 0.723287
Si Si6 0.128554 0.801532 0.513187
Si Si7 0.386239 0.642236 0.636037
Si Si8 0.891839 0.006941 0.424663
O O1 0.465556 0.473052 0.669214
O O2 0.441544 0.580402 0.618436
O O3 0.151278 0.790125 0.636947
O O4 0.411363 0.056105 0.888850
O O5 0.591796 0.029165 0.603860
O O6 0.176463 0.736319 0.812382
O O7 0.746485 0.202564 0.926053
O O8 0.568865 0.238225 0.180755
O O9 0.839483 0.446918 0.967942
O O10 0.959699 0.727339 0.117920
O O11 0.070068 0.087659 0.710155
O O12 0.093562 0.184912 0.553303
O O13 0.900072 0.575794 0.408427
O O14 0.084785 0.890838 0.605244
O O15 0.604892 0.810526 0.519045
#
# Coordination Sequence:
#
# PCOD9077675 Si02
#       8
#     1   2   2   2   2   2   2   2
#     4  10  18  34  62  90 118 152 188 254 300 340
#     4  11  25  39  62  87 127 167 197 251 304 362
#     4  11  21  36  65  91 120 154 200 252 310 355
#     4  11  21  38  59  92 124 154 200 257 304 359
#     4  10  19  35  60  94 123 150 202 257 302 351
#     4  11  23  43  58  88 127 163 207 245 300 365
#     4  11  21  37  66  91 121 156 201 258 295 357
#     4  10  20  35  62  89 118 161 206 244 298 359
#
# _framework density 21.502922000000002
#
# number of rings (size 3 to 8) (size 9 to 14) (size 15 to 20)
#    0.000    1.333    2.667    4.400    0.000    1.067 
#    0.000    4.000    0.000    2.400    0.000    0.000 
#    0.000    0.000    0.000    0.000    0.000    0.000 
#
# Total GULP energy -83517.437047 kJ/mol
# GULP energy per Si atom -5567.829136 kJ/mol
# Density = 2.145398 g / cm^3
# Si number density = 21.502922 Si / 1000 Ang^3
#
#
#
# Elastic Constant Matrix: (Units=GPa)
#
#
# Indices 1 2 3 4 5 6 
#
# 1 89.8777 22.5264 48.6942 13.1065 -5.0526 -9.0207
# 2 22.5264 77.4869 18.1621 -1.7173 -3.2839 -9.9568
# 3 48.6942 18.1621 86.0963 -1.6744 -3.4368 -5.7037
# 4 13.1065 -1.7173 -1.6744 27.0126 -3.0053 -1.8786
# 5 -5.0526 -3.2839 -3.4368 -3.0053 31.7985 5.2143
# 6 -9.0207 -9.9568 -5.7037 -1.8786 5.2143 29.0510
#
#
#
# Elastic Compliance Matrix: (Units=1/GPa)
#
#
# Indices 1 2 3 4 5 6 
#
# 1 0.019102 -0.003092 -0.010187 -0.009909 0.000322 0.002173
# 2 -0.003092 0.014627 -0.001003 0.002700 0.000520 0.003937
# 3 -0.010187 -0.001003 0.017751 0.006077 0.000731 0.000240
# 4 -0.009909 0.002700 0.006077 0.042818 0.003205 0.001235
# 5 0.000322 0.000520 0.000731 0.003205 0.032797 -0.005257
# 6 0.002173 0.003937 0.000240 0.001235 -0.005257 0.037517
#
#
# Mechanical properties :
#
#
# Convention : Reuss Voigt Hill
#
# Bulk Modulus (GPa) = 43.63692 48.02514 45.83103
# Shear Modulus (GPa) = 24.89853 28.51096 26.70475
#
# Velocity S-wave (km/s) = 3.40650 3.64526 3.52790
# Velocity P-wave (km/s) = 5.98414 6.33245 6.16076
#
# Compressibility (1/GPa) = 0.02291637
#
# Stress axis : x y z
#
# Youngs Moduli (GPa) = 52.35170 68.36597 56.33397
#
# Poissons Ratio (x) = 0.21139 0.57388
# Poissons Ratio (y) = 0.16188 0.05649
# Poissons Ratio (z) = 0.53331 0.06855
#
# Static dielectric constant tensor:
#      x y z
#    x 1.794490 -0.077270 -0.048530 
#    y -0.077270 1.472660 0.049490 
#    z -0.048530 0.049490 1.790060 
# 
# From -- ./inp_files/270867.got.cif
#   From: 2010.05.17/outbox.cif.g08.bks.cpg/sg2_136_cif.got.tgz:270867.got - 2010.06.03 11:33:40.
