data_PCOD9077124
_publ_section_title
;
Structure prediction by ZEFSAII (Michael W. Deem and Ramdas Pophale) SiO2 
 PCOD9077124
Probable space group: P -1
;
_chemical_formula_sum "Si O2"
_cell_formula_units_Z 14
_cell_length_a 12.111502
_cell_length_b 11.488362
_cell_length_c 22.932375
_cell_angle_alpha 21.514600
_cell_angle_beta 151.432608
_cell_angle_gamma 142.632056
_cell_volume 555.036460
_symmetry_space_group_name_H-M "P -1"
_symmetry_group_IT_number 2
_symmetry_cell_setting 'triclinic'
loop_
_space_group_symop_operation_xyz
x,y,z
-x,-y,-z
loop_
_atom_site_type_symbol
_atom_site_label
_atom_site_fract_x
_atom_site_fract_y
_atom_site_fract_z
Si Si1 0.011323 0.328439 0.763931
Si Si2 0.573575 0.241001 0.798707
Si Si3 0.610802 0.281373 0.205771
Si Si4 0.270846 0.437529 0.377231
Si Si5 0.384919 0.668909 0.027573
Si Si6 0.883283 0.701548 0.753118
Si Si7 0.137184 0.550466 0.598196
O O1 0.135619 0.616850 0.713823
O O2 0.825816 0.304188 0.739769
O O3 0.985318 0.429264 0.637380
O O4 0.203507 0.017979 0.994111
O O5 0.525037 0.440749 0.624070
O O6 0.678052 0.493268 0.772199
O O7 0.386620 0.023591 0.835321
O O8 0.643619 0.902008 0.395894
O O9 0.500000 0.500000 0.000000
O O10 0.468921 0.407349 0.138885
O O11 0.092677 0.381005 0.267150
O O12 0.119044 0.622243 0.936324
O O13 0.602664 0.641113 0.185623
O O14 0.821858 0.080492 0.550526
O O15 0.000000 0.500000 0.500000
#
# Coordination Sequence:
#
# PCOD9077124 Si02
#       7
#     2   2   2   2   2   2   2
#     4  10  18  34  56  82 119 158 190 244 296 345
#     4   8  19  36  57  92 123 147 200 240 294 365
#     4  10  19  30  54  85 120 154 195 234 287 360
#     4  10  18  34  59  88 121 160 189 238 306 356
#     4  10  20  39  60  88 120 157 197 245 298 350
#     4  10  20  38  67  83 120 160 193 245 308 349
#     4  10  22  40  60  87 119 156 208 251 289 352
#
# _framework density 25.223566999999999
#
# number of rings (size 3 to 8) (size 9 to 14) (size 15 to 20)
#    0.857    1.714    2.857    1.714    2.000    0.571 
#    0.000   11.429    0.000    4.286    0.000    0.000 
#    0.000    0.000    0.000    0.000    0.000    0.000 
#
# Total GULP energy -78131.188889 kJ/mol
# GULP energy per Si atom -5580.799206 kJ/mol
# Density = 2.516616 g / cm^3
# Si number density = 25.223567 Si / 1000 Ang^3
#
#
#
# Elastic Constant Matrix: (Units=GPa)
#
#
# Indices 1 2 3 4 5 6 
#
# 1 90.0505 22.4736 18.5377 10.3822 -8.5799 -5.8379
# 2 22.4736 93.1509 23.7173 10.5377 -18.9597 -4.8033
# 3 18.5377 23.7173 97.0567 9.2602 -13.2637 -17.3464
# 4 10.3822 10.5377 9.2602 57.8417 -9.0310 -8.6854
# 5 -8.5799 -18.9597 -13.2637 -9.0310 18.1548 9.6136
# 6 -5.8379 -4.8033 -17.3464 -8.6854 9.6136 32.8805
#
#
#
# Elastic Compliance Matrix: (Units=1/GPa)
#
#
# Indices 1 2 3 4 5 6 
#
# 1 0.012250 -0.002065 -0.001418 -0.001272 0.001829 0.000254
# 2 -0.002065 0.014504 -0.001756 -0.000234 0.014633 -0.003514
# 3 -0.001418 -0.001756 0.012421 -0.000065 0.003960 0.004870
# 4 -0.001272 -0.000234 -0.000065 0.019092 0.007206 0.002642
# 5 0.001829 0.014633 0.003960 0.007206 0.087896 -0.019244
# 6 0.000254 -0.003514 0.004870 0.002642 -0.019244 0.038838
#
#
# Mechanical properties :
#
#
# Convention : Reuss Voigt Hill
#
# Bulk Modulus (GPa) = 34.84788 45.52393 40.18591
# Shear Modulus (GPa) = 24.38494 36.14403 30.26449
#
# Velocity S-wave (km/s) = 3.11264 3.78953 3.46764
# Velocity P-wave (km/s) = 5.17336 6.10203 5.65678
#
# Compressibility (1/GPa) = 0.02869615
#
# Stress axis : x y z
#
# Youngs Moduli (GPa) = 81.63549 68.94579 80.50981
#
# Poissons Ratio (x) = 0.14237 0.11419
# Poissons Ratio (y) = 0.16857 0.14137
# Poissons Ratio (z) = 0.11578 0.12107
#
# Static dielectric constant tensor:
#      x y z
#    x 2.196680 0.109830 0.042850 
#    y 0.109830 2.074940 0.071360 
#    z 0.042850 0.071360 2.029150 
# 
# From -- ./inp_files/620312.got.cif
#   From: 2010.05.17/outbox.cif.g08.bks.cpg/sg2_311_cif.got.tgz:620312.got - 2010.06.03 11:33:40.
