data_PCOD9077965
_publ_section_title
;
Structure prediction by ZEFSAII (Michael W. Deem and Ramdas Pophale) SiO2 
 PCOD9077965
Probable space group: P -1
;
_chemical_formula_sum "Si O2"
_cell_formula_units_Z 16
_cell_length_a 11.578532
_cell_length_b 13.186555
_cell_length_c 13.269512
_cell_angle_alpha 101.153333
_cell_angle_beta 33.111267
_cell_angle_gamma 78.406197
_cell_volume 798.861316
_symmetry_space_group_name_H-M "P -1"
_symmetry_group_IT_number 2
_symmetry_cell_setting 'triclinic'
loop_
_space_group_symop_operation_xyz
x,y,z
-x,-y,-z
loop_
_atom_site_type_symbol
_atom_site_label
_atom_site_fract_x
_atom_site_fract_y
_atom_site_fract_z
Si Si1 0.831767 0.772935 0.277581
Si Si2 0.931010 0.459205 0.443656
Si Si3 0.934757 0.985648 0.930458
Si Si4 0.461590 0.289364 0.376688
Si Si5 0.407875 0.935359 0.437274
Si Si6 0.734242 0.686823 0.014115
Si Si7 0.559771 0.532681 0.222107
Si Si8 0.800032 0.310657 0.287214
O O1 0.167002 0.634745 0.005993
O O2 0.682558 0.723638 0.427859
O O3 0.691671 0.843630 0.284432
O O4 0.728584 0.906345 0.442863
O O5 0.714833 0.435683 0.618206
O O6 0.000000 0.500000 0.500000
O O7 0.208951 0.334806 0.150977
O O8 0.178858 0.946960 0.671604
O O9 0.962071 0.853504 0.884489
O O10 0.644830 0.143746 0.153125
O O11 0.000000 0.000000 0.000000
O O12 0.238831 0.413109 0.487564
O O13 0.658415 0.310710 0.290809
O O14 0.490976 0.846248 0.260070
O O15 0.657726 0.601902 0.102730
O O16 0.033815 0.635898 0.829316
O O17 0.442476 0.602516 0.432105
#
# Coordination Sequence:
#
# PCOD9077965 Si02
#       8
#     2   2   2   2   2   2   2   2
#     4  11  22  35  59  97 133 170 202 242 311 392
#     4  11  27  46  65  88 120 169 224 272 309 353
#     4  10  18  35  56  92 140 172 198 240 310 390
#     4  11  21  39  60  93 130 172 206 255 310 376
#     4  11  22  35  58  95 139 169 198 242 311 394
#     4  11  23  40  65  92 130 164 202 262 316 374
#     4  11  23  42  64  96 124 164 207 258 320 379
#     4  10  22  36  60 100 135 160 196 251 320 393
#
# _framework density 20.028506
#
# number of rings (size 3 to 8) (size 9 to 14) (size 15 to 20)
#    0.000    1.250    5.000    1.500    8.750    2.500 
#    0.000    0.000    0.000    9.750    0.000    0.000 
#    0.000    0.000    0.000    0.000    0.000    0.000 
#
# Total GULP energy -89378.032514 kJ/mol
# GULP energy per Si atom -5586.127032 kJ/mol
# Density = 1.998292 g / cm^3
# Si number density = 20.028506 Si / 1000 Ang^3
#
#
#
# Elastic Constant Matrix: (Units=GPa)
#
#
# Indices 1 2 3 4 5 6 
#
# 1 73.3759 41.6075 43.0780 -1.8795 18.4320 19.8296
# 2 41.6075 115.9240 42.3532 -7.0377 2.7850 31.3035
# 3 43.0780 42.3532 152.0601 4.4246 16.1261 23.6028
# 4 -1.8795 -7.0377 4.4246 52.0220 11.3490 -6.5228
# 5 18.4320 2.7850 16.1261 11.3490 22.5352 1.4603
# 6 19.8296 31.3035 23.6028 -6.5228 1.4603 17.7177
#
#
#
# Elastic Compliance Matrix: (Units=1/GPa)
#
#
# Indices 1 2 3 4 5 6 
#
# 1 0.026902 -0.003029 -0.001574 0.002675 -0.020555 -0.019982
# 2 -0.003029 0.016960 0.000184 -0.001982 0.003049 -0.027800
# 3 -0.001574 0.000184 0.009107 -0.001321 -0.003883 -0.010862
# 4 0.002675 -0.001982 -0.001321 0.023672 -0.013704 0.012112
# 5 -0.020555 0.003049 -0.003883 -0.013704 0.069713 0.012000
# 6 -0.019982 -0.027800 -0.010862 0.012112 0.012000 0.145862
#
#
# Mechanical properties :
#
#
# Convention : Reuss Voigt Hill
#
# Bulk Modulus (GPa) = 22.65965 66.15971 44.40968
# Shear Modulus (GPa) = 15.83461 32.74306 24.28884
#
# Velocity S-wave (km/s) = 2.81482 4.04768 3.48618
# Velocity P-wave (km/s) = 4.68001 7.41279 6.19887
#
# Compressibility (1/GPa) = 0.04413130
#
# Stress axis : x y z
#
# Youngs Moduli (GPa) = 37.17206 58.96299 109.80208
#
# Poissons Ratio (x) = 0.17857 0.17283
# Poissons Ratio (y) = 0.11258 -0.02017
# Poissons Ratio (z) = 0.05851 -0.01083
#
# Static dielectric constant tensor:
#      x y z
#    x 1.672510 0.030270 -0.022020 
#    y 0.030270 1.777240 0.020200 
#    z -0.022020 0.020200 1.798080 
# 
# From -- ./inp_files/426154.got.cif
#   From: 2010.05.17/outbox.cif.g08.bks.cpg/sg2_214_cif.got.tgz:426154.got - 2010.06.03 11:33:40.
