data_PCOD9077685
_publ_section_title
;
Structure prediction by ZEFSAII (Michael W. Deem and Ramdas Pophale) SiO2 
 PCOD9077685
Probable space group: P -1
;
_chemical_formula_sum "Si O2"
_cell_formula_units_Z 14
_cell_length_a 10.107920
_cell_length_b 11.610643
_cell_length_c 8.981435
_cell_angle_alpha 131.807154
_cell_angle_beta 74.656333
_cell_angle_gamma 125.393534
_cell_volume 627.552587
_symmetry_space_group_name_H-M "P -1"
_symmetry_group_IT_number 2
_symmetry_cell_setting 'triclinic'
loop_
_space_group_symop_operation_xyz
x,y,z
-x,-y,-z
loop_
_atom_site_type_symbol
_atom_site_label
_atom_site_fract_x
_atom_site_fract_y
_atom_site_fract_z
Si Si1 0.547233 0.852460 0.849119
Si Si2 0.866860 0.293776 0.787890
Si Si3 0.277355 0.321830 0.986228
Si Si4 0.068967 0.491470 0.628781
Si Si5 0.897753 0.144361 0.932537
Si Si6 0.617036 0.473355 0.550508
Si Si7 0.431612 0.680978 0.054117
O O1 0.480571 0.749770 0.622464
O O2 0.459581 0.718868 0.902340
O O3 0.500000 0.000000 0.000000
O O4 0.744844 0.955615 0.885021
O O5 0.684263 0.251010 0.805456
O O6 0.933941 0.325014 0.629027
O O7 0.873733 0.150046 0.767445
O O8 0.000000 0.500000 0.000000
O O9 0.346132 0.442210 0.223431
O O10 0.327871 0.466977 0.959984
O O11 0.079969 0.192987 0.948173
O O12 0.384432 0.233269 0.862243
O O13 0.117366 0.687840 0.857233
O O14 0.212990 0.460992 0.526421
O O15 0.000000 0.500000 0.500000
O O16 0.500000 0.500000 0.500000
#
# Coordination Sequence:
#
# PCOD9077685 Si02
#       7
#     2   2   2   2   2   2   2
#     4  12  23  40  67  97 129 166 213 262 325 375
#     4  10  18  34  62  93 119 168 215 255 301 387
#     4  11  24  40  66  95 129 167 219 261 313 381
#     4  11  20  36  62  97 123 162 220 263 302 374
#     4  11  22  38  63  95 125 165 211 263 314 375
#     4  12  24  41  64  95 128 170 211 260 315 383
#     4  11  21  40  65  95 125 172 215 256 314 389
#
# _framework density 22.308885
#
# number of rings (size 3 to 8) (size 9 to 14) (size 15 to 20)
#    0.000    0.857    8.571    0.857    0.000    0.571 
#    0.000    2.143    0.000    4.286    0.000    0.000 
#    0.000    0.000    0.000    0.000    0.000    0.000 
#
# Total GULP energy -78101.524650 kJ/mol
# GULP energy per Si atom -5578.680332 kJ/mol
# Density = 2.225811 g / cm^3
# Si number density = 22.308885 Si / 1000 Ang^3
#
#
#
# Elastic Constant Matrix: (Units=GPa)
#
#
# Indices 1 2 3 4 5 6 
#
# 1 192.9050 38.4842 39.2805 -18.6733 -0.5654 33.3016
# 2 38.4842 91.2048 49.3365 -37.4068 11.4121 26.7392
# 3 39.2805 49.3365 52.0923 -21.9764 6.7419 7.7499
# 4 -18.6733 -37.4068 -21.9764 29.2540 -3.9989 -2.3170
# 5 -0.5654 11.4121 6.7419 -3.9989 23.6872 -10.4876
# 6 33.3016 26.7392 7.7499 -2.3170 -10.4876 45.9491
#
#
#
# Elastic Compliance Matrix: (Units=1/GPa)
#
#
# Indices 1 2 3 4 5 6 
#
# 1 0.007380 0.005756 -0.006999 0.005752 -0.003152 -0.007947
# 2 0.005756 0.062305 -0.031569 0.052510 -0.029367 -0.039159
# 3 -0.006999 -0.031569 0.048279 -0.006193 0.007667 0.016739
# 4 0.005752 0.052510 -0.006193 0.094573 -0.022508 -0.034050
# 5 -0.003152 -0.029367 0.007667 -0.022508 0.064310 0.031625
# 6 -0.007947 -0.039159 0.016739 -0.034050 0.031625 0.052989
#
#
# Mechanical properties :
#
#
# Convention : Reuss Voigt Hill
#
# Bulk Modulus (GPa) = 19.10671 65.60050 42.35360
# Shear Modulus (GPa) = 12.10923 33.71812 22.91367
#
# Velocity S-wave (km/s) = 2.33233 3.89192 3.20833
# Velocity P-wave (km/s) = 3.97948 7.04737 5.72283
#
# Compressibility (1/GPa) = 0.05233765
#
# Stress axis : x y z
#
# Youngs Moduli (GPa) = 135.49300 16.05016 20.71305
#
# Poissons Ratio (x) = -0.09238 0.14498
# Poissons Ratio (y) = -0.77986 0.65390
# Poissons Ratio (z) = 0.94838 0.50669
#
# Static dielectric constant tensor:
#      x y z
#    x 1.927930 0.006880 -0.062320 
#    y 0.006880 1.868130 0.025950 
#    z -0.062320 0.025950 1.928280 
# 
# From -- ./inp_files/189983.got.cif
#   From: 2010.05.17/outbox.cif.g08.bks.cpg/sg2_95_cif.got.tgz:189983.got - 2010.06.03 11:33:40.
