data_PCOD9077154
_publ_section_title
;
Structure prediction by ZEFSAII (Michael W. Deem and Ramdas Pophale) SiO2 
 PCOD9077154
Probable space group: P -1
;
_chemical_formula_sum "Si O2"
_cell_formula_units_Z 15
_cell_length_a 17.792550
_cell_length_b 8.197614
_cell_length_c 7.249772
_cell_angle_alpha 85.646152
_cell_angle_beta 101.074915
_cell_angle_gamma 142.547330
_cell_volume 625.834941
_symmetry_space_group_name_H-M "P -1"
_symmetry_group_IT_number 2
_symmetry_cell_setting 'triclinic'
loop_
_space_group_symop_operation_xyz
x,y,z
-x,-y,-z
loop_
_atom_site_type_symbol
_atom_site_label
_atom_site_fract_x
_atom_site_fract_y
_atom_site_fract_z
Si Si1 0.200587 0.363881 0.428676
Si Si2 0.950972 0.752990 0.288127
Si Si3 0.371592 0.253612 0.065750
Si Si4 0.576533 0.463531 0.587999
Si Si5 0.000000 0.000000 0.000000
Si Si6 0.335484 0.923111 0.380266
Si Si7 0.882852 0.109665 0.087157
Si Si8 0.913224 0.335003 0.686942
O O1 0.136952 0.320070 0.591817
O O2 0.303784 0.394905 0.487059
O O3 0.275430 0.642573 0.352859
O O4 0.077838 0.087821 0.278791
O O5 0.009148 0.677258 0.374440
O O6 0.913327 0.686855 0.063545
O O7 0.365773 0.392277 0.199800
O O8 0.367984 0.077358 0.194466
O O9 0.500000 0.500000 0.000000
O O10 0.254334 0.073340 0.888105
O O11 0.500000 0.500000 0.500000
O O12 0.463224 0.140023 0.542815
O O13 0.899983 0.950636 0.068935
O O14 0.222474 0.835389 0.432274
O O15 0.994097 0.360239 0.246698
O O16 0.883703 0.206345 0.884612
#
# Coordination Sequence:
#
# PCOD9077154 Si02
#       8
#     2   2   2   2   1   2   2   2
#     4  11  22  39  58  86 119 159 203 247 303 361
#     4  10  22  36  58  87 122 156 198 248 302 361
#     4  10  22  40  62  87 115 156 201 245 303 365
#     4  10  21  40  62  82 119 161 200 248 302 364
#     4  10  18  34  56  86 116 152 194 246 292 336
#     4  10  21  38  61  86 120 157 197 248 298 359
#     4   9  18  33  58  87 121 153 191 243 301 357
#     4   9  18  36  58  87 119 155 194 241 301 360
#
# _framework density 23.967981999999999
#
# number of rings (size 3 to 8) (size 9 to 14) (size 15 to 20)
#    0.000    2.133    0.000    4.400    0.000    4.800 
#    0.000    2.000    0.000    0.000    0.000    0.000 
#    0.000    0.000    0.000    0.000    0.000    0.000 
#
# Total GULP energy -83565.913780 kJ/mol
# GULP energy per Si atom -5571.060919 kJ/mol
# Density = 2.391343 g / cm^3
# Si number density = 23.967982 Si / 1000 Ang^3
#
#
#
# Elastic Constant Matrix: (Units=GPa)
#
#
# Indices 1 2 3 4 5 6 
#
# 1 143.7756 39.8969 23.0421 -11.7087 -6.1596 23.0706
# 2 39.8969 131.7877 24.1846 4.1136 -1.9750 13.6663
# 3 23.0421 24.1846 66.2566 -7.4296 -6.9069 7.1178
# 4 -11.7087 4.1136 -7.4296 32.0187 8.6641 2.3747
# 5 -6.1596 -1.9750 -6.9069 8.6641 27.4200 -2.6428
# 6 23.0706 13.6663 7.1178 2.3747 -2.6428 52.8902
#
#
#
# Elastic Compliance Matrix: (Units=1/GPa)
#
#
# Indices 1 2 3 4 5 6 
#
# 1 0.008546 -0.002088 -0.001502 0.003261 0.000059 -0.003129
# 2 -0.002088 0.008887 -0.002682 -0.002516 0.000204 -0.000902
# 3 -0.001502 -0.002682 0.017340 0.003149 0.002747 -0.000990
# 4 0.003261 -0.002516 0.003149 0.036579 -0.010538 -0.003365
# 5 0.000059 0.000204 0.002747 -0.010538 0.040718 0.002060
# 6 -0.003129 -0.000902 -0.000990 -0.003365 0.002060 0.020892
#
#
# Mechanical properties :
#
#
# Convention : Reuss Voigt Hill
#
# Bulk Modulus (GPa) = 44.98522 57.34080 51.16301
# Shear Modulus (GPa) = 32.69792 39.44555 36.07173
#
# Velocity S-wave (km/s) = 3.69756 4.06120 3.88364
# Velocity P-wave (km/s) = 6.08596 6.77989 6.44228
#
# Compressibility (1/GPa) = 0.02222952
#
# Stress axis : x y z
#
# Youngs Moduli (GPa) = 117.01963 112.52065 57.67074
#
# Poissons Ratio (x) = 0.23492 0.08661
# Poissons Ratio (y) = 0.24432 0.15467
# Poissons Ratio (z) = 0.17574 0.30177
#
# Static dielectric constant tensor:
#      x y z
#    x 2.038130 0.031230 0.435490 
#    y 0.031230 1.997940 0.246340 
#    z 0.435490 0.246340 4.873440 
# 
# From -- ./inp_files/327483.got.cif
#   From: 2010.05.17/outbox.cif.g08.bks.cpg/sg2_164_cif.got.tgz:327483.got - 2010.06.03 11:33:40.
