data_PCOD9077852
_publ_section_title
;
Structure prediction by ZEFSAII (Michael W. Deem and Ramdas Pophale) SiO2 
 PCOD9077852
Probable space group: P -1
;
_chemical_formula_sum "Si O2"
_cell_formula_units_Z 16
_cell_length_a 9.080410
_cell_length_b 7.626388
_cell_length_c 11.977078
_cell_angle_alpha 76.107178
_cell_angle_beta 115.337242
_cell_angle_gamma 119.913532
_cell_volume 649.390438
_symmetry_space_group_name_H-M "P -1"
_symmetry_group_IT_number 2
_symmetry_cell_setting 'triclinic'
loop_
_space_group_symop_operation_xyz
x,y,z
-x,-y,-z
loop_
_atom_site_type_symbol
_atom_site_label
_atom_site_fract_x
_atom_site_fract_y
_atom_site_fract_z
Si Si1 0.327943 0.659372 0.289292
Si Si2 0.230876 0.924281 0.385435
Si Si3 0.161478 0.396361 0.733631
Si Si4 0.499953 0.717846 0.729761
Si Si5 0.314094 0.995748 0.660568
Si Si6 0.861856 0.194888 0.983449
Si Si7 0.019598 0.692998 0.747725
Si Si8 0.249343 0.261627 0.002081
O O1 0.303805 0.778067 0.371295
O O2 0.200492 0.421347 0.302779
O O3 0.543392 0.768804 0.319301
O O4 0.236269 0.716886 0.145295
O O5 0.256908 0.942058 0.522421
O O6 0.013918 0.818816 0.307446
O O7 0.357866 0.139311 0.337355
O O8 0.310684 0.521829 0.669154
O O9 0.070861 0.540322 0.718138
O O10 0.275640 0.381723 0.878492
O O11 0.428714 0.868803 0.742860
O O12 0.616522 0.657096 0.862737
O O13 0.134853 0.906915 0.692268
O O14 0.902760 0.288086 0.105182
O O15 0.052645 0.231475 0.984638
O O16 0.755171 0.953070 0.994996
#
# Coordination Sequence:
#
# PCOD9077852 Si02
#       8
#     2   2   2   2   2   2   2   2
#     4  10  18  35  54  83 114 146 183 229 283 328
#     4  10  18  35  57  83 118 146 188 240 275 322
#     4  10  21  35  58  90 114 145 188 232 287 333
#     4  10  19  34  54  85 113 145 185 232 279 331
#     4  10  21  35  56  87 115 149 190 235 282 323
#     4  11  20  35  59  81 120 154 179 231 288 340
#     4  10  22  36  54  86 120 147 184 233 286 337
#     4  11  19  36  57  83 118 149 188 225 283 347
#
# _framework density 24.638487999999999
#
# number of rings (size 3 to 8) (size 9 to 14) (size 15 to 20)
#    0.000    1.750    5.000    3.000    0.000    6.000 
#    0.000    1.250    0.000    3.000    0.000   19.250 
#    0.000    0.000    0.000    0.000    0.000    0.000 
#
# Total GULP energy -89410.937502 kJ/mol
# GULP energy per Si atom -5588.183594 kJ/mol
# Density = 2.458241 g / cm^3
# Si number density = 24.638488 Si / 1000 Ang^3
#
#
#
# Elastic Constant Matrix: (Units=GPa)
#
#
# Indices 1 2 3 4 5 6 
#
# 1 30.0416 124.7320 27.3206 7.9548 -0.9303 -4.5442
# 2 124.7320 64.5192 18.4201 -14.5753 -24.6294 65.8656
# 3 27.3206 18.4201 71.3786 10.7067 -13.2115 36.0989
# 4 7.9548 -14.5753 10.7067 12.7431 -9.6976 -0.5237
# 5 -0.9303 -24.6294 -13.2115 -9.6976 10.3075 -8.4509
# 6 -4.5442 65.8656 36.0989 -0.5237 -8.4509 50.7997
#
#
#
# Elastic Compliance Matrix: (Units=1/GPa)
#
#
# Indices 1 2 3 4 5 6 
#
# 1 0.010300 0.004708 -0.006668 0.047869 0.056403 0.009431
# 2 0.004708 0.000003 -0.002640 -0.010135 -0.012381 0.000129
# 3 -0.006668 -0.002640 0.032923 -0.070599 -0.056268 -0.030658
# 4 0.047869 -0.010135 -0.070599 0.322859 0.291238 0.119370
# 5 0.056403 -0.012381 -0.056268 0.291238 0.378588 0.127066
# 6 0.009431 0.000129 -0.030658 0.119370 0.127066 0.064517
#
#
# Mechanical properties :
#
#
# Convention : Reuss Voigt Hill
#
# Bulk Modulus (GPa) = 29.38745 56.32054 42.85400
# Shear Modulus (GPa) = 6.02605 14.46783 10.24694
#
# Velocity S-wave (km/s) = 1.56560 2.42586 2.04155
# Velocity P-wave (km/s) = 3.90147 5.54570 4.79459
#
# Compressibility (1/GPa) = 0.03402813
#
# Stress axis : x y z
#
# Youngs Moduli (GPa) = 97.08966 352996.80271 30.37364
#
# Poissons Ratio (x) = -1662.06217 0.20252
# Poissons Ratio (y) = -0.45714 0.08017
# Poissons Ratio (z) = 0.64737 931.76142
#
# Static dielectric constant tensor:
#      x y z
#    x 1.938930 0.051270 0.008700 
#    y 0.051270 2.025230 0.001880 
#    z 0.008700 0.001880 1.915510 
# 
# From -- ./inp_files/381804.got.cif
#   From: 2010.05.17/outbox.cif.g08.bks.cpg/sg2_191_cif.got.tgz:381804.got - 2010.06.03 11:33:40.
