data_PCOD9077266
_publ_section_title
;
Structure prediction by ZEFSAII (Michael W. Deem and Ramdas Pophale) SiO2 
 PCOD9077266
Probable space group: P -1
;
_chemical_formula_sum "Si O2"
_cell_formula_units_Z 16
_cell_length_a 6.118427
_cell_length_b 16.433152
_cell_length_c 21.457689
_cell_angle_alpha 29.893233
_cell_angle_beta 48.630036
_cell_angle_gamma 58.474356
_cell_volume 799.654399
_symmetry_space_group_name_H-M "P -1"
_symmetry_group_IT_number 2
_symmetry_cell_setting 'triclinic'
loop_
_space_group_symop_operation_xyz
x,y,z
-x,-y,-z
loop_
_atom_site_type_symbol
_atom_site_label
_atom_site_fract_x
_atom_site_fract_y
_atom_site_fract_z
Si Si1 0.712584 0.759565 0.127789
Si Si2 0.676860 0.142639 0.097468
Si Si3 0.553300 0.026273 0.058272
Si Si4 0.067203 0.164740 0.688254
Si Si5 0.625657 0.117205 0.454700
Si Si6 0.543824 0.452806 0.451295
Si Si7 0.233208 0.079392 0.321241
Si Si8 0.944498 0.770496 0.497801
O O1 0.784559 0.920297 0.053056
O O2 0.584414 0.606460 0.295091
O O3 0.022966 0.736809 0.052074
O O4 0.499185 0.815572 0.077625
O O5 0.437940 0.191281 0.159241
O O6 0.563581 0.079779 0.092448
O O7 0.768236 0.983225 0.220934
O O8 0.264708 0.891772 0.191303
O O9 0.254864 0.328628 0.569882
O O10 0.044926 0.178575 0.609727
O O11 0.407584 0.256251 0.405906
O O12 0.970155 0.167009 0.342334
O O13 0.500000 0.000000 0.500000
O O14 0.612216 0.004918 0.594468
O O15 0.500000 0.500000 0.500000
O O16 0.840416 0.367184 0.444675
O O17 0.083096 0.923499 0.412455
#
# Coordination Sequence:
#
# PCOD9077266 Si02
#       8
#     2   2   2   2   2   2   2   2
#     4  10  24  36  53  82 112 154 197 239 287 344
#     4  11  19  36  60  82 114 146 190 244 290 342
#     4  10  21  39  56  77 110 153 199 246 287 331
#     4  11  20  35  59  80 112 153 194 238 286 334
#     4   9  19  31  56  89 121 144 182 238 298 345
#     4  12  25  38  54  83 118 158 199 238 285 343
#     4  10  18  34  57  92 115 144 189 241 292 344
#     4  11  19  35  56  83 118 150 187 239 291 337
#
# _framework density 20.008641000000001
#
# number of rings (size 3 to 8) (size 9 to 14) (size 15 to 20)
#    0.000    1.500    3.750    1.875    0.000    5.000 
#    0.000    0.000    0.000    0.750    0.000   13.125 
#    0.000    0.000    0.000    0.000    0.000    0.000 
#
# Total GULP energy -89177.877909 kJ/mol
# GULP energy per Si atom -5573.617369 kJ/mol
# Density = 1.996310 g / cm^3
# Si number density = 20.008641 Si / 1000 Ang^3
#
#
#
# Elastic Constant Matrix: (Units=GPa)
#
#
# Indices 1 2 3 4 5 6 
#
# 1 83.9066 18.9705 24.1693 -0.9566 22.7803 13.9738
# 2 18.9705 72.5929 23.9369 20.7154 7.2860 -17.9760
# 3 24.1693 23.9369 103.2506 12.4779 13.8361 -1.6487
# 4 -0.9566 20.7154 12.4779 33.7669 -2.5248 1.8700
# 5 22.7803 7.2860 13.8361 -2.5248 31.3596 11.9454
# 6 13.9738 -17.9760 -1.6487 1.8700 11.9454 41.2336
#
#
#
# Elastic Compliance Matrix: (Units=1/GPa)
#
#
# Indices 1 2 3 4 5 6 
#
# 1 0.017024 -0.006025 -0.002350 0.004895 -0.006988 -0.006688
# 2 -0.006025 0.025460 -0.001013 -0.016974 -0.008702 0.016392
# 3 -0.002350 -0.001013 0.011599 -0.004185 -0.004379 0.002277
# 4 0.004895 -0.016974 -0.004185 0.043353 0.011227 -0.014445
# 5 -0.006988 -0.008702 -0.004379 0.011227 0.047914 -0.015990
# 6 -0.006688 0.016392 0.002277 -0.014445 -0.015990 0.039043
#
#
# Mechanical properties :
#
#
# Convention : Reuss Voigt Hill
#
# Bulk Modulus (GPa) = 28.32311 43.76707 36.04509
# Shear Modulus (GPa) = 23.26238 34.11689 28.68964
#
# Velocity S-wave (km/s) = 3.41342 4.13377 3.79075
# Velocity P-wave (km/s) = 5.45173 6.68623 6.10029
#
# Compressibility (1/GPa) = 0.03530685
#
# Stress axis : x y z
#
# Youngs Moduli (GPa) = 58.74003 39.27660 86.21361
#
# Poissons Ratio (x) = 0.23666 0.20261
# Poissons Ratio (y) = 0.35394 0.08732
# Poissons Ratio (z) = 0.13804 0.03978
#
# Static dielectric constant tensor:
#      x y z
#    x 1.774300 -0.096170 -0.047480 
#    y -0.096170 1.821920 0.072880 
#    z -0.047480 0.072880 1.712610 
# 
# From -- ./inp_files/369320.got.cif
#   From: 2010.05.17/outbox.cif.g08.bks.cpg/sg2_185_cif.got.tgz:369320.got - 2010.06.03 11:33:40.
