data_PCOD9077395
_publ_section_title
;
Structure prediction by ZEFSAII (Michael W. Deem and Ramdas Pophale) SiO2 
 PCOD9077395
Probable space group: P -1
;
_chemical_formula_sum "Si O2"
_cell_formula_units_Z 14
_cell_length_a 11.938023
_cell_length_b 11.164114
_cell_length_c 7.502311
_cell_angle_alpha 119.699922
_cell_angle_beta 99.414542
_cell_angle_gamma 42.640261
_cell_volume 552.987403
_symmetry_space_group_name_H-M "P -1"
_symmetry_group_IT_number 2
_symmetry_cell_setting 'triclinic'
loop_
_space_group_symop_operation_xyz
x,y,z
-x,-y,-z
loop_
_atom_site_type_symbol
_atom_site_label
_atom_site_fract_x
_atom_site_fract_y
_atom_site_fract_z
Si Si1 0.035161 0.596415 0.386548
Si Si2 0.441999 0.723937 0.575742
Si Si3 0.140407 0.802473 0.520825
Si Si4 0.378475 0.978849 0.467951
Si Si5 0.997687 0.339704 0.180431
Si Si6 0.765440 0.143592 0.063843
Si Si7 0.663586 0.501299 0.151030
O O1 0.089411 0.535107 0.562313
O O2 0.123840 0.654425 0.384825
O O3 0.074475 0.410423 0.174817
O O4 0.822867 0.813793 0.484484
O O5 0.321762 0.712033 0.457247
O O6 0.368866 0.934731 0.637337
O O7 0.624300 0.540821 0.386401
O O8 0.410521 0.736993 0.784230
O O9 0.115956 0.878927 0.775896
O O10 0.000000 0.000000 0.500000
O O11 0.491514 0.749808 0.233153
O O12 0.500000 0.000000 0.500000
O O13 0.838341 0.422174 0.088765
O O14 0.131623 0.095810 0.092623
O O15 0.710952 0.295160 0.999652
#
# Coordination Sequence:
#
# PCOD9077395 Si02
#       7
#     2   2   2   2   2   2   2
#     4  11  20  36  56  85 115 150 190 227 283 340
#     4   8  19  32  60  80 104 152 184 227 271 335
#     4  10  18  34  59  84 110 149 188 231 274 332
#     4  10  19  35  58  81 110 147 193 220 283 342
#     4  11  22  34  60  85 115 150 184 240 275 328
#     4  10  20  35  57  90 110 143 199 225 280 331
#     4  10  18  34  61  81 106 155 187 225 277 337
#
# _framework density 25.317031
#
# number of rings (size 3 to 8) (size 9 to 14) (size 15 to 20)
#    1.714    0.286    4.286    0.857    0.000    0.000 
#    0.000    3.571    3.143   12.000    0.000    0.000 
#    0.000    0.000    0.000    0.000    0.000    0.000 
#
# Total GULP energy -77942.300690 kJ/mol
# GULP energy per Si atom -5567.307192 kJ/mol
# Density = 2.525941 g / cm^3
# Si number density = 25.317031 Si / 1000 Ang^3
#
#
#
# Elastic Constant Matrix: (Units=GPa)
#
#
# Indices 1 2 3 4 5 6 
#
# 1 179.5018 22.6870 39.4352 15.1279 47.0834 21.7489
# 2 22.6870 78.7181 37.8279 30.6582 20.6656 14.7687
# 3 39.4352 37.8279 77.3625 24.0907 25.6164 3.1719
# 4 15.1279 30.6582 24.0907 47.8440 12.7468 1.4285
# 5 47.0834 20.6656 25.6164 12.7468 36.5835 17.2779
# 6 21.7489 14.7687 3.1719 1.4285 17.2779 42.7974
#
#
#
# Elastic Compliance Matrix: (Units=1/GPa)
#
#
# Indices 1 2 3 4 5 6 
#
# 1 0.008518 0.000943 -0.001400 0.000193 -0.010416 -0.000352
# 2 0.000943 0.021213 -0.006889 -0.009677 -0.002114 -0.006112
# 3 -0.001400 -0.006889 0.021405 -0.003154 -0.011065 0.006075
# 4 0.000193 -0.009677 -0.003154 0.029859 -0.005125 0.004547
# 5 -0.010416 -0.002114 -0.011065 -0.005125 0.059501 -0.017007
# 6 -0.000352 -0.006112 0.006075 0.004547 -0.017007 0.031918
#
#
# Mechanical properties :
#
#
# Convention : Reuss Voigt Hill
#
# Bulk Modulus (GPa) = 27.43866 59.49807 43.46837
# Shear Modulus (GPa) = 25.09360 41.15380 33.12370
#
# Velocity S-wave (km/s) = 3.15171 4.03617 3.62105
# Velocity P-wave (km/s) = 4.90978 6.72853 5.88978
#
# Compressibility (1/GPa) = 0.03644492
#
# Stress axis : x y z
#
# Youngs Moduli (GPa) = 117.40052 47.14106 46.71719
#
# Poissons Ratio (x) = -0.04446 0.06539
# Poissons Ratio (y) = -0.11073 0.32184
# Poissons Ratio (z) = 0.16432 0.32476
#
# Static dielectric constant tensor:
#      x y z
#    x 2.013640 0.008200 0.009670 
#    y 0.008200 2.046170 0.048680 
#    z 0.009670 0.048680 2.122960 
# 
# From -- ./inp_files/422245.got.cif
#   From: 2010.05.17/outbox.cif.g08.bks.cpg/sg2_212_cif.got.tgz:422245.got - 2010.06.03 11:33:40.
