data_PCOD9077061
_publ_section_title
;
Structure prediction by ZEFSAII (Michael W. Deem and Ramdas Pophale) SiO2 
 PCOD9077061
Probable space group: P -1
;
_chemical_formula_sum "Si O2"
_cell_formula_units_Z 16
_cell_length_a 16.163481
_cell_length_b 10.163383
_cell_length_c 7.079305
_cell_angle_alpha 98.457770
_cell_angle_beta 52.398310
_cell_angle_gamma 131.472625
_cell_volume 622.305538
_symmetry_space_group_name_H-M "P -1"
_symmetry_group_IT_number 2
_symmetry_cell_setting 'triclinic'
loop_
_space_group_symop_operation_xyz
x,y,z
-x,-y,-z
loop_
_atom_site_type_symbol
_atom_site_label
_atom_site_fract_x
_atom_site_fract_y
_atom_site_fract_z
Si Si1 0.089485 0.452605 0.303715
Si Si2 0.490687 0.327994 0.630534
Si Si3 0.449893 0.816613 0.937155
Si Si4 0.334614 0.956472 0.673553
Si Si5 0.208875 0.546161 0.758023
Si Si6 0.603578 0.693737 0.669810
Si Si7 0.029827 0.842854 0.097017
Si Si8 0.963069 0.057744 0.316271
O O1 0.000000 0.500000 0.500000
O O2 0.010896 0.235323 0.401215
O O3 0.267672 0.631454 0.149822
O O4 0.096459 0.470301 0.070896
O O5 0.664691 0.447120 0.368552
O O6 0.508014 0.468945 0.773374
O O7 0.405661 0.294562 0.547222
O O8 0.410967 0.116982 0.767707
O O9 0.520246 0.742196 0.887888
O O10 0.532159 0.905743 0.637879
O O11 0.500000 0.000000 0.000000
O O12 0.289717 0.762334 0.671147
O O13 0.176989 0.889953 0.867352
O O14 0.106360 0.384827 0.703706
O O15 0.780310 0.859774 0.521933
O O16 0.044088 0.991062 0.230611
O O17 0.988596 0.859773 0.949016
#
# Coordination Sequence:
#
# PCOD9077061 Si02
#       8
#     2   2   2   2   2   2   2   2
#     4  11  24  37  58  83 113 152 187 230 281 335
#     4  10  19  31  56  87 112 141 187 236 287 317
#     4  11  23  38  57  84 115 148 188 230 282 334
#     4  11  22  36  59  85 117 148 184 233 282 333
#     4  11  21  38  57  86 117 146 187 230 280 340
#     4  10  18  34  55  83 114 143 187 239 277 325
#     4  10  20  32  55  87 112 147 183 234 284 323
#     4  10  19  34  56  80 117 142 189 236 278 323
#
# _framework density 25.710844000000002
#
# number of rings (size 3 to 8) (size 9 to 14) (size 15 to 20)
#    0.000    1.500    6.250    1.500    3.500    0.000 
#    0.000    0.000    0.000    3.000    0.000    0.000 
#    0.000    0.000    0.000    0.000    0.000    0.000 
#
# Total GULP energy -89276.088225 kJ/mol
# GULP energy per Si atom -5579.755514 kJ/mol
# Density = 2.565232 g / cm^3
# Si number density = 25.710844 Si / 1000 Ang^3
#
#
#
# Elastic Constant Matrix: (Units=GPa)
#
#
# Indices 1 2 3 4 5 6 
#
# 1 46.7320 40.3348 36.7220 -0.6158 -13.5058 -5.8469
# 2 40.3348 244.9354 40.4565 -6.7506 -20.3356 -2.4232
# 3 36.7220 40.4565 89.3605 -7.0152 -37.4825 5.6584
# 4 -0.6158 -6.7506 -7.0152 52.9969 -0.7831 -1.0616
# 5 -13.5058 -20.3356 -37.4825 -0.7831 37.4318 2.6514
# 6 -5.8469 -2.4232 5.6584 -1.0616 2.6514 38.4704
#
#
#
# Elastic Compliance Matrix: (Units=1/GPa)
#
#
# Indices 1 2 3 4 5 6 
#
# 1 0.037124 -0.003829 -0.016784 -0.002204 -0.006121 0.008231
# 2 -0.003829 0.004834 -0.000017 0.000581 0.001264 -0.000346
# 3 -0.016784 -0.000017 0.028712 0.003782 0.023351 -0.008280
# 4 -0.002204 0.000581 0.003782 0.019462 0.003756 -0.000576
# 5 -0.006121 0.001264 0.023351 0.003756 0.049190 -0.007572
# 6 0.008231 -0.000346 -0.008280 -0.000576 -0.007572 0.028947
#
#
# Mechanical properties :
#
#
# Convention : Reuss Voigt Hill
#
# Bulk Modulus (GPa) = 34.00365 68.45050 51.22707
# Shear Modulus (GPa) = 22.79654 43.34746 33.07200
#
# Velocity S-wave (km/s) = 2.98090 4.11050 3.59040
# Velocity P-wave (km/s) = 5.01017 7.01493 6.09553
#
# Compressibility (1/GPa) = 0.02940861
#
# Stress axis : x y z
#
# Youngs Moduli (GPa) = 26.93691 206.88660 34.82918
#
# Poissons Ratio (x) = 0.79209 0.58458
# Poissons Ratio (y) = 0.10313 0.00061
# Poissons Ratio (z) = 0.45211 0.00360
#
# Static dielectric constant tensor:
#      x y z
#    x 2.209030 -0.042640 0.096830 
#    y -0.042640 2.202600 -0.033130 
#    z 0.096830 -0.033130 2.010360 
# 
# From -- ./inp_files/266841.got.cif
#   From: 2010.05.17/outbox.cif.g08.bks.cpg/sg2_134_cif.got.tgz:266841.got - 2010.06.03 11:33:40.
