data_PCOD9077356
_publ_section_title
;
Structure prediction by ZEFSAII (Michael W. Deem and Ramdas Pophale) SiO2 
 PCOD9077356
Probable space group: P -1
;
_chemical_formula_sum "Si O2"
_cell_formula_units_Z 16
_cell_length_a 8.335563
_cell_length_b 8.124976
_cell_length_c 13.960412
_cell_angle_alpha 98.216428
_cell_angle_beta 51.656852
_cell_angle_gamma 91.084002
_cell_volume 730.973979
_symmetry_space_group_name_H-M "P -1"
_symmetry_group_IT_number 2
_symmetry_cell_setting 'triclinic'
loop_
_space_group_symop_operation_xyz
x,y,z
-x,-y,-z
loop_
_atom_site_type_symbol
_atom_site_label
_atom_site_fract_x
_atom_site_fract_y
_atom_site_fract_z
Si Si1 0.272314 0.105395 0.702644
Si Si2 0.874178 0.295968 0.829479
Si Si3 0.773712 0.470913 0.488413
Si Si4 0.513661 0.247163 0.450931
Si Si5 0.036516 0.592798 0.893825
Si Si6 0.210667 0.093685 0.939322
Si Si7 0.614059 0.255362 0.113913
Si Si8 0.756350 0.472926 0.703769
O O1 0.405358 0.197805 0.585407
O O2 0.265578 0.161471 0.820059
O O3 0.037368 0.134406 0.755356
O O4 0.369447 0.916087 0.650617
O O5 0.758018 0.339946 0.777754
O O6 0.013021 0.450879 0.812636
O O7 0.725704 0.285573 0.974039
O O8 0.678797 0.372112 0.429865
O O9 0.662857 0.658311 0.540038
O O10 0.716524 0.400668 0.607326
O O11 0.014825 0.471147 0.386596
O O12 0.248114 0.674027 0.844783
O O13 0.000000 0.500000 0.000000
O O14 0.858405 0.744433 0.958292
O O15 0.377775 0.945416 0.896152
O O16 0.000000 0.000000 0.000000
O O17 0.401524 0.367839 0.203500
#
# Coordination Sequence:
#
# PCOD9077356 Si02
#       8
#     2   2   2   2   2   2   2   2
#     4  11  20  37  63  93 119 143 200 260 298 333
#     4  11  21  38  60  90 124 157 194 241 298 362
#     4  10  23  43  63  87 112 158 209 247 294 349
#     4  10  23  40  68  87 108 156 210 257 290 338
#     4   9  18  33  60  88 114 153 201 235 283 344
#     4  10  18  34  58  92 120 147 192 249 288 340
#     4  10  21  37  61  90 121 161 191 244 299 350
#     4  11  23  38  61  85 129 158 194 240 303 366
#
# _framework density 21.888604999999998
#
# number of rings (size 3 to 8) (size 9 to 14) (size 15 to 20)
#    0.000    1.750    5.000    1.125    1.750    2.000 
#    0.000    1.250    5.500    0.000    0.000    0.000 
#    0.000    0.000    0.000    0.000    0.000    0.000 
#
# Total GULP energy -89364.555053 kJ/mol
# GULP energy per Si atom -5585.284691 kJ/mol
# Density = 2.183879 g / cm^3
# Si number density = 21.888605 Si / 1000 Ang^3
#
#
#
# Elastic Constant Matrix: (Units=GPa)
#
#
# Indices 1 2 3 4 5 6 
#
# 1 55.9190 21.4997 32.3183 7.9645 -10.9439 -29.4201
# 2 21.4997 63.8783 23.6695 6.6738 -8.6667 -28.2819
# 3 32.3183 23.6695 101.5603 6.9919 -17.9909 -20.7158
# 4 7.9645 6.6738 6.9919 43.5880 -22.6550 -1.5778
# 5 -10.9439 -8.6667 -17.9909 -22.6550 34.5443 5.4006
# 6 -29.4201 -28.2819 -20.7158 -1.5778 5.4006 33.1913
#
#
#
# Elastic Compliance Matrix: (Units=1/GPa)
#
#
# Indices 1 2 3 4 5 6 
#
# 1 0.038224 0.005115 -0.005709 -0.004511 0.002127 0.034115
# 2 0.005115 0.026464 -0.002212 -0.003157 0.001070 0.025379
# 3 -0.005709 -0.002212 0.013159 0.002407 0.006005 0.000405
# 4 -0.004511 -0.003157 0.002407 0.035943 0.023753 -0.007343
# 5 0.002127 0.001070 0.006005 0.023753 0.048633 -0.000239
# 6 0.034115 0.025379 0.000405 -0.007343 -0.000239 0.081935
#
#
# Mechanical properties :
#
#
# Convention : Reuss Voigt Hill
#
# Bulk Modulus (GPa) = 13.84390 41.81473 27.82932
# Shear Modulus (GPa) = 18.24488 31.85608 25.05048
#
# Velocity S-wave (km/s) = 2.89023 3.81907 3.38665
# Velocity P-wave (km/s) = 4.18047 6.21225 5.29473
#
# Compressibility (1/GPa) = 0.07223399
#
# Stress axis : x y z
#
# Youngs Moduli (GPa) = 26.16181 37.78688 75.99141
#
# Poissons Ratio (x) = -0.19327 0.43387
# Poissons Ratio (y) = -0.13381 0.16808
# Poissons Ratio (z) = 0.14937 0.08358
#
# Static dielectric constant tensor:
#      x y z
#    x 1.821630 -0.020430 -0.001390 
#    y -0.020430 1.812750 -0.013280 
#    z -0.001390 -0.013280 1.808860 
# 
# From -- ./inp_files/243891.got.cif
#   From: 2010.05.17/outbox.cif.g08.bks.cpg/sg2_122_cif.got.tgz:243891.got - 2010.06.03 11:33:40.
