data_PCOD9077303
_publ_section_title
;
Structure prediction by ZEFSAII (Michael W. Deem and Ramdas Pophale) SiO2 
 PCOD9077303
Probable space group: P -1
;
_chemical_formula_sum "Si O2"
_cell_formula_units_Z 13
_cell_length_a 9.893595
_cell_length_b 5.818229
_cell_length_c 19.449223
_cell_angle_alpha 51.935950
_cell_angle_beta 35.545226
_cell_angle_gamma 48.978876
_cell_volume 482.279165
_symmetry_space_group_name_H-M "P -1"
_symmetry_group_IT_number 2
_symmetry_cell_setting 'triclinic'
loop_
_space_group_symop_operation_xyz
x,y,z
-x,-y,-z
loop_
_atom_site_type_symbol
_atom_site_label
_atom_site_fract_x
_atom_site_fract_y
_atom_site_fract_z
Si Si1 0.756894 0.245815 0.518159
Si Si2 0.000000 0.000000 0.000000
Si Si3 0.194397 0.574385 0.189515
Si Si4 0.783925 0.750641 0.222818
Si Si5 0.491123 0.594409 0.782105
Si Si6 0.405437 0.959668 0.953627
Si Si7 0.758515 0.739891 0.519993
O O1 0.494177 0.247376 0.657865
O O2 0.746241 0.594139 0.477621
O O3 0.762739 0.086004 0.469798
O O4 0.000000 0.000000 0.500000
O O5 0.795768 0.076542 0.008781
O O6 0.946441 0.632615 0.110913
O O7 0.277378 0.442716 0.255771
O O8 0.343421 0.298182 0.128117
O O9 0.920999 0.672014 0.253156
O O10 0.307599 0.851721 0.083693
O O11 0.746102 0.117026 0.149106
O O12 0.548250 0.690136 0.665127
O O13 0.434194 0.285453 0.869123
O O14 0.000000 0.500000 0.500000
#
# Coordination Sequence:
#
# PCOD9077303 Si02
#       7
#     2   1   2   2   2   2   2
#     4   9  18  37  61  90 117 158 208 258 311 368
#     4  10  18  34  58  82 118 156 202 240 312 368
#     4  10  22  39  53  89 125 161 206 257 306 375
#     4  10  21  37  60  90 120 163 208 254 311 377
#     4  11  21  38  62  83 121 165 212 249 320 368
#     4  10  21  38  56  84 126 164 203 257 304 376
#     4   9  19  34  63  91 115 156 210 262 312 371
#
# _framework density 26.955342999999999
#
# number of rings (size 3 to 8) (size 9 to 14) (size 15 to 20)
#    0.000    2.154    1.538    1.385    2.154    2.462 
#   13.846    0.000    0.000   16.615    0.000    0.000 
#    0.000    0.000    0.000    0.000    0.000    0.000 
#
# Total GULP energy -72409.358257 kJ/mol
# GULP energy per Si atom -5569.950635 kJ/mol
# Density = 2.689399 g / cm^3
# Si number density = 26.955343 Si / 1000 Ang^3
#
#
#
# Elastic Constant Matrix: (Units=GPa)
#
#
# Indices 1 2 3 4 5 6 
#
# 1 146.4634 42.2243 37.1953 6.7490 -6.8614 -11.9771
# 2 42.2243 116.0147 29.0596 -17.0103 -3.2307 33.6305
# 3 37.1953 29.0596 126.2498 17.2950 -12.4809 -8.4973
# 4 6.7490 -17.0103 17.2950 28.6982 -6.0280 -9.5115
# 5 -6.8614 -3.2307 -12.4809 -6.0280 45.7808 8.2852
# 6 -11.9771 33.6305 -8.4973 -9.5115 8.2852 49.4851
#
#
#
# Elastic Compliance Matrix: (Units=1/GPa)
#
#
# Indices 1 2 3 4 5 6 
#
# 1 0.008974 -0.004940 -0.000812 -0.003035 -0.000510 0.004892
# 2 -0.004940 0.016388 -0.004219 0.010154 0.002694 -0.011557
# 3 -0.000812 -0.004219 0.010437 -0.007453 0.000924 0.002876
# 4 -0.003035 0.010154 -0.007453 0.046793 0.004514 -0.000677
# 5 -0.000510 0.002694 0.000924 0.004514 0.023689 -0.004895
# 6 0.004892 -0.011557 0.002876 -0.000677 -0.004895 0.030430
#
#
# Mechanical properties :
#
#
# Convention : Reuss Voigt Hill
#
# Bulk Modulus (GPa) = 63.06525 67.29847 65.18186
# Shear Modulus (GPa) = 30.87568 43.47606 37.17587
#
# Velocity S-wave (km/s) = 3.38810 4.02044 3.71774
# Velocity P-wave (km/s) = 6.22516 6.82442 6.53167
#
# Compressibility (1/GPa) = 0.01585659
#
# Stress axis : x y z
#
# Youngs Moduli (GPa) = 111.43248 61.01872 95.81155
#
# Poissons Ratio (x) = 0.30143 0.07783
# Poissons Ratio (y) = 0.55046 0.40426
# Poissons Ratio (z) = 0.09052 0.25746
#
# Static dielectric constant tensor:
#      x y z
#    x 2.125110 0.060350 0.016720 
#    y 0.060350 2.294220 -0.011800 
#    z 0.016720 -0.011800 2.461890 
# 
# From -- ./inp_files/31565.got.cif
#   From: 2010.05.17/outbox.cif.g08.bks.cpg/sg2_16_cif.got.tgz:31565.got - 2010.06.03 11:33:40.
