data_PCOD9077491
_publ_section_title
;
Structure prediction by ZEFSAII (Michael W. Deem and Ramdas Pophale) SiO2 
 PCOD9077491
Probable space group: P -1
;
_chemical_formula_sum "Si O2"
_cell_formula_units_Z 14
_cell_length_a 22.708810
_cell_length_b 13.328487
_cell_length_c 9.511203
_cell_angle_alpha 143.726868
_cell_angle_beta 141.327811
_cell_angle_gamma 17.666350
_cell_volume 515.610943
_symmetry_space_group_name_H-M "P -1"
_symmetry_group_IT_number 2
_symmetry_cell_setting 'triclinic'
loop_
_space_group_symop_operation_xyz
x,y,z
-x,-y,-z
loop_
_atom_site_type_symbol
_atom_site_label
_atom_site_fract_x
_atom_site_fract_y
_atom_site_fract_z
Si Si1 0.000337 0.218235 0.645026
Si Si2 0.635004 0.590180 0.086660
Si Si3 0.381391 0.739249 0.912413
Si Si4 0.564872 0.569175 0.617359
Si Si5 0.773524 0.481140 0.772297
Si Si6 0.861800 0.570833 0.507513
Si Si7 0.922234 0.840827 0.836763
O O1 0.815282 0.454831 0.658457
O O2 0.965019 0.399459 0.657003
O O3 0.153007 0.057143 0.857587
O O4 0.104019 0.889243 0.397005
O O5 0.437457 0.838726 0.075576
O O6 0.635945 0.548958 0.875535
O O7 0.790566 0.214625 0.021485
O O8 0.700444 0.678483 0.336019
O O9 0.429397 0.545788 0.650692
O O10 0.500000 0.500000 0.000000
O O11 0.500000 0.500000 0.500000
O O12 0.563115 0.754834 0.739104
O O13 0.879103 0.451282 0.033484
O O14 0.817002 0.833090 0.676987
O O15 0.015155 0.274208 0.338673
#
# Coordination Sequence:
#
# PCOD9077491 Si02
#       7
#     2   2   2   2   2   2   2
#     4  10  21  36  60  93 119 160 206 247 305 362
#     4  11  20  39  64  85 127 159 194 254 305 359
#     4  10  21  35  60  89 118 160 205 246 300 364
#     4   9  19  33  57  89 119 161 198 241 309 356
#     4  10  18  34  60  85 121 156 202 246 296 358
#     4  11  23  36  62  95 123 154 210 251 299 370
#     4  11  21  36  62  92 122 159 205 250 304 357
#
# _framework density 27.152255
#
# number of rings (size 3 to 8) (size 9 to 14) (size 15 to 20)
#    0.000    1.714    2.857    3.000    4.000    0.571 
#    0.000    0.000    9.429    7.714    0.000    0.000 
#    0.000    0.000    0.000    0.000    0.000    0.000 
#
# Total GULP energy -77981.622502 kJ/mol
# GULP energy per Si atom -5570.115893 kJ/mol
# Density = 2.709046 g / cm^3
# Si number density = 27.152255 Si / 1000 Ang^3
#
#
#
# Elastic Constant Matrix: (Units=GPa)
#
#
# Indices 1 2 3 4 5 6 
#
# 1 169.8800 32.7730 61.0735 -14.0837 21.4798 21.5089
# 2 32.7730 52.9475 30.2147 3.6447 11.9605 13.9210
# 3 61.0735 30.2147 141.6586 -15.7554 22.8724 2.1159
# 4 -14.0837 3.6447 -15.7554 35.2742 3.0969 -2.2701
# 5 21.4798 11.9605 22.8724 3.0969 67.3756 -10.0806
# 6 21.5089 13.9210 2.1159 -2.2701 -10.0806 21.2338
#
#
#
# Elastic Compliance Matrix: (Units=1/GPa)
#
#
# Indices 1 2 3 4 5 6 
#
# 1 0.008797 -0.000826 -0.002724 0.002059 -0.003236 -0.009415
# 2 -0.000826 0.030233 -0.005512 -0.006792 -0.006230 -0.022119
# 3 -0.002724 -0.005512 0.009963 0.004361 -0.000927 0.005407
# 4 0.002059 -0.006792 0.004361 0.032267 -0.001732 0.004560
# 5 -0.003236 -0.006230 -0.000927 -0.001732 0.019873 0.016705
# 6 -0.009415 -0.022119 0.005407 0.004560 0.016705 0.079012
#
#
# Mechanical properties :
#
#
# Convention : Reuss Voigt Hill
#
# Bulk Modulus (GPa) = 32.39374 68.06760 50.23067
# Shear Modulus (GPa) = 23.97389 40.80506 32.38948
#
# Velocity S-wave (km/s) = 2.97466 3.88083 3.45756
# Velocity P-wave (km/s) = 4.87385 6.72342 5.87192
#
# Compressibility (1/GPa) = 0.03087016
#
# Stress axis : x y z
#
# Youngs Moduli (GPa) = 113.67236 33.07590 100.36785
#
# Poissons Ratio (x) = 0.02732 0.27344
# Poissons Ratio (y) = 0.09388 0.55319
# Poissons Ratio (z) = 0.30969 0.18230
#
# Static dielectric constant tensor:
#      x y z
#    x 2.104910 -0.169510 0.047850 
#    y -0.169510 2.356570 -0.042380 
#    z 0.047850 -0.042380 2.087370 
# 
# From -- ./inp_files/177997.got.cif
#   From: 2010.05.17/outbox.cif.g08.bks.cpg/sg2_89_cif.got.tgz:177997.got - 2010.06.03 11:33:40.
