data_PCOD9077616
_publ_section_title
;
Structure prediction by ZEFSAII (Michael W. Deem and Ramdas Pophale) SiO2 
 PCOD9077616
Probable space group: P -1
;
_chemical_formula_sum "Si O2"
_cell_formula_units_Z 16
_cell_length_a 13.965806
_cell_length_b 8.367585
_cell_length_c 13.553661
_cell_angle_alpha 120.494079
_cell_angle_beta 128.629189
_cell_angle_gamma 102.085143
_cell_volume 665.022341
_symmetry_space_group_name_H-M "P -1"
_symmetry_group_IT_number 2
_symmetry_cell_setting 'triclinic'
loop_
_space_group_symop_operation_xyz
x,y,z
-x,-y,-z
loop_
_atom_site_type_symbol
_atom_site_label
_atom_site_fract_x
_atom_site_fract_y
_atom_site_fract_z
Si Si1 0.285733 0.819845 0.982362
Si Si2 0.495100 0.612821 0.773878
Si Si3 0.933958 0.133888 0.505152
Si Si4 0.393829 0.153041 0.664009
Si Si5 0.288518 0.648405 0.336405
Si Si6 0.543311 0.823666 0.079410
Si Si7 0.287323 0.302291 0.349272
Si Si8 0.739892 0.141004 0.790945
O O1 0.113716 0.488242 0.727507
O O2 0.484247 0.966374 0.106893
O O3 0.262955 0.791796 0.077027
O O4 0.306756 0.056139 0.034677
O O5 0.505127 0.405214 0.734750
O O6 0.336611 0.446794 0.533237
O O7 0.449910 0.640293 0.862075
O O8 0.816566 0.009188 0.494081
O O9 0.769202 0.022327 0.289053
O O10 0.000000 0.000000 0.500000
O O11 0.521983 0.327517 0.901596
O O12 0.330536 0.870846 0.507540
O O13 0.201846 0.365978 0.246846
O O14 0.187255 0.622330 0.167890
O O15 0.512341 0.856483 0.522796
O O16 0.500000 0.500000 0.500000
O O17 0.185663 0.982612 0.197602
#
# Coordination Sequence:
#
# PCOD9077616 Si02
#       8
#     2   2   2   2   2   2   2   2
#     4  12  23  41  69  97 128 175 222 268 330 397
#     4  12  21  36  68  97 128 171 224 265 331 395
#     4  10  25  44  62  94 136 168 222 274 326 395
#     4  10  21  40  61  92 130 173 210 270 326 388
#     4  10  18  34  61  90 129 174 209 266 333 382
#     4  10  24  41  65  93 131 171 216 268 329 392
#     4  10  19  34  57 103 129 162 225 277 313 396
#     4  10  19  34  59  99 130 164 225 271 322 392
#
# _framework density 24.059343999999999
#
# number of rings (size 3 to 8) (size 9 to 14) (size 15 to 20)
#    0.750    0.750    5.000    1.500    1.750    0.500 
#    0.000    0.625    0.000    0.750    0.000    0.000 
#    0.000    0.000    0.000    0.000    0.000    0.000 
#
# Total GULP energy -89111.863151 kJ/mol
# GULP energy per Si atom -5569.491447 kJ/mol
# Density = 2.400458 g / cm^3
# Si number density = 24.059344 Si / 1000 Ang^3
#
#
#
# Elastic Constant Matrix: (Units=GPa)
#
#
# Indices 1 2 3 4 5 6 
#
# 1 64.0606 83.6397 136.7435 0.4670 -51.8253 -12.3734
# 2 83.6397 180.1123 2.1530 6.5149 11.1269 -18.4557
# 3 136.7435 2.1530 -47.9894 -8.4876 18.5688 -18.7015
# 4 0.4670 6.5149 -8.4876 39.8245 9.1302 -9.7835
# 5 -51.8253 11.1269 18.5688 9.1302 37.3452 -3.2353
# 6 -12.3734 -18.4557 -18.7015 -9.7835 -3.2353 31.0660
#
#
#
# Elastic Compliance Matrix: (Units=1/GPa)
#
#
# Indices 1 2 3 4 5 6 
#
# 1 0.003513 -0.001272 0.007504 0.002995 0.001331 0.006243
# 2 -0.001272 0.006367 -0.003787 -0.001414 -0.001398 0.000405
# 3 0.007504 -0.003787 0.003068 -0.000324 0.010405 0.003568
# 4 0.002995 -0.001414 -0.000324 0.027676 -0.001271 0.008742
# 5 0.001331 -0.001398 0.010405 -0.001271 0.024884 0.008154
# 6 0.006243 0.000405 0.003568 0.008742 0.008154 0.040667
#
#
# Mechanical properties :
#
#
# Convention : Reuss Voigt Hill
#
# Bulk Modulus (GPa) = 56.05731 71.25065 63.65398
# Shear Modulus (GPa) = 46.62863 19.89029 33.25946
#
# Velocity S-wave (km/s) = 4.40712 2.87839 3.72209
# Velocity P-wave (km/s) = 7.01763 6.38167 6.70719
#
# Compressibility (1/GPa) = 0.01783889
#
# Stress axis : x y z
#
# Youngs Moduli (GPa) = 284.69200 157.06089 325.92904
#
# Poissons Ratio (x) = 0.19973 -2.44587
# Poissons Ratio (y) = 0.36204 1.23429
# Poissons Ratio (z) = -2.13641 0.59479
#
# Static dielectric constant tensor:
#      x y z
#    x 1.969860 -0.030710 0.011440 
#    y -0.030710 2.059380 -0.004630 
#    z 0.011440 -0.004630 1.917730 
# 
# From -- ./inp_files/537148.got.cif
#   From: 2010.05.17/outbox.cif.g08.bks.cpg/sg2_269_cif.got.tgz:537148.got - 2010.06.03 11:33:40.
