data_PCOD9077921
_publ_section_title
;
Structure prediction by ZEFSAII (Michael W. Deem and Ramdas Pophale) SiO2 
 PCOD9077921
Probable space group: P -1
;
_chemical_formula_sum "Si O2"
_cell_formula_units_Z 16
_cell_length_a 21.249397
_cell_length_b 14.439099
_cell_length_c 11.367498
_cell_angle_alpha 45.784126
_cell_angle_beta 29.912108
_cell_angle_gamma 25.804947
_cell_volume 699.599236
_symmetry_space_group_name_H-M "P -1"
_symmetry_group_IT_number 2
_symmetry_cell_setting 'triclinic'
loop_
_space_group_symop_operation_xyz
x,y,z
-x,-y,-z
loop_
_atom_site_type_symbol
_atom_site_label
_atom_site_fract_x
_atom_site_fract_y
_atom_site_fract_z
Si Si1 0.131872 0.515463 0.031317
Si Si2 0.809905 0.001101 0.575288
Si Si3 0.547708 0.060519 0.590766
Si Si4 0.203008 0.926734 0.726676
Si Si5 0.616285 0.805836 0.889898
Si Si6 0.032160 0.814787 0.611476
Si Si7 0.320517 0.592646 0.554189
Si Si8 0.817150 0.749840 0.135060
O O1 0.339453 0.283728 0.818070
O O2 0.174953 0.630132 0.845225
O O3 0.180584 0.428907 0.159993
O O4 0.900558 0.678061 0.197929
O O5 0.837307 0.956276 0.431448
O O6 0.760438 0.194139 0.492492
O O7 0.581374 0.127470 0.875292
O O8 0.005931 0.800768 0.528280
O O9 0.718105 0.036360 0.335697
O O10 0.416149 0.117931 0.640925
O O11 0.662940 0.845902 0.663193
O O12 0.424557 0.648548 0.610646
O O13 0.000000 0.000000 0.000000
O O14 0.500000 0.000000 0.000000
O O15 0.255903 0.604422 0.514186
O O16 0.000000 0.000000 0.500000
O O17 0.858818 0.860550 0.917059
O O18 0.000000 0.500000 0.000000
#
# Coordination Sequence:
#
# PCOD9077921 Si02
#       8
#     2   2   2   2   2   2   2   2
#     4   8  15  24  41  71  98 115 146 204 249 284
#     4  11  18  30  54  75  98 130 160 207 255 290
#     4   9  16  28  43  66  96 125 158 197 245 291
#     4  11  22  34  48  71 104 137 166 201 242 298
#     4  10  15  25  43  74  97 116 155 206 249 284
#     4   9  18  29  47  79 105 123 156 210 261 296
#     4   9  18  33  49  75 101 125 167 203 246 296
#     4   9  15  24  43  68  99 124 151 201 255 287
#
# _framework density 22.870239000000002
#
# number of rings (size 3 to 8) (size 9 to 14) (size 15 to 20)
#    0.000    2.500    5.000    1.125    0.000    0.000 
#    0.000    0.625    0.000    0.750    0.000    7.875 
#    0.000    0.000    0.000    0.000    0.000    0.000 
#
# Total GULP energy -89179.160739 kJ/mol
# GULP energy per Si atom -5573.697546 kJ/mol
# Density = 2.281819 g / cm^3
# Si number density = 22.870239 Si / 1000 Ang^3
#
#
#
# Elastic Constant Matrix: (Units=GPa)
#
#
# Indices 1 2 3 4 5 6 
#
# 1 99.7234 43.0288 37.6693 7.0963 -22.5942 -31.6674
# 2 43.0288 97.1488 57.9552 -0.8701 -9.3413 -41.4517
# 3 37.6693 57.9552 124.0113 11.5212 -32.2135 -12.0307
# 4 7.0963 -0.8701 11.5212 45.3976 -3.9723 -12.0510
# 5 -22.5942 -9.3413 -32.2135 -3.9723 36.9195 6.1676
# 6 -31.6674 -41.4517 -12.0307 -12.0510 6.1676 42.3472
#
#
#
# Elastic Compliance Matrix: (Units=1/GPa)
#
#
# Indices 1 2 3 4 5 6 
#
# 1 0.015495 -0.001393 -0.001624 0.000932 0.006291 0.009111
# 2 -0.001393 0.032955 -0.015691 0.012372 -0.010180 0.031763
# 3 -0.001624 -0.015691 0.018458 -0.007690 0.012886 -0.015394
# 4 0.000932 0.012372 -0.007690 0.028923 -0.003123 0.019309
# 5 0.006291 -0.010180 0.012886 -0.003123 0.040673 -0.008412
# 6 0.009111 0.031763 -0.015394 0.019309 -0.008412 0.063865
#
#
# Mechanical properties :
#
#
# Convention : Reuss Voigt Hill
#
# Bulk Modulus (GPa) = 33.90696 66.46557 50.18626
# Shear Modulus (GPa) = 20.19264 37.08153 28.63708
#
# Velocity S-wave (km/s) = 2.97462 4.03101 3.54242
# Velocity P-wave (km/s) = 5.16293 7.12675 6.22280
#
# Compressibility (1/GPa) = 0.02949247
#
# Stress axis : x y z
#
# Youngs Moduli (GPa) = 64.53891 30.34396 54.17674
#
# Poissons Ratio (x) = 0.04228 0.08798
# Poissons Ratio (y) = 0.08993 0.85006
# Poissons Ratio (z) = 0.10481 0.47611
#
# Static dielectric constant tensor:
#      x y z
#    x 2.004510 0.065060 0.007800 
#    y 0.065060 1.972040 -0.124500 
#    z 0.007800 -0.124500 2.193790 
# 
# From -- ./inp_files/544398.got.cif
#   From: 2010.05.17/outbox.cif.g08.bks.cpg/sg2_273_cif.got.tgz:544398.got - 2010.06.03 11:33:40.
