data_PCOD9077648
_publ_section_title
;
Structure prediction by ZEFSAII (Michael W. Deem and Ramdas Pophale) SiO2 
 PCOD9077648
Probable space group: P -1
;
_chemical_formula_sum "Si O2"
_cell_formula_units_Z 16
_cell_length_a 13.917110
_cell_length_b 9.040893
_cell_length_c 9.890847
_cell_angle_alpha 116.373885
_cell_angle_beta 85.997340
_cell_angle_gamma 54.585727
_cell_volume 812.314882
_symmetry_space_group_name_H-M "P -1"
_symmetry_group_IT_number 2
_symmetry_cell_setting 'triclinic'
loop_
_space_group_symop_operation_xyz
x,y,z
-x,-y,-z
loop_
_atom_site_type_symbol
_atom_site_label
_atom_site_fract_x
_atom_site_fract_y
_atom_site_fract_z
Si Si1 0.351852 0.194056 0.833751
Si Si2 0.314489 0.069530 0.063072
Si Si3 0.946142 0.729633 0.675392
Si Si4 0.448604 0.409962 0.058585
Si Si5 0.954164 0.824711 0.425340
Si Si6 0.632473 0.753346 0.628190
Si Si7 0.827787 0.619880 0.327010
Si Si8 0.218341 0.673846 0.397302
O O1 0.403032 0.311720 0.927749
O O2 0.247919 0.336305 0.782878
O O3 0.481268 0.937269 0.671652
O O4 0.293399 0.165025 0.955662
O O5 0.184644 0.153441 0.181872
O O6 0.364449 0.159157 0.191358
O O7 0.430179 0.799671 0.948465
O O8 0.924376 0.874787 0.610291
O O9 0.000000 0.500000 0.500000
O O10 0.061716 0.634650 0.730632
O O11 0.500000 0.500000 0.000000
O O12 0.327813 0.592507 0.243289
O O13 0.901798 0.708364 0.337731
O O14 0.111640 0.668593 0.342812
O O15 0.872736 0.062149 0.455298
O O16 0.719755 0.751735 0.511466
O O17 0.706096 0.496626 0.552598
#
# Coordination Sequence:
#
# PCOD9077648 Si02
#       8
#     2   2   2   2   2   2   2   2
#     4  11  24  37  59  94 120 151 193 245 297 350
#     4  11  19  38  62  86 114 155 205 238 281 354
#     4  10  18  34  62  84 114 154 201 236 283 348
#     4  11  23  38  62  86 119 153 200 239 295 345
#     4  10  21  36  62  89 114 152 205 238 285 348
#     4  11  18  39  60  85 117 157 199 236 282 355
#     4  11  22  38  61  89 123 151 191 248 297 340
#     4  11  20  37  63  87 111 152 206 243 276 344
#
# _framework density 19.696795000000002
#
# number of rings (size 3 to 8) (size 9 to 14) (size 15 to 20)
#    0.000    1.250    6.250    2.625    1.750    0.500 
#    0.000    1.875    0.000    1.500    0.000    0.000 
#    0.000    0.000    0.000    0.000    0.000    0.000 
#
# Total GULP energy -89279.869092 kJ/mol
# GULP energy per Si atom -5579.991818 kJ/mol
# Density = 1.965196 g / cm^3
# Si number density = 19.696795 Si / 1000 Ang^3
#
#
#
# Elastic Constant Matrix: (Units=GPa)
#
#
# Indices 1 2 3 4 5 6 
#
# 1 62.7082 9.5483 25.1746 -6.9335 -26.0308 -8.4409
# 2 9.5483 75.4723 6.0651 -9.1829 5.7169 -12.1841
# 3 25.1746 6.0651 44.6500 -6.9854 -24.0301 -7.8865
# 4 -6.9335 -9.1829 -6.9854 28.6533 -6.4962 -1.8228
# 5 -26.0308 5.7169 -24.0301 -6.4962 36.8524 -4.3392
# 6 -8.4409 -12.1841 -7.8865 -1.8228 -4.3392 39.2642
#
#
#
# Elastic Compliance Matrix: (Units=1/GPa)
#
#
# Indices 1 2 3 4 5 6 
#
# 1 0.028729 -0.002621 0.000821 0.012418 0.024460 0.008807
# 2 -0.002621 0.014969 -0.001990 0.002851 -0.004579 0.003308
# 3 0.000821 -0.001990 0.048338 0.020826 0.037775 0.014410
# 4 0.012418 0.002851 0.020826 0.052193 0.032732 0.013778
# 5 0.024460 -0.004579 0.037775 0.032732 0.078065 0.021572
# 6 0.008807 0.003308 0.014410 0.013778 0.021572 0.034306
#
#
# Mechanical properties :
#
#
# Convention : Reuss Voigt Hill
#
# Bulk Modulus (GPa) = 11.84038 29.37849 20.60943
# Shear Modulus (GPa) = 17.10391 30.42348 23.76370
#
# Velocity S-wave (km/s) = 2.94999 3.93439 3.47720
# Velocity P-wave (km/s) = 4.19853 5.96548 5.15823
#
# Compressibility (1/GPa) = 0.08445674
#
# Stress axis : x y z
#
# Youngs Moduli (GPa) = 34.80839 66.80431 20.68784
#
# Poissons Ratio (x) = 0.17507 -0.01698
# Poissons Ratio (y) = 0.09122 0.04116
# Poissons Ratio (z) = -0.02857 0.13291
#
# Static dielectric constant tensor:
#      x y z
#    x 1.713240 0.010280 -0.012430 
#    y 0.010280 1.749660 0.012660 
#    z -0.012430 0.012660 1.687010 
# 
# From -- ./inp_files/258893.got.cif
#   From: 2010.05.17/outbox.cif.g08.bks.cpg/sg2_130_cif.got.tgz:258893.got - 2010.06.03 11:33:40.
