data_PCOD9077786
_publ_section_title
;
Structure prediction by ZEFSAII (Michael W. Deem and Ramdas Pophale) SiO2 
 PCOD9077786
Probable space group: P -1
;
_chemical_formula_sum "Si O2"
_cell_formula_units_Z 15
_cell_length_a 14.926691
_cell_length_b 7.206375
_cell_length_c 7.105330
_cell_angle_alpha 62.438932
_cell_angle_beta 70.602440
_cell_angle_gamma 104.696626
_cell_volume 558.135432
_symmetry_space_group_name_H-M "P -1"
_symmetry_group_IT_number 2
_symmetry_cell_setting 'triclinic'
loop_
_space_group_symop_operation_xyz
x,y,z
-x,-y,-z
loop_
_atom_site_type_symbol
_atom_site_label
_atom_site_fract_x
_atom_site_fract_y
_atom_site_fract_z
Si Si1 0.500000 0.000000 0.000000
Si Si2 0.401296 0.647278 0.595761
Si Si3 0.255815 0.489817 0.328688
Si Si4 0.663589 0.006117 0.041961
Si Si5 0.161646 0.417254 0.039014
Si Si6 0.902807 0.112960 0.743071
Si Si7 0.072714 0.478010 0.724281
Si Si8 0.612750 0.726741 0.541726
O O1 0.553906 0.117917 0.679123
O O2 0.433871 0.158402 0.950838
O O3 0.285549 0.543116 0.821894
O O4 0.490858 0.674355 0.674486
O O5 0.386664 0.436704 0.559346
O O6 0.180927 0.472847 0.565583
O O7 0.306034 0.312939 0.362692
O O8 0.356105 0.765586 0.109124
O O9 0.176286 0.462157 0.227942
O O10 0.663371 0.978601 0.277470
O O11 0.777498 0.043895 0.883226
O O12 0.099704 0.514597 0.907397
O O13 0.098776 0.132166 0.183692
O O14 0.939478 0.307194 0.460249
O O15 0.972291 0.238772 0.821825
#
# Coordination Sequence:
#
# PCOD9077786 Si02
#       8
#     1   2   2   2   2   2   2   2
#     4  10  18  34  66  86 118 158 196 238 298 348
#     4  10  19  35  60  89 115 158 200 239 295 353
#     4  11  23  38  60  90 124 152 201 250 298 349
#     4  10  19  36  61  87 116 162 195 244 294 351
#     4  12  23  39  63  91 118 159 201 247 299 359
#     4  10  21  39  65  86 119 160 201 244 299 356
#     4  10  22  43  60  88 120 157 201 248 298 357
#     4  10  19  36  58  84 119 157 197 240 294 350
#
# _framework density 26.875198999999999
#
# number of rings (size 3 to 8) (size 9 to 14) (size 15 to 20)
#    0.000    1.600    4.000    1.200    0.000    2.133 
#    0.000    8.667    0.000    0.000    0.000    0.000 
#    0.000    0.000    0.000    0.000    0.000    0.000 
#
# Total GULP energy -83620.420667 kJ/mol
# GULP energy per Si atom -5574.694711 kJ/mol
# Density = 2.681403 g / cm^3
# Si number density = 26.875199 Si / 1000 Ang^3
#
#
#
# Elastic Constant Matrix: (Units=GPa)
#
#
# Indices 1 2 3 4 5 6 
#
# 1 178.9505 2.2683 54.5194 8.6419 18.9682 -0.8148
# 2 2.2683 67.1946 8.7720 -7.8512 9.0150 14.4143
# 3 54.5194 8.7720 73.5017 -3.9008 15.1080 -0.6049
# 4 8.6419 -7.8512 -3.9008 28.7654 3.5619 8.1864
# 5 18.9682 9.0150 15.1080 3.5619 51.4768 9.0033
# 6 -0.8148 14.4143 -0.6049 8.1864 9.0033 22.5754
#
#
#
# Elastic Compliance Matrix: (Units=1/GPa)
#
#
# Indices 1 2 3 4 5 6 
#
# 1 0.007581 -0.000215 -0.005509 -0.003507 -0.001252 0.002034
# 2 -0.000215 0.019787 -0.001645 0.009880 -0.000797 -0.015951
# 3 -0.005509 -0.001645 0.018871 0.003811 -0.003741 0.001467
# 4 -0.003507 0.009880 0.003811 0.045541 -0.000765 -0.022542
# 5 -0.001252 -0.000797 -0.003741 -0.000765 0.022645 -0.008390
# 6 0.002034 -0.015951 0.001467 -0.022542 -0.008390 0.066114
#
#
# Mechanical properties :
#
#
# Convention : Reuss Voigt Hill
#
# Bulk Modulus (GPa) = 31.74565 50.08512 40.91539
# Shear Modulus (GPa) = 24.29796 37.50266 30.90031
#
# Velocity S-wave (km/s) = 3.01009 3.73961 3.39451
# Velocity P-wave (km/s) = 4.89068 6.10924 5.53361
#
# Compressibility (1/GPa) = 0.03150038
#
# Stress axis : x y z
#
# Youngs Moduli (GPa) = 131.91444 50.53745 52.99081
#
# Poissons Ratio (x) = 0.01086 0.29194
# Poissons Ratio (y) = 0.02834 0.08718
# Poissons Ratio (z) = 0.72676 0.08314
#
# Static dielectric constant tensor:
#      x y z
#    x 2.415580 0.162490 0.064690 
#    y 0.162490 2.286690 -0.100230 
#    z 0.064690 -0.100230 2.476160 
# 
# From -- ./inp_files/294057.got.cif
#   From: 2010.05.17/outbox.cif.g08.bks.cpg/sg2_148_cif.got.tgz:294057.got - 2010.06.03 11:33:40.
