data_PCOD9077107
_publ_section_title
;
Structure prediction by ZEFSAII (Michael W. Deem and Ramdas Pophale) SiO2 
 PCOD9077107
Probable space group: P -1
;
_chemical_formula_sum "Si O2"
_cell_formula_units_Z 14
_cell_length_a 21.495405
_cell_length_b 14.550256
_cell_length_c 10.935692
_cell_angle_alpha 30.697118
_cell_angle_beta 19.305180
_cell_angle_gamma 31.878476
_cell_volume 562.704555
_symmetry_space_group_name_H-M "P -1"
_symmetry_group_IT_number 2
_symmetry_cell_setting 'triclinic'
loop_
_space_group_symop_operation_xyz
x,y,z
-x,-y,-z
loop_
_atom_site_type_symbol
_atom_site_label
_atom_site_fract_x
_atom_site_fract_y
_atom_site_fract_z
Si Si1 0.973273 0.811567 0.823582
Si Si2 0.407615 0.259507 0.854067
Si Si3 0.325906 0.930917 0.768070
Si Si4 0.816038 0.155284 0.131298
Si Si5 0.656531 0.552432 0.005809
Si Si6 0.291865 0.254385 0.811398
Si Si7 0.379872 0.641767 0.219972
O O1 0.184170 0.702402 0.595258
O O2 0.000000 0.000000 0.500000
O O3 0.889915 0.717873 0.971209
O O4 0.817396 0.881713 0.137141
O O5 0.622086 0.125933 0.596026
O O6 0.475549 0.453733 0.481800
O O7 0.324331 0.296155 0.102333
O O8 0.276534 0.235069 0.008838
O O9 0.234366 0.858912 0.900879
O O10 0.548132 0.923936 0.327085
O O11 0.346033 0.783495 0.008944
O O12 0.826092 0.367875 0.896572
O O13 0.000000 0.000000 0.000000
O O14 0.579153 0.639093 0.921544
O O15 0.380675 0.432728 0.420775
#
# Coordination Sequence:
#
# PCOD9077107 Si02
#       7
#     2   2   2   2   2   2   2
#     4  10  22  34  50  81 113 145 180 227 272 319
#     4   7  15  28  47  75 101 137 177 219 254 314
#     4  10  20  33  52  83 114 144 173 225 277 320
#     4   9  17  27  48  78 106 140 182 213 260 322
#     4   8  15  29  48  76 107 137 178 215 265 322
#     4  10  18  34  56  79 109 143 188 220 268 322
#     4  10  19  33  54  82 113 144 180 217 272 331
#
# _framework density 24.879840999999999
#
# number of rings (size 3 to 8) (size 9 to 14) (size 15 to 20)
#    0.857    2.000    1.429    1.286    2.000    0.000 
#    0.000    0.000    0.000    3.429    7.429    5.000 
#    0.000    0.000    0.000    0.000    0.000    0.000 
#
# Total GULP energy -78097.381841 kJ/mol
# GULP energy per Si atom -5578.384417 kJ/mol
# Density = 2.482321 g / cm^3
# Si number density = 24.879841 Si / 1000 Ang^3
#
#
#
# Elastic Constant Matrix: (Units=GPa)
#
#
# Indices 1 2 3 4 5 6 
#
# 1 105.4784 62.7422 21.8324 11.8910 -6.5907 12.3386
# 2 62.7422 159.4193 42.0634 44.8056 -12.7831 2.3036
# 3 21.8324 42.0634 50.7964 4.2095 -1.0005 7.7969
# 4 11.8910 44.8056 4.2095 34.8517 -5.0786 -8.1865
# 5 -6.5907 -12.7831 -1.0005 -5.0786 12.2696 1.7863
# 6 12.3386 2.3036 7.7969 -8.1865 1.7863 39.6751
#
#
#
# Elastic Compliance Matrix: (Units=1/GPa)
#
#
# Indices 1 2 3 4 5 6 
#
# 1 0.013102 -0.005175 -0.000941 0.001932 0.002853 -0.003319
# 2 -0.005175 0.016179 -0.009411 -0.017286 0.006348 -0.001333
# 3 -0.000941 -0.009411 0.027577 0.007792 -0.004433 -0.002773
# 4 0.001932 -0.017286 0.007792 0.052096 0.003852 0.009448
# 5 0.002853 0.006348 -0.004433 0.003852 0.091421 -0.003706
# 6 -0.003319 -0.001333 -0.002773 0.009448 -0.003706 0.028976
#
#
# Mechanical properties :
#
#
# Convention : Reuss Voigt Hill
#
# Bulk Modulus (GPa) = 38.75301 63.21889 50.98595
# Shear Modulus (GPa) = 18.58697 29.96301 24.27499
#
# Velocity S-wave (km/s) = 2.73622 3.47408 3.12699
# Velocity P-wave (km/s) = 5.05890 6.44648 5.79438
#
# Compressibility (1/GPa) = 0.02580444
#
# Stress axis : x y z
#
# Youngs Moduli (GPa) = 76.32367 61.80815 36.26252
#
# Poissons Ratio (x) = 0.31983 0.03412
# Poissons Ratio (y) = 0.39494 0.34128
# Poissons Ratio (z) = 0.07181 0.58170
#
# Static dielectric constant tensor:
#      x y z
#    x 1.923500 0.106240 0.264980 
#    y 0.106240 1.973260 -0.072850 
#    z 0.264980 -0.072850 1.776810 
# 
# From -- ./inp_files/471309.got.cif
#   From: 2010.05.17/outbox.cif.g08.bks.cpg/sg2_236_cif.got.tgz:471309.got - 2010.06.03 11:33:40.
