data_PCOD9077796
_publ_section_title
;
Structure prediction by ZEFSAII (Michael W. Deem and Ramdas Pophale) SiO2 
 PCOD9077796
Probable space group: P -1
;
_chemical_formula_sum "Si O2"
_cell_formula_units_Z 14
_cell_length_a 6.921760
_cell_length_b 17.259363
_cell_length_c 7.749755
_cell_angle_alpha 144.814523
_cell_angle_beta 91.784442
_cell_angle_gamma 83.070870
_cell_volume 525.891898
_symmetry_space_group_name_H-M "P -1"
_symmetry_group_IT_number 2
_symmetry_cell_setting 'triclinic'
loop_
_space_group_symop_operation_xyz
x,y,z
-x,-y,-z
loop_
_atom_site_type_symbol
_atom_site_label
_atom_site_fract_x
_atom_site_fract_y
_atom_site_fract_z
Si Si1 0.766411 0.966976 0.778443
Si Si2 0.970686 0.676379 0.131264
Si Si3 0.641863 0.114405 0.740862
Si Si4 0.703275 0.017708 0.231662
Si Si5 0.555669 0.612869 0.579758
Si Si6 0.066984 0.279642 0.196734
Si Si7 0.231371 0.581765 0.279346
O O1 0.866848 0.814183 0.473090
O O2 0.806692 0.050468 0.763051
O O3 0.530255 0.971816 0.780773
O O4 0.797321 0.038209 0.088340
O O5 0.157186 0.620288 0.154837
O O6 0.990996 0.704180 0.977392
O O7 0.821533 0.566890 0.949618
O O8 0.500000 0.000000 0.500000
O O9 0.726192 0.126853 0.576874
O O10 0.527188 0.247162 0.066955
O O11 0.806008 0.867998 0.024120
O O12 0.500000 0.500000 0.500000
O O13 0.784748 0.612850 0.569776
O O14 0.450621 0.599365 0.369469
O O15 0.895169 0.321030 0.404240
#
# Coordination Sequence:
#
# PCOD9077796 Si02
#       7
#     2   2   2   2   2   2   2
#     4  10  18  34  66  97 128 174 235 269 331 414
#     4  11  22  42  69  96 141 190 219 285 351 406
#     4  10  19  39  67  96 134 177 225 276 347 401
#     4  10  19  33  70 100 119 184 234 262 346 416
#     4  12  25  44  73 108 137 181 239 288 333 421
#     4  12  21  46  74  94 142 188 222 286 355 400
#     4  11  27  43  66 105 143 181 236 280 347 419
#
# _framework density 26.621441999999998
#
# number of rings (size 3 to 8) (size 9 to 14) (size 15 to 20)
#    0.000    1.143    7.143    1.286    0.000    0.000 
#    0.000    7.143    0.000    0.000    0.000    0.000 
#    0.000    0.000    0.000    0.000    0.000    0.000 
#
# Total GULP energy -78482.287233 kJ/mol
# GULP energy per Si atom -5605.877660 kJ/mol
# Density = 2.656085 g / cm^3
# Si number density = 26.621442 Si / 1000 Ang^3
#
#
#
# Elastic Constant Matrix: (Units=GPa)
#
#
# Indices 1 2 3 4 5 6 
#
# 1 116.5909 13.2776 24.1963 -12.9719 22.2342 -14.0198
# 2 13.2776 128.0987 48.2355 -42.5366 3.4290 -7.5125
# 3 24.1963 48.2355 150.6841 -19.7059 8.7487 -9.3624
# 4 -12.9719 -42.5366 -19.7059 72.3447 -4.3803 -3.5974
# 5 22.2342 3.4290 8.7487 -4.3803 46.2345 -2.8725
# 6 -14.0198 -7.5125 -9.3624 -3.5974 -2.8725 22.6338
#
#
#
# Elastic Compliance Matrix: (Units=1/GPa)
#
#
# Indices 1 2 3 4 5 6 
#
# 1 0.010484 0.000349 -0.000928 0.001866 -0.004344 0.005971
# 2 0.000349 0.010941 -0.002556 0.006006 0.000309 0.003784
# 3 -0.000928 -0.002556 0.007822 0.000510 -0.000684 0.001807
# 4 0.001866 0.006006 0.000510 0.018184 0.000677 0.006336
# 5 -0.004344 0.000309 -0.000684 0.000677 0.023905 0.000270
# 6 0.005971 0.003784 0.001807 0.006336 0.000270 0.050925
#
#
# Mechanical properties :
#
#
# Convention : Reuss Voigt Hill
#
# Bulk Modulus (GPa) = 43.52072 62.97693 53.24883
# Shear Modulus (GPa) = 36.71353 48.88688 42.80020
#
# Velocity S-wave (km/s) = 3.71765 4.28994 4.01401
# Velocity P-wave (km/s) = 5.90011 6.94593 6.44427
#
# Compressibility (1/GPa) = 0.02297756
#
# Stress axis : x y z
#
# Youngs Moduli (GPa) = 95.38406 91.40200 127.84214
#
# Poissons Ratio (x) = -0.03189 0.11862
# Poissons Ratio (y) = -0.03327 0.32671
# Poissons Ratio (z) = 0.08850 0.23359
#
# Static dielectric constant tensor:
#      x y z
#    x 2.170540 0.040250 0.078530 
#    y 0.040250 2.150910 -0.017680 
#    z 0.078530 -0.017680 2.082330 
# 
# From -- ./inp_files/220122.got.cif
#   From: 2010.05.17/outbox.cif.g08.bks.cpg/sg2_111_cif.got.tgz:220122.got - 2010.06.03 11:33:40.
