data_PCOD9077034
_publ_section_title
;
Structure prediction by ZEFSAII (Michael W. Deem and Ramdas Pophale) SiO2 
 PCOD9077034
Probable space group: P -1
;
_chemical_formula_sum "Si O2"
_cell_formula_units_Z 16
_cell_length_a 14.050199
_cell_length_b 12.096383
_cell_length_c 11.102775
_cell_angle_alpha 145.358968
_cell_angle_beta 136.682803
_cell_angle_gamma 52.893782
_cell_volume 735.808296
_symmetry_space_group_name_H-M "P -1"
_symmetry_group_IT_number 2
_symmetry_cell_setting 'triclinic'
loop_
_space_group_symop_operation_xyz
x,y,z
-x,-y,-z
loop_
_atom_site_type_symbol
_atom_site_label
_atom_site_fract_x
_atom_site_fract_y
_atom_site_fract_z
Si Si1 0.982237 0.935085 0.221673
Si Si2 0.914223 0.310792 0.365723
Si Si3 0.064264 0.317617 0.735701
Si Si4 0.647636 0.890210 0.545345
Si Si5 0.351512 0.453091 0.572623
Si Si6 0.841213 0.240344 0.983906
Si Si7 0.814539 0.571204 0.833794
Si Si8 0.398316 0.441834 0.964375
O O1 0.080999 0.818859 0.118025
O O2 0.065554 0.083553 0.517580
O O3 0.896044 0.092163 0.204268
O O4 0.887879 0.775383 0.052447
O O5 0.775187 0.430409 0.375068
O O6 0.037149 0.382334 0.630777
O O7 0.940173 0.303806 0.242032
O O8 0.922957 0.397761 0.742280
O O9 0.188830 0.411975 0.009434
O O10 0.647473 0.753131 0.540646
O O11 0.500000 0.000000 0.500000
O O12 0.767455 0.046632 0.792975
O O13 0.662575 0.758618 0.320307
O O14 0.313427 0.443047 0.387568
O O15 0.496498 0.557351 0.826382
O O16 0.717279 0.392581 0.984916
O O17 0.500000 0.500000 0.000000
#
# Coordination Sequence:
#
# PCOD9077034 Si02
#       8
#     2   2   2   2   2   2   2   2
#     4  10  22  33  53  80 115 143 171 213 276 332
#     4   9  18  34  49  79 114 136 172 216 262 316
#     4   8  20  35  53  80 107 137 189 221 249 324
#     4  11  19  32  54  74 107 145 179 214 266 309
#     4  10  18  34  55  78 105 137 186 227 253 311
#     4  12  20  34  51  81 117 142 170 217 270 334
#     4  10  18  37  58  77 106 144 179 224 270 297
#     4  10  19  34  50  75 108 137 181 227 250 312
#
# _framework density 21.744793999999999
#
# number of rings (size 3 to 8) (size 9 to 14) (size 15 to 20)
#    0.750    1.250    5.000    1.500    0.000    1.000 
#    0.000    1.875    0.000    0.750    0.000    8.750 
#    0.000    0.000    0.000    0.000    0.000    0.000 
#
# Total GULP energy -89295.808246 kJ/mol
# GULP energy per Si atom -5580.988015 kJ/mol
# Density = 2.169530 g / cm^3
# Si number density = 21.744794 Si / 1000 Ang^3
#
#
#
# Elastic Constant Matrix: (Units=GPa)
#
#
# Indices 1 2 3 4 5 6 
#
# 1 40.5027 18.6543 20.6768 -0.4864 -5.3834 1.0135
# 2 18.6543 124.9356 48.0054 -0.9531 -16.3280 -6.2536
# 3 20.6768 48.0054 181.9529 -28.3070 -27.1396 -0.6168
# 4 -0.4864 -0.9531 -28.3070 53.9148 4.5723 -8.4795
# 5 -5.3834 -16.3280 -27.1396 4.5723 24.6998 1.2492
# 6 1.0135 -6.2536 -0.6168 -8.4795 1.2492 23.5891
#
#
#
# Elastic Compliance Matrix: (Units=1/GPa)
#
#
# Indices 1 2 3 4 5 6 
#
# 1 0.027605 -0.003150 -0.002287 -0.001598 0.001856 -0.002754
# 2 -0.003150 0.009757 -0.001749 -0.000757 0.003870 0.002199
# 3 -0.002287 -0.001749 0.007687 0.003595 0.006085 0.000806
# 4 -0.001598 -0.000757 0.003595 0.021755 -0.001323 0.007852
# 5 0.001856 0.003870 0.006085 -0.001323 0.050484 -0.002044
# 6 -0.002754 0.002199 0.000806 0.007852 -0.002044 0.046046
#
#
# Mechanical properties :
#
#
# Convention : Reuss Voigt Hill
#
# Bulk Modulus (GPa) = 32.59927 58.00716 45.30322
# Shear Modulus (GPa) = 26.60563 37.77770 32.19167
#
# Velocity S-wave (km/s) = 3.50171 4.17264 3.85181
# Velocity P-wave (km/s) = 5.60121 7.06745 6.37661
#
# Compressibility (1/GPa) = 0.03067553
#
# Stress axis : x y z
#
# Youngs Moduli (GPa) = 36.22586 102.49361 130.09038
#
# Poissons Ratio (x) = 0.32290 0.29749
# Poissons Ratio (y) = 0.11413 0.22755
# Poissons Ratio (z) = 0.08284 0.17928
#
# Static dielectric constant tensor:
#      x y z
#    x 1.791000 0.056250 -0.021390 
#    y 0.056250 1.812090 -0.033100 
#    z -0.021390 -0.033100 1.913870 
# 
# From -- ./inp_files/465973.got.cif
#   From: 2010.05.17/outbox.cif.g08.bks.cpg/sg2_233_cif.got.tgz:465973.got - 2010.06.03 11:33:40.
