data_PCOD9077614
_publ_section_title
;
Structure prediction by ZEFSAII (Michael W. Deem and Ramdas Pophale) SiO2 
 PCOD9077614
Probable space group: P -1
;
_chemical_formula_sum "Si O2"
_cell_formula_units_Z 14
_cell_length_a 5.471202
_cell_length_b 8.457899
_cell_length_c 21.605144
_cell_angle_alpha 54.474614
_cell_angle_beta 92.345661
_cell_angle_gamma 55.740437
_cell_volume 562.909622
_symmetry_space_group_name_H-M "P -1"
_symmetry_group_IT_number 2
_symmetry_cell_setting 'triclinic'
loop_
_space_group_symop_operation_xyz
x,y,z
-x,-y,-z
loop_
_atom_site_type_symbol
_atom_site_label
_atom_site_fract_x
_atom_site_fract_y
_atom_site_fract_z
Si Si1 0.248565 0.779133 0.479232
Si Si2 0.681865 0.842797 0.414656
Si Si3 0.915572 0.777375 0.014767
Si Si4 0.477368 0.251556 0.076910
Si Si5 0.417494 0.531732 0.320072
Si Si6 0.793072 0.246780 0.855229
Si Si7 0.382590 0.135879 0.733700
O O1 0.500000 0.500000 0.500000
O O2 0.354716 0.936043 0.426026
O O3 0.342429 0.685329 0.572310
O O4 0.857309 0.930414 0.426070
O O5 0.587300 0.933941 0.322067
O O6 0.000000 0.500000 0.500000
O O7 0.289385 0.547719 0.034866
O O8 0.031837 0.712240 0.101827
O O9 0.700603 0.726898 0.992480
O O10 0.706506 0.097560 0.924988
O O11 0.416839 0.122230 0.158886
O O12 0.891962 0.008265 0.127437
O O13 0.469756 0.501638 0.252574
O O14 0.462009 0.738188 0.286299
O O15 0.035752 0.648647 0.303277
#
# Coordination Sequence:
#
# PCOD9077614 Si02
#       7
#     2   2   2   2   2   2   2
#     4  10  15  24  41  68 103 132 170 221 261 314
#     4  10  15  24  41  68 103 132 170 221 261 314
#     4  10  20  38  54  78 106 144 184 224 280 324
#     4  10  21  34  56  78 108 142 183 227 273 330
#     4  11  18  29  47  75 108 137 177 225 270 318
#     4  10  21  34  56  78 108 142 183 227 273 330
#     4  11  18  29  47  75 108 137 177 225 270 318
#
# _framework density 24.87078
#
# number of rings (size 3 to 8) (size 9 to 14) (size 15 to 20)
#    0.000    1.714    7.143    0.857    0.000    0.000 
#    0.000    0.000    0.000    0.000    0.000    2.000 
#    0.000    0.000    0.000    0.000    0.000    0.000 
#
# Total GULP energy -78165.943908 kJ/mol
# GULP energy per Si atom -5583.281708 kJ/mol
# Density = 2.481417 g / cm^3
# Si number density = 24.870780 Si / 1000 Ang^3
#
#
#
# Elastic Constant Matrix: (Units=GPa)
#
#
# Indices 1 2 3 4 5 6 
#
# 1 138.3347 20.0408 37.8598 19.1483 15.0515 12.9291
# 2 20.0408 73.3148 52.9918 21.0066 1.3102 12.5061
# 3 37.8598 52.9918 177.2708 49.2672 7.2118 22.0678
# 4 19.1483 21.0066 49.2672 51.9600 3.5976 6.6293
# 5 15.0515 1.3102 7.2118 3.5976 39.9370 9.1945
# 6 12.9291 12.5061 22.0678 6.6293 9.1945 24.0428
#
#
#
# Elastic Compliance Matrix: (Units=1/GPa)
#
#
# Indices 1 2 3 4 5 6 
#
# 1 0.008210 -0.000906 -0.000704 -0.001579 -0.002342 -0.001967
# 2 -0.000906 0.018437 -0.003930 -0.002832 0.001959 -0.005464
# 3 -0.000704 -0.003930 0.009291 -0.006415 0.000321 -0.004459
# 4 -0.001579 -0.002832 -0.006415 0.026973 -0.000835 0.001092
# 5 -0.002342 0.001959 0.000321 -0.000835 0.028329 -0.010657
# 6 -0.001967 -0.005464 -0.004459 0.001092 -0.010657 0.053360
#
#
# Mechanical properties :
#
#
# Convention : Reuss Voigt Hill
#
# Bulk Modulus (GPa) = 40.22863 67.85612 54.04237
# Shear Modulus (GPa) = 30.49439 41.72315 36.10877
#
# Velocity S-wave (km/s) = 3.50539 4.10029 3.81446
# Velocity P-wave (km/s) = 5.70910 7.05402 6.41689
#
# Compressibility (1/GPa) = 0.02485792
#
# Stress axis : x y z
#
# Youngs Moduli (GPa) = 121.80427 54.23977 107.63044
#
# Poissons Ratio (x) = 0.04913 0.07573
# Poissons Ratio (y) = 0.11033 0.42303
# Poissons Ratio (z) = 0.08571 0.21318
#
# Static dielectric constant tensor:
#      x y z
#    x 2.059920 -0.014280 -0.074150 
#    y -0.014280 2.014900 -0.067620 
#    z -0.074150 -0.067620 2.024660 
# 
# From -- ./inp_files/49146.got.cif
#   From: 2010.05.17/outbox.cif.g08.bks.cpg/sg2_25_cif.got.tgz:49146.got - 2010.06.03 11:33:40.
