data_PCOD9077603
_publ_section_title
;
Structure prediction by ZEFSAII (Michael W. Deem and Ramdas Pophale) SiO2 
 PCOD9077603
Probable space group: P -1
;
_chemical_formula_sum "Si O2"
_cell_formula_units_Z 16
_cell_length_a 17.576402
_cell_length_b 9.296087
_cell_length_c 11.682747
_cell_angle_alpha 63.229017
_cell_angle_beta 26.131947
_cell_angle_gamma 55.704075
_cell_volume 686.456457
_symmetry_space_group_name_H-M "P -1"
_symmetry_group_IT_number 2
_symmetry_cell_setting 'triclinic'
loop_
_space_group_symop_operation_xyz
x,y,z
-x,-y,-z
loop_
_atom_site_type_symbol
_atom_site_label
_atom_site_fract_x
_atom_site_fract_y
_atom_site_fract_z
Si Si1 0.799304 0.443797 0.924982
Si Si2 0.416397 0.190214 0.784674
Si Si3 0.733849 0.129540 0.548454
Si Si4 0.823001 0.435414 0.388672
Si Si5 0.123183 0.556540 0.427906
Si Si6 0.163999 0.056619 0.301673
Si Si7 0.885084 0.060395 0.014640
Si Si8 0.761694 0.765152 0.213371
O O1 0.748837 0.479333 0.845039
O O2 0.786830 0.270143 0.055828
O O3 0.017245 0.426312 0.637647
O O4 0.684575 0.614758 0.094118
O O5 0.611061 0.107778 0.619140
O O6 0.406341 0.206474 0.657326
O O7 0.294702 0.077111 0.018226
O O8 0.720400 0.327771 0.501454
O O9 0.700361 0.068901 0.740310
O O10 0.951663 0.005032 0.278392
O O11 0.796633 0.425729 0.563421
O O12 0.758953 0.633537 0.362886
O O13 0.043963 0.336947 0.086943
O O14 0.951356 0.745470 0.568751
O O15 0.000000 0.000000 0.500000
O O16 0.771475 0.939878 0.187654
O O17 0.000000 0.000000 0.000000
#
# Coordination Sequence:
#
# PCOD9077603 Si02
#       8
#     2   2   2   2   2   2   2   2
#     4  10  21  36  61  91 123 160 202 260 305 368
#     4  11  24  40  61  95 132 160 202 256 324 370
#     4  11  23  38  63  94 125 164 205 262 314 367
#     4  10  19  36  62  89 115 166 217 248 296 374
#     4  10  18  34  61  88 120 153 212 253 301 355
#     4  11  18  37  65  91 118 164 215 250 294 377
#     4  11  23  40  66  93 120 163 223 254 300 369
#     4  10  21  38  63  87 121 166 211 253 301 379
#
# _framework density 23.308105000000001
#
# number of rings (size 3 to 8) (size 9 to 14) (size 15 to 20)
#    0.000    1.500    5.000    1.875    3.500    0.500 
#    0.000    1.250    2.750    0.000    0.000    0.000 
#    0.000    0.000    0.000    0.000    0.000    0.000 
#
# Total GULP energy -89423.961672 kJ/mol
# GULP energy per Si atom -5588.997604 kJ/mol
# Density = 2.325505 g / cm^3
# Si number density = 23.308105 Si / 1000 Ang^3
#
#
#
# Elastic Constant Matrix: (Units=GPa)
#
#
# Indices 1 2 3 4 5 6 
#
# 1 138.0994 35.6030 18.1641 -10.0647 -5.7157 -6.1239
# 2 35.6030 126.6346 30.8383 -27.2300 -6.0796 -5.9153
# 3 18.1641 30.8383 41.1518 -2.2598 -3.6400 -2.5118
# 4 -10.0647 -27.2300 -2.2598 23.8374 4.3450 4.3620
# 5 -5.7157 -6.0796 -3.6400 4.3450 31.8851 -6.0133
# 6 -6.1239 -5.9153 -2.5118 4.3620 -6.0133 35.3703
#
#
#
# Elastic Compliance Matrix: (Units=1/GPa)
#
#
# Indices 1 2 3 4 5 6 
#
# 1 0.008071 -0.001319 -0.002358 0.001324 0.000935 0.001005
# 2 -0.001319 0.013379 -0.008760 0.014109 -0.000697 -0.000471
# 3 -0.002358 -0.008760 0.031816 -0.008927 0.003137 0.002020
# 4 0.001324 0.014109 -0.008927 0.060409 -0.007604 -0.006788
# 5 0.000935 -0.000697 0.003137 -0.007604 0.034113 0.007005
# 6 0.001005 -0.000471 0.002020 -0.006788 0.007005 0.030539
#
#
# Mechanical properties :
#
#
# Convention : Reuss Voigt Hill
#
# Bulk Modulus (GPa) = 35.21835 52.78852 44.00344
# Shear Modulus (GPa) = 23.51144 32.97058 28.24101
#
# Velocity S-wave (km/s) = 3.17949 3.76514 3.48464
# Velocity P-wave (km/s) = 5.34991 6.44973 5.92539
#
# Compressibility (1/GPa) = 0.02839429
#
# Stress axis : x y z
#
# Youngs Moduli (GPa) = 123.90138 74.74410 31.43100
#
# Poissons Ratio (x) = 0.09855 0.07410
# Poissons Ratio (y) = 0.16337 0.27532
# Poissons Ratio (z) = 0.29211 0.65473
#
# Static dielectric constant tensor:
#      x y z
#    x 1.881580 0.001470 0.007270 
#    y 0.001470 1.868520 -0.008590 
#    z 0.007270 -0.008590 1.932250 
# 
# From -- ./inp_files/226540.got.cif
#   From: 2010.05.17/outbox.cif.g08.bks.cpg/sg2_114_cif.got.tgz:226540.got - 2010.06.03 11:33:40.
