data_PCOD9077108
_publ_section_title
;
Structure prediction by ZEFSAII (Michael W. Deem and Ramdas Pophale) SiO2 
 PCOD9077108
Probable space group: P -1
;
_chemical_formula_sum "Si O2"
_cell_formula_units_Z 12
_cell_length_a 7.147196
_cell_length_b 7.117242
_cell_length_c 12.669668
_cell_angle_alpha 138.243316
_cell_angle_beta 84.260548
_cell_angle_gamma 97.505082
_cell_volume 425.526566
_symmetry_space_group_name_H-M "P -1"
_symmetry_group_IT_number 2
_symmetry_cell_setting 'triclinic'
loop_
_space_group_symop_operation_xyz
x,y,z
-x,-y,-z
loop_
_atom_site_type_symbol
_atom_site_label
_atom_site_fract_x
_atom_site_fract_y
_atom_site_fract_z
Si Si1 0.331610 0.598860 0.903122
Si Si2 0.071542 0.056694 0.143156
Si Si3 0.659151 0.883766 0.608626
Si Si4 0.334273 0.759001 0.732076
Si Si5 0.025369 0.143186 0.675821
Si Si6 0.289618 0.527312 0.217714
O O1 0.909944 0.422923 0.801338
O O2 0.551823 0.584698 0.913522
O O3 0.228051 0.283571 0.756767
O O4 0.190017 0.787207 0.050163
O O5 0.870513 0.134173 0.234576
O O6 0.000000 0.000000 0.000000
O O7 0.498651 0.907056 0.713684
O O8 0.651144 0.572782 0.432618
O O9 0.876814 0.929053 0.657436
O O10 0.641296 0.139926 0.633419
O O11 0.358910 0.757728 0.855295
O O12 0.773513 0.668433 0.762084
O O13 0.000000 0.000000 0.500000
#
# Coordination Sequence:
#
# PCOD9077108 Si02
#       6
#     2   2   2   2   2   2
#     4  11  20  35  58  81 107 144 186 219 261 324
#     4  10  18  35  56  79 108 148 180 214 268 327
#     4   9  19  34  54  81 110 139 180 225 272 312
#     4  10  18  34  56  79 109 145 175 225 274 311
#     4  10  18  35  55  79 105 144 177 219 267 318
#     4  10  20  34  56  83 106 140 187 221 261 323
#
# _framework density 28.200355999999999
#
# number of rings (size 3 to 8) (size 9 to 14) (size 15 to 20)
#    1.000    1.000    5.000    0.500    0.000    2.667 
#    0.000   10.000    0.000    5.000    0.000    0.000 
#    0.000    0.000    0.000    0.000    0.000    0.000 
#
# Total GULP energy -66909.132305 kJ/mol
# GULP energy per Si atom -5575.761025 kJ/mol
# Density = 2.813617 g / cm^3
# Si number density = 28.200356 Si / 1000 Ang^3
#
#
#
# Elastic Constant Matrix: (Units=GPa)
#
#
# Indices 1 2 3 4 5 6 
#
# 1 138.3410 37.5133 67.5458 -4.9352 -24.5766 38.2318
# 2 37.5133 134.3004 49.8111 4.6560 1.0244 54.2114
# 3 67.5458 49.8111 141.7215 -14.7656 -19.4693 20.8917
# 4 -4.9352 4.6560 -14.7656 54.1567 17.2497 -3.2264
# 5 -24.5766 1.0244 -19.4693 17.2497 53.8341 4.0579
# 6 38.2318 54.2114 20.8917 -3.2264 4.0579 49.7722
#
#
#
# Elastic Compliance Matrix: (Units=1/GPa)
#
#
# Indices 1 2 3 4 5 6 
#
# 1 0.013163 0.003162 -0.005097 -0.003098 0.006011 -0.012107
# 2 0.003162 0.015602 -0.004459 -0.004036 0.002183 -0.017990
# 3 -0.005097 -0.004459 0.010763 0.003004 0.000354 0.004421
# 4 -0.003098 -0.004036 0.003004 0.022346 -0.007985 0.007615
# 5 0.006011 0.002183 0.000354 -0.007985 0.024694 -0.009675
# 6 -0.012107 -0.017990 0.004421 0.007615 -0.009675 0.048413
#
#
# Mechanical properties :
#
#
# Convention : Reuss Voigt Hill
#
# Bulk Modulus (GPa) = 37.39885 80.45590 58.92737
# Shear Modulus (GPa) = 31.91181 48.85213 40.38197
#
# Velocity S-wave (km/s) = 3.36759 4.16663 3.78824
# Velocity P-wave (km/s) = 5.33025 7.19304 6.33053
#
# Compressibility (1/GPa) = 0.02673879
#
# Stress axis : x y z
#
# Youngs Moduli (GPa) = 75.97119 64.09512 92.91205
#
# Poissons Ratio (x) = -0.20269 0.47361
# Poissons Ratio (y) = -0.24025 0.41433
# Poissons Ratio (z) = 0.38725 0.28582
#
# Static dielectric constant tensor:
#      x y z
#    x 2.465080 -0.458820 0.327490 
#    y -0.458820 3.669660 -0.985190 
#    z 0.327490 -0.985190 2.887800 
# 
# From -- ./inp_files/587660.got.cif
#   From: 2010.05.17/outbox.cif.g08.bks.cpg/sg2_294_cif.got.tgz:587660.got - 2010.06.03 11:33:40.
