data_PCOD9077060
_publ_section_title
;
Structure prediction by ZEFSAII (Michael W. Deem and Ramdas Pophale) SiO2 
 PCOD9077060
Probable space group: P -1
;
_chemical_formula_sum "Si O2"
_cell_formula_units_Z 14
_cell_length_a 15.133211
_cell_length_b 11.678374
_cell_length_c 12.083237
_cell_angle_alpha 59.566115
_cell_angle_beta 52.901098
_cell_angle_gamma 28.181698
_cell_volume 802.600536
_symmetry_space_group_name_H-M "P -1"
_symmetry_group_IT_number 2
_symmetry_cell_setting 'triclinic'
loop_
_space_group_symop_operation_xyz
x,y,z
-x,-y,-z
loop_
_atom_site_type_symbol
_atom_site_label
_atom_site_fract_x
_atom_site_fract_y
_atom_site_fract_z
Si Si1 0.593119 0.111036 0.594082
Si Si2 0.898137 0.271122 0.844774
Si Si3 0.329738 0.584854 0.652220
Si Si4 0.797110 0.637925 0.637359
Si Si5 0.693340 0.279206 0.146605
Si Si6 0.379642 0.389254 0.389745
Si Si7 0.984099 0.907515 0.406899
O O1 0.412649 0.353302 0.686164
O O2 0.519752 0.207801 0.475695
O O3 0.654978 0.896606 0.664333
O O4 0.798071 0.990892 0.517766
O O5 0.858230 0.467383 0.766403
O O6 0.930134 0.192703 0.733078
O O7 0.724642 0.364136 0.993192
O O8 0.109172 0.014542 0.867002
O O9 0.500000 0.500000 0.500000
O O10 0.321112 0.640528 0.759070
O O11 0.116489 0.846633 0.632774
O O12 0.685320 0.669332 0.608023
O O13 0.000000 0.500000 0.500000
O O14 0.503006 0.374038 0.233909
O O15 0.175398 0.667467 0.450030
#
# Coordination Sequence:
#
# PCOD9077060 Si02
#       7
#     2   2   2   2   2   2   2
#     4  11  19  35  50  78 110 136 171 212 263 309
#     4   9  18  33  55  75 110 134 168 226 255 302
#     4   9  17  34  52  72 113 132 169 222 254 304
#     4  11  20  34  50  78 112 134 175 214 258 307
#     4  10  18  34  55  83 101 136 179 209 272 298
#     4  11  19  31  57  79 101 138 174 216 263 306
#     4   9  18  32  49  80 102 130 174 218 254 294
#
# _framework density 17.443297999999999
#
# number of rings (size 3 to 8) (size 9 to 14) (size 15 to 20)
#    0.000    2.000    7.143    0.429    0.000    2.857 
#    0.000    0.714    0.000    0.000    0.000   11.000 
#    0.000    0.000    0.000    0.000    0.000    0.000 
#
# Total GULP energy -77945.355094 kJ/mol
# GULP energy per Si atom -5567.525364 kJ/mol
# Density = 1.740360 g / cm^3
# Si number density = 17.443298 Si / 1000 Ang^3
#
#
#
# Elastic Constant Matrix: (Units=GPa)
#
#
# Indices 1 2 3 4 5 6 
#
# 1 59.7024 29.5628 19.2832 3.8655 -20.2693 16.5679
# 2 29.5628 144.1005 30.3920 -9.7294 -19.5565 29.3557
# 3 19.2832 30.3920 65.7903 -11.7429 -17.1004 16.3110
# 4 3.8655 -9.7294 -11.7429 24.5194 2.7924 -1.4745
# 5 -20.2693 -19.5565 -17.1004 2.7924 21.2660 6.7569
# 6 16.5679 29.3557 16.3110 -1.4745 6.7569 35.5772
#
#
#
# Elastic Compliance Matrix: (Units=1/GPa)
#
#
# Indices 1 2 3 4 5 6 
#
# 1 0.059486 0.010283 0.018571 -0.012061 0.103265 -0.064814
# 2 0.010283 0.013608 0.006570 0.001323 0.035603 -0.025737
# 3 0.018571 0.006570 0.035118 0.006618 0.064505 -0.042147
# 4 -0.012061 0.001323 0.006618 0.048244 -0.013198 0.005997
# 5 0.103265 0.035603 0.064505 -0.013198 0.283056 -0.161346
# 6 -0.064814 -0.025737 -0.042147 0.005997 -0.161346 0.129742
#
#
# Mechanical properties :
#
#
# Convention : Reuss Voigt Hill
#
# Bulk Modulus (GPa) = 5.58465 47.56323 26.57394
# Shear Modulus (GPa) = 8.95910 28.96286 18.96098
#
# Velocity S-wave (km/s) = 2.26876 4.07922 3.30056
# Velocity P-wave (km/s) = 3.17358 7.03657 5.45824
#
# Compressibility (1/GPa) = 0.17906224
#
# Stress axis : x y z
#
# Youngs Moduli (GPa) = 16.81072 73.48431 28.47539
#
# Poissons Ratio (x) = -0.75566 -0.52883
# Poissons Ratio (y) = -0.17287 -0.18710
# Poissons Ratio (z) = -0.31220 -0.48283
#
# Static dielectric constant tensor:
#      x y z
#    x 1.624810 -0.007460 0.009400 
#    y -0.007460 1.679250 -0.013870 
#    z 0.009400 -0.013870 1.582020 
# 
# From -- ./inp_files/420996.got.cif
#   From: 2010.05.17/outbox.cif.g08.bks.cpg/sg2_211_cif.got.tgz:420996.got - 2010.06.03 11:33:40.
