data_PCOD9077213
_publ_section_title
;
Structure prediction by ZEFSAII (Michael W. Deem and Ramdas Pophale) SiO2 
 PCOD9077213
Probable space group: P -1
;
_chemical_formula_sum "Si O2"
_cell_formula_units_Z 14
_cell_length_a 18.653440
_cell_length_b 10.761746
_cell_length_c 14.372645
_cell_angle_alpha 39.298178
_cell_angle_beta 157.881401
_cell_angle_gamma 147.267047
_cell_volume 587.209872
_symmetry_space_group_name_H-M "P -1"
_symmetry_group_IT_number 2
_symmetry_cell_setting 'triclinic'
loop_
_space_group_symop_operation_xyz
x,y,z
-x,-y,-z
loop_
_atom_site_type_symbol
_atom_site_label
_atom_site_fract_x
_atom_site_fract_y
_atom_site_fract_z
Si Si1 0.401841 0.230745 0.680654
Si Si2 0.249582 0.282549 0.214154
Si Si3 0.824414 0.861176 0.000488
Si Si4 0.215021 0.257623 0.619318
Si Si5 0.986458 0.682133 0.816511
Si Si6 0.394264 0.182008 0.049216
Si Si7 0.743888 0.101619 0.448330
O O1 0.619160 0.446049 0.772763
O O2 0.396533 0.251837 0.773257
O O3 0.189837 0.257940 0.384665
O O4 0.334729 0.986619 0.699717
O O5 0.346241 0.140536 0.463259
O O6 0.267619 0.249011 0.145537
O O7 0.991156 0.133161 0.020384
O O8 0.992999 0.784073 0.286332
O O9 0.650902 0.812915 0.899848
O O10 0.124343 0.398512 0.372837
O O11 0.000000 0.000000 0.500000
O O12 0.307569 0.310632 0.803648
O O13 0.000000 0.500000 0.000000
O O14 0.224967 0.916040 0.968035
O O15 0.636904 0.236980 0.282703
#
# Coordination Sequence:
#
# PCOD9077213 Si02
#       7
#     2   2   2   2   2   2   2
#     4  10  18  34  57  82 116 139 190 235 279 332
#     4   9  19  36  53  82 111 151 184 249 275 316
#     4   9  20  37  53  78 118 148 190 233 279 334
#     4   8  18  33  52  82 122 143 179 233 282 337
#     4   9  17  31  54  84 112 139 182 236 271 325
#     4  11  19  34  58  82 114 153 182 225 289 341
#     4  10  19  32  58  82 109 149 183 232 284 328
#
# _framework density 23.841559
#
# number of rings (size 3 to 8) (size 9 to 14) (size 15 to 20)
#    1.714    0.857    1.429    1.286    0.000    2.286 
#    0.000    0.714    0.000    0.857    0.000    0.000 
#    0.000    0.000    0.000    0.000    0.000    0.000 
#
# Total GULP energy -78039.748121 kJ/mol
# GULP energy per Si atom -5574.267723 kJ/mol
# Density = 2.378729 g / cm^3
# Si number density = 23.841559 Si / 1000 Ang^3
#
#
#
# Elastic Constant Matrix: (Units=GPa)
#
#
# Indices 1 2 3 4 5 6 
#
# 1 92.4028 8.7518 -2.3754 -5.7180 -9.3241 -3.7448
# 2 8.7518 34.9402 4.6513 1.3213 4.6440 10.0389
# 3 -2.3754 4.6513 34.0862 -20.8768 0.4380 -0.7801
# 4 -5.7180 1.3213 -20.8768 22.0619 1.6673 -3.2920
# 5 -9.3241 4.6440 0.4380 1.6673 45.1736 5.6197
# 6 -3.7448 10.0389 -0.7801 -3.2920 5.6197 26.4079
#
#
#
# Elastic Compliance Matrix: (Units=1/GPa)
#
#
# Indices 1 2 3 4 5 6 
#
# 1 0.013343 -0.007768 0.012013 0.016153 0.001995 0.006789
# 2 -0.007768 0.041862 -0.027085 -0.033241 -0.001732 -0.021591
# 3 0.012013 -0.027085 0.095408 0.099377 -0.002787 0.027799
# 4 0.016153 -0.033241 0.099377 0.151509 -0.004495 0.037706
# 5 0.001995 -0.001732 -0.002787 -0.004495 0.023505 -0.004703
# 6 0.006789 -0.021591 0.027799 0.037706 -0.004703 0.053560
#
#
# Mechanical properties :
#
#
# Convention : Reuss Voigt Hill
#
# Bulk Modulus (GPa) = 9.52986 20.38718 14.95852
# Shear Modulus (GPa) = 10.87325 28.75544 19.81434
#
# Velocity S-wave (km/s) = 2.13788 3.47667 2.88598
# Velocity P-wave (km/s) = 3.17803 4.96850 4.17048
#
# Compressibility (1/GPa) = 0.10493331
#
# Stress axis : x y z
#
# Youngs Moduli (GPa) = 74.94687 23.88794 10.48133
#
# Poissons Ratio (x) = 0.18556 -0.12591
# Poissons Ratio (y) = 0.58218 0.28388
# Poissons Ratio (z) = -0.90033 0.64700
#
# Static dielectric constant tensor:
#      x y z
#    x 1.958840 0.006630 -0.029660 
#    y 0.006630 1.946190 0.003020 
#    z -0.029660 0.003020 1.916020 
# 
# From -- ./inp_files/540823.got.cif
#   From: 2010.05.17/outbox.cif.g08.bks.cpg/sg2_271_cif.got.tgz:540823.got - 2010.06.03 11:33:40.
