data_PCOD9077359
_publ_section_title
;
Structure prediction by ZEFSAII (Michael W. Deem and Ramdas Pophale) SiO2 
 PCOD9077359
Probable space group: P -1
;
_chemical_formula_sum "Si O2"
_cell_formula_units_Z 16
_cell_length_a 9.335160
_cell_length_b 12.886185
_cell_length_c 10.142289
_cell_angle_alpha 44.952387
_cell_angle_beta 60.058156
_cell_angle_gamma 81.545599
_cell_volume 703.306324
_symmetry_space_group_name_H-M "P -1"
_symmetry_group_IT_number 2
_symmetry_cell_setting 'triclinic'
loop_
_space_group_symop_operation_xyz
x,y,z
-x,-y,-z
loop_
_atom_site_type_symbol
_atom_site_label
_atom_site_fract_x
_atom_site_fract_y
_atom_site_fract_z
Si Si1 0.514828 0.012158 0.684053
Si Si2 0.801497 0.060489 0.309365
Si Si3 0.162127 0.491702 0.345597
Si Si4 0.334134 0.783117 0.169319
Si Si5 0.900714 0.008565 0.903434
Si Si6 0.020287 0.416158 0.879926
Si Si7 0.283666 0.328051 0.636547
Si Si8 0.646681 0.348205 0.431464
O O1 0.664234 0.979251 0.558774
O O2 0.576454 0.197769 0.506048
O O3 0.327341 0.954949 0.744923
O O4 0.493355 0.927973 0.910380
O O5 0.900156 0.243435 0.129927
O O6 0.958273 0.993595 0.269850
O O7 0.307864 0.650001 0.189518
O O8 0.101903 0.504048 0.213751
O O9 0.212914 0.346191 0.505987
O O10 0.000000 0.500000 0.500000
O O11 0.173849 0.851155 0.189625
O O12 0.341727 0.714991 0.369957
O O13 0.742704 0.842615 0.138334
O O14 0.000000 0.000000 0.000000
O O15 0.159318 0.386186 0.736619
O O16 0.162524 0.534987 0.802328
O O17 0.490184 0.419126 0.447947
#
# Coordination Sequence:
#
# PCOD9077359 Si02
#       8
#     2   2   2   2   2   2   2   2
#     4  11  23  39  60  89 125 168 200 251 312 367
#     4  10  22  42  63  84 124 171 207 238 308 385
#     4  10  18  34  58  92 122 156 202 252 307 360
#     4  12  21  36  63  94 123 154 206 261 303 355
#     4  11  19  35  62  93 115 156 212 254 294 358
#     4  10  20  36  62  89 119 163 205 253 304 363
#     4  10  20  34  56  92 125 156 197 254 309 359
#     4  12  23  36  60  97 127 153 205 267 308 351
#
# _framework density 22.749689
#
# number of rings (size 3 to 8) (size 9 to 14) (size 15 to 20)
#    0.000    1.250    6.250    2.250    0.000    0.500 
#    0.000    0.625    0.000    2.250    0.000    0.000 
#    0.000    0.000    0.000    0.000    0.000    0.000 
#
# Total GULP energy -89282.766463 kJ/mol
# GULP energy per Si atom -5580.172904 kJ/mol
# Density = 2.269791 g / cm^3
# Si number density = 22.749689 Si / 1000 Ang^3
#
#
#
# Elastic Constant Matrix: (Units=GPa)
#
#
# Indices 1 2 3 4 5 6 
#
# 1 98.2968 11.0155 32.9863 -2.6795 -5.8290 -19.1123
# 2 11.0155 53.4759 20.5613 -2.9345 -9.7634 -7.5804
# 3 32.9863 20.5613 88.3035 0.2427 -20.2238 -12.6619
# 4 -2.6795 -2.9345 0.2427 41.1830 0.6966 -13.7784
# 5 -5.8290 -9.7634 -20.2238 0.6966 38.2442 -9.4322
# 6 -19.1123 -7.5804 -12.6619 -13.7784 -9.4322 26.8711
#
#
#
# Elastic Compliance Matrix: (Units=1/GPa)
#
#
# Indices 1 2 3 4 5 6 
#
# 1 0.013870 0.001052 -0.002615 0.005306 0.004134 0.013102
# 2 0.001052 0.022650 -0.002351 0.005382 0.007411 0.011391
# 3 -0.002615 -0.002351 0.016720 0.002895 0.010375 0.010482
# 4 0.005306 0.005382 0.002895 0.034058 0.009899 0.027595
# 5 0.004134 0.007411 0.010375 0.009899 0.041245 0.029473
# 6 0.013102 0.011391 0.010482 0.027595 0.029473 0.079181
#
#
# Mechanical properties :
#
#
# Convention : Reuss Voigt Hill
#
# Bulk Modulus (GPa) = 22.02108 41.02252 31.52180
# Shear Modulus (GPa) = 21.67394 32.96055 27.31724
#
# Velocity S-wave (km/s) = 3.08995 3.81049 3.46898
# Velocity P-wave (km/s) = 4.73616 6.11809 5.47093
#
# Compressibility (1/GPa) = 0.04541104
#
# Stress axis : x y z
#
# Youngs Moduli (GPa) = 72.09671 44.14936 59.80775
#
# Poissons Ratio (x) = -0.04643 0.15642
# Poissons Ratio (y) = -0.07582 0.14062
# Poissons Ratio (z) = 0.18856 0.10380
#
# Static dielectric constant tensor:
#      x y z
#    x 1.897790 0.081860 -0.078790 
#    y 0.081860 1.968620 -0.075470 
#    z -0.078790 -0.075470 1.918150 
# 
# From -- ./inp_files/398383.got.cif
#   From: 2010.05.17/outbox.cif.g08.bks.cpg/sg2_200_cif.got.tgz:398383.got - 2010.06.03 11:33:40.
