data_PCOD9077129
_publ_section_title
;
Structure prediction by ZEFSAII (Michael W. Deem and Ramdas Pophale) SiO2 
 PCOD9077129
Probable space group: P -1
;
_chemical_formula_sum "Si O2"
_cell_formula_units_Z 14
_cell_length_a 9.139363
_cell_length_b 18.122427
_cell_length_c 17.408020
_cell_angle_alpha 154.430318
_cell_angle_beta 32.294735
_cell_angle_gamma 141.496450
_cell_volume 662.351877
_symmetry_space_group_name_H-M "P -1"
_symmetry_group_IT_number 2
_symmetry_cell_setting 'triclinic'
loop_
_space_group_symop_operation_xyz
x,y,z
-x,-y,-z
loop_
_atom_site_type_symbol
_atom_site_label
_atom_site_fract_x
_atom_site_fract_y
_atom_site_fract_z
Si Si1 0.217035 0.866286 0.653487
Si Si2 0.711174 0.028537 0.504285
Si Si3 0.313489 0.499029 0.197104
Si Si4 0.592518 0.611730 0.490839
Si Si5 0.806014 0.964078 0.803043
Si Si6 0.852221 0.438143 0.841721
Si Si7 0.938246 0.327519 0.314936
O O1 0.215692 0.677282 0.438061
O O2 0.114093 0.829402 0.750771
O O3 0.999948 0.963466 0.791397
O O4 0.529984 0.947399 0.579051
O O5 0.765649 0.232834 0.685607
O O6 0.990746 0.951595 0.275892
O O7 0.500000 0.000000 0.500000
O O8 0.209240 0.483386 0.141096
O O9 0.185556 0.341545 0.157265
O O10 0.642156 0.513018 0.063473
O O11 0.500000 0.500000 0.500000
O O12 0.744858 0.777530 0.618212
O O13 0.336426 0.654471 0.594565
O O14 0.823132 0.530649 0.261334
O O15 0.500000 0.000000 0.000000
O O16 0.000000 0.500000 0.500000
#
# Coordination Sequence:
#
# PCOD9077129 Si02
#       7
#     2   2   2   2   2   2   2
#     4  10  19  39  55  79 113 150 180 224 281 335
#     4   9  17  34  54  76 110 143 182 219 270 332
#     4  10  18  34  56  83 109 141 181 230 275 324
#     4  11  19  37  57  84 110 145 190 231 269 327
#     4  10  21  36  56  84 111 143 192 233 270 324
#     4  10  19  32  56  85 108 135 193 232 265 324
#     4  10  21  36  57  81 116 150 181 229 288 326
#
# _framework density 21.136803
#
# number of rings (size 3 to 8) (size 9 to 14) (size 15 to 20)
#    0.000    2.000    5.714    0.857    0.000    3.429 
#    0.000   10.000    0.000    0.000    0.000    0.000 
#    0.000    0.000    0.000    0.000    0.000    0.000 
#
# Total GULP energy -77989.459952 kJ/mol
# GULP energy per Si atom -5570.675711 kJ/mol
# Density = 2.108869 g / cm^3
# Si number density = 21.136803 Si / 1000 Ang^3
#
#
#
# Elastic Constant Matrix: (Units=GPa)
#
#
# Indices 1 2 3 4 5 6 
#
# 1 53.2331 33.0457 4.0280 -9.0382 -6.7665 -12.4659
# 2 33.0457 138.9203 27.4357 -46.8421 -2.5710 -27.3956
# 3 4.0280 27.4357 90.0383 -42.6981 -14.0987 -7.5773
# 4 -9.0382 -46.8421 -42.6981 42.5958 11.6012 6.4808
# 5 -6.7665 -2.5710 -14.0987 11.6012 16.3222 -4.5680
# 6 -12.4659 -27.3956 -7.5773 6.4808 -4.5680 33.9935
#
#
#
# Elastic Compliance Matrix: (Units=1/GPa)
#
#
# Indices 1 2 3 4 5 6 
#
# 1 0.025875 -0.006837 0.001042 -0.007032 0.017769 0.007939
# 2 -0.006837 0.017412 0.006011 0.025886 -0.011513 0.006383
# 3 0.001042 0.006011 0.024032 0.029348 0.002778 0.005361
# 4 -0.007032 0.025886 0.029348 0.089251 -0.036095 0.002959
# 5 0.017769 -0.011513 0.002778 -0.036095 0.099959 0.018171
# 6 0.007939 0.006383 0.005361 0.002959 0.018171 0.040545
#
#
# Mechanical properties :
#
#
# Convention : Reuss Voigt Hill
#
# Bulk Modulus (GPa) = 14.76038 45.69004 30.22521
# Shear Modulus (GPa) = 15.66287 33.09444 24.37866
#
# Velocity S-wave (km/s) = 2.72513 3.96122 3.39982
# Velocity P-wave (km/s) = 4.11098 6.52571 5.45367
#
# Compressibility (1/GPa) = 0.06774893
#
# Stress axis : x y z
#
# Youngs Moduli (GPa) = 38.64756 57.43201 41.61104
#
# Poissons Ratio (x) = 0.39268 -0.04335
# Poissons Ratio (y) = 0.26424 -0.25011
# Poissons Ratio (z) = -0.04026 -0.34520
#
# Static dielectric constant tensor:
#      x y z
#    x 1.698620 -0.065520 -0.004850 
#    y -0.065520 1.571880 -0.266460 
#    z -0.004850 -0.266460 1.696460 
# 
# From -- ./inp_files/174029.got.cif
#   From: 2010.05.17/outbox.cif.g08.bks.cpg/sg2_88_cif.got.tgz:174029.got - 2010.06.03 11:33:40.
