data_PCOD9077600
_publ_section_title
;
Structure prediction by ZEFSAII (Michael W. Deem and Ramdas Pophale) SiO2 
 PCOD9077600
Probable space group: P -1
;
_chemical_formula_sum "Si O2"
_cell_formula_units_Z 13
_cell_length_a 6.542731
_cell_length_b 5.041648
_cell_length_c 16.358023
_cell_angle_alpha 65.091697
_cell_angle_beta 108.878708
_cell_angle_gamma 91.425532
_cell_volume 459.152682
_symmetry_space_group_name_H-M "P -1"
_symmetry_group_IT_number 2
_symmetry_cell_setting 'triclinic'
loop_
_space_group_symop_operation_xyz
x,y,z
-x,-y,-z
loop_
_atom_site_type_symbol
_atom_site_label
_atom_site_fract_x
_atom_site_fract_y
_atom_site_fract_z
Si Si1 0.848508 0.807837 0.454973
Si Si2 0.000000 0.000000 0.000000
Si Si3 0.753574 0.030234 0.130088
Si Si4 0.677715 0.742554 0.878917
Si Si5 0.502699 0.383835 0.761585
Si Si6 0.329173 0.453454 0.392516
Si Si7 0.965208 0.936211 0.693777
O O1 0.650258 0.737729 0.496073
O O2 0.000000 0.500000 0.500000
O O3 0.827727 0.979255 0.344066
O O4 0.000000 0.000000 0.500000
O O5 0.816572 0.002340 0.048925
O O6 0.123921 0.233578 0.039258
O O7 0.701547 0.714523 0.203169
O O8 0.941815 0.137495 0.195756
O O9 0.537782 0.247705 0.094590
O O10 0.656720 0.515366 0.831995
O O11 0.634965 0.072727 0.793145
O O12 0.476867 0.548356 0.649147
O O13 0.210213 0.772169 0.362022
O O14 0.150249 0.309408 0.334245
#
# Coordination Sequence:
#
# PCOD9077600 Si02
#       7
#     2   1   2   2   2   2   2
#     4   8  16  30  52  86 117 149 198 238 275 342
#     4  12  22  48  64  90 112 164 190 246 298 352
#     4  10  25  40  63  89 121 150 201 241 294 351
#     4  10  25  43  60  89 119 153 193 246 290 352
#     4  10  22  41  59  87 124 150 190 248 286 346
#     4  10  18  34  61  88 116 161 197 234 290 344
#     4  10  20  35  60  86 119 158 196 238 293 345
#
# _framework density 28.313023999999999
#
# number of rings (size 3 to 8) (size 9 to 14) (size 15 to 20)
#    0.923    1.231    0.000    3.231    2.154    1.231 
#    2.769    0.769    0.000    0.923    0.000    0.000 
#    0.000    0.000    0.000    0.000    0.000    0.000 
#
# Total GULP energy -72524.622397 kJ/mol
# GULP energy per Si atom -5578.817107 kJ/mol
# Density = 2.824858 g / cm^3
# Si number density = 28.313024 Si / 1000 Ang^3
#
#
#
# Elastic Constant Matrix: (Units=GPa)
#
#
# Indices 1 2 3 4 5 6 
#
# 1 139.9318 27.3816 41.1087 4.7424 -36.1932 6.5192
# 2 27.3816 108.8312 18.6982 11.2852 13.8902 18.3425
# 3 41.1087 18.6982 117.4025 20.8259 -35.3669 -10.0110
# 4 4.7424 11.2852 20.8259 29.2242 5.6785 11.8073
# 5 -36.1932 13.8902 -35.3669 5.6785 78.6890 22.8893
# 6 6.5192 18.3425 -10.0110 11.8073 22.8893 3.2420
#
#
#
# Elastic Compliance Matrix: (Units=1/GPa)
#
#
# Indices 1 2 3 4 5 6 
#
# 1 0.007844 -0.003506 -0.000037 -0.004562 0.001369 0.010900
# 2 -0.003506 0.009985 -0.000392 -0.005326 -0.005623 0.008443
# 3 -0.000037 -0.000392 0.010937 -0.004098 0.009081 -0.013124
# 4 -0.004562 -0.005326 -0.004098 0.027882 -0.015918 0.037490
# 5 0.001369 -0.005623 0.009081 -0.015918 0.013203 0.021855
# 6 0.010900 0.008443 -0.013124 0.037490 0.021855 -0.092601
#
#
# Mechanical properties :
#
#
# Convention : Reuss Voigt Hill
#
# Bulk Modulus (GPa) = 47.85589 60.06027 53.95808
# Shear Modulus (GPa) = -631.64816 40.82950 -295.40933
#
# Velocity S-wave (km/s) = -14.95255 3.80159 -10.22563
# Velocity P-wave (km/s) = 16.76801 6.36619 10.96899
#
# Compressibility (1/GPa) = 0.02089607
#
# Stress axis : x y z
#
# Youngs Moduli (GPa) = 127.48419 100.15137 91.43615
#
# Poissons Ratio (x) = 0.35112 0.00340
# Poissons Ratio (y) = 0.44694 0.03582
# Poissons Ratio (z) = 0.00474 0.03923
#
# Static dielectric constant tensor:
#      x y z
#    x 2.233620 0.038350 -0.032960 
#    y 0.038350 2.193700 -0.134750 
#    z -0.032960 -0.134750 2.235050 
# 
# From -- ./inp_files/326909.got.cif
#   From: 2010.05.17/outbox.cif.g08.bks.cpg/sg2_164_cif.got.tgz:326909.got - 2010.06.03 11:33:40.
