data_PCOD9077782
_publ_section_title
;
Structure prediction by ZEFSAII (Michael W. Deem and Ramdas Pophale) SiO2 
 PCOD9077782
Probable space group: P -1
;
_chemical_formula_sum "Si O2"
_cell_formula_units_Z 16
_cell_length_a 5.303826
_cell_length_b 8.019639
_cell_length_c 23.771828
_cell_angle_alpha 49.496896
_cell_angle_beta 73.773354
_cell_angle_gamma 60.705717
_cell_volume 669.390822
_symmetry_space_group_name_H-M "P -1"
_symmetry_group_IT_number 2
_symmetry_cell_setting 'triclinic'
loop_
_space_group_symop_operation_xyz
x,y,z
-x,-y,-z
loop_
_atom_site_type_symbol
_atom_site_label
_atom_site_fract_x
_atom_site_fract_y
_atom_site_fract_z
Si Si1 0.087148 0.670290 0.106826
Si Si2 0.175759 0.191772 0.492690
Si Si3 0.386823 0.657325 0.914409
Si Si4 0.186878 0.718432 0.397670
Si Si5 0.564014 0.886790 0.148513
Si Si6 0.780862 0.316295 0.715479
Si Si7 0.240784 0.515993 0.633375
Si Si8 0.149362 0.152118 0.032551
O O1 0.418958 0.489443 0.117030
O O2 0.861921 0.654721 0.169044
O O3 0.085793 0.925491 0.068059
O O4 0.944133 0.680366 0.052430
O O5 0.185011 0.452468 0.448489
O O6 0.012948 0.150250 0.566522
O O7 0.965288 0.248121 0.439250
O O8 0.500000 0.000000 0.500000
O O9 0.050708 0.721917 0.928981
O O10 0.410371 0.912397 0.857316
O O11 0.500000 0.500000 0.000000
O O12 0.097088 0.841011 0.314855
O O13 0.530684 0.654826 0.391266
O O14 0.317309 0.811346 0.201960
O O15 0.469460 0.034334 0.062814
O O16 0.467749 0.512975 0.667531
O O17 0.020915 0.411097 0.693615
#
# Coordination Sequence:
#
# PCOD9077782 Si02
#       8
#     2   2   2   2   2   2   2   2
#     4   9  19  35  52  81 111 138 185 252 300 354
#     4  10  18  34  65  95 118 155 199 244 297 340
#     4   9  20  36  54  83 113 138 187 251 309 354
#     4   8  19  37  57  87 125 154 195 244 290 345
#     4  11  21  34  60  79 109 159 196 241 302 369
#     4   9  21  36  63  79 119 166 202 237 300 357
#     4   9  19  39  59  85 119 161 196 243 291 347
#     4   9  19  33  56  80 106 144 188 239 305 358
#
# _framework density 23.902328000000001
#
# number of rings (size 3 to 8) (size 9 to 14) (size 15 to 20)
#    0.750    2.000    0.000    1.500    3.500    3.500 
#    0.000    2.500    2.750    0.000    0.000    0.000 
#    0.000    0.000    0.000    0.000    0.000    0.000 
#
# Total GULP energy -89087.631068 kJ/mol
# GULP energy per Si atom -5567.976942 kJ/mol
# Density = 2.384793 g / cm^3
# Si number density = 23.902328 Si / 1000 Ang^3
#
#
#
# Elastic Constant Matrix: (Units=GPa)
#
#
# Indices 1 2 3 4 5 6 
#
# 1 111.4170 42.8716 26.8400 10.3881 -17.5019 -20.4989
# 2 42.8716 125.6818 30.2989 26.1685 -12.2689 -24.4393
# 3 26.8400 30.2989 86.4466 22.0744 -12.0133 -10.1768
# 4 10.3881 26.1685 22.0744 22.0627 -11.9904 -6.0154
# 5 -17.5019 -12.2689 -12.0133 -11.9904 49.7586 2.1529
# 6 -20.4989 -24.4393 -10.1768 -6.0154 2.1529 39.3491
#
#
#
# Elastic Compliance Matrix: (Units=1/GPa)
#
#
# Indices 1 2 3 4 5 6 
#
# 1 0.011674 -0.003014 -0.002537 0.003550 0.003437 0.003908
# 2 -0.003014 0.012329 0.000255 -0.012996 -0.001274 0.004236
# 3 -0.002537 0.000255 0.016214 -0.015512 -0.000683 0.000696
# 4 0.003550 -0.012996 -0.015512 0.082734 0.014165 0.001639
# 5 0.003437 -0.001274 -0.000683 0.014165 0.024168 0.001666
# 6 0.003908 0.004236 0.000696 0.001639 0.001666 0.030420
#
#
# Mechanical properties :
#
#
# Convention : Reuss Voigt Hill
#
# Bulk Modulus (GPa) = 33.75587 58.17404 45.96496
# Shear Modulus (GPa) = 25.25174 37.13641 31.19407
#
# Velocity S-wave (km/s) = 3.25384 3.94594 3.61649
# Velocity P-wave (km/s) = 5.31693 6.71950 6.05894
#
# Compressibility (1/GPa) = 0.02962447
#
# Stress axis : x y z
#
# Youngs Moduli (GPa) = 85.65882 81.11204 61.67402
#
# Poissons Ratio (x) = 0.24450 0.15647
# Poissons Ratio (y) = 0.25821 -0.01573
# Poissons Ratio (z) = 0.21732 -0.02069
#
# Static dielectric constant tensor:
#      x y z
#    x 1.973330 0.001300 0.015780 
#    y 0.001300 1.972860 -0.000180 
#    z 0.015780 -0.000180 2.005100 
# 
# From -- ./inp_files/603805.got.cif
#   From: 2010.05.17/outbox.cif.g08.bks.cpg/sg2_302_cif.got.tgz:603805.got - 2010.06.03 11:33:40.
