data_PCOD9077122
_publ_section_title
;
Structure prediction by ZEFSAII (Michael W. Deem and Ramdas Pophale) SiO2 
 PCOD9077122
Probable space group: P -1
;
_chemical_formula_sum "Si O2"
_cell_formula_units_Z 16
_cell_length_a 8.914848
_cell_length_b 14.322180
_cell_length_c 15.476207
_cell_angle_alpha 41.024976
_cell_angle_beta 95.158982
_cell_angle_gamma 64.147150
_cell_volume 822.946523
_symmetry_space_group_name_H-M "P -1"
_symmetry_group_IT_number 2
_symmetry_cell_setting 'triclinic'
loop_
_space_group_symop_operation_xyz
x,y,z
-x,-y,-z
loop_
_atom_site_type_symbol
_atom_site_label
_atom_site_fract_x
_atom_site_fract_y
_atom_site_fract_z
Si Si1 0.309389 0.884794 0.367025
Si Si2 0.322223 0.470587 0.231116
Si Si3 0.910519 0.658281 0.965249
Si Si4 0.294453 0.661419 0.771050
Si Si5 0.766876 0.141877 0.986699
Si Si6 0.532275 0.199009 0.104440
Si Si7 0.020589 0.081512 0.578076
Si Si8 0.685865 0.245667 0.717090
O O1 0.549676 0.696097 0.565090
O O2 0.336957 0.859400 0.283348
O O3 0.157102 0.855487 0.404962
O O4 0.167372 0.127616 0.217423
O O5 0.523482 0.359507 0.247764
O O6 0.233560 0.691281 0.101564
O O7 0.118154 0.528900 0.135639
O O8 0.679440 0.755267 0.926986
O O9 0.000000 0.500000 0.000000
O O10 0.133075 0.862317 0.689147
O O11 0.433698 0.423238 0.977365
O O12 0.129002 0.730906 0.634092
O O13 0.652028 0.218788 0.832279
O O14 0.621877 0.164094 0.036557
O O15 0.041930 0.897039 0.169059
O O16 0.764370 0.992368 0.316149
O O17 0.500000 0.500000 0.500000
#
# Coordination Sequence:
#
# PCOD9077122 Si02
#       8
#     2   2   2   2   2   2   2   2
#     4  11  21  38  61  86 116 150 200 245 288 350
#     4  10  20  38  59  86 116 152 199 241 287 343
#     4  12  25  38  56  84 128 170 193 223 282 355
#     4   9  19  32  57  82 108 147 197 247 285 336
#     4  10  21  37  64  92 112 142 198 255 297 347
#     4  11  21  35  55  82 120 154 188 238 288 345
#     4  10  18  34  56  82 110 145 197 249 289 327
#     4  11  20  37  68  94 108 141 193 258 310 338
#
# _framework density 19.442332
#
# number of rings (size 3 to 8) (size 9 to 14) (size 15 to 20)
#    0.000    1.500    3.750    2.625    0.000    1.500 
#    0.000    0.625    0.000    1.500    0.000    0.000 
#    0.000    0.000    0.000    0.000    0.000    0.000 
#
# Total GULP energy -89356.298311 kJ/mol
# GULP energy per Si atom -5584.768644 kJ/mol
# Density = 1.939808 g / cm^3
# Si number density = 19.442332 Si / 1000 Ang^3
#
#
#
# Elastic Constant Matrix: (Units=GPa)
#
#
# Indices 1 2 3 4 5 6 
#
# 1 86.3778 27.7238 35.9965 20.5617 36.1369 0.2677
# 2 27.7238 90.8547 25.9815 14.1124 12.1870 0.7386
# 3 35.9965 25.9815 117.1533 12.3673 34.7390 4.5419
# 4 20.5617 14.1124 12.3673 35.3800 10.7379 3.6872
# 5 36.1369 12.1870 34.7390 10.7379 31.4048 -1.9445
# 6 0.2677 0.7386 4.5419 3.6872 -1.9445 22.3145
#
#
#
# Elastic Compliance Matrix: (Units=1/GPa)
#
#
# Indices 1 2 3 4 5 6 
#
# 1 0.024639 -0.003602 0.002032 -0.004979 -0.027635 -0.002175
# 2 -0.003602 0.012868 -0.002278 -0.003186 0.002813 0.000852
# 3 0.002032 -0.002278 0.013526 0.000565 -0.016874 -0.004266
# 4 -0.004979 -0.003186 0.000565 0.034666 -0.005896 -0.006192
# 5 -0.027635 0.002813 -0.016874 -0.005896 0.083971 0.011964
# 6 -0.002175 0.000852 -0.004266 -0.006192 0.011964 0.047746
#
#
# Mechanical properties :
#
#
# Convention : Reuss Voigt Hill
#
# Bulk Modulus (GPa) = 23.07416 52.64325 37.85870
# Shear Modulus (GPa) = 20.87191 31.46548 26.16870
#
# Velocity S-wave (km/s) = 3.28003 4.02730 3.67272
# Velocity P-wave (km/s) = 5.12236 6.98290 6.12370
#
# Compressibility (1/GPa) = 0.04333853
#
# Stress axis : x y z
#
# Youngs Moduli (GPa) = 40.58553 77.71431 73.93299
#
# Poissons Ratio (x) = 0.27991 -0.15027
# Poissons Ratio (y) = 0.14618 0.16841
# Poissons Ratio (z) = -0.08249 0.17702
#
# Static dielectric constant tensor:
#      x y z
#    x 1.651540 -0.000860 0.022930 
#    y -0.000860 1.719970 0.006930 
#    z 0.022930 0.006930 1.701060 
# 
# From -- ./inp_files/276193.got.cif
#   From: 2010.05.17/outbox.cif.g08.bks.cpg/sg2_139_cif.got.tgz:276193.got - 2010.06.03 11:33:40.
