data_PCOD9077204
_publ_section_title
;
Structure prediction by ZEFSAII (Michael W. Deem and Ramdas Pophale) SiO2 
 PCOD9077204
Probable space group: P -1
;
_chemical_formula_sum "Si O2"
_cell_formula_units_Z 16
_cell_length_a 14.565660
_cell_length_b 13.394809
_cell_length_c 17.743200
_cell_angle_alpha 39.067587
_cell_angle_beta 21.874103
_cell_angle_gamma 40.934419
_cell_volume 803.789028
_symmetry_space_group_name_H-M "P -1"
_symmetry_group_IT_number 2
_symmetry_cell_setting 'triclinic'
loop_
_space_group_symop_operation_xyz
x,y,z
-x,-y,-z
loop_
_atom_site_type_symbol
_atom_site_label
_atom_site_fract_x
_atom_site_fract_y
_atom_site_fract_z
Si Si1 0.982107 0.634066 0.812788
Si Si2 0.681096 0.347924 0.767205
Si Si3 0.325133 0.619683 0.971912
Si Si4 0.814234 0.670673 0.264578
Si Si5 0.317400 0.135085 0.215102
Si Si6 0.436598 0.775853 0.372751
Si Si7 0.217186 0.326195 0.327020
Si Si8 0.477900 0.446004 0.707896
O O1 0.834507 0.776616 0.790799
O O2 0.079596 0.494054 0.762605
O O3 0.214570 0.706927 0.626691
O O4 0.803384 0.556033 0.049999
O O5 0.496267 0.501795 0.851342
O O6 0.632958 0.346735 0.714922
O O7 0.974529 0.345089 0.553100
O O8 0.583913 0.197388 0.968115
O O9 0.522706 0.718536 0.801069
O O10 0.237041 0.496925 0.172248
O O11 0.066341 0.715425 0.082109
O O12 0.665296 0.784641 0.249365
O O13 0.603024 0.608272 0.514392
O O14 0.200919 0.204554 0.341933
O O15 0.342727 0.945891 0.307578
O O16 0.504122 0.647492 0.330017
#
# Coordination Sequence:
#
# PCOD9077204 Si02
#       8
#     2   2   2   2   2   2   2   2
#     4  10  19  37  55  77 107 140 187 220 250 308
#     4  10  18  34  57  82 107 127 182 228 260 307
#     4  10  19  33  56  85 101 135 174 228 269 308
#     4  11  20  37  51  82 112 136 177 221 261 317
#     4  10  21  37  52  82 109 140 179 219 255 317
#     4  11  24  33  53  78 115 147 173 209 264 322
#     4  10  18  34  59  77 107 133 177 225 270 302
#     4  10  19  34  55  79 106 142 174 218 264 300
#
# _framework density 19.905719999999999
#
# number of rings (size 3 to 8) (size 9 to 14) (size 15 to 20)
#    0.000    1.750    5.000    3.000    0.000    5.000 
#    0.000    0.625    0.000    0.750    0.000    0.000 
#    0.000    0.000    0.000    0.000    0.000    0.000 
#
# Total GULP energy -89166.274223 kJ/mol
# GULP energy per Si atom -5572.892139 kJ/mol
# Density = 1.986041 g / cm^3
# Si number density = 19.905720 Si / 1000 Ang^3
#
#
#
# Elastic Constant Matrix: (Units=GPa)
#
#
# Indices 1 2 3 4 5 6 
#
# 1 436.8713 -463.0401 -374.1600 -134.7989 24.3237 -480.0681
# 2 -463.0401 592.5908 503.1164 181.3317 -49.5559 566.6070
# 3 -374.1600 503.1164 556.2953 177.0153 -47.5270 504.4202
# 4 -134.7989 181.3317 177.0153 68.2955 -25.4701 179.5976
# 5 24.3237 -49.5559 -47.5270 -25.4701 33.4040 -46.9209
# 6 -480.0681 566.6070 504.4202 179.5976 -46.9209 608.9264
#
#
#
# Elastic Compliance Matrix: (Units=1/GPa)
#
#
# Indices 1 2 3 4 5 6 
#
# 1 0.024844 0.010663 -0.005543 -0.003257 0.009793 0.015971
# 2 0.010663 0.024275 -0.003525 -0.020520 0.000303 -0.005186
# 3 -0.005543 -0.003525 0.014023 -0.027487 -0.009711 -0.005348
# 4 -0.003257 -0.020520 -0.027487 0.179335 0.056587 -0.009237
# 5 0.009793 0.000303 -0.009711 0.056587 0.057067 0.003191
# 6 0.015971 -0.005186 -0.005348 -0.009237 0.003191 0.026460
#
#
# Mechanical properties :
#
#
# Convention : Reuss Voigt Hill
#
# Bulk Modulus (GPa) = 15.07517 101.95444 58.51480
# Shear Modulus (GPa) = 14.49594 270.11458 142.30526
#
# Velocity S-wave (km/s) = 2.70150 11.66154 8.46433
# Velocity P-wave (km/s) = 4.16179 15.25293 11.17972
#
# Compressibility (1/GPa) = 0.06633425
#
# Stress axis : x y z
#
# Youngs Moduli (GPa) = 40.25065 41.19458 71.30891
#
# Poissons Ratio (x) = -0.43928 0.39527
# Poissons Ratio (y) = -0.42921 0.25135
# Poissons Ratio (z) = 0.22311 0.14520
#
# Static dielectric constant tensor:
#      x y z
#    x 1.773380 -0.010300 -0.029470 
#    y -0.010300 1.681510 0.019600 
#    z -0.029470 0.019600 1.788960 
# 
# From -- ./inp_files/529925.got.cif
#   From: 2010.05.17/outbox.cif.g08.bks.cpg/sg2_265_cif.got.tgz:529925.got - 2010.06.03 11:33:40.
