data_PCOD9077537
_publ_section_title
;
Structure prediction by ZEFSAII (Michael W. Deem and Ramdas Pophale) SiO2 
 PCOD9077537
Probable space group: P -1
;
_chemical_formula_sum "Si O2"
_cell_formula_units_Z 14
_cell_length_a 11.388446
_cell_length_b 9.614105
_cell_length_c 7.843525
_cell_angle_alpha 104.420800
_cell_angle_beta 100.170398
_cell_angle_gamma 44.280797
_cell_volume 580.689725
_symmetry_space_group_name_H-M "P -1"
_symmetry_group_IT_number 2
_symmetry_cell_setting 'triclinic'
loop_
_space_group_symop_operation_xyz
x,y,z
-x,-y,-z
loop_
_atom_site_type_symbol
_atom_site_label
_atom_site_fract_x
_atom_site_fract_y
_atom_site_fract_z
Si Si1 0.531480 0.309170 0.153944
Si Si2 0.389682 0.258598 0.419268
Si Si3 0.943240 0.795803 0.653899
Si Si4 0.541886 0.878523 0.143008
Si Si5 0.371515 0.738036 0.311063
Si Si6 0.169852 0.836666 0.610325
Si Si7 0.872369 0.613101 0.334657
O O1 0.413169 0.327626 0.270118
O O2 0.462251 0.528265 0.180737
O O3 0.723866 0.151028 0.229098
O O4 0.516998 0.230987 0.952348
O O5 0.501176 0.252955 0.579100
O O6 0.220140 0.374394 0.516343
O O7 0.455784 0.045024 0.319372
O O8 0.907271 0.746896 0.446066
O O9 0.110643 0.750483 0.676438
O O10 0.980336 0.627810 0.733853
O O11 0.790704 0.033896 0.727064
O O12 0.738803 0.719479 0.183950
O O13 0.500000 0.000000 0.000000
O O14 0.303899 0.713179 0.457071
O O15 0.000000 0.000000 0.500000
#
# Coordination Sequence:
#
# PCOD9077537 Si02
#       7
#     2   2   2   2   2   2   2
#     4  10  20  36  62  93 118 151 196 256 294 339
#     4  10  19  37  64  89 111 153 209 243 282 349
#     4  10  21  34  60  87 119 153 207 240 282 348
#     4  10  22  37  60  89 124 149 195 250 304 345
#     4  10  18  34  60  90 112 154 207 241 279 350
#     4   9  18  34  59  86 120 155 201 236 288 351
#     4  11  21  38  62  89 116 158 202 243 293 351
#
# _framework density 24.109259000000002
#
# number of rings (size 3 to 8) (size 9 to 14) (size 15 to 20)
#    0.000    2.000    1.429    3.857    2.000    0.000 
#    0.000    3.571   12.571    7.714    0.000    0.000 
#    0.000    0.000    0.000    0.000    0.000    0.000 
#
# Total GULP energy -77995.261726 kJ/mol
# GULP energy per Si atom -5571.090123 kJ/mol
# Density = 2.405439 g / cm^3
# Si number density = 24.109259 Si / 1000 Ang^3
#
#
#
# Elastic Constant Matrix: (Units=GPa)
#
#
# Indices 1 2 3 4 5 6 
#
# 1 92.0283 3.8422 16.7967 9.8465 16.6128 12.7427
# 2 3.8422 155.7787 53.4317 13.0707 23.2447 11.7040
# 3 16.7967 53.4317 133.1049 13.1150 33.1743 1.8121
# 4 9.8465 13.0707 13.1150 42.5641 5.1015 13.1908
# 5 16.6128 23.2447 33.1743 5.1015 44.7666 -4.8837
# 6 12.7427 11.7040 1.8121 13.1908 -4.8837 33.7254
#
#
#
# Elastic Compliance Matrix: (Units=1/GPa)
#
#
# Indices 1 2 3 4 5 6 
#
# 1 0.012779 0.001190 -0.000577 -0.000714 -0.005475 -0.005724
# 2 0.001190 0.007998 -0.002503 -0.000572 -0.003035 -0.003307
# 3 -0.000577 -0.002503 0.010198 -0.001648 -0.005819 0.000341
# 4 -0.000714 -0.000572 -0.001648 0.027987 -0.002580 -0.010764
# 5 -0.005475 -0.003035 -0.005819 -0.002580 0.031535 0.009011
# 6 -0.005724 -0.003307 0.000341 -0.010764 0.009011 0.038458
#
#
# Mechanical properties :
#
#
# Convention : Reuss Voigt Hill
#
# Bulk Modulus (GPa) = 36.77184 58.78366 47.77775
# Shear Modulus (GPa) = 35.26057 44.66732 39.96394
#
# Velocity S-wave (km/s) = 3.82846 4.30897 4.07580
# Velocity P-wave (km/s) = 5.90153 7.01366 6.48149
#
# Compressibility (1/GPa) = 0.02719472
#
# Stress axis : x y z
#
# Youngs Moduli (GPa) = 78.25165 125.03488 98.05425
#
# Poissons Ratio (x) = -0.14877 0.05661
# Poissons Ratio (y) = -0.09310 0.24542
# Poissons Ratio (z) = 0.04518 0.31294
#
# Static dielectric constant tensor:
#      x y z
#    x 2.216540 0.021960 0.007280 
#    y 0.021960 2.030700 -0.040360 
#    z 0.007280 -0.040360 1.946080 
# 
# From -- ./inp_files/240578.got.cif
#   From: 2010.05.17/outbox.cif.g08.bks.cpg/sg2_121_cif.got.tgz:240578.got - 2010.06.03 11:33:40.
