data_PCOD9077098
_publ_section_title
;
Structure prediction by ZEFSAII (Michael W. Deem and Ramdas Pophale) SiO2 
 PCOD9077098
Probable space group: P -1
;
_chemical_formula_sum "Si O2"
_cell_formula_units_Z 16
_cell_length_a 15.802988
_cell_length_b 10.093085
_cell_length_c 15.257293
_cell_angle_alpha 120.704823
_cell_angle_beta 40.908814
_cell_angle_gamma 144.468083
_cell_volume 890.611424
_symmetry_space_group_name_H-M "P -1"
_symmetry_group_IT_number 2
_symmetry_cell_setting 'triclinic'
loop_
_space_group_symop_operation_xyz
x,y,z
-x,-y,-z
loop_
_atom_site_type_symbol
_atom_site_label
_atom_site_fract_x
_atom_site_fract_y
_atom_site_fract_z
Si Si1 0.473029 0.774518 0.846068
Si Si2 0.205194 0.175476 0.345366
Si Si3 0.972352 0.240060 0.757186
Si Si4 0.738439 0.286508 0.856318
Si Si5 0.323967 0.596711 0.458037
Si Si6 0.721023 0.539939 0.269390
Si Si7 0.909358 0.347337 0.429978
Si Si8 0.362920 0.179281 0.567382
O O1 0.643592 0.800067 0.714686
O O2 0.317935 0.591150 0.831574
O O3 0.582409 0.038301 0.842026
O O4 0.373270 0.686499 0.990490
O O5 0.303397 0.431805 0.353573
O O6 0.000000 0.000000 0.500000
O O7 0.145844 0.026643 0.255329
O O8 0.151563 0.412066 0.603628
O O9 0.079080 0.334675 0.797951
O O10 0.832552 0.254747 0.844415
O O11 0.912056 0.496207 0.727354
O O12 0.259748 0.690410 0.488203
O O13 0.528869 0.782060 0.414912
O O14 0.535745 0.343787 0.414272
O O15 0.718007 0.721723 0.319435
O O16 0.000000 0.500000 0.500000
O O17 0.805585 0.087330 0.427152
#
# Coordination Sequence:
#
# PCOD9077098 Si02
#       8
#     2   2   2   2   2   2   2   2
#     4  10  18  34  56  78 105 142 174 216 259 315
#     4   9  16  28  51  77 103 134 171 211 262 302
#     4   8  17  29  49  79 107 132 168 221 251 311
#     4   9  20  36  53  77 107 142 177 209 267 318
#     4   9  17  32  49  73 105 137 169 211 272 305
#     4  10  19  31  54  82 107 131 178 218 265 301
#     4  11  22  34  53  78 106 138 177 222 264 310
#     4  10  20  32  50  80 110 135 169 223 262 313
#
# _framework density 17.965185000000002
#
# number of rings (size 3 to 8) (size 9 to 14) (size 15 to 20)
#    0.000    2.500    1.250    1.875    3.500    0.500 
#    0.000    0.625    0.000    0.750    0.000    0.000 
#    0.000    0.000    0.000    0.000    0.000    0.000 
#
# Total GULP energy -89137.725823 kJ/mol
# GULP energy per Si atom -5571.107864 kJ/mol
# Density = 1.792430 g / cm^3
# Si number density = 17.965185 Si / 1000 Ang^3
#
#
#
# Elastic Constant Matrix: (Units=GPa)
#
#
# Indices 1 2 3 4 5 6 
#
# 1 76.8335 43.4193 15.5836 8.1145 2.0841 20.6370
# 2 43.4193 107.6682 13.9110 12.1244 6.2385 20.2803
# 3 15.5836 13.9110 43.4789 2.6657 -5.3568 -0.1893
# 4 8.1145 12.1244 2.6657 19.8226 4.3961 2.3278
# 5 2.0841 6.2385 -5.3568 4.3961 12.0862 1.2884
# 6 20.6370 20.2803 -0.1893 2.3278 1.2884 27.2164
#
#
#
# Elastic Compliance Matrix: (Units=1/GPa)
#
#
# Indices 1 2 3 4 5 6 
#
# 1 0.020402 -0.004904 -0.005766 -0.002946 -0.001240 -0.011545
# 2 -0.004904 0.013500 -0.003008 -0.003971 -0.005397 -0.005767
# 3 -0.005766 -0.003008 0.028236 -0.003847 0.015780 0.006392
# 4 -0.002946 -0.003971 -0.003847 0.059073 -0.020751 0.001096
# 5 -0.001240 -0.005397 0.015780 -0.020751 0.100056 0.002110
# 6 -0.011545 -0.005767 0.006392 0.001096 0.002110 0.049644
#
#
# Mechanical properties :
#
#
# Convention : Reuss Voigt Hill
#
# Bulk Modulus (GPa) = 28.75031 41.53427 35.14229
# Shear Modulus (GPa) = 16.13625 22.16281 19.14953
#
# Velocity S-wave (km/s) = 3.00024 3.51615 3.26839
# Velocity P-wave (km/s) = 5.29528 6.29714 5.81782
#
# Compressibility (1/GPa) = 0.03478223
#
# Stress axis : x y z
#
# Youngs Moduli (GPa) = 49.01591 74.07219 35.41529
#
# Poissons Ratio (x) = 0.36327 0.20419
# Poissons Ratio (y) = 0.24039 0.10653
# Poissons Ratio (z) = 0.28260 0.22282
#
# Static dielectric constant tensor:
#      x y z
#    x 1.643610 0.009280 -0.016750 
#    y 0.009280 1.640670 0.015840 
#    z -0.016750 0.015840 1.616040 
# 
# From -- ./inp_files/256914.got.cif
#   From: 2010.05.17/outbox.cif.g08.bks.cpg/sg2_129_cif.got.tgz:256914.got - 2010.06.03 11:33:40.
