data_PCOD9077862
_publ_section_title
;
Structure prediction by ZEFSAII (Michael W. Deem and Ramdas Pophale) SiO2 
 PCOD9077862
Probable space group: P -1
;
_chemical_formula_sum "Si O2"
_cell_formula_units_Z 16
_cell_length_a 5.072383
_cell_length_b 19.252145
_cell_length_c 16.044798
_cell_angle_alpha 145.970960
_cell_angle_beta 66.664932
_cell_angle_gamma 106.026900
_cell_volume 800.941767
_symmetry_space_group_name_H-M "P -1"
_symmetry_group_IT_number 2
_symmetry_cell_setting 'triclinic'
loop_
_space_group_symop_operation_xyz
x,y,z
-x,-y,-z
loop_
_atom_site_type_symbol
_atom_site_label
_atom_site_fract_x
_atom_site_fract_y
_atom_site_fract_z
Si Si1 0.523562 0.565620 0.168461
Si Si2 0.566420 0.233875 0.043586
Si Si3 0.751712 0.657849 0.082091
Si Si4 0.575064 0.117322 0.362751
Si Si5 0.261382 0.515733 0.766201
Si Si6 0.766829 0.859331 0.160845
Si Si7 0.321308 0.026919 0.965802
Si Si8 0.004799 0.280259 0.555620
O O1 0.765336 0.628701 0.149279
O O2 0.550628 0.549630 0.247947
O O3 0.230392 0.657778 0.287570
O O4 0.498969 0.426690 0.999079
O O5 0.597582 0.379501 0.198806
O O6 0.403162 0.221054 0.963389
O O7 0.380539 0.164416 0.063735
O O8 0.890459 0.160882 0.924136
O O9 0.717010 0.799821 0.197937
O O10 0.014460 0.595992 0.931492
O O11 0.261377 0.193647 0.481787
O O12 0.830961 0.202453 0.435495
O O13 0.636286 0.000349 0.301393
O O14 0.589082 0.059976 0.211259
O O15 0.138787 0.401199 0.620788
O O16 0.500000 0.000000 0.000000
O O17 0.000000 0.000000 0.000000
#
# Coordination Sequence:
#
# PCOD9077862 Si02
#       8
#     2   2   2   2   2   2   2   2
#     4  10  18  35  54  88 113 157 200 247 283 324
#     4  10  20  35  61  89 115 141 188 240 289 338
#     4   9  19  31  57  85 118 147 199 265 288 300
#     4  11  22  39  60  81 118 153 189 228 283 364
#     4  10  19  35  60  84 118 152 205 236 284 329
#     4  10  19  36  55  85 113 154 193 239 290 330
#     4  11  22  40  65  94 112 137 180 242 296 339
#     4  11  22  37  57  83 116 164 199 220 278 354
#
# _framework density 19.976483999999999
#
# number of rings (size 3 to 8) (size 9 to 14) (size 15 to 20)
#    0.000    1.750    2.500    4.125    0.000    0.000 
#    0.000    1.250    0.000    4.500    0.000    0.000 
#    0.000    0.000    0.000    0.000    0.000    0.000 
#
# Total GULP energy -89159.810779 kJ/mol
# GULP energy per Si atom -5572.488174 kJ/mol
# Density = 1.993102 g / cm^3
# Si number density = 19.976484 Si / 1000 Ang^3
#
#
#
# Elastic Constant Matrix: (Units=GPa)
#
#
# Indices 1 2 3 4 5 6 
#
# 1 121.1278 41.6377 30.3982 16.5394 -3.8044 3.6322
# 2 41.6377 151.6015 45.2187 32.5400 -4.0897 10.1899
# 3 30.3982 45.2187 71.2306 27.2905 -0.5671 3.1674
# 4 16.5394 32.5400 27.2905 25.5895 5.1806 4.2357
# 5 -3.8044 -4.0897 -0.5671 5.1806 37.2242 5.9285
# 6 3.6322 10.1899 3.1674 4.2357 5.9285 24.7666
#
#
#
# Elastic Compliance Matrix: (Units=1/GPa)
#
#
# Indices 1 2 3 4 5 6 
#
# 1 0.009682 -0.001449 -0.002420 -0.001992 0.001142 -0.000447
# 2 -0.001449 0.009882 -0.001720 -0.009915 0.002703 -0.002585
# 3 -0.002420 -0.001720 0.025390 -0.024158 0.003121 0.001200
# 4 -0.001992 -0.009915 -0.024158 0.081852 -0.012487 -0.003549
# 5 0.001142 0.002703 0.003121 -0.012487 0.030140 -0.006758
# 6 -0.000447 -0.002585 0.001200 -0.003549 -0.006758 0.043577
#
#
# Mechanical properties :
#
#
# Convention : Reuss Voigt Hill
#
# Bulk Modulus (GPa) = 29.60620 64.27434 46.94027
# Shear Modulus (GPa) = 22.42548 32.62976 27.52762
#
# Velocity S-wave (km/s) = 3.35415 4.04593 3.71617
# Velocity P-wave (km/s) = 5.46380 7.35329 6.47781
#
# Compressibility (1/GPa) = 0.03377671
#
# Stress axis : x y z
#
# Youngs Moduli (GPa) = 103.27976 101.19442 39.38493
#
# Poissons Ratio (x) = 0.14664 0.09532
# Poissons Ratio (y) = 0.14967 0.06773
# Poissons Ratio (z) = 0.24995 0.17404
#
# Static dielectric constant tensor:
#      x y z
#    x 1.785030 -0.007110 -0.007660 
#    y -0.007110 1.754260 0.016200 
#    z -0.007660 0.016200 1.748080 
# 
# From -- ./inp_files/99099.got.cif
#   From: 2010.05.17/outbox.cif.g08.bks.cpg/sg2_50_cif.got.tgz:99099.got - 2010.06.03 11:33:40.
