data_PCOD9077749
_publ_section_title
;
Structure prediction by ZEFSAII (Michael W. Deem and Ramdas Pophale) SiO2 
 PCOD9077749
Probable space group: P -1
;
_chemical_formula_sum "Si O2"
_cell_formula_units_Z 16
_cell_length_a 11.384885
_cell_length_b 18.982056
_cell_length_c 7.094583
_cell_angle_alpha 115.504776
_cell_angle_beta 115.139473
_cell_angle_gamma 25.153953
_cell_volume 585.719253
_symmetry_space_group_name_H-M "P -1"
_symmetry_group_IT_number 2
_symmetry_cell_setting 'triclinic'
loop_
_space_group_symop_operation_xyz
x,y,z
-x,-y,-z
loop_
_atom_site_type_symbol
_atom_site_label
_atom_site_fract_x
_atom_site_fract_y
_atom_site_fract_z
Si Si1 0.285125 0.327814 0.328273
Si Si2 0.183314 0.172027 0.056033
Si Si3 0.490749 0.798458 0.239996
Si Si4 0.164665 0.011577 0.813950
Si Si5 0.229415 0.197263 0.529619
Si Si6 0.357778 0.468014 0.493264
Si Si7 0.741793 0.516456 0.133211
Si Si8 0.071221 0.877269 0.639265
O O1 0.445784 0.243673 0.540434
O O2 0.272193 0.422887 0.359367
O O3 0.981860 0.453686 0.265962
O O4 0.500049 0.167575 0.160419
O O5 0.202995 0.214075 0.304683
O O6 0.931777 0.348200 0.975361
O O7 0.083990 0.137238 0.991726
O O8 0.500000 0.000000 0.000000
O O9 0.692766 0.761341 0.278095
O O10 0.527987 0.688064 0.076927
O O11 0.182313 0.998451 0.246126
O O12 0.043415 0.081950 0.600583
O O13 0.100331 0.956473 0.760641
O O14 0.916533 0.338421 0.528975
O O15 0.500000 0.000000 0.500000
O O16 0.391416 0.450232 0.727484
O O17 0.638147 0.323559 0.397503
#
# Coordination Sequence:
#
# PCOD9077749 Si02
#       8
#     2   2   2   2   2   2   2   2
#     4   9  12  24  48  72  98 124 167 211 247 300
#     4  11  19  30  52  83 113 136 166 224 270 300
#     4  10  16  31  50  73  98 134 182 207 254 315
#     4   9  16  27  45  78 110 130 166 211 268 307
#     4  11  22  35  54  79 106 138 176 220 261 308
#     4   9  16  29  49  76 100 136 176 211 256 305
#     4  10  15  24  47  76 100 131 167 215 260 295
#     4   9  18  30  51  74 104 143 172 212 254 323
#
# _framework density 27.316842000000001
#
# number of rings (size 3 to 8) (size 9 to 14) (size 15 to 20)
#    0.000    2.250    5.000    3.750    0.000    0.000 
#    0.000    6.250    0.000    7.500    0.000    0.000 
#    0.000    0.000    0.000    0.000    0.000    0.000 
#
# Total GULP energy -89175.243435 kJ/mol
# GULP energy per Si atom -5573.452715 kJ/mol
# Density = 2.725467 g / cm^3
# Si number density = 27.316842 Si / 1000 Ang^3
#
#
#
# Elastic Constant Matrix: (Units=GPa)
#
#
# Indices 1 2 3 4 5 6 
#
# 1 62.7806 30.4556 29.0895 0.7554 18.4525 -4.6607
# 2 30.4556 207.9197 16.0765 26.9590 12.2429 -16.9193
# 3 29.0895 16.0765 85.2694 7.2851 -6.1035 10.6357
# 4 0.7554 26.9590 7.2851 27.2296 15.3455 4.6173
# 5 18.4525 12.2429 -6.1035 15.3455 24.2561 2.9597
# 6 -4.6607 -16.9193 10.6357 4.6173 2.9597 44.5304
#
#
#
# Elastic Compliance Matrix: (Units=1/GPa)
#
#
# Indices 1 2 3 4 5 6 
#
# 1 0.069360 -0.009899 -0.037380 0.076034 -0.106697 0.011634
# 2 -0.009899 0.007353 0.004406 -0.017262 0.015671 0.001454
# 3 -0.037380 0.004406 0.033710 -0.048049 0.066278 -0.009712
# 4 0.076034 -0.017262 -0.048049 0.152762 -0.158790 0.007589
# 5 -0.106697 0.015671 0.066278 -0.158790 0.234077 -0.020136
# 6 0.011634 0.001454 -0.009712 0.007589 -0.020136 0.027098
#
#
# Mechanical properties :
#
#
# Convention : Reuss Voigt Hill
#
# Bulk Modulus (GPa) = 40.52510 56.35699 48.44105
# Shear Modulus (GPa) = 8.08631 37.89309 22.98970
#
# Velocity S-wave (km/s) = 1.72239 3.72851 2.90417
# Velocity P-wave (km/s) = 4.33854 6.26190 5.38676
#
# Compressibility (1/GPa) = 0.02467606
#
# Stress axis : x y z
#
# Youngs Moduli (GPa) = 14.41757 136.00790 29.66511
#
# Poissons Ratio (x) = 1.34631 1.10889
# Poissons Ratio (y) = 0.14272 -0.13070
# Poissons Ratio (z) = 0.53893 -0.59924
#
# Static dielectric constant tensor:
#      x y z
#    x 2.202360 0.064800 -0.061830 
#    y 0.064800 2.377420 -0.029280 
#    z -0.061830 -0.029280 2.201160 
# 
# From -- ./inp_files/457871.got.cif
#   From: 2010.05.17/outbox.cif.g08.bks.cpg/sg2_229_cif.got.tgz:457871.got - 2010.06.03 11:33:40.
