data_PCOD9077594
_publ_section_title
;
Structure prediction by ZEFSAII (Michael W. Deem and Ramdas Pophale) SiO2 
 PCOD9077594
Probable space group: P -1
;
_chemical_formula_sum "Si O2"
_cell_formula_units_Z 16
_cell_length_a 19.478262
_cell_length_b 11.650345
_cell_length_c 9.530805
_cell_angle_alpha 95.344719
_cell_angle_beta 127.213853
_cell_angle_gamma 130.898585
_cell_volume 758.903042
_symmetry_space_group_name_H-M "P -1"
_symmetry_group_IT_number 2
_symmetry_cell_setting 'triclinic'
loop_
_space_group_symop_operation_xyz
x,y,z
-x,-y,-z
loop_
_atom_site_type_symbol
_atom_site_label
_atom_site_fract_x
_atom_site_fract_y
_atom_site_fract_z
Si Si1 0.733811 0.256427 0.429999
Si Si2 0.131362 0.223660 0.385762
Si Si3 0.827593 0.854561 0.178450
Si Si4 0.681582 0.356762 0.157232
Si Si5 0.208351 0.475602 0.263305
Si Si6 0.407201 0.650297 0.237587
Si Si7 0.708441 0.809555 0.295302
Si Si8 0.183854 0.860944 0.336813
O O1 0.805733 0.407092 0.395801
O O2 0.684250 0.302046 0.479615
O O3 0.869420 0.326188 0.682249
O O4 0.538147 0.949657 0.125681
O O5 0.273436 0.469678 0.689190
O O6 0.168950 0.313243 0.287016
O O7 0.163139 0.127853 0.448134
O O8 0.920100 0.001620 0.162233
O O9 0.767655 0.883038 0.213529
O O10 0.660134 0.560666 0.907656
O O11 0.000000 0.000000 0.500000
O O12 0.699009 0.399080 0.018466
O O13 0.325199 0.586845 0.279919
O O14 0.003308 0.293512 0.962275
O O15 0.639228 0.941862 0.533497
O O16 0.723376 0.947691 0.405391
O O17 0.500000 0.500000 0.000000
#
# Coordination Sequence:
#
# PCOD9077594 Si02
#       8
#     2   2   2   2   2   2   2   2
#     4   9  20  39  62  86 120 156 202 254 294 345
#     4  10  21  38  62  90 119 155 203 243 301 360
#     4  10  18  34  61  87 119 147 195 247 297 349
#     4   9  17  36  65  87 113 153 203 257 289 342
#     4  11  24  41  62  85 125 167 193 245 303 355
#     4  11  21  39  63  92 119 158 202 241 305 360
#     4  11  19  36  62  91 116 156 195 254 301 347
#     4  11  23  38  61  89 126 158 202 239 301 364
#
# _framework density 21.083061000000001
#
# number of rings (size 3 to 8) (size 9 to 14) (size 15 to 20)
#    0.000    1.750    3.750    2.625    0.000    4.000 
#    2.250    1.875    2.750    0.000    0.000    0.000 
#    0.000    0.000    0.000    0.000    0.000    0.000 
#
# Total GULP energy -89227.424721 kJ/mol
# GULP energy per Si atom -5576.714045 kJ/mol
# Density = 2.103508 g / cm^3
# Si number density = 21.083061 Si / 1000 Ang^3
#
#
#
# Elastic Constant Matrix: (Units=GPa)
#
#
# Indices 1 2 3 4 5 6 
#
# 1 96.6726 63.2830 11.5304 -14.3739 -3.3020 16.3673
# 2 63.2830 117.9049 6.2372 -23.4084 -3.6277 11.5036
# 3 11.5304 6.2372 41.3716 0.3024 1.6205 4.7080
# 4 -14.3739 -23.4084 0.3024 31.5566 -2.4456 -6.8614
# 5 -3.3020 -3.6277 1.6205 -2.4456 22.9421 4.9977
# 6 16.3673 11.5036 4.7080 -6.8614 4.9977 43.0678
#
#
#
# Elastic Compliance Matrix: (Units=1/GPa)
#
#
# Indices 1 2 3 4 5 6 
#
# 1 0.017092 -0.008359 -0.003141 0.000917 0.002339 -0.004045
# 2 -0.008359 0.014400 0.000009 0.007066 0.001772 0.000249
# 3 -0.003141 0.000009 0.025335 -0.002196 -0.002108 -0.001684
# 4 0.000917 0.007066 -0.002196 0.038517 0.004728 0.003592
# 5 0.002339 0.001772 -0.002108 0.004728 0.046106 -0.005729
# 6 -0.004045 0.000249 -0.001684 0.003592 -0.005729 0.026111
#
#
# Mechanical properties :
#
#
# Convention : Reuss Voigt Hill
#
# Bulk Modulus (GPa) = 29.54600 46.45004 37.99802
# Shear Modulus (GPa) = 24.77401 31.17321 27.97361
#
# Velocity S-wave (km/s) = 3.43164 3.84942 3.64652
# Velocity P-wave (km/s) = 5.45400 6.46816 5.98261
#
# Compressibility (1/GPa) = 0.03384553
#
# Stress axis : x y z
#
# Youngs Moduli (GPa) = 58.50830 69.44229 39.47036
#
# Poissons Ratio (x) = 0.58046 0.12399
# Poissons Ratio (y) = 0.48906 -0.00036
# Poissons Ratio (z) = 0.18379 -0.00064
#
# Static dielectric constant tensor:
#      x y z
#    x 1.771540 -0.001210 0.026060 
#    y -0.001210 1.792420 -0.039150 
#    z 0.026060 -0.039150 1.858460 
# 
# From -- ./inp_files/177422.got.cif
#   From: 2010.05.17/outbox.cif.g08.bks.cpg/sg2_89_cif.got.tgz:177422.got - 2010.06.03 11:33:40.
