data_PCOD9077463
_publ_section_title
;
Structure prediction by ZEFSAII (Michael W. Deem and Ramdas Pophale) SiO2 
 PCOD9077463
Probable space group: P -1
;
_chemical_formula_sum "Si O2"
_cell_formula_units_Z 14
_cell_length_a 7.998647
_cell_length_b 13.056112
_cell_length_c 17.078696
_cell_angle_alpha 24.860955
_cell_angle_beta 133.940350
_cell_angle_gamma 135.112002
_cell_volume 521.276135
_symmetry_space_group_name_H-M "P -1"
_symmetry_group_IT_number 2
_symmetry_cell_setting 'triclinic'
loop_
_space_group_symop_operation_xyz
x,y,z
-x,-y,-z
loop_
_atom_site_type_symbol
_atom_site_label
_atom_site_fract_x
_atom_site_fract_y
_atom_site_fract_z
Si Si1 0.259078 0.838383 0.233577
Si Si2 0.972798 0.555213 0.861798
Si Si3 0.472971 0.574679 0.627552
Si Si4 0.161676 0.193738 0.074792
Si Si5 0.631564 0.248822 0.259925
Si Si6 0.903974 0.330100 0.438271
Si Si7 0.612108 0.759863 0.303755
O O1 0.394054 0.738426 0.419212
O O2 0.476887 0.951006 0.166262
O O3 0.079856 0.611846 0.284943
O O4 0.110934 0.998794 0.122687
O O5 0.212292 0.748210 0.769832
O O6 0.739411 0.645848 0.699697
O O7 0.972162 0.305177 0.982768
O O8 0.000000 0.500000 0.000000
O O9 0.285251 0.593256 0.619806
O O10 0.443936 0.312300 0.754080
O O11 0.352319 0.122395 0.246649
O O12 0.336938 0.454541 0.915967
O O13 0.772890 0.176276 0.428559
O O14 0.101904 0.193947 0.628713
O O15 0.500000 0.500000 0.500000
#
# Coordination Sequence:
#
# PCOD9077463 Si02
#       7
#     2   2   2   2   2   2   2
#     4  10  19  36  57  86 107 138 187 231 261 312
#     4  10  19  36  57  77 105 151 180 213 272 338
#     4  10  19  33  57  81 113 147 176 217 277 326
#     4   9  21  36  58  78 112 139 187 225 266 317
#     4   9  19  38  57  74 109 147 182 210 286 319
#     4  10  18  34  60  80 111 148 177 217 275 329
#     4   8  16  31  52  79 107 139 174 219 270 315
#
# _framework density 26.857168999999999
#
# number of rings (size 3 to 8) (size 9 to 14) (size 15 to 20)
#    0.857    2.000    0.000    5.143    0.000    0.571 
#    0.000    9.286    0.000    0.000    0.000    0.000 
#    0.000    0.000    0.000    0.000    0.000    0.000 
#
# Total GULP energy -78101.845800 kJ/mol
# GULP energy per Si atom -5578.703271 kJ/mol
# Density = 2.679604 g / cm^3
# Si number density = 26.857169 Si / 1000 Ang^3
#
#
#
# Elastic Constant Matrix: (Units=GPa)
#
#
# Indices 1 2 3 4 5 6 
#
# 1 199.3628 39.7110 40.2734 20.7771 40.9909 -23.2102
# 2 39.7110 87.6042 24.3508 2.3903 10.8685 -17.6223
# 3 40.2734 24.3508 81.7430 22.8258 12.4696 2.2308
# 4 20.7771 2.3903 22.8258 41.3442 -2.6273 14.0215
# 5 40.9909 10.8685 12.4696 -2.6273 45.6791 7.5845
# 6 -23.2102 -17.6223 2.2308 14.0215 7.5845 52.4646
#
#
#
# Elastic Compliance Matrix: (Units=1/GPa)
#
#
# Indices 1 2 3 4 5 6 
#
# 1 0.008650 -0.001088 -0.000974 -0.006502 -0.008691 0.006497
# 2 -0.001088 0.014096 -0.003411 -0.000142 -0.002245 0.004761
# 3 -0.000974 -0.003411 0.016762 -0.009003 -0.003512 0.000625
# 4 -0.006502 -0.000142 -0.009003 0.038218 0.012953 -0.014628
# 5 -0.008691 -0.002245 -0.003512 0.012953 0.034060 -0.012835
# 6 0.006497 0.004761 0.000625 -0.014628 -0.012835 0.029272
#
#
# Mechanical properties :
#
#
# Convention : Reuss Voigt Hill
#
# Bulk Modulus (GPa) = 35.00971 64.15337 49.58154
# Shear Modulus (GPa) = 30.95514 45.52256 38.23885
#
# Velocity S-wave (km/s) = 3.39866 4.12149 3.77740
# Velocity P-wave (km/s) = 5.33526 6.82551 6.12587
#
# Compressibility (1/GPa) = 0.02856351
#
# Stress axis : x y z
#
# Youngs Moduli (GPa) = 115.60311 70.93979 59.65952
#
# Poissons Ratio (x) = 0.07719 0.05809
# Poissons Ratio (y) = 0.12578 0.20349
# Poissons Ratio (z) = 0.11255 0.24196
#
# Static dielectric constant tensor:
#      x y z
#    x 2.114030 0.032300 -0.042930 
#    y 0.032300 2.163610 -0.119410 
#    z -0.042930 -0.119410 2.366400 
# 
# From -- ./inp_files/558406.got.cif
#   From: 2010.05.17/outbox.cif.g08.bks.cpg/sg2_280_cif.got.tgz:558406.got - 2010.06.03 11:33:40.
