data_PCOD9077190
_publ_section_title
;
Structure prediction by ZEFSAII (Michael W. Deem and Ramdas Pophale) SiO2 
 PCOD9077190
Probable space group: P -1
;
_chemical_formula_sum "Si O2"
_cell_formula_units_Z 16
_cell_length_a 14.245132
_cell_length_b 17.777362
_cell_length_c 8.954866
_cell_angle_alpha 58.362661
_cell_angle_beta 98.955737
_cell_angle_gamma 146.757941
_cell_volume 841.540643
_symmetry_space_group_name_H-M "P -1"
_symmetry_group_IT_number 2
_symmetry_cell_setting 'triclinic'
loop_
_space_group_symop_operation_xyz
x,y,z
-x,-y,-z
loop_
_atom_site_type_symbol
_atom_site_label
_atom_site_fract_x
_atom_site_fract_y
_atom_site_fract_z
Si Si1 0.510084 0.087433 0.197210
Si Si2 0.810232 0.493484 0.306185
Si Si3 0.703858 0.581397 0.027548
Si Si4 0.201512 0.152099 0.280061
Si Si5 0.954144 0.294082 0.550389
Si Si6 0.037353 0.530223 0.153983
Si Si7 0.009143 0.806320 0.594689
Si Si8 0.576916 0.940812 0.452293
O O1 0.502366 0.118299 0.332707
O O2 0.559077 0.023577 0.293378
O O3 0.716836 0.292897 0.946166
O O4 0.289555 0.931849 0.226467
O O5 0.893856 0.561952 0.423610
O O6 0.578848 0.254876 0.470906
O O7 0.970548 0.565920 0.173847
O O8 0.799287 0.583496 0.149077
O O9 0.777260 0.741601 0.925715
O O10 0.805183 0.655003 0.808663
O O11 0.444119 0.353241 0.198924
O O12 0.135750 0.999680 0.367736
O O13 0.000000 0.000000 0.500000
O O14 0.905602 0.342544 0.393818
O O15 0.043334 0.297276 0.452924
O O16 0.000000 0.500000 0.000000
O O17 0.182993 0.896952 0.642463
#
# Coordination Sequence:
#
# PCOD9077190 Si02
#       8
#     2   2   2   2   2   2   2   2
#     4  10  20  36  54  78 110 156 198 233 269 334
#     4  12  22  37  55  84 121 150 184 244 289 329
#     4  10  20  37  64  88 110 144 192 230 282 342
#     4   9  19  37  64  94 109 135 190 242 275 332
#     4  11  25  37  51  86 123 149 189 237 287 327
#     4  12  21  37  60  79 110 161 205 231 276 330
#     4  10  20  37  61  84 111 151 192 232 273 342
#     4  10  18  34  57  80 112 150 195 236 275 320
#
# _framework density 19.012747999999998
#
# number of rings (size 3 to 8) (size 9 to 14) (size 15 to 20)
#    0.000    1.500    3.750    3.375    0.000    0.500 
#    2.250    0.625    0.000    6.750    0.000    0.000 
#    0.000    0.000    0.000    0.000    0.000    0.000 
#
# Total GULP energy -89205.592021 kJ/mol
# GULP energy per Si atom -5575.349501 kJ/mol
# Density = 1.896947 g / cm^3
# Si number density = 19.012748 Si / 1000 Ang^3
#
#
#
# Elastic Constant Matrix: (Units=GPa)
#
#
# Indices 1 2 3 4 5 6 
#
# 1 86.4673 30.0246 24.8788 6.4120 9.1588 -3.4562
# 2 30.0246 108.1699 30.0811 3.4971 4.0336 -12.7400
# 3 24.8788 30.0811 61.2594 -9.8091 -5.5787 3.1722
# 4 6.4120 3.4971 -9.8091 22.1829 11.4865 -5.5679
# 5 9.1588 4.0336 -5.5787 11.4865 36.3694 -12.2664
# 6 -3.4562 -12.7400 3.1722 -5.5679 -12.2664 14.0159
#
#
#
# Elastic Compliance Matrix: (Units=1/GPa)
#
#
# Indices 1 2 3 4 5 6 
#
# 1 0.014757 -0.002465 -0.005815 -0.005248 -0.003497 -0.002431
# 2 -0.002465 0.013524 -0.006475 -0.002509 0.004284 0.015903
# 3 -0.005815 -0.006475 0.024101 0.011524 -0.000744 -0.008848
# 4 -0.005248 -0.002509 0.011524 0.060719 -0.013847 0.005819
# 5 -0.003497 0.004284 -0.000744 -0.013847 0.044528 0.036669
# 6 -0.002431 0.015903 -0.008848 0.005819 0.036669 0.121609
#
#
# Mechanical properties :
#
#
# Convention : Reuss Voigt Hill
#
# Bulk Modulus (GPa) = 43.72412 47.31840 45.52126
# Shear Modulus (GPa) = 15.80421 25.90777 20.85599
#
# Velocity S-wave (km/s) = 2.88626 3.69542 3.31561
# Velocity P-wave (km/s) = 5.84418 6.56886 6.21709
#
# Compressibility (1/GPa) = 0.02287067
#
# Stress axis : x y z
#
# Youngs Moduli (GPa) = 67.76599 73.94294 41.49220
#
# Poissons Ratio (x) = 0.18227 0.24130
# Poissons Ratio (y) = 0.16704 0.26866
# Poissons Ratio (z) = 0.39409 0.47878
#
# Static dielectric constant tensor:
#      x y z
#    x 1.699150 0.002530 0.005010 
#    y 0.002530 1.656040 -0.047390 
#    z 0.005010 -0.047390 1.686180 
# 
# From -- ./inp_files/207575.got.cif
#   From: 2010.05.17/outbox.cif.g08.bks.cpg/sg2_104_cif.got.tgz:207575.got - 2010.06.03 11:33:40.
