data_PCOD9077391
_publ_section_title
;
Structure prediction by ZEFSAII (Michael W. Deem and Ramdas Pophale) SiO2 
 PCOD9077391
Probable space group: P -1
;
_chemical_formula_sum "Si O2"
_cell_formula_units_Z 16
_cell_length_a 15.452295
_cell_length_b 15.370195
_cell_length_c 8.358656
_cell_angle_alpha 105.429314
_cell_angle_beta 78.397681
_cell_angle_gamma 37.156682
_cell_volume 814.406367
_symmetry_space_group_name_H-M "P -1"
_symmetry_group_IT_number 2
_symmetry_cell_setting 'triclinic'
loop_
_space_group_symop_operation_xyz
x,y,z
-x,-y,-z
loop_
_atom_site_type_symbol
_atom_site_label
_atom_site_fract_x
_atom_site_fract_y
_atom_site_fract_z
Si Si1 0.505978 0.280951 0.960602
Si Si2 0.703812 0.882315 0.175104
Si Si3 0.143465 0.682784 0.067913
Si Si4 0.856074 0.500154 0.213203
Si Si5 0.489909 0.905980 0.325845
Si Si6 0.824425 0.093806 0.560425
Si Si7 0.471374 0.267156 0.334060
Si Si8 0.480818 0.442897 0.614464
O O1 0.544306 0.148082 0.799741
O O2 0.696106 0.169113 0.789504
O O3 0.306920 0.504801 0.056432
O O4 0.475499 0.297944 0.167744
O O5 0.546116 0.946012 0.233472
O O6 0.684799 0.917751 0.391044
O O7 0.634591 0.037937 0.191177
O O8 0.930420 0.646626 0.926227
O O9 0.096468 0.637755 0.960221
O O10 0.266431 0.637964 0.883824
O O11 0.941783 0.908619 0.328299
O O12 0.688019 0.702290 0.263123
O O13 0.743083 0.579835 0.458605
O O14 0.658770 0.291495 0.603140
O O15 0.000000 0.000000 0.500000
O O16 0.503846 0.321787 0.468551
O O17 0.500000 0.500000 0.500000
#
# Coordination Sequence:
#
# PCOD9077391 Si02
#       8
#     2   2   2   2   2   2   2   2
#     4  10  22  39  56  81 123 150 186 238 296 337
#     4  10  18  34  59  83 114 144 198 236 273 341
#     4   9  20  38  58  78 112 151 186 234 282 344
#     4   9  17  35  56  80 109 147 193 229 280 336
#     4   9  19  34  58  85 108 154 188 233 287 337
#     4  11  24  39  61  88 110 150 199 235 288 350
#     4  10  22  36  55  83 114 156 183 235 294 337
#     4  10  23  40  60  82 116 150 190 240 288 341
#
# _framework density 19.64621
#
# number of rings (size 3 to 8) (size 9 to 14) (size 15 to 20)
#    0.000    2.250    0.000    4.125    3.500    3.000 
#    2.250    0.625    0.000    0.000    0.000    0.000 
#    0.000    0.000    0.000    0.000    0.000    0.000 
#
# Total GULP energy -89337.676007 kJ/mol
# GULP energy per Si atom -5583.604750 kJ/mol
# Density = 1.960149 g / cm^3
# Si number density = 19.646210 Si / 1000 Ang^3
#
#
#
# Elastic Constant Matrix: (Units=GPa)
#
#
# Indices 1 2 3 4 5 6 
#
# 1 46.1253 14.1094 4.0170 -7.0024 -19.4803 2.0694
# 2 14.1094 48.5062 35.5384 -22.3218 -19.3243 7.8910
# 3 4.0170 35.5384 93.7793 -10.6262 -21.1529 -4.3109
# 4 -7.0024 -22.3218 -10.6262 29.7234 4.9496 0.3404
# 5 -19.4803 -19.3243 -21.1529 4.9496 29.2893 1.0741
# 6 2.0694 7.8910 -4.3109 0.3404 1.0741 25.0492
#
#
#
# Elastic Compliance Matrix: (Units=1/GPa)
#
#
# Indices 1 2 3 4 5 6 
#
# 1 0.032355 -0.000708 0.004649 0.004839 0.023692 -0.002732
# 2 -0.000708 0.063150 -0.015119 0.038009 0.024732 -0.024014
# 3 0.004649 -0.015119 0.017348 -0.005181 0.006258 0.007166
# 4 0.004839 0.038009 -0.005181 0.059129 0.015101 -0.014716
# 5 0.023692 0.024732 0.006258 0.015101 0.068619 -0.011819
# 6 -0.002732 -0.024014 0.007166 -0.014716 -0.011819 0.049652
#
#
# Mechanical properties :
#
#
# Convention : Reuss Voigt Hill
#
# Bulk Modulus (GPa) = 11.05013 32.86006 21.95509
# Shear Modulus (GPa) = 14.58687 25.79543 20.19115
#
# Velocity S-wave (km/s) = 2.72780 3.62746 3.20931
# Velocity P-wave (km/s) = 3.94436 5.85721 4.99324
#
# Compressibility (1/GPa) = 0.09049669
#
# Stress axis : x y z
#
# Youngs Moduli (GPa) = 30.90724 15.83534 57.64458
#
# Poissons Ratio (x) = 0.01120 -0.26799
# Poissons Ratio (y) = 0.02187 0.87155
# Poissons Ratio (z) = -0.14369 0.23942
#
# Static dielectric constant tensor:
#      x y z
#    x 1.721660 0.021760 0.001890 
#    y 0.021760 1.669590 0.009470 
#    z 0.001890 0.009470 1.688320 
# 
# From -- ./inp_files/51658.got.cif
#   From: 2010.05.17/outbox.cif.g08.bks.cpg/sg2_26_cif.got.tgz:51658.got - 2010.06.03 11:33:40.
