data_PCOD9077250
_publ_section_title
;
Structure prediction by ZEFSAII (Michael W. Deem and Ramdas Pophale) SiO2 
 PCOD9077250
Probable space group: P -1
;
_chemical_formula_sum "Si O2"
_cell_formula_units_Z 16
_cell_length_a 16.436396
_cell_length_b 13.127824
_cell_length_c 13.423624
_cell_angle_alpha 145.845897
_cell_angle_beta 152.949685
_cell_angle_gamma 25.395060
_cell_volume 560.971010
_symmetry_space_group_name_H-M "P -1"
_symmetry_group_IT_number 2
_symmetry_cell_setting 'triclinic'
loop_
_space_group_symop_operation_xyz
x,y,z
-x,-y,-z
loop_
_atom_site_type_symbol
_atom_site_label
_atom_site_fract_x
_atom_site_fract_y
_atom_site_fract_z
Si Si1 0.667863 0.534001 0.442147
Si Si2 0.853328 0.266764 0.017449
Si Si3 0.160664 0.509406 0.010203
Si Si4 0.465640 0.053034 0.671508
Si Si5 0.287257 0.498931 0.747209
Si Si6 0.289098 0.767017 0.591166
Si Si7 0.230258 0.107380 0.962303
Si Si8 0.275941 0.060649 0.664088
O O1 0.408836 0.627168 0.209685
O O2 0.627844 0.773683 0.601734
O O3 0.810604 0.394871 0.383810
O O4 0.747434 0.396851 0.522448
O O5 0.936361 0.308817 0.041942
O O6 0.852134 0.399632 0.218857
O O7 0.000000 0.000000 0.000000
O O8 0.997296 0.652568 0.043074
O O9 0.177398 0.292297 0.810843
O O10 0.426081 0.400866 0.232034
O O11 0.620826 0.079532 0.935093
O O12 0.266061 0.105549 0.571281
O O13 0.383683 0.229192 0.634618
O O14 0.500000 0.500000 0.000000
O O15 0.218976 0.899633 0.515042
O O16 0.190118 0.981058 0.735079
O O17 0.434499 0.105734 0.142685
#
# Coordination Sequence:
#
# PCOD9077250 Si02
#       8
#     2   2   2   2   2   2   2   2
#     4  10  22  36  58  79 117 149 185 230 288 341
#     4  10  21  34  57  86 107 146 190 239 279 332
#     4  10  18  34  57  87 111 138 194 243 275 327
#     4  10  20  38  54  84 110 156 182 229 293 333
#     4  10  19  37  59  77 109 145 190 229 277 332
#     4  10  20  37  56  87 109 152 193 232 276 328
#     4   9  19  32  60  80 111 144 188 233 282 327
#     4   9  20  35  58  84 115 145 193 233 279 333
#
# _framework density 28.521972000000002
#
# number of rings (size 3 to 8) (size 9 to 14) (size 15 to 20)
#    0.750    1.500    1.250    3.375    5.250    2.500 
#    0.000    1.875    0.000    0.750    0.000    0.000 
#    0.000    0.000    0.000    0.000    0.000    0.000 
#
# Total GULP energy -89582.515848 kJ/mol
# GULP energy per Si atom -5598.907240 kJ/mol
# Density = 2.845705 g / cm^3
# Si number density = 28.521972 Si / 1000 Ang^3
#
#
#
# Elastic Constant Matrix: (Units=GPa)
#
#
# Indices 1 2 3 4 5 6 
#
# 1 173.1512 70.9596 35.7967 24.3053 16.5301 14.1590
# 2 70.9596 139.9361 22.1573 27.2169 10.2430 9.6837
# 3 35.7967 22.1573 80.8115 4.1232 1.7242 4.4586
# 4 24.3053 27.2169 4.1232 51.4882 0.9111 5.0564
# 5 16.5301 10.2430 1.7242 0.9111 45.9231 2.9128
# 6 14.1590 9.6837 4.4586 5.0564 2.9128 81.1808
#
#
#
# Elastic Compliance Matrix: (Units=1/GPa)
#
#
# Indices 1 2 3 4 5 6 
#
# 1 0.008105 -0.003148 -0.002550 -0.001852 -0.002038 -0.000710
# 2 -0.003148 0.009674 -0.001044 -0.003499 -0.000897 -0.000298
# 3 -0.002550 -0.001044 0.013757 0.000667 0.000637 -0.000251
# 4 -0.001852 -0.003499 0.000667 0.022144 0.001028 -0.000712
# 5 -0.002038 -0.000897 0.000637 0.001028 0.022693 -0.000451
# 6 -0.000710 -0.000298 -0.000251 -0.000712 -0.000451 0.012552
#
#
# Mechanical properties :
#
#
# Convention : Reuss Voigt Hill
#
# Bulk Modulus (GPa) = 55.39482 72.41399 63.90440
# Shear Modulus (GPa) = 46.11406 53.38412 49.74909
#
# Velocity S-wave (km/s) = 4.02530 4.33099 4.18094
# Velocity P-wave (km/s) = 6.40843 7.10309 6.76468
#
# Compressibility (1/GPa) = 0.01805223
#
# Stress axis : x y z
#
# Youngs Moduli (GPa) = 123.38067 103.36484 72.69264
#
# Poissons Ratio (x) = 0.32536 0.18537
# Poissons Ratio (y) = 0.38836 0.07590
# Poissons Ratio (z) = 0.31463 0.10793
#
# Static dielectric constant tensor:
#      x y z
#    x 2.209510 -0.090550 0.019780 
#    y -0.090550 2.283910 -0.071770 
#    z 0.019780 -0.071770 2.238560 
# 
# From -- ./inp_files/532063.got.cif
#   From: 2010.05.17/outbox.cif.g08.bks.cpg/sg2_267_cif.got.tgz:532063.got - 2010.06.03 11:33:40.
