data_PCOD9077535
_publ_section_title
;
Structure prediction by ZEFSAII (Michael W. Deem and Ramdas Pophale) SiO2 
 PCOD9077535
Probable space group: P -1
;
_chemical_formula_sum "Si O2"
_cell_formula_units_Z 14
_cell_length_a 15.872457
_cell_length_b 5.214479
_cell_length_c 19.449850
_cell_angle_alpha 73.761883
_cell_angle_beta 159.304623
_cell_angle_gamma 106.446864
_cell_volume 545.105090
_symmetry_space_group_name_H-M "P -1"
_symmetry_group_IT_number 2
_symmetry_cell_setting 'triclinic'
loop_
_space_group_symop_operation_xyz
x,y,z
-x,-y,-z
loop_
_atom_site_type_symbol
_atom_site_label
_atom_site_fract_x
_atom_site_fract_y
_atom_site_fract_z
Si Si1 0.049604 0.783322 0.235781
Si Si2 0.008346 0.760053 0.578644
Si Si3 0.522036 0.886380 0.949273
Si Si4 0.713056 0.486482 0.798551
Si Si5 0.263584 0.712726 0.019324
Si Si6 0.750283 0.055699 0.765629
Si Si7 0.056226 0.806171 0.387834
O O1 0.883846 0.507229 0.122723
O O2 0.177156 0.805037 0.405567
O O3 0.191764 0.798592 0.271942
O O4 0.898603 0.050212 0.097069
O O5 0.285489 0.696188 0.779008
O O6 0.880590 0.462624 0.503582
O O7 0.941483 0.921607 0.585700
O O8 0.000000 0.000000 0.500000
O O9 0.779455 0.769809 0.153506
O O10 0.500000 0.000000 0.000000
O O11 0.535331 0.125670 0.885063
O O12 0.607347 0.238414 0.692910
O O13 0.633941 0.762456 0.688919
O O14 0.665856 0.437877 0.846401
O O15 0.000000 0.500000 0.000000
O O16 0.000000 0.000000 0.000000
#
# Coordination Sequence:
#
# PCOD9077535 Si02
#       7
#     2   2   2   2   2   2   2
#     4  11  17  27  44  68  99 135 159 200 245 308
#     4  11  22  39  56  73 101 137 175 214 255 306
#     4   9  20  35  52  76 105 134 167 211 261 305
#     4  10  15  24  36  59  94 132 158 187 240 301
#     4  11  18  26  43  66  97 137 160 197 247 303
#     4  10  15  24  37  59  97 134 155 187 245 297
#     4  10  21  35  54  79 102 133 170 211 262 304
#
# _framework density 25.683122000000001
#
# number of rings (size 3 to 8) (size 9 to 14) (size 15 to 20)
#    0.000    1.714    5.714    3.429    0.000    3.429 
#    0.000    0.000    0.000    0.000    0.000    0.000 
#    0.000    6.857    0.000    0.000    0.000    0.000 
#
# Total GULP energy -78138.860255 kJ/mol
# GULP energy per Si atom -5581.347161 kJ/mol
# Density = 2.562467 g / cm^3
# Si number density = 25.683122 Si / 1000 Ang^3
#
#
#
# Elastic Constant Matrix: (Units=GPa)
#
#
# Indices 1 2 3 4 5 6 
#
# 1 144.7961 17.8971 9.4110 23.7419 -23.0541 9.8214
# 2 17.8971 143.2633 -5.3519 15.3075 -2.3322 -9.8871
# 3 9.4110 -5.3519 32.5436 2.8350 7.1716 1.6210
# 4 23.7419 15.3075 2.8350 11.2670 2.4249 -7.5537
# 5 -23.0541 -2.3322 7.1716 2.4249 31.4313 -3.2951
# 6 9.8214 -9.8871 1.6210 -7.5537 -3.2951 55.7537
#
#
#
# Elastic Compliance Matrix: (Units=1/GPa)
#
#
# Indices 1 2 3 4 5 6 
#
# 1 0.018851 0.002766 -0.003993 -0.052209 0.018057 -0.008720
# 2 0.002766 0.008787 0.001643 -0.019957 0.003693 -0.001462
# 3 -0.003993 0.001643 0.034616 -0.000717 -0.010728 -0.000743
# 4 -0.052209 -0.019957 -0.000717 0.263642 -0.055958 0.038091
# 5 0.018057 0.003693 -0.010728 -0.055958 0.051390 -0.006758
# 6 -0.008720 -0.001462 -0.000743 0.038091 -0.006758 0.023996
#
#
# Mechanical properties :
#
#
# Convention : Reuss Voigt Hill
#
# Bulk Modulus (GPa) = 15.85120 40.50171 28.17645
# Shear Modulus (GPa) = 11.86297 39.60019 25.73158
#
# Velocity S-wave (km/s) = 2.15151 3.93093 3.16869
# Velocity P-wave (km/s) = 3.51529 6.03382 4.93782
#
# Compressibility (1/GPa) = 0.06308672
#
# Stress axis : x y z
#
# Youngs Moduli (GPa) = 53.04802 113.79878 28.88802
#
# Poissons Ratio (x) = -0.31482 0.11535
# Poissons Ratio (y) = -0.14675 -0.04745
# Poissons Ratio (z) = 0.21183 -0.18693
#
# Static dielectric constant tensor:
#      x y z
#    x 0.906700 -1.480070 -1.542060 
#    y -1.480070 0.140310 -2.010950 
#    z -1.542060 -2.010950 0.053300 
# 
# From -- ./inp_files/43035.got.cif
#   From: 2010.05.17/outbox.cif.g08.bks.cpg/sg2_22_cif.got.tgz:43035.got - 2010.06.03 11:33:40.
