data_PCOD9077199
_publ_section_title
;
Structure prediction by ZEFSAII (Michael W. Deem and Ramdas Pophale) SiO2 
 PCOD9077199
Probable space group: P -1
;
_chemical_formula_sum "Si O2"
_cell_formula_units_Z 14
_cell_length_a 13.768094
_cell_length_b 11.634443
_cell_length_c 12.755653
_cell_angle_alpha 59.944948
_cell_angle_beta 149.087218
_cell_angle_gamma 138.116019
_cell_volume 641.647343
_symmetry_space_group_name_H-M "P -1"
_symmetry_group_IT_number 2
_symmetry_cell_setting 'triclinic'
loop_
_space_group_symop_operation_xyz
x,y,z
-x,-y,-z
loop_
_atom_site_type_symbol
_atom_site_label
_atom_site_fract_x
_atom_site_fract_y
_atom_site_fract_z
Si Si1 0.661880 0.448669 0.711469
Si Si2 0.566560 0.432680 0.872784
Si Si3 0.315603 0.305252 0.984900
Si Si4 0.137425 0.819315 0.883953
Si Si5 0.605297 0.232248 0.183760
Si Si6 0.829097 0.944218 0.569808
Si Si7 0.961754 0.230188 0.416665
O O1 0.500000 0.500000 0.500000
O O2 0.651575 0.436659 0.833317
O O3 0.472383 0.236022 0.590731
O O4 0.961536 0.621660 0.869674
O O5 0.271030 0.350185 0.633496
O O6 0.738614 0.640358 0.984710
O O7 0.563730 0.310060 0.009518
O O8 0.500000 0.500000 0.000000
O O9 0.499614 0.264401 0.169694
O O10 0.036554 0.124654 0.754867
O O11 0.966146 0.871176 0.706358
O O12 0.160372 0.790340 0.797899
O O13 0.415163 0.008887 0.100430
O O14 0.897617 0.313759 0.403523
O O15 0.831560 0.028988 0.427099
#
# Coordination Sequence:
#
# PCOD9077199 Si02
#       7
#     2   2   2   2   2   2   2
#     4  10  20  34  62  81 108 153 188 219 278 333
#     4  11  20  39  58  83 114 145 181 232 278 323
#     4   9  18  36  55  83 114 139 182 233 274 323
#     4  10  19  36  54  85 115 141 191 226 272 333
#     4  10  22  35  56  89 111 141 188 229 276 330
#     4  10  18  34  57  81 112 143 182 231 270 323
#     4  12  19  33  62  82 112 147 182 229 281 318
#
# _framework density 21.818838
#
# number of rings (size 3 to 8) (size 9 to 14) (size 15 to 20)
#    0.000    1.714    7.143    1.714    0.000    0.571 
#    0.000    9.286    0.000    0.000    0.000    7.000 
#    0.000    0.000    0.000    0.000    0.000    0.000 
#
# Total GULP energy -78081.323860 kJ/mol
# GULP energy per Si atom -5577.237419 kJ/mol
# Density = 2.176918 g / cm^3
# Si number density = 21.818838 Si / 1000 Ang^3
#
#
#
# Elastic Constant Matrix: (Units=GPa)
#
#
# Indices 1 2 3 4 5 6 
#
# 1 37.9554 39.6720 27.2929 14.7177 2.9427 -6.9011
# 2 39.6720 116.7097 40.7970 28.7525 -1.8281 1.6698
# 3 27.2929 40.7970 59.7050 19.7373 10.9036 -6.3307
# 4 14.7177 28.7525 19.7373 39.6503 -5.9844 0.3464
# 5 2.9427 -1.8281 10.9036 -5.9844 26.5255 0.7374
# 6 -6.9011 1.6698 -6.3307 0.3464 0.7374 31.8614
#
#
#
# Elastic Compliance Matrix: (Units=1/GPa)
#
#
# Indices 1 2 3 4 5 6 
#
# 1 0.051816 -0.012403 -0.012076 -0.004762 -0.002980 0.009595
# 2 -0.012403 0.015509 -0.004912 -0.003588 0.003780 -0.004524
# 3 -0.012076 -0.004912 0.032149 -0.010208 -0.014642 0.004480
# 4 -0.004762 -0.003588 -0.010208 0.036641 0.012843 -0.003567
# 5 -0.002980 0.003780 -0.014642 0.012843 0.047345 -0.004988
# 6 0.009595 -0.004524 0.004480 -0.003567 -0.004988 0.034745
#
#
# Mechanical properties :
#
#
# Convention : Reuss Voigt Hill
#
# Bulk Modulus (GPa) = 24.57418 47.76599 36.17009
# Shear Modulus (GPa) = 17.20871 26.71466 21.96168
#
# Velocity S-wave (km/s) = 2.81144 3.50292 3.17605
# Velocity P-wave (km/s) = 4.67185 6.18871 5.48299
#
# Compressibility (1/GPa) = 0.04069312
#
# Stress axis : x y z
#
# Youngs Moduli (GPa) = 19.29899 64.47877 31.10530
#
# Poissons Ratio (x) = 0.79973 0.37562
# Poissons Ratio (y) = 0.23936 0.15278
# Poissons Ratio (z) = 0.23305 0.31670
#
# Static dielectric constant tensor:
#      x y z
#    x 1.826190 -0.023130 -0.005330 
#    y -0.023130 1.820310 0.020260 
#    z -0.005330 0.020260 1.933050 
# 
# From -- ./inp_files/170610.got.cif
#   From: 2010.05.17/outbox.cif.g08.bks.cpg/sg2_86_cif.got.tgz:170610.got - 2010.06.03 11:33:40.
