data_PCOD9077690
_publ_section_title
;
Structure prediction by ZEFSAII (Michael W. Deem and Ramdas Pophale) SiO2 
 PCOD9077690
Probable space group: P -1
;
_chemical_formula_sum "Si O2"
_cell_formula_units_Z 15
_cell_length_a 8.025646
_cell_length_b 9.053819
_cell_length_c 11.844842
_cell_angle_alpha 69.413583
_cell_angle_beta 55.558316
_cell_angle_gamma 57.334522
_cell_volume 596.204455
_symmetry_space_group_name_H-M "P -1"
_symmetry_group_IT_number 2
_symmetry_cell_setting 'triclinic'
loop_
_space_group_symop_operation_xyz
x,y,z
-x,-y,-z
loop_
_atom_site_type_symbol
_atom_site_label
_atom_site_fract_x
_atom_site_fract_y
_atom_site_fract_z
Si Si1 0.619268 0.369977 0.092200
Si Si2 0.000000 0.000000 0.000000
Si Si3 0.560366 0.862434 0.347194
Si Si4 0.716239 0.791182 0.768038
Si Si5 0.492292 0.361300 0.746867
Si Si6 0.938831 0.360924 0.496208
Si Si7 0.202733 0.999242 0.628108
Si Si8 0.232461 0.006047 0.128226
O O1 0.442975 0.288097 0.200765
O O2 0.636468 0.477846 0.163993
O O3 0.500000 0.500000 0.000000
O O4 0.856033 0.213316 0.013049
O O5 0.199237 0.998265 0.010898
O O6 0.635796 0.693520 0.285952
O O7 0.743704 0.930587 0.292895
O O8 0.369755 0.017363 0.307460
O O9 0.429476 0.866193 0.513452
O O10 0.963442 0.668106 0.659503
O O11 0.697612 0.846768 0.891052
O O12 0.682492 0.398214 0.598969
O O13 0.626804 0.189069 0.821329
O O14 0.000000 0.500000 0.500000
O O15 0.080756 0.174778 0.554374
O O16 0.020787 0.930939 0.741602
#
# Coordination Sequence:
#
# PCOD9077690 Si02
#       8
#     2   1   2   2   2   2   2   2
#     4  12  25  46  66  93 132 174 221 278 321 380
#     4  12  26  44  66  88 128 178 224 266 326 372
#     4   9  18  36  63  96 125 171 204 266 329 394
#     4  10  21  39  68  94 126 169 217 261 336 393
#     4  10  20  40  66  94 131 166 217 267 328 387
#     4  10  18  34  62  93 127 168 204 262 328 396
#     4   9  18  34  61  91 133 162 212 259 328 390
#     4  10  21  41  64  92 123 172 218 272 315 391
#
# _framework density 25.159155999999999
#
# number of rings (size 3 to 8) (size 9 to 14) (size 15 to 20)
#    0.000    1.867    2.667    1.600    0.000    3.733 
#    4.800    1.333    0.000    0.000    0.000    0.000 
#    0.000    0.000    0.000    0.000    0.000    0.000 
#
# Total GULP energy -83671.508522 kJ/mol
# GULP energy per Si atom -5578.100568 kJ/mol
# Density = 2.510189 g / cm^3
# Si number density = 25.159156 Si / 1000 Ang^3
#
#
#
# Elastic Constant Matrix: (Units=GPa)
#
#
# Indices 1 2 3 4 5 6 
#
# 1 102.0790 40.4973 20.7521 16.7426 15.5652 27.9495
# 2 40.4973 123.2923 43.8790 34.9706 12.5466 11.0143
# 3 20.7521 43.8790 65.9649 17.9624 7.9797 13.9122
# 4 16.7426 34.9706 17.9624 41.0318 16.3825 12.2844
# 5 15.5652 12.5466 7.9797 16.3825 40.5857 13.0181
# 6 27.9495 11.0143 13.9122 12.2844 13.0181 51.9055
#
#
#
# Elastic Compliance Matrix: (Units=1/GPa)
#
#
# Indices 1 2 3 4 5 6 
#
# 1 0.013128 -0.003559 -0.000406 0.000453 -0.002189 -0.005763
# 2 -0.003559 0.013605 -0.006245 -0.008569 0.001054 0.002467
# 3 -0.000406 -0.006245 0.020882 -0.002687 0.000176 -0.003461
# 4 0.000453 -0.008569 -0.002687 0.038323 -0.011193 -0.003968
# 5 -0.002189 0.001054 0.000176 -0.011193 0.030988 -0.004215
# 6 -0.005763 0.002467 -0.003461 -0.003968 -0.004215 0.024770
#
#
# Mechanical properties :
#
#
# Convention : Reuss Voigt Hill
#
# Bulk Modulus (GPa) = 36.76999 55.73255 46.25127
# Shear Modulus (GPa) = 29.20906 39.11844 34.16375
#
# Velocity S-wave (km/s) = 3.41100 3.94742 3.68897
# Velocity P-wave (km/s) = 5.49180 6.55563 6.04716
#
# Compressibility (1/GPa) = 0.02719609
#
# Stress axis : x y z
#
# Youngs Moduli (GPa) = 76.17231 73.50245 47.88875
#
# Poissons Ratio (x) = 0.26157 0.01944
# Poissons Ratio (y) = 0.27107 0.29905
# Poissons Ratio (z) = 0.03093 0.45901
#
# Static dielectric constant tensor:
#      x y z
#    x 2.006710 -0.078900 0.122620 
#    y -0.078900 2.142180 -0.121620 
#    z 0.122620 -0.121620 2.093590 
# 
# From -- ./inp_files/171741.got.cif
#   From: 2010.05.17/outbox.cif.g08.bks.cpg/sg2_86_cif.got.tgz:171741.got - 2010.06.03 11:33:40.
