data_PCOD9077093
_publ_section_title
;
Structure prediction by ZEFSAII (Michael W. Deem and Ramdas Pophale) SiO2 
 PCOD9077093
Probable space group: P -1
;
_chemical_formula_sum "Si O2"
_cell_formula_units_Z 16
_cell_length_a 12.796777
_cell_length_b 10.410170
_cell_length_c 15.042809
_cell_angle_alpha 135.559509
_cell_angle_beta 141.529680
_cell_angle_gamma 33.632665
_cell_volume 679.183524
_symmetry_space_group_name_H-M "P -1"
_symmetry_group_IT_number 2
_symmetry_cell_setting 'triclinic'
loop_
_space_group_symop_operation_xyz
x,y,z
-x,-y,-z
loop_
_atom_site_type_symbol
_atom_site_label
_atom_site_fract_x
_atom_site_fract_y
_atom_site_fract_z
Si Si1 0.137503 0.044630 0.056201
Si Si2 0.591765 0.469037 0.642591
Si Si3 0.607585 0.739864 0.277252
Si Si4 0.214545 0.967279 0.644467
Si Si5 0.812817 0.965862 0.547390
Si Si6 0.146455 0.368942 0.116679
Si Si7 0.417548 0.172079 0.898042
Si Si8 0.277933 0.737673 0.816974
O O1 0.351526 0.953599 0.208895
O O2 0.040171 0.305122 0.086139
O O3 0.195980 0.888331 0.929202
O O4 0.000000 0.000000 0.000000
O O5 0.500000 0.500000 0.500000
O O6 0.394875 0.708120 0.675911
O O7 0.783759 0.471544 0.743185
O O8 0.672600 0.229129 0.624128
O O9 0.744325 0.807020 0.449655
O O10 0.658477 0.693589 0.181634
O O11 0.642592 0.520167 0.235986
O O12 0.259581 0.988691 0.581747
O O13 0.238335 0.147429 0.798565
O O14 0.000000 0.000000 0.500000
O O15 0.060782 0.856968 0.672751
O O16 0.372865 0.106448 0.116275
O O17 0.000000 0.500000 0.000000
O O18 0.519020 0.266198 0.070070
#
# Coordination Sequence:
#
# PCOD9077093 Si02
#       8
#     2   2   2   2   2   2   2   2
#     4  10  20  35  55  81 108 136 180 231 272 324
#     4   9  16  30  51  73 100 138 175 211 264 331
#     4   9  18  35  53  71 103 146 183 216 265 334
#     4   9  18  33  51  75 106 137 173 218 270 324
#     4  10  19  33  53  78 102 140 187 223 265 327
#     4   9  16  30  52  76 101 134 171 213 264 320
#     4   8  16  30  51  73  98 135 177 211 258 331
#     4  10  18  34  56  75  99 140 184 223 266 325
#
# _framework density 23.557697000000001
#
# number of rings (size 3 to 8) (size 9 to 14) (size 15 to 20)
#    0.000    3.000    0.000    5.625    0.000    0.000 
#    0.000   16.250    0.000    0.000    0.000    0.875 
#    0.000    0.000    0.000    0.000    0.000    0.000 
#
# Total GULP energy -89084.649932 kJ/mol
# GULP energy per Si atom -5567.790621 kJ/mol
# Density = 2.350408 g / cm^3
# Si number density = 23.557697 Si / 1000 Ang^3
#
#
#
# Elastic Constant Matrix: (Units=GPa)
#
#
# Indices 1 2 3 4 5 6 
#
# 1 40.4446 0.4308 37.2804 -1.7364 20.4334 -2.6218
# 2 0.4308 113.0302 69.9395 -0.6761 2.6882 4.6955
# 3 37.2804 69.9395 226.3888 11.8285 46.5624 11.6095
# 4 -1.7364 -0.6761 11.8285 40.3915 2.8400 0.4601
# 5 20.4334 2.6882 46.5624 2.8400 31.5492 -5.2703
# 6 -2.6218 4.6955 11.6095 0.4601 -5.2703 4.8008
#
#
#
# Elastic Compliance Matrix: (Units=1/GPa)
#
#
# Indices 1 2 3 4 5 6 
#
# 1 0.038170 0.002347 -0.003717 0.004007 -0.018686 0.006642
# 2 0.002347 0.012797 -0.008592 0.001558 0.014082 0.024853
# 3 -0.003717 -0.008592 0.022135 -0.002484 -0.045484 -0.096849
# 4 0.004007 0.001558 -0.002484 0.025704 -0.000823 0.003306
# 5 -0.018686 0.014082 -0.045484 -0.000823 0.152071 0.253038
# 6 0.006642 0.024853 -0.096849 0.003306 0.253038 0.699299
#
#
# Mechanical properties :
#
#
# Convention : Reuss Voigt Hill
#
# Bulk Modulus (GPa) = 18.80506 66.12946 42.46726
# Shear Modulus (GPa) = 5.06162 33.49582 19.27872
#
# Velocity S-wave (km/s) = 1.46740 3.77485 2.86381
# Velocity P-wave (km/s) = 3.29711 6.86524 5.38528
#
# Compressibility (1/GPa) = 0.05317716
#
# Stress axis : x y z
#
# Youngs Moduli (GPa) = 26.19859 78.14528 45.17748
#
# Poissons Ratio (x) = -0.18342 0.16794
# Poissons Ratio (y) = -0.06149 0.38817
# Poissons Ratio (z) = 0.09739 0.67143
#
# Static dielectric constant tensor:
#      x y z
#    x 2.047180 -0.062290 0.016370 
#    y -0.062290 1.927460 0.079720 
#    z 0.016370 0.079720 1.941630 
# 
# From -- ./inp_files/209040.got.cif
#   From: 2010.05.17/outbox.cif.g08.bks.cpg/sg2_105_cif.got.tgz:209040.got - 2010.06.03 11:33:40.
