data_PCOD9077959
_publ_section_title
;
Structure prediction by ZEFSAII (Michael W. Deem and Ramdas Pophale) SiO2 
 PCOD9077959
Probable space group: P -1
;
_chemical_formula_sum "Si O2"
_cell_formula_units_Z 15
_cell_length_a 18.471758
_cell_length_b 5.080341
_cell_length_c 9.390986
_cell_angle_alpha 102.760294
_cell_angle_beta 50.682728
_cell_angle_gamma 106.201255
_cell_volume 653.569346
_symmetry_space_group_name_H-M "P -1"
_symmetry_group_IT_number 2
_symmetry_cell_setting 'triclinic'
loop_
_space_group_symop_operation_xyz
x,y,z
-x,-y,-z
loop_
_atom_site_type_symbol
_atom_site_label
_atom_site_fract_x
_atom_site_fract_y
_atom_site_fract_z
Si Si1 0.853433 0.498639 0.654818
Si Si2 0.881106 0.858485 0.927181
Si Si3 0.500000 0.500000 0.000000
Si Si4 0.682078 0.601931 0.219610
Si Si5 0.344430 0.888020 0.200275
Si Si6 0.020060 0.613672 0.268867
Si Si7 0.393236 0.986307 0.848969
Si Si8 0.427747 0.290839 0.364493
O O1 0.841187 0.744472 0.806327
O O2 0.756263 0.301987 0.717611
O O3 0.918838 0.337808 0.653203
O O4 0.913443 0.608217 0.453487
O O5 0.961828 0.681399 0.838256
O O6 0.931735 0.166829 0.878376
O O7 0.789152 0.767501 0.128046
O O8 0.575530 0.294980 0.913592
O O9 0.528791 0.510341 0.792405
O O10 0.681688 0.301757 0.116958
O O11 0.619829 0.565223 0.434890
O O12 0.631475 0.792412 0.202670
O O13 0.348490 0.072875 0.355713
O O14 0.379036 0.083487 0.042011
O O15 0.492392 0.877361 0.699201
#
# Coordination Sequence:
#
# PCOD9077959 Si02
#       8
#     2   2   1   2   2   2   2   2
#     4   9  19  33  59  91 120 161 207 260 311 372
#     4  10  18  35  56  90 121 152 197 266 310 366
#     4  10  24  42  60  86 130 172 214 246 312 374
#     4  12  24  41  67  95 124 169 219 261 322 373
#     4  11  23  41  63  93 129 174 209 264 316 382
#     4   9  19  34  59  92 123 151 207 267 315 359
#     4  11  24  42  65  90 127 167 222 265 309 369
#     4  11  27  40  63  89 132 173 210 268 314 381
#
# _framework density 22.950890999999999
#
# number of rings (size 3 to 8) (size 9 to 14) (size 15 to 20)
#    0.800    0.800    1.333    4.400    9.333    1.067 
#    0.000    0.000    0.000    1.600    0.000    0.000 
#    0.000    0.000    0.000    0.000    0.000    0.000 
#
# Total GULP energy -83655.941016 kJ/mol
# GULP energy per Si atom -5577.062734 kJ/mol
# Density = 2.289865 g / cm^3
# Si number density = 22.950891 Si / 1000 Ang^3
#
#
#
# Elastic Constant Matrix: (Units=GPa)
#
#
# Indices 1 2 3 4 5 6 
#
# 1 33.3452 11.4219 23.5892 -10.5446 -0.6649 1.1018
# 2 11.4219 72.6190 5.7338 -14.3363 13.8597 -14.6867
# 3 23.5892 5.7338 103.9462 -12.3450 -1.2735 -2.8802
# 4 -10.5446 -14.3363 -12.3450 27.8516 7.7522 2.2366
# 5 -0.6649 13.8597 -1.2735 7.7522 21.3863 -10.0775
# 6 1.1018 -14.6867 -2.8802 2.2366 -10.0775 26.0536
#
#
#
# Elastic Compliance Matrix: (Units=1/GPa)
#
#
# Indices 1 2 3 4 5 6 
#
# 1 0.040884 -0.004259 -0.007934 0.011561 -0.004230 -0.007635
# 2 -0.004259 0.021303 0.001411 0.014308 -0.016879 0.004588
# 3 -0.007934 0.001411 0.011738 0.002941 -0.000615 0.001938
# 4 0.011561 0.014308 0.002941 0.059731 -0.035565 -0.010982
# 5 -0.004230 -0.016879 -0.000615 -0.035565 0.082458 0.025544
# 6 -0.007635 0.004588 0.001938 -0.010982 0.025544 0.052329
#
#
# Mechanical properties :
#
#
# Convention : Reuss Voigt Hill
#
# Bulk Modulus (GPa) = 19.09755 32.37779 25.73767
# Shear Modulus (GPa) = 16.26229 26.33598 21.29914
#
# Velocity S-wave (km/s) = 2.66478 3.39114 3.04966
# Velocity P-wave (km/s) = 4.21986 5.42874 4.86201
#
# Compressibility (1/GPa) = 0.05236273
#
# Stress axis : x y z
#
# Youngs Moduli (GPa) = 24.45934 46.94214 85.19034
#
# Poissons Ratio (x) = 0.19991 0.67587
# Poissons Ratio (y) = 0.10417 -0.12020
# Poissons Ratio (z) = 0.19405 -0.06623
#
# Static dielectric constant tensor:
#      x y z
#    x 1.825020 -0.013220 0.000480 
#    y -0.013220 1.788600 -0.037170 
#    z 0.000480 -0.037170 1.799360 
# 
# From -- ./inp_files/323825.got.cif
#   From: 2010.05.17/outbox.cif.g08.bks.cpg/sg2_162_cif.got.tgz:323825.got - 2010.06.03 11:33:40.
