data_PCOD9077753
_publ_section_title
;
Structure prediction by ZEFSAII (Michael W. Deem and Ramdas Pophale) SiO2 
 PCOD9077753
Probable space group: P -1
;
_chemical_formula_sum "Si O2"
_cell_formula_units_Z 15
_cell_length_a 13.223721
_cell_length_b 8.101001
_cell_length_c 7.553422
_cell_angle_alpha 121.477339
_cell_angle_beta 97.078160
_cell_angle_gamma 77.389683
_cell_volume 673.404042
_symmetry_space_group_name_H-M "P -1"
_symmetry_group_IT_number 2
_symmetry_cell_setting 'triclinic'
loop_
_space_group_symop_operation_xyz
x,y,z
-x,-y,-z
loop_
_atom_site_type_symbol
_atom_site_label
_atom_site_fract_x
_atom_site_fract_y
_atom_site_fract_z
Si Si1 0.105395 0.459494 0.386817
Si Si2 0.823013 0.941788 0.993821
Si Si3 0.895467 0.104908 0.445101
Si Si4 0.380466 0.582129 0.995883
Si Si5 0.500000 0.500000 0.500000
Si Si6 0.597615 0.102473 0.122780
Si Si7 0.319262 0.324139 0.560321
Si Si8 0.265552 0.923988 0.324885
O O1 0.114257 0.662252 0.408680
O O2 0.204640 0.398440 0.501945
O O3 0.000000 0.500000 0.500000
O O4 0.116415 0.277640 0.151964
O O5 0.883775 0.054199 0.208173
O O6 0.707460 0.951831 0.060240
O O7 0.805136 0.040274 0.849164
O O8 0.804750 0.035146 0.496392
O O9 0.000000 0.000000 0.500000
O O10 0.381972 0.756140 0.954429
O O11 0.327910 0.413413 0.806856
O O12 0.500000 0.500000 0.000000
O O13 0.325246 0.699028 0.214593
O O14 0.564517 0.265541 0.358236
O O15 0.401396 0.414337 0.512339
O O16 0.500000 0.000000 0.000000
O O17 0.338089 0.088125 0.426221
#
# Coordination Sequence:
#
# PCOD9077753 Si02
#       8
#     2   2   2   2   1   2   2   2
#     4  11  24  45  72  96 129 178 225 275 336 397
#     4  10  24  45  66  95 134 175 219 274 331 394
#     4  12  26  42  68 101 128 169 223 275 335 395
#     4  10  22  36  57  90 129 171 211 264 325 383
#     4  10  18  34  64  90 122 166 212 260 316 384
#     4  10  20  36  60  89 124 171 217 259 320 388
#     4  10  22  41  64  94 131 176 223 268 328 397
#     4  10  23  43  64  93 134 171 216 272 325 388
#
# _framework density 22.274888000000001
#
# number of rings (size 3 to 8) (size 9 to 14) (size 15 to 20)
#    0.000    1.600    0.000    6.400    0.000   11.733 
#    0.000    0.000    0.000    0.000    0.000    0.000 
#    0.000    0.000    0.000    0.000    0.000    0.000 
#
# Total GULP energy -83510.858774 kJ/mol
# GULP energy per Si atom -5567.390585 kJ/mol
# Density = 2.222419 g / cm^3
# Si number density = 22.274888 Si / 1000 Ang^3
#
#
#
# Elastic Constant Matrix: (Units=GPa)
#
#
# Indices 1 2 3 4 5 6 
#
# 1 101.0300 3.2043 25.6680 12.4980 -23.2009 0.6594
# 2 3.2043 44.4375 32.3783 13.8742 -9.0448 -4.5964
# 3 25.6680 32.3783 108.5672 18.7793 -16.5480 -10.8942
# 4 12.4980 13.8742 18.7793 30.4212 -8.1533 -10.7323
# 5 -23.2009 -9.0448 -16.5480 -8.1533 23.8908 11.7845
# 6 0.6594 -4.5964 -10.8942 -10.7323 11.7845 31.1444
#
#
#
# Elastic Compliance Matrix: (Units=1/GPa)
#
#
# Indices 1 2 3 4 5 6 
#
# 1 0.015062 0.004941 -0.002327 -0.005473 0.017394 -0.008871
# 2 0.004941 0.033150 -0.008030 -0.011417 0.010886 -0.006075
# 3 -0.002327 -0.008030 0.013041 -0.002218 0.002045 0.001888
# 4 -0.005473 -0.011417 -0.002218 0.046127 -0.002601 0.014534
# 5 0.017394 0.010886 0.002045 -0.002601 0.077306 -0.028194
# 6 -0.008871 -0.006075 0.001888 0.014534 -0.028194 0.047737
#
#
# Mechanical properties :
#
#
# Convention : Reuss Voigt Hill
#
# Bulk Modulus (GPa) = 19.83329 41.83733 30.83531
# Shear Modulus (GPa) = 19.22632 29.94357 24.58494
#
# Velocity S-wave (km/s) = 2.94111 3.67041 3.32581
# Velocity P-wave (km/s) = 4.52291 6.06512 5.34988
#
# Compressibility (1/GPa) = 0.05042028
#
# Stress axis : x y z
#
# Youngs Moduli (GPa) = 66.39340 30.16572 76.68395
#
# Poissons Ratio (x) = -0.14904 0.17843
# Poissons Ratio (y) = -0.32803 0.61577
# Poissons Ratio (z) = 0.15448 0.24223
#
# Static dielectric constant tensor:
#      x y z
#    x 1.928210 -0.115980 -0.073310 
#    y -0.115980 1.901720 0.016080 
#    z -0.073310 0.016080 1.901230 
# 
# From -- ./inp_files/246071.got.cif
#   From: 2010.05.17/outbox.cif.g08.bks.cpg/sg2_124_cif.got.tgz:246071.got - 2010.06.03 11:33:40.
