data_PCOD9077235
_publ_section_title
;
Structure prediction by ZEFSAII (Michael W. Deem and Ramdas Pophale) SiO2 
 PCOD9077235
Probable space group: P -1
;
_chemical_formula_sum "Si O2"
_cell_formula_units_Z 16
_cell_length_a 10.769284
_cell_length_b 10.973940
_cell_length_c 15.113992
_cell_angle_alpha 81.873988
_cell_angle_beta 56.282400
_cell_angle_gamma 126.709564
_cell_volume 839.251515
_symmetry_space_group_name_H-M "P -1"
_symmetry_group_IT_number 2
_symmetry_cell_setting 'triclinic'
loop_
_space_group_symop_operation_xyz
x,y,z
-x,-y,-z
loop_
_atom_site_type_symbol
_atom_site_label
_atom_site_fract_x
_atom_site_fract_y
_atom_site_fract_z
Si Si1 0.225451 0.019924 0.314380
Si Si2 0.970839 0.118877 0.404499
Si Si3 0.950648 0.653984 0.068438
Si Si4 0.119956 0.011370 0.036836
Si Si5 0.513463 0.358019 0.402929
Si Si6 0.873927 0.729571 0.334028
Si Si7 0.402924 0.551634 0.090666
Si Si8 0.786722 0.420175 0.996161
O O1 0.080529 0.879153 0.474353
O O2 0.127004 0.887374 0.278106
O O3 0.141541 0.107655 0.332862
O O4 0.534854 0.215222 0.176366
O O5 0.138784 0.332155 0.265939
O O6 0.685889 0.889450 0.501886
O O7 0.663038 0.488258 0.239219
O O8 0.931826 0.625257 0.973509
O O9 0.147186 0.890805 0.001104
O O10 0.033263 0.576978 0.080798
O O11 0.374366 0.252351 0.949418
O O12 0.939209 0.864802 0.211408
O O13 0.000000 0.000000 0.000000
O O14 0.747685 0.521338 0.364805
O O15 0.331472 0.345945 0.510359
O O16 0.500000 0.500000 0.000000
O O17 0.329742 0.608747 0.045100
#
# Coordination Sequence:
#
# PCOD9077235 Si02
#       8
#     2   2   2   2   2   2   2   2
#     4  10  18  34  57  85 111 154 195 243 280 351
#     4  10  20  31  58  86 114 147 194 244 296 334
#     4  10  23  38  61  88 114 163 200 235 290 354
#     4  11  23  37  59  91 122 151 192 251 299 341
#     4   9  17  34  52  81 115 140 194 239 280 343
#     4   9  18  32  56  85 112 147 193 243 294 337
#     4  12  22  37  59  91 121 151 195 248 299 343
#     4  11  21  40  62  84 121 158 202 238 286 359
#
# _framework density 19.064606999999999
#
# number of rings (size 3 to 8) (size 9 to 14) (size 15 to 20)
#    0.000    1.750    3.750    1.500    0.000    3.500 
#    0.000    0.625    2.750    0.750    0.000    0.000 
#    0.000    0.000    0.000    0.000    0.000    0.000 
#
# Total GULP energy -89120.509920 kJ/mol
# GULP energy per Si atom -5570.031870 kJ/mol
# Density = 1.902122 g / cm^3
# Si number density = 19.064607 Si / 1000 Ang^3
#
#
#
# Elastic Constant Matrix: (Units=GPa)
#
#
# Indices 1 2 3 4 5 6 
#
# 1 50.0261 31.3213 15.9923 2.2464 9.7644 18.8540
# 2 31.3213 145.7195 31.2345 -12.6671 8.5924 30.5333
# 3 15.9923 31.2345 82.7799 -9.3718 12.6939 4.1222
# 4 2.2464 -12.6671 -9.3718 29.8049 4.2855 -3.1619
# 5 9.7644 8.5924 12.6939 4.2855 16.7449 2.1938
# 6 18.8540 30.5333 4.1222 -3.1619 2.1938 26.6280
#
#
#
# Elastic Compliance Matrix: (Units=1/GPa)
#
#
# Indices 1 2 3 4 5 6 
#
# 1 0.032054 -0.001766 -0.003305 -0.004649 -0.011501 -0.019763
# 2 -0.001766 0.010100 -0.002380 0.002941 -0.001862 -0.009459
# 3 -0.003305 -0.002380 0.015794 0.006235 -0.010980 0.004269
# 4 -0.004649 0.002941 0.006235 0.039685 -0.014317 0.004845
# 5 -0.011501 -0.001862 -0.010980 -0.014317 0.078874 0.003780
# 6 -0.019763 -0.009459 0.004269 0.004845 0.003780 0.061998
#
#
# Mechanical properties :
#
#
# Convention : Reuss Voigt Hill
#
# Bulk Modulus (GPa) = 23.23111 48.40240 35.81675
# Shear Modulus (GPa) = 18.67381 27.96739 23.32060
#
# Velocity S-wave (km/s) = 3.13309 3.83427 3.50128
# Velocity P-wave (km/s) = 5.02994 6.71163 5.93069
#
# Compressibility (1/GPa) = 0.04304572
#
# Stress axis : x y z
#
# Youngs Moduli (GPa) = 31.19745 99.01146 63.31641
#
# Poissons Ratio (x) = 0.17488 0.20923
# Poissons Ratio (y) = 0.05510 0.15070
# Poissons Ratio (z) = 0.10309 0.23566
#
# Static dielectric constant tensor:
#      x y z
#    x 1.657020 0.037990 -0.004750 
#    y 0.037990 1.744490 -0.011740 
#    z -0.004750 -0.011740 1.677480 
# 
# From -- ./inp_files/470848.got.cif
#   From: 2010.05.17/outbox.cif.g08.bks.cpg/sg2_236_cif.got.tgz:470848.got - 2010.06.03 11:33:40.
