data_PCOD9077009
_publ_section_title
;
Structure prediction by ZEFSAII (Michael W. Deem and Ramdas Pophale) SiO2 
 PCOD9077009
Probable space group: P -1
;
_chemical_formula_sum "Si O2"
_cell_formula_units_Z 16
_cell_length_a 12.896427
_cell_length_b 8.739234
_cell_length_c 10.798972
_cell_angle_alpha 72.495245
_cell_angle_beta 117.952036
_cell_angle_gamma 138.634190
_cell_volume 707.785440
_symmetry_space_group_name_H-M "P -1"
_symmetry_group_IT_number 2
_symmetry_cell_setting 'triclinic'
loop_
_space_group_symop_operation_xyz
x,y,z
-x,-y,-z
loop_
_atom_site_type_symbol
_atom_site_label
_atom_site_fract_x
_atom_site_fract_y
_atom_site_fract_z
Si Si1 0.391179 0.287849 0.587466
Si Si2 0.677790 0.325105 0.777504
Si Si3 0.984162 0.849855 0.917547
Si Si4 0.530222 0.283582 0.035603
Si Si5 0.913744 0.328154 0.798055
Si Si6 0.576905 0.625965 0.814605
Si Si7 0.875262 0.007410 0.687019
Si Si8 0.271466 0.808748 0.907635
O O1 0.500000 0.500000 0.500000
O O2 0.499587 0.231837 0.674439
O O3 0.414230 0.410602 0.696168
O O4 0.210217 0.081669 0.473234
O O5 0.815885 0.598218 0.825496
O O6 0.748019 0.274599 0.725152
O O7 0.679200 0.221078 0.926308
O O8 0.016993 0.009050 0.785339
O O9 0.073133 0.784003 0.049758
O O10 0.000000 0.000000 0.000000
O O11 0.622929 0.517766 0.954103
O O12 0.369791 0.071924 0.911468
O O13 0.466418 0.282892 0.131443
O O14 0.650871 0.248893 0.125320
O O15 0.071442 0.606148 0.830458
O O16 0.934069 0.238820 0.710441
O O17 0.721889 0.819693 0.749629
#
# Coordination Sequence:
#
# PCOD9077009 Si02
#       8
#     2   2   2   2   2   2   2   2
#     4  10  19  34  57  79 114 142 182 232 274 327
#     4  11  18  33  52  83 114 140 176 232 287 328
#     4   9  16  28  47  74 109 140 161 211 274 326
#     4  10  20  32  58  78 112 145 188 220 267 323
#     4  10  21  32  53  84 121 137 176 230 289 334
#     4  10  18  34  54  82 103 142 187 227 261 321
#     4  10  19  35  57  84 111 145 177 230 285 321
#     4  10  19  35  51  85 112 145 171 230 281 322
#
# _framework density 22.605722
#
# number of rings (size 3 to 8) (size 9 to 14) (size 15 to 20)
#    0.000    2.000    3.750    3.000    0.000    1.500 
#    0.000    1.250    0.000    1.500    0.000    0.000 
#    0.000    0.000    0.000    0.000    0.000    0.000 
#
# Total GULP energy -89088.188763 kJ/mol
# GULP energy per Si atom -5568.011798 kJ/mol
# Density = 2.255427 g / cm^3
# Si number density = 22.605722 Si / 1000 Ang^3
#
#
#
# Elastic Constant Matrix: (Units=GPa)
#
#
# Indices 1 2 3 4 5 6 
#
# 1 79.8065 22.3394 4.2126 3.9535 -4.2748 -25.4369
# 2 22.3394 68.5484 13.1207 10.0065 -3.8060 -9.1087
# 3 4.2126 13.1207 71.5887 29.0783 5.9871 -7.0241
# 4 3.9535 10.0065 29.0783 32.5365 0.1868 -3.3650
# 5 -4.2748 -3.8060 5.9871 0.1868 22.6804 0.4213
# 6 -25.4369 -9.1087 -7.0241 -3.3650 0.4213 25.9385
#
#
#
# Elastic Compliance Matrix: (Units=1/GPa)
#
#
# Indices 1 2 3 4 5 6 
#
# 1 0.019443 -0.004014 0.001363 -0.000506 0.002302 0.017924
# 2 -0.004014 0.016967 -0.001722 -0.003091 0.002550 0.001113
# 3 0.001363 -0.001722 0.023244 -0.019905 -0.006088 0.004543
# 4 -0.000506 -0.003091 -0.019905 0.049447 0.004245 -0.000626
# 5 0.002302 0.002550 -0.006088 0.004245 0.046501 0.001300
# 6 0.017924 0.001113 0.004543 -0.000626 0.001300 0.057649
#
#
# Mechanical properties :
#
#
# Convention : Reuss Voigt Hill
#
# Bulk Modulus (GPa) = 19.64330 33.25434 26.44882
# Shear Modulus (GPa) = 20.92356 28.24915 24.58635
#
# Velocity S-wave (km/s) = 3.04565 3.53887 3.30148
# Velocity P-wave (km/s) = 4.59090 5.60720 5.12430
#
# Compressibility (1/GPa) = 0.05090795
#
# Stress axis : x y z
#
# Youngs Moduli (GPa) = 51.43200 58.93920 43.02183
#
# Poissons Ratio (x) = 0.23658 -0.05864
# Poissons Ratio (y) = 0.20644 0.07408
# Poissons Ratio (z) = -0.07010 0.10149
#
# Static dielectric constant tensor:
#      x y z
#    x 1.976540 0.025520 0.032190 
#    y 0.025520 1.937890 -0.006780 
#    z 0.032190 -0.006780 1.861750 
# 
# From -- ./inp_files/444390.got.cif
#   From: 2010.05.17/outbox.cif.g08.bks.cpg/sg2_223_cif.got.tgz:444390.got - 2010.06.03 11:33:40.
