data_PCOD9077043
_publ_section_title
;
Structure prediction by ZEFSAII (Michael W. Deem and Ramdas Pophale) SiO2 
 PCOD9077043
Probable space group: P -1
;
_chemical_formula_sum "Si O2"
_cell_formula_units_Z 16
_cell_length_a 15.625273
_cell_length_b 14.182329
_cell_length_c 8.829797
_cell_angle_alpha 75.671964
_cell_angle_beta 57.153328
_cell_angle_gamma 29.004494
_cell_volume 661.992346
_symmetry_space_group_name_H-M "P -1"
_symmetry_group_IT_number 2
_symmetry_cell_setting 'triclinic'
loop_
_space_group_symop_operation_xyz
x,y,z
-x,-y,-z
loop_
_atom_site_type_symbol
_atom_site_label
_atom_site_fract_x
_atom_site_fract_y
_atom_site_fract_z
Si Si1 0.604271 0.147346 0.618114
Si Si2 0.628482 0.987432 0.926477
Si Si3 0.445852 0.154014 0.328381
Si Si4 0.017773 0.773161 0.767085
Si Si5 0.185622 0.001480 0.833615
Si Si6 0.415656 0.476903 0.260594
Si Si7 0.757355 0.684492 0.246231
Si Si8 0.406247 0.713207 0.147031
O O1 0.689938 0.989021 0.713061
O O2 0.803317 0.001264 0.357294
O O3 0.367192 0.304122 0.706289
O O4 0.539309 0.289568 0.739855
O O5 0.871660 0.799141 0.866442
O O6 0.424145 0.205573 0.155103
O O7 0.500000 0.000000 0.000000
O O8 0.624148 0.078198 0.265656
O O9 0.217928 0.344947 0.584062
O O10 0.571069 0.937964 0.296559
O O11 0.246448 0.580120 0.513146
O O12 0.829185 0.020570 0.788745
O O13 0.035938 0.783072 0.924264
O O14 0.309950 0.790824 0.843268
O O15 0.362385 0.637033 0.238499
O O16 0.402110 0.447824 0.113401
O O17 0.000000 0.500000 0.000000
#
# Coordination Sequence:
#
# PCOD9077043 Si02
#       8
#     2   2   2   2   2   2   2   2
#     4  10  20  37  54  82 116 144 187 234 283 324
#     4  10  18  34  55  79 109 148 179 229 280 316
#     4   9  19  36  55  75 111 146 181 219 281 326
#     4   9  19  36  60  81 110 149 193 223 278 341
#     4   9  20  35  56  80 115 150 183 230 279 331
#     4  10  19  38  61  84 111 150 189 227 283 342
#     4  10  20  36  57  79 106 147 186 222 273 338
#     4   9  20  37  60  85 115 144 183 240 285 323
#
# _framework density 24.169464000000001
#
# number of rings (size 3 to 8) (size 9 to 14) (size 15 to 20)
#    0.000    2.500    1.250    1.125    0.000    4.500 
#    2.250    3.750    0.000    0.000    0.000    0.000 
#    0.000    0.000    0.000    0.000    0.000    0.000 
#
# Total GULP energy -89182.990985 kJ/mol
# GULP energy per Si atom -5573.936937 kJ/mol
# Density = 2.411445 g / cm^3
# Si number density = 24.169464 Si / 1000 Ang^3
#
#
#
# Elastic Constant Matrix: (Units=GPa)
#
#
# Indices 1 2 3 4 5 6 
#
# 1 69.8081 26.4524 19.8654 2.5373 34.1497 31.9127
# 2 26.4524 64.1800 22.2583 -8.1493 9.2863 13.4830
# 3 19.8654 22.2583 194.6509 -11.9292 50.3440 -5.2641
# 4 2.5373 -8.1493 -11.9292 40.5696 -3.1899 1.9014
# 5 34.1497 9.2863 50.3440 -3.1899 40.2330 -6.5233
# 6 31.9127 13.4830 -5.2641 1.9014 -6.5233 36.3831
#
#
#
# Elastic Compliance Matrix: (Units=1/GPa)
#
#
# Indices 1 2 3 4 5 6 
#
# 1 -0.218513 0.020156 -0.043607 0.015786 0.273292 0.226061
# 2 0.020156 0.016791 0.002900 0.002026 -0.029124 -0.028810
# 3 -0.043607 0.002900 -0.000931 0.004481 0.045144 0.044899
# 4 0.015786 0.002026 0.004481 0.024655 -0.020589 -0.018928
# 5 0.273292 -0.029124 0.045144 -0.020589 -0.303212 -0.275676
# 6 0.226061 -0.028810 0.044899 -0.018928 -0.275676 -0.202064
#
#
# Mechanical properties :
#
#
# Convention : Reuss Voigt Hill
#
# Bulk Modulus (GPa) = -4.10250 51.75456 23.82603
# Shear Modulus (GPa) = -6.91156 40.77468 16.93156
#
# Velocity S-wave (km/s) = -1.69288 4.11181 2.64963
# Velocity P-wave (km/s) = 2.34993 6.63342 4.38635
#
# Compressibility (1/GPa) = -0.24375357
#
# Stress axis : x y z
#
# Youngs Moduli (GPa) = -4.57638 59.55420 -1074.18252
#
# Poissons Ratio (x) = -1.20037 -46.84154
# Poissons Ratio (y) = 0.09224 3.11557
# Poissons Ratio (z) = -0.19956 -0.17273
#
# Static dielectric constant tensor:
#      x y z
#    x 1.925450 -0.019250 0.020260 
#    y -0.019250 2.066380 -0.016820 
#    z 0.020260 -0.016820 1.975280 
# 
# From -- ./inp_files/124590.got.cif
#   From: 2010.05.17/outbox.cif.g08.bks.cpg/sg2_63_cif.got.tgz:124590.got - 2010.06.03 11:33:40.
