data_PCOD9077059
_publ_section_title
;
Structure prediction by ZEFSAII (Michael W. Deem and Ramdas Pophale) SiO2 
 PCOD9077059
Probable space group: P -1
;
_chemical_formula_sum "Si O2"
_cell_formula_units_Z 12
_cell_length_a 11.655844
_cell_length_b 9.392185
_cell_length_c 12.944626
_cell_angle_alpha 132.017542
_cell_angle_beta 64.119935
_cell_angle_gamma 141.560427
_cell_volume 642.592267
_symmetry_space_group_name_H-M "P -1"
_symmetry_group_IT_number 2
_symmetry_cell_setting 'triclinic'
loop_
_space_group_symop_operation_xyz
x,y,z
-x,-y,-z
loop_
_atom_site_type_symbol
_atom_site_label
_atom_site_fract_x
_atom_site_fract_y
_atom_site_fract_z
Si Si1 0.164763 0.171712 0.379756
Si Si2 0.187726 0.178211 0.147093
Si Si3 0.793235 0.579732 0.946909
Si Si4 0.494837 0.215062 0.069405
Si Si5 0.037482 0.616156 0.158291
Si Si6 0.236944 0.377425 0.667805
O O1 0.211952 0.295847 0.307855
O O2 0.274668 0.375434 0.532931
O O3 0.176466 0.952531 0.263638
O O4 0.940684 0.950949 0.386295
O O5 0.257200 0.382445 0.123862
O O6 0.297856 0.097457 0.063847
O O7 0.966478 0.892651 0.078824
O O8 0.876776 0.458884 0.845820
O O9 0.626885 0.382895 0.998964
O O10 0.591821 0.443972 0.234667
O O11 0.500000 0.000000 0.000000
O O12 0.851360 0.507404 0.225908
O O13 0.000000 0.500000 0.000000
#
# Coordination Sequence:
#
# PCOD9077059 Si02
#       6
#     2   2   2   2   2   2
#     4   9  18  36  58  82 111 150 186 232 279 330
#     4  11  22  34  58  81 119 154 176 232 294 329
#     4  11  21  37  53  87 118 144 188 233 281 337
#     4  12  22  35  61  88 112 144 195 239 271 330
#     4  10  14  31  60  80 105 144 188 229 267 320
#     4   9  19  34  60  84 111 141 195 235 275 324
#
# _framework density 18.674361999999999
#
# number of rings (size 3 to 8) (size 9 to 14) (size 15 to 20)
#    1.000    0.667    5.000    2.500    0.000    0.667 
#    0.000    0.833    0.000    2.000    0.000    0.000 
#    0.000    0.000    0.000    0.000    0.000    0.000 
#
# Total GULP energy -66872.883636 kJ/mol
# GULP energy per Si atom -5572.740303 kJ/mol
# Density = 1.863186 g / cm^3
# Si number density = 18.674362 Si / 1000 Ang^3
#
#
#
# Elastic Constant Matrix: (Units=GPa)
#
#
# Indices 1 2 3 4 5 6 
#
# 1 80.0459 26.3490 32.1043 -18.9420 8.0620 -19.2897
# 2 26.3490 86.9219 31.3279 -30.5540 13.6121 -16.5048
# 3 32.1043 31.3279 124.5474 -25.3162 11.5980 -19.5517
# 4 -18.9420 -30.5540 -25.3162 28.5060 -5.6579 6.5976
# 5 8.0620 13.6121 11.5980 -5.6579 20.9956 -5.8461
# 6 -19.2897 -16.5048 -19.5517 6.5976 -5.8461 31.0593
#
#
#
# Elastic Compliance Matrix: (Units=1/GPa)
#
#
# Indices 1 2 3 4 5 6 
#
# 1 0.016934 -0.000268 -0.001418 0.007678 -0.001362 0.007595
# 2 -0.000268 0.020332 0.000366 0.019366 -0.006524 0.005527
# 3 -0.001418 0.000366 0.010687 0.007533 -0.002459 0.003979
# 4 0.007678 0.019366 0.007533 0.066270 -0.000225 0.005682
# 5 -0.001362 -0.006524 -0.002459 -0.000225 0.054940 0.004529
# 6 0.007595 0.005527 0.003979 0.005682 0.004529 0.042000
#
#
# Mechanical properties :
#
#
# Convention : Reuss Voigt Hill
#
# Bulk Modulus (GPa) = 22.06792 52.34193 37.20492
# Shear Modulus (GPa) = 21.84282 29.56112 25.70197
#
# Velocity S-wave (km/s) = 3.42375 3.98298 3.71391
# Velocity P-wave (km/s) = 5.24140 7.01725 6.19331
#
# Compressibility (1/GPa) = 0.04531465
#
# Stress axis : x y z
#
# Youngs Moduli (GPa) = 59.05272 49.18266 93.57052
#
# Poissons Ratio (x) = 0.01318 0.13267
# Poissons Ratio (y) = 0.01583 -0.03429
# Poissons Ratio (z) = 0.08373 -0.01802
#
# Static dielectric constant tensor:
#      x y z
#    x 1.662110 0.037840 0.000930 
#    y 0.037840 1.704010 0.005280 
#    z 0.000930 0.005280 1.655940 
# 
# From -- ./inp_files/418121.got.cif
#   From: 2010.05.17/outbox.cif.g08.bks.cpg/sg2_210_cif.got.tgz:418121.got - 2010.06.03 11:33:40.
