data_PCOD9077049
_publ_section_title
;
Structure prediction by ZEFSAII (Michael W. Deem and Ramdas Pophale) SiO2 
 PCOD9077049
Probable space group: P -1
;
_chemical_formula_sum "Si O2"
_cell_formula_units_Z 14
_cell_length_a 18.002284
_cell_length_b 9.448569
_cell_length_c 5.235514
_cell_angle_alpha 105.250560
_cell_angle_beta 77.026532
_cell_angle_gamma 135.867763
_cell_volume 597.414731
_symmetry_space_group_name_H-M "P -1"
_symmetry_group_IT_number 2
_symmetry_cell_setting 'triclinic'
loop_
_space_group_symop_operation_xyz
x,y,z
-x,-y,-z
loop_
_atom_site_type_symbol
_atom_site_label
_atom_site_fract_x
_atom_site_fract_y
_atom_site_fract_z
Si Si1 0.367205 0.932291 0.045687
Si Si2 0.237336 0.041666 0.180924
Si Si3 0.000032 0.178398 0.619845
Si Si4 0.508838 0.796172 0.425396
Si Si5 0.358431 0.305625 0.708804
Si Si6 0.325063 0.557232 0.095758
Si Si7 0.917026 0.753057 0.911413
O O1 0.332446 0.720406 0.021611
O O2 0.269866 0.916022 0.135334
O O3 0.448205 0.079671 0.285626
O O4 0.423871 0.040048 0.782742
O O5 0.302926 0.215133 0.434322
O O6 0.278523 0.140126 0.914668
O O7 0.114639 0.916349 0.257181
O O8 0.037483 0.285021 0.367526
O O9 0.082358 0.321807 0.850075
O O10 0.000000 0.000000 0.500000
O O11 0.540952 0.667531 0.343158
O O12 0.387716 0.652599 0.359799
O O13 0.379602 0.500164 0.866244
O O14 0.200275 0.352640 0.123800
O O15 0.000000 0.000000 0.000000
#
# Coordination Sequence:
#
# PCOD9077049 Si02
#       7
#     2   2   2   2   2   2   2
#     4  10  24  41  62  90 124 160 196 240 306 367
#     4  10  20  40  61  85 123 161 193 249 305 349
#     4  10  18  34  55  80 110 151 196 240 287 342
#     4  10  23  42  61  89 126 160 195 242 301 364
#     4  10  21  36  62  92 118 154 202 245 296 359
#     4  12  23  40  64  92 121 160 202 250 295 354
#     4  10  22  35  55  86 116 150 198 246 293 341
#
# _framework density 23.434308000000001
#
# number of rings (size 3 to 8) (size 9 to 14) (size 15 to 20)
#    0.000    1.714    0.000    5.571    0.000    4.571 
#    0.000    5.714    0.000    0.000    0.000    0.000 
#    0.000    0.000    0.000    0.000    0.000    0.000 
#
# Total GULP energy -78381.490287 kJ/mol
# GULP energy per Si atom -5598.677878 kJ/mol
# Density = 2.338097 g / cm^3
# Si number density = 23.434308 Si / 1000 Ang^3
#
#
#
# Elastic Constant Matrix: (Units=GPa)
#
#
# Indices 1 2 3 4 5 6 
#
# 1 119.4366 44.4005 -13.9087 2.1370 -15.1343 14.9904
# 2 44.4005 81.2448 3.1148 2.6226 -8.1933 -0.7875
# 3 -13.9087 3.1148 98.1764 -15.8624 4.9579 13.9973
# 4 2.1370 2.6226 -15.8624 20.6779 -0.5039 -0.8583
# 5 -15.1343 -8.1933 4.9579 -0.5039 31.2448 9.8782
# 6 14.9904 -0.7875 13.9973 -0.8583 9.8782 56.7343
#
#
#
# Elastic Compliance Matrix: (Units=1/GPa)
#
#
# Indices 1 2 3 4 5 6 
#
# 1 0.012335 -0.006385 0.002613 0.001468 0.005465 -0.004922
# 2 -0.006385 0.016075 -0.002263 -0.003002 0.000706 0.002300
# 3 0.002613 -0.002263 0.012711 0.009613 -0.000017 -0.003709
# 4 0.001468 -0.003002 0.009613 0.055882 -0.000087 -0.001941
# 5 0.005465 0.000706 -0.000017 -0.000087 0.037347 -0.007934
# 6 -0.004922 0.002300 -0.003709 -0.001941 -0.007934 0.021226
#
#
# Mechanical properties :
#
#
# Convention : Reuss Voigt Hill
#
# Bulk Modulus (GPa) = 34.42377 40.67455 37.54916
# Shear Modulus (GPa) = 28.19622 39.41483 33.80552
#
# Velocity S-wave (km/s) = 3.47248 4.10558 3.80223
# Velocity P-wave (km/s) = 5.54968 6.31418 5.94423
#
# Compressibility (1/GPa) = 0.02904969
#
# Stress axis : x y z
#
# Youngs Moduli (GPa) = 81.07316 62.20805 78.67413
#
# Poissons Ratio (x) = 0.39720 -0.20557
# Poissons Ratio (y) = 0.51765 0.17806
# Poissons Ratio (z) = -0.21184 0.14079
#
# Static dielectric constant tensor:
#      x y z
#    x 1.820490 0.083960 -0.022160 
#    y 0.083960 1.740750 0.002120 
#    z -0.022160 0.002120 1.924590 
# 
# From -- ./inp_files/107164.got.cif
#   From: 2010.05.17/outbox.cif.g08.bks.cpg/sg2_54_cif.got.tgz:107164.got - 2010.06.03 11:33:40.
