data_PCOD9077019
_publ_section_title
;
Structure prediction by ZEFSAII (Michael W. Deem and Ramdas Pophale) SiO2 
 PCOD9077019
Probable space group: P -1
;
_chemical_formula_sum "Si O2"
_cell_formula_units_Z 13
_cell_length_a 10.266741
_cell_length_b 16.042258
_cell_length_c 7.796806
_cell_angle_alpha 111.379188
_cell_angle_beta 45.750481
_cell_angle_gamma 139.905467
_cell_volume 551.116300
_symmetry_space_group_name_H-M "P -1"
_symmetry_group_IT_number 2
_symmetry_cell_setting 'triclinic'
loop_
_space_group_symop_operation_xyz
x,y,z
-x,-y,-z
loop_
_atom_site_type_symbol
_atom_site_label
_atom_site_fract_x
_atom_site_fract_y
_atom_site_fract_z
Si Si1 0.000000 0.000000 0.500000
Si Si2 0.707297 0.049533 0.610683
Si Si3 0.617897 0.701463 0.512886
Si Si4 0.946542 0.560627 0.327092
Si Si5 0.646283 0.447554 0.002158
Si Si6 0.153833 0.782166 0.061924
Si Si7 0.898896 0.692584 0.764215
O O1 0.276046 0.159676 0.438113
O O2 0.923085 0.056252 0.487178
O O3 0.709471 0.126988 0.815801
O O4 0.837229 0.143265 0.391606
O O5 0.397404 0.889905 0.779894
O O6 0.355011 0.597970 0.549390
O O7 0.892552 0.749550 0.239413
O O8 0.506427 0.610633 0.718410
O O9 0.907792 0.623654 0.548955
O O10 0.174490 0.575039 0.191613
O O11 0.055135 0.647325 0.114731
O O12 0.852768 0.609732 0.904694
O O13 0.389769 0.360414 0.037719
#
# Coordination Sequence:
#
# PCOD9077019 Si02
#       7
#     1   2   2   2   2   2   2
#     4  10  18  34  54  86 116 140 202 238 286 350
#     4   9  17  33  53  81 111 155 185 235 280 335
#     4  11  21  37  59  90 116 145 197 252 288 334
#     4  11  21  37  60  89 115 152 196 245 288 333
#     4  11  21  37  59  90 117 156 190 234 295 346
#     4   9  18  31  56  82 116 143 188 241 286 327
#     4  10  22  39  59  86 122 153 196 232 284 358
#
# _framework density 23.588488000000002
#
# number of rings (size 3 to 8) (size 9 to 14) (size 15 to 20)
#    0.000    1.846    4.615    2.308    0.000    1.231 
#    0.000    0.000    0.000    7.385    0.000    0.000 
#    0.000    0.000    0.000    0.000    0.000    0.000 
#
# Total GULP energy -72418.756285 kJ/mol
# GULP energy per Si atom -5570.673560 kJ/mol
# Density = 2.353480 g / cm^3
# Si number density = 23.588488 Si / 1000 Ang^3
#
#
#
# Elastic Constant Matrix: (Units=GPa)
#
#
# Indices 1 2 3 4 5 6 
#
# 1 73.9151 37.5347 40.2096 1.8940 -9.1925 -29.5022
# 2 37.5347 87.1400 51.1432 -46.8329 -0.3321 -14.3707
# 3 40.2096 51.1432 133.8734 -36.6735 -11.3131 -15.0324
# 4 1.8940 -46.8329 -36.6735 39.3369 -6.9145 2.7575
# 5 -9.1925 -0.3321 -11.3131 -6.9145 48.5638 -3.2032
# 6 -29.5022 -14.3707 -15.0324 2.7575 -3.2032 37.5695
#
#
#
# Elastic Compliance Matrix: (Units=1/GPa)
#
#
# Indices 1 2 3 4 5 6 
#
# 1 0.134458 -0.147554 -0.042184 -0.227387 -0.014613 0.047710
# 2 -0.147554 0.200047 0.046260 0.295389 0.023600 -0.040508
# 3 -0.042184 0.046260 0.024580 0.082379 0.009070 -0.010869
# 4 -0.227387 0.295389 0.082379 0.476689 0.041817 -0.064031
# 5 -0.014613 0.023600 0.009070 0.041817 0.026076 0.000335
# 6 0.047710 -0.040508 -0.010869 -0.064031 0.000335 0.048967
#
#
# Mechanical properties :
#
#
# Convention : Reuss Voigt Hill
#
# Bulk Modulus (GPa) = 13.86366 61.41150 37.63758
# Shear Modulus (GPa) = 4.09227 36.16342 20.12785
#
# Velocity S-wave (km/s) = 1.31857 3.91973 2.92428
# Velocity P-wave (km/s) = 2.86500 6.82471 5.23378
#
# Compressibility (1/GPa) = 0.07213102
#
# Stress axis : x y z
#
# Youngs Moduli (GPa) = 7.43726 4.99882 40.68268
#
# Poissons Ratio (x) = 0.73759 1.71617
# Poissons Ratio (y) = 1.09739 -1.88200
# Poissons Ratio (z) = 0.31374 -0.23125
#
# Static dielectric constant tensor:
#      x y z
#    x 1.921870 0.050170 0.031930 
#    y 0.050170 1.905350 0.013360 
#    z 0.031930 0.013360 1.932050 
# 
# From -- ./inp_files/430058.got.cif
#   From: 2010.05.17/outbox.cif.g08.bks.cpg/sg2_216_cif.got.tgz:430058.got - 2010.06.03 11:33:40.
