data_PCOD9077160
_publ_section_title
;
Structure prediction by ZEFSAII (Michael W. Deem and Ramdas Pophale) SiO2 
 PCOD9077160
Probable space group: P -1
;
_chemical_formula_sum "Si O2"
_cell_formula_units_Z 15
_cell_length_a 15.075559
_cell_length_b 16.299478
_cell_length_c 12.265691
_cell_angle_alpha 23.826449
_cell_angle_beta 144.698704
_cell_angle_gamma 150.218786
_cell_volume 601.040817
_symmetry_space_group_name_H-M "P -1"
_symmetry_group_IT_number 2
_symmetry_cell_setting 'triclinic'
loop_
_space_group_symop_operation_xyz
x,y,z
-x,-y,-z
loop_
_atom_site_type_symbol
_atom_site_label
_atom_site_fract_x
_atom_site_fract_y
_atom_site_fract_z
Si Si1 0.676040 0.254750 0.768691
Si Si2 0.844459 0.686386 0.798726
Si Si3 0.023204 0.229910 0.555436
Si Si4 0.000000 0.500000 0.500000
Si Si5 0.857162 0.167303 0.238416
Si Si6 0.232024 0.243589 0.019328
Si Si7 0.528241 0.525687 0.807736
Si Si8 0.826873 0.068685 0.999502
O O1 0.864736 0.497782 0.630459
O O2 0.532649 0.319444 0.509880
O O3 0.669931 0.047579 0.942604
O O4 0.711083 0.210053 0.982251
O O5 0.657199 0.483002 0.909660
O O6 0.946015 0.658959 0.831273
O O7 0.819734 0.908822 0.479057
O O8 0.989260 0.781438 0.926683
O O9 0.888563 0.188584 0.372123
O O10 0.910221 0.036585 0.768647
O O11 0.168362 0.165396 0.736086
O O12 0.851379 0.233993 0.721754
O O13 0.861560 0.600483 0.260681
O O14 0.352332 0.321251 0.155410
O O15 0.358049 0.308994 0.960662
#
# Coordination Sequence:
#
# PCOD9077160 Si02
#       8
#     2   2   2   1   2   2   2   2
#     4  11  22  33  64  88 116 148 203 239 292 342
#     4   9  17  34  59  81 117 151 197 235 290 341
#     4  10  20  40  60  86 115 157 198 241 274 358
#     4  10  14  34  58  80 100 162 192 220 266 374
#     4   9  18  36  59  83 109 165 195 232 280 364
#     4  10  21  35  62  80 125 153 193 238 299 341
#     4  11  20  35  55  95 117 151 184 259 298 329
#     4   9  18  35  56  82 109 157 194 224 281 355
#
# _framework density 24.956707000000002
#
# number of rings (size 3 to 8) (size 9 to 14) (size 15 to 20)
#    0.000    2.133    5.333    1.200    0.000    1.067 
#    0.000    0.667    5.867    6.400    0.000    0.000 
#    0.000    0.000    0.000    0.000    0.000    0.000 
#
# Total GULP energy -83552.401433 kJ/mol
# GULP energy per Si atom -5570.160096 kJ/mol
# Density = 2.489990 g / cm^3
# Si number density = 24.956707 Si / 1000 Ang^3
#
#
#
# Elastic Constant Matrix: (Units=GPa)
#
#
# Indices 1 2 3 4 5 6 
#
# 1 104.1618 33.7010 28.6589 9.3847 -16.4096 30.1929
# 2 33.7010 43.2485 36.3124 15.5263 2.4934 2.1121
# 3 28.6589 36.3124 151.0043 8.8628 -9.7957 -5.3564
# 4 9.3847 15.5263 8.8628 42.7534 -3.4820 -7.5438
# 5 -16.4096 2.4934 -9.7957 -3.4820 31.0300 2.7905
# 6 30.1929 2.1121 -5.3564 -7.5438 2.7905 43.3351
#
#
#
# Elastic Compliance Matrix: (Units=1/GPa)
#
#
# Indices 1 2 3 4 5 6 
#
# 1 0.021820 -0.017455 0.000456 -0.000057 0.014450 -0.015236
# 2 -0.017455 0.049067 -0.008657 -0.012295 -0.017980 0.007717
# 3 0.000456 -0.008657 0.008806 0.001749 0.003801 0.001252
# 4 -0.000057 -0.012295 0.001749 0.028839 0.004242 0.005602
# 5 0.014450 -0.017980 0.003801 0.004242 0.043961 -0.010814
# 6 -0.015236 0.007717 0.001252 0.005602 -0.010814 0.035142
#
#
# Mechanical properties :
#
#
# Convention : Reuss Voigt Hill
#
# Bulk Modulus (GPa) = 35.23506 55.08436 45.15971
# Shear Modulus (GPa) = 20.12823 36.73985 28.43404
#
# Velocity S-wave (km/s) = 2.84302 3.84101 3.37906
# Velocity P-wave (km/s) = 4.99261 6.46460 5.77569
#
# Compressibility (1/GPa) = 0.02838083
#
# Stress axis : x y z
#
# Youngs Moduli (GPa) = 45.82890 20.38042 113.56052
#
# Poissons Ratio (x) = 0.35574 -0.05184
# Poissons Ratio (y) = 0.79995 0.98314
# Poissons Ratio (z) = -0.02092 0.17644
#
# Static dielectric constant tensor:
#      x y z
#    x 2.052340 0.040850 -0.042720 
#    y 0.040850 2.029390 0.005930 
#    z -0.042720 0.005930 1.968900 
# 
# From -- ./inp_files/536576.got.cif
#   From: 2010.05.17/outbox.cif.g08.bks.cpg/sg2_269_cif.got.tgz:536576.got - 2010.06.03 11:33:40.
