data_PCOD9077860
_publ_section_title
;
Structure prediction by ZEFSAII (Michael W. Deem and Ramdas Pophale) SiO2 
 PCOD9077860
Probable space group: P -1
;
_chemical_formula_sum "Si O2"
_cell_formula_units_Z 16
_cell_length_a 11.185164
_cell_length_b 11.601306
_cell_length_c 19.401778
_cell_angle_alpha 116.818740
_cell_angle_beta 145.206854
_cell_angle_gamma 41.042655
_cell_volume 842.892245
_symmetry_space_group_name_H-M "P -1"
_symmetry_group_IT_number 2
_symmetry_cell_setting 'triclinic'
loop_
_space_group_symop_operation_xyz
x,y,z
-x,-y,-z
loop_
_atom_site_type_symbol
_atom_site_label
_atom_site_fract_x
_atom_site_fract_y
_atom_site_fract_z
Si Si1 0.520967 0.108353 0.437447
Si Si2 0.825295 0.815706 0.143517
Si Si3 0.393516 0.207967 0.563471
Si Si4 0.314002 0.515636 0.660898
Si Si5 0.836946 0.508819 0.689970
Si Si6 0.799309 0.329804 0.504737
Si Si7 0.139285 0.985282 0.666314
Si Si8 0.735076 0.531196 0.850450
O O1 0.506679 0.151165 0.523325
O O2 0.254221 0.302729 0.317833
O O3 0.492220 0.968154 0.386437
O O4 0.856561 0.013315 0.547589
O O5 0.856931 0.674970 0.170382
O O6 0.082058 0.654557 0.163550
O O7 0.885989 0.906632 0.249928
O O8 0.500000 0.000000 0.000000
O O9 0.477743 0.303147 0.665077
O O10 0.010543 0.367082 0.422315
O O11 0.220175 0.617048 0.568530
O O12 0.529046 0.528080 0.798983
O O13 0.851028 0.433219 0.602460
O O14 0.532199 0.581382 0.602435
O O15 0.067334 0.106067 0.597952
O O16 0.472284 0.754968 0.757644
O O17 0.000000 0.500000 0.000000
#
# Coordination Sequence:
#
# PCOD9077860 Si02
#       8
#     2   2   2   2   2   2   2   2
#     4  10  18  35  54  87 115 148 187 232 296 349
#     4  11  21  35  55  82 119 154 187 231 298 341
#     4  10  21  31  55  83 121 155 184 229 292 345
#     4  11  20  36  52  86 120 149 187 237 290 346
#     4   9  17  31  55  83 115 148 181 242 300 346
#     4   9  17  31  55  83 120 143 174 243 314 343
#     4  10  21  36  58  88 120 147 184 247 299 349
#     4  12  23  37  55  84 118 152 200 235 283 348
#
# _framework density 18.98226
#
# number of rings (size 3 to 8) (size 9 to 14) (size 15 to 20)
#    0.000    1.750    5.000    1.500    0.000    1.500 
#    0.000    0.000    0.000    0.000    0.000   29.750 
#    0.000    0.000    0.000    0.000    0.000    0.000 
#
# Total GULP energy -89147.511777 kJ/mol
# GULP energy per Si atom -5571.719486 kJ/mol
# Density = 1.893906 g / cm^3
# Si number density = 18.982260 Si / 1000 Ang^3
#
#
#
# Elastic Constant Matrix: (Units=GPa)
#
#
# Indices 1 2 3 4 5 6 
#
# 1 56.9903 30.4970 24.2622 -3.2097 -3.2105 10.9909
# 2 30.4970 142.1004 43.6043 -16.4830 -5.8563 22.9637
# 3 24.2622 43.6043 82.3361 -11.2633 -4.5140 16.3265
# 4 -3.2097 -16.4830 -11.2633 37.9362 7.6791 -5.4322
# 5 -3.2105 -5.8563 -4.5140 7.6791 18.5123 -4.4351
# 6 10.9909 22.9637 16.3265 -5.4322 -4.4351 44.5122
#
#
#
# Elastic Compliance Matrix: (Units=1/GPa)
#
#
# Indices 1 2 3 4 5 6 
#
# 1 0.021463 -0.003004 -0.004413 -0.001468 0.001794 -0.002131
# 2 -0.003004 0.009383 -0.003225 0.002491 0.000002 -0.002612
# 3 -0.004413 -0.003225 0.016075 0.002512 0.000423 -0.002794
# 4 -0.001468 0.002491 0.002512 0.030460 -0.011310 0.000746
# 5 0.001794 0.000002 0.000423 -0.011310 0.060085 0.004007
# 6 -0.002131 -0.002612 -0.002794 0.000746 0.004007 0.025855
#
#
# Mechanical properties :
#
#
# Convention : Reuss Voigt Hill
#
# Bulk Modulus (GPa) = 39.00894 53.12819 46.06856
# Shear Modulus (GPa) = 25.88675 32.39638 29.14157
#
# Velocity S-wave (km/s) = 3.69688 4.13566 3.92241
# Velocity P-wave (km/s) = 6.23036 7.13120 6.69595
#
# Compressibility (1/GPa) = 0.02563515
#
# Stress axis : x y z
#
# Youngs Moduli (GPa) = 46.59262 106.58007 62.20976
#
# Poissons Ratio (x) = 0.32015 0.27456
# Poissons Ratio (y) = 0.13996 0.20063
# Poissons Ratio (z) = 0.20564 0.34373
#
# Static dielectric constant tensor:
#      x y z
#    x 1.673200 -0.027250 -0.006020 
#    y -0.027250 1.751340 -0.012470 
#    z -0.006020 -0.012470 1.679530 
# 
# From -- ./inp_files/349169.got.cif
#   From: 2010.05.17/outbox.cif.g08.bks.cpg/sg2_175_cif.got.tgz:349169.got - 2010.06.03 11:33:40.
