data_PCOD9077693
_publ_section_title
;
Structure prediction by ZEFSAII (Michael W. Deem and Ramdas Pophale) SiO2 
 PCOD9077693
Probable space group: P -1
;
_chemical_formula_sum "Si O2"
_cell_formula_units_Z 15
_cell_length_a 12.428167
_cell_length_b 9.258937
_cell_length_c 18.665781
_cell_angle_alpha 61.286868
_cell_angle_beta 30.070597
_cell_angle_gamma 82.839986
_cell_volume 707.070774
_symmetry_space_group_name_H-M "P -1"
_symmetry_group_IT_number 2
_symmetry_cell_setting 'triclinic'
loop_
_space_group_symop_operation_xyz
x,y,z
-x,-y,-z
loop_
_atom_site_type_symbol
_atom_site_label
_atom_site_fract_x
_atom_site_fract_y
_atom_site_fract_z
Si Si1 0.500000 0.000000 0.500000
Si Si2 0.212323 0.510685 0.822015
Si Si3 0.931677 0.710703 0.797425
Si Si4 0.808878 0.264404 0.987931
Si Si5 0.178833 0.817186 0.156850
Si Si6 0.814740 0.996716 0.547199
Si Si7 0.572809 0.306877 0.855747
Si Si8 0.709494 0.638144 0.588847
O O1 0.415969 0.757296 0.614533
O O2 0.220253 0.881025 0.636715
O O3 0.399063 0.479139 0.768180
O O4 0.016542 0.324512 0.919515
O O5 0.000000 0.500000 0.000000
O O6 0.830251 0.472880 0.921413
O O7 0.998002 0.783070 0.659452
O O8 0.686774 0.707960 0.966927
O O9 0.909896 0.241389 0.860217
O O10 0.473001 0.062745 0.244081
O O11 0.273216 0.687891 0.164377
O O12 0.940319 0.756235 0.364564
O O13 0.442065 0.078406 0.947876
O O14 0.726452 0.810366 0.585760
O O15 0.000000 0.000000 0.500000
O O16 0.750933 0.506139 0.649757
#
# Coordination Sequence:
#
# PCOD9077693 Si02
#       8
#     1   2   2   2   2   2   2   2
#     4  10  18  34  62  94 122 156 210 256 314 366
#     4  11  20  40  67  93 126 164 213 263 312 376
#     4  11  21  40  66  94 124 169 211 266 310 377
#     4  11  25  41  65  99 127 162 214 269 311 373
#     4  11  26  42  60  94 132 168 211 259 324 378
#     4  12  24  37  64  96 127 160 214 261 308 374
#     4  11  23  42  65  86 130 177 209 255 321 384
#     4  12  23  43  65  93 126 174 211 258 322 383
#
# _framework density 21.214282999999998
#
# number of rings (size 3 to 8) (size 9 to 14) (size 15 to 20)
#    0.000    0.800    5.333    2.000    3.733    2.667 
#    0.000    0.667    0.000    0.000    0.000    0.000 
#    0.000    0.000    0.000    0.000    0.000    0.000 
#
# Total GULP energy -83621.119799 kJ/mol
# GULP energy per Si atom -5574.741320 kJ/mol
# Density = 2.116600 g / cm^3
# Si number density = 21.214283 Si / 1000 Ang^3
#
#
#
# Elastic Constant Matrix: (Units=GPa)
#
#
# Indices 1 2 3 4 5 6 
#
# 1 67.8983 -6.0455 7.1692 3.7331 2.8400 15.0814
# 2 -6.0455 25.8648 2.6921 0.0593 14.8141 8.1732
# 3 7.1692 2.6921 46.4550 11.9059 9.3484 14.1084
# 4 3.7331 0.0593 11.9059 16.5503 4.3013 3.0161
# 5 2.8400 14.8141 9.3484 4.3013 27.7652 0.5867
# 6 15.0814 8.1732 14.1084 3.0161 0.5867 42.4660
#
#
#
# Elastic Compliance Matrix: (Units=1/GPa)
#
#
# Indices 1 2 3 4 5 6 
#
# 1 0.017965 0.011381 0.001142 -0.001263 -0.007914 -0.008751
# 2 0.011381 0.070882 0.006877 0.006748 -0.041924 -0.019869
# 3 0.001142 0.006877 0.030975 -0.017708 -0.011248 -0.010607
# 4 -0.001263 0.006748 -0.017708 0.075869 -0.009257 -0.000228
# 5 -0.007914 -0.041924 -0.011248 -0.009257 0.064112 0.014388
# 6 -0.008751 -0.019869 -0.010607 -0.000228 0.014388 0.033821
#
#
# Mechanical properties :
#
#
# Convention : Reuss Voigt Hill
#
# Bulk Modulus (GPa) = 6.30432 16.42777 11.36604
# Shear Modulus (GPa) = 16.24974 26.44977 21.34975
#
# Velocity S-wave (km/s) = 2.77064 3.53482 3.17580
# Velocity P-wave (km/s) = 3.63503 4.94171 4.33785
#
# Compressibility (1/GPa) = 0.15862143
#
# Stress axis : x y z
#
# Youngs Moduli (GPa) = 55.66444 14.10796 32.28452
#
# Poissons Ratio (x) = -0.16056 -0.03686
# Poissons Ratio (y) = -0.63351 -0.22203
# Poissons Ratio (z) = -0.06356 -0.09703
#
# Static dielectric constant tensor:
#      x y z
#    x 1.811000 -0.022370 0.009320 
#    y -0.022370 1.750660 -0.010740 
#    z 0.009320 -0.010740 1.784840 
# 
# From -- ./inp_files/179730.got.cif
#   From: 2010.05.17/outbox.cif.g08.bks.cpg/sg2_90_cif.got.tgz:179730.got - 2010.06.03 11:33:40.
