data_PCOD9077770
_publ_section_title
;
Structure prediction by ZEFSAII (Michael W. Deem and Ramdas Pophale) SiO2 
 PCOD9077770
Probable space group: P -1
;
_chemical_formula_sum "Si O2"
_cell_formula_units_Z 16
_cell_length_a 14.165108
_cell_length_b 20.180921
_cell_length_c 8.265186
_cell_angle_alpha 72.180770
_cell_angle_beta 58.744419
_cell_angle_gamma 24.108098
_cell_volume 723.778590
_symmetry_space_group_name_H-M "P -1"
_symmetry_group_IT_number 2
_symmetry_cell_setting 'triclinic'
loop_
_space_group_symop_operation_xyz
x,y,z
-x,-y,-z
loop_
_atom_site_type_symbol
_atom_site_label
_atom_site_fract_x
_atom_site_fract_y
_atom_site_fract_z
Si Si1 0.895893 0.645811 0.700931
Si Si2 0.588504 0.872415 0.082367
Si Si3 0.445374 0.758698 0.619244
Si Si4 0.301963 0.910568 0.971336
Si Si5 0.163405 0.994627 0.377906
Si Si6 0.705168 0.308127 0.134538
Si Si7 0.757910 0.306624 0.726597
Si Si8 0.689718 0.914190 0.542881
O O1 0.830159 0.760578 0.601090
O O2 0.206088 0.434203 0.536332
O O3 0.871490 0.675581 0.893218
O O4 0.624516 0.754747 0.816135
O O5 0.328942 0.969902 0.205422
O O6 0.567951 0.895877 0.270948
O O7 0.500000 0.000000 0.000000
O O8 0.323171 0.866926 0.485712
O O9 0.393458 0.706743 0.690075
O O10 0.302302 0.867247 0.835187
O O11 0.204563 0.931979 0.214536
O O12 0.047330 0.116500 0.015072
O O13 0.854402 0.200304 0.573882
O O14 0.505065 0.488033 0.236487
O O15 0.668513 0.322273 0.962282
O O16 0.040010 0.189359 0.616433
O O17 0.500000 0.000000 0.500000
#
# Coordination Sequence:
#
# PCOD9077770 Si02
#       8
#     2   2   2   2   2   2   2   2
#     4  10  21  40  62  92 129 167 208 265 319 376
#     4   8  18  36  59  89 127 162 202 264 318 369
#     4  12  24  44  65  95 136 173 206 267 325 380
#     4  11  24  42  66  96 129 169 219 261 315 395
#     4  10  23  41  69  92 129 172 214 262 328 375
#     4  11  23  42  68  91 130 171 217 268 323 374
#     4  10  21  42  66  94 126 173 216 268 325 377
#     4  10  18  34  64  96 125 163 214 264 324 373
#
# _framework density 22.106207999999999
#
# number of rings (size 3 to 8) (size 9 to 14) (size 15 to 20)
#    0.000    1.750    2.500    1.500    1.750    3.000 
#    2.250    0.000    2.750    0.000    0.000    0.000 
#    0.000    0.000    0.000    0.000    0.000    0.000 
#
# Total GULP energy -89174.558010 kJ/mol
# GULP energy per Si atom -5573.409876 kJ/mol
# Density = 2.205589 g / cm^3
# Si number density = 22.106208 Si / 1000 Ang^3
#
#
#
# Elastic Constant Matrix: (Units=GPa)
#
#
# Indices 1 2 3 4 5 6 
#
# 1 43.2944 31.8099 26.9286 3.1503 -2.6052 -3.4077
# 2 31.8099 124.0377 62.2653 14.4700 10.8327 5.0083
# 3 26.9286 62.2653 98.7458 18.1103 22.3461 4.3115
# 4 3.1503 14.4700 18.1103 32.9377 2.6833 -3.3377
# 5 -2.6052 10.8327 22.3461 2.6833 40.8193 -2.5148
# 6 -3.4077 5.0083 4.3115 -3.3377 -2.5148 27.5099
#
#
#
# Elastic Compliance Matrix: (Units=1/GPa)
#
#
# Indices 1 2 3 4 5 6 
#
# 1 0.033519 -0.005895 -0.008457 0.004132 0.008544 0.007833
# 2 -0.005895 0.012945 -0.005940 -0.002060 -0.000576 -0.002459
# 3 -0.008457 -0.005940 0.019908 -0.007230 -0.009685 -0.004849
# 4 0.004132 -0.002060 -0.007230 0.035278 0.002854 0.006561
# 5 0.008544 -0.000576 -0.009685 0.002854 0.030670 0.005831
# 6 0.007833 -0.002459 -0.004849 0.006561 0.005831 0.039857
#
#
# Mechanical properties :
#
#
# Convention : Reuss Voigt Hill
#
# Bulk Modulus (GPa) = 38.77615 56.45395 47.61505
# Shear Modulus (GPa) = 22.58774 29.92500 26.25637
#
# Velocity S-wave (km/s) = 3.20000 3.68325 3.45010
# Velocity P-wave (km/s) = 5.58858 6.60919 6.12020
#
# Compressibility (1/GPa) = 0.02578905
#
# Stress axis : x y z
#
# Youngs Moduli (GPa) = 29.83347 77.24695 50.23054
#
# Poissons Ratio (x) = 0.45540 0.42479
# Poissons Ratio (y) = 0.17588 0.29836
# Poissons Ratio (z) = 0.25230 0.45883
#
# Static dielectric constant tensor:
#      x y z
#    x 2.329280 -0.216980 -0.229140 
#    y -0.216980 1.885490 0.063190 
#    z -0.229140 0.063190 2.059420 
# 
# From -- ./inp_files/319328.got.cif
#   From: 2010.05.17/outbox.cif.g08.bks.cpg/sg2_160_cif.got.tgz:319328.got - 2010.06.03 11:33:40.
