data_PCOD9077831
_publ_section_title
;
Structure prediction by ZEFSAII (Michael W. Deem and Ramdas Pophale) SiO2 
 PCOD9077831
Probable space group: P -1
;
_chemical_formula_sum "Si O2"
_cell_formula_units_Z 14
_cell_length_a 7.862488
_cell_length_b 13.437766
_cell_length_c 10.367780
_cell_angle_alpha 139.692034
_cell_angle_beta 106.728247
_cell_angle_gamma 98.955266
_cell_volume 540.045501
_symmetry_space_group_name_H-M "P -1"
_symmetry_group_IT_number 2
_symmetry_cell_setting 'triclinic'
loop_
_space_group_symop_operation_xyz
x,y,z
-x,-y,-z
loop_
_atom_site_type_symbol
_atom_site_label
_atom_site_fract_x
_atom_site_fract_y
_atom_site_fract_z
Si Si1 0.661250 0.838346 0.694996
Si Si2 0.623196 0.182629 0.610033
Si Si3 0.738447 0.069170 0.168699
Si Si4 0.117434 0.374236 0.925190
Si Si5 0.780309 0.543670 0.690224
Si Si6 0.363205 0.245162 0.980301
Si Si7 0.834627 0.592609 0.454924
O O1 0.565675 0.894519 0.616761
O O2 0.809862 0.004166 0.995166
O O3 0.437375 0.672709 0.556876
O O4 0.754975 0.727791 0.550168
O O5 0.708895 0.406975 0.876234
O O6 0.500000 0.000000 0.500000
O O7 0.868034 0.243019 0.687945
O O8 0.716905 0.956362 0.179628
O O9 0.500000 0.000000 0.000000
O O10 0.927456 0.296553 0.449923
O O11 0.077270 0.402852 0.095997
O O12 0.235461 0.268692 0.861117
O O13 0.685461 0.665432 0.821033
O O14 0.868961 0.583143 0.605367
O O15 0.628716 0.382982 0.154660
#
# Coordination Sequence:
#
# PCOD9077831 Si02
#       7
#     2   2   2   2   2   2   2
#     4  10  18  35  53  80 108 134 172 215 259 313
#     4  10  19  28  50  84 110 127 169 218 265 294
#     4  12  25  33  50  82 110 138 175 214 262 315
#     4   8  18  31  47  80 111 128 162 222 263 301
#     4   8  15  31  56  76 101 135 166 214 261 310
#     4   9  18  35  53  74 109 134 173 214 264 313
#     4  11  18  33  59  76  97 142 174 212 273 312
#
# _framework density 25.923739999999999
#
# number of rings (size 3 to 8) (size 9 to 14) (size 15 to 20)
#    0.857    1.429    4.286    1.286    4.000    0.571 
#    0.000    0.000    0.000    0.857    0.000    2.000 
#    0.000    0.000    0.000    0.000    0.000    0.000 
#
# Total GULP energy -78145.203484 kJ/mol
# GULP energy per Si atom -5581.800249 kJ/mol
# Density = 2.586474 g / cm^3
# Si number density = 25.923740 Si / 1000 Ang^3
#
#
#
# Elastic Constant Matrix: (Units=GPa)
#
#
# Indices 1 2 3 4 5 6 
#
# 1 62.4417 29.3472 25.5156 1.6747 17.9937 -9.0191
# 2 29.3472 189.6433 68.3227 26.8380 5.2715 -19.8590
# 3 25.5156 68.3227 101.5869 19.5493 19.9620 4.5915
# 4 1.6747 26.8380 19.5493 42.0081 12.3076 0.1430
# 5 17.9937 5.2715 19.9620 12.3076 36.5017 1.2732
# 6 -9.0191 -19.8590 4.5915 0.1430 1.2732 25.0868
#
#
#
# Elastic Compliance Matrix: (Units=1/GPa)
#
#
# Indices 1 2 3 4 5 6 
#
# 1 0.022446 -0.001738 -0.003680 0.005061 -0.010783 0.007886
# 2 -0.001738 0.008878 -0.005849 -0.004043 0.003882 0.007299
# 3 -0.003680 -0.005849 0.016576 -0.002234 -0.005350 -0.008703
# 4 0.005061 -0.004043 -0.002234 0.030429 -0.010929 -0.000591
# 5 -0.010783 0.003882 -0.005350 -0.010929 0.038822 -0.001732
# 6 0.007886 0.007299 -0.008703 -0.000591 -0.001732 0.050159
#
#
# Mechanical properties :
#
#
# Convention : Reuss Voigt Hill
#
# Bulk Modulus (GPa) = 39.42365 66.67143 53.04754
# Shear Modulus (GPa) = 25.21418 36.08507 30.64963
#
# Velocity S-wave (km/s) = 3.12208 3.73496 3.44219
# Velocity P-wave (km/s) = 5.31386 6.66138 6.02541
#
# Compressibility (1/GPa) = 0.02536548
#
# Stress axis : x y z
#
# Youngs Moduli (GPa) = 44.55071 112.63970 60.32711
#
# Poissons Ratio (x) = 0.19581 0.22201
# Poissons Ratio (y) = 0.07745 0.35285
# Poissons Ratio (z) = 0.16395 0.65882
#
# Static dielectric constant tensor:
#      x y z
#    x 2.163020 -0.050220 -0.074950 
#    y -0.050220 2.078330 -0.006490 
#    z -0.074950 -0.006490 2.047100 
# 
# From -- ./inp_files/504505.got.cif
#   From: 2010.05.17/outbox.cif.g08.bks.cpg/sg2_253_cif.got.tgz:504505.got - 2010.06.03 11:33:40.
