data_PCOD9077585
_publ_section_title
;
Structure prediction by ZEFSAII (Michael W. Deem and Ramdas Pophale) SiO2 
 PCOD9077585
Probable space group: P -1
;
_chemical_formula_sum "Si O2"
_cell_formula_units_Z 16
_cell_length_a 10.895942
_cell_length_b 16.895365
_cell_length_c 19.837949
_cell_angle_alpha 158.387509
_cell_angle_beta 44.101723
_cell_angle_gamma 126.489729
_cell_volume 897.419226
_symmetry_space_group_name_H-M "P -1"
_symmetry_group_IT_number 2
_symmetry_cell_setting 'triclinic'
loop_
_space_group_symop_operation_xyz
x,y,z
-x,-y,-z
loop_
_atom_site_type_symbol
_atom_site_label
_atom_site_fract_x
_atom_site_fract_y
_atom_site_fract_z
Si Si1 0.262058 0.441166 0.661988
Si Si2 0.688310 0.812189 0.694639
Si Si3 0.844273 0.441127 0.840839
Si Si4 0.037393 0.935625 0.607394
Si Si5 0.345914 0.064505 0.669942
Si Si6 0.516898 0.667225 0.385837
Si Si7 0.524553 0.700958 0.804250
Si Si8 0.145874 0.636203 0.069276
O O1 0.330764 0.331339 0.476560
O O2 0.360857 0.285851 0.562725
O O3 0.335568 0.656690 0.815404
O O4 0.045490 0.481359 0.784387
O O5 0.654826 0.702247 0.690900
O O6 0.889920 0.846644 0.636002
O O7 0.537803 0.055517 0.945010
O O8 0.836409 0.264298 0.646255
O O9 0.842318 0.343535 0.839294
O O10 0.693198 0.680686 0.088252
O O11 0.161348 0.039773 0.688156
O O12 0.921333 0.126510 0.753628
O O13 0.500000 0.000000 0.500000
O O14 0.404460 0.887447 0.566919
O O15 0.406836 0.506341 0.335654
O O16 0.660985 0.510176 0.152961
O O17 0.000000 0.500000 0.000000
#
# Coordination Sequence:
#
# PCOD9077585 Si02
#       8
#     2   2   2   2   2   2   2   2
#     4   9  19  35  57  85 107 139 185 229 272 322
#     4  10  18  34  61  85 107 136 184 240 275 316
#     4  11  22  36  59  82 110 149 187 228 273 325
#     4  11  23  37  57  85 108 146 189 232 270 329
#     4  12  23  40  53  75 122 154 182 220 277 335
#     4  10  20  35  55  81 112 148 180 225 273 332
#     4   9  18  34  56  88 109 138 179 232 285 316
#     4  12  17  37  58  80 111 143 185 231 280 319
#
# _framework density 17.828903
#
# number of rings (size 3 to 8) (size 9 to 14) (size 15 to 20)
#    0.750    0.750    5.000    1.500    0.000    0.500 
#    2.250    0.625    0.000    3.000    0.000    0.000 
#    0.000    0.000    0.000    0.000    0.000    0.000 
#
# Total GULP energy -89218.972588 kJ/mol
# GULP energy per Si atom -5576.185787 kJ/mol
# Density = 1.778832 g / cm^3
# Si number density = 17.828903 Si / 1000 Ang^3
#
#
#
# Elastic Constant Matrix: (Units=GPa)
#
#
# Indices 1 2 3 4 5 6 
#
# 1 14.8495 5.1548 20.9138 -0.5986 -1.1231 -12.0907
# 2 5.1548 86.5316 11.6977 -5.1392 -7.8082 -21.5875
# 3 20.9138 11.6977 88.9268 -0.9706 -0.3801 -22.3540
# 4 -0.5986 -5.1392 -0.9706 28.3845 -9.4057 3.1967
# 5 -1.1231 -7.8082 -0.3801 -9.4057 25.9001 5.5937
# 6 -12.0907 -21.5875 -22.3540 3.1967 5.5937 23.4508
#
#
#
# Elastic Compliance Matrix: (Units=1/GPa)
#
#
# Indices 1 2 3 4 5 6 
#
# 1 0.145167 0.010070 -0.018031 -0.006342 -0.008306 0.069773
# 2 0.010070 0.016084 0.000563 0.001382 0.001477 0.019994
# 3 -0.018031 0.000563 0.017627 -0.001635 -0.002877 0.008934
# 4 -0.006342 0.001382 -0.001635 0.043074 0.018763 -0.013904
# 5 -0.008306 0.001477 -0.002877 0.018763 0.049808 -0.020103
# 6 0.069773 0.019994 0.008934 -0.013904 -0.020103 0.112228
#
#
# Mechanical properties :
#
#
# Convention : Reuss Voigt Hill
#
# Bulk Modulus (GPa) = 6.09445 29.53784 17.81614
# Shear Modulus (GPa) = 11.02591 25.71652 18.37122
#
# Velocity S-wave (km/s) = 2.48952 3.80202 3.21349
# Velocity P-wave (km/s) = 3.41897 5.98976 4.87681
#
# Compressibility (1/GPa) = 0.16408382
#
# Stress axis : x y z
#
# Youngs Moduli (GPa) = 6.88863 62.17434 56.73038
#
# Poissons Ratio (x) = -0.62610 1.02288
# Poissons Ratio (y) = -0.06937 -0.03196
# Poissons Ratio (z) = 0.12421 -0.03503
#
# Static dielectric constant tensor:
#      x y z
#    x 1.595590 0.003810 0.005710 
#    y 0.003810 1.622800 0.002920 
#    z 0.005710 0.002920 1.608170 
# 
# From -- ./inp_files/460361.got.cif
#   From: 2010.05.17/outbox.cif.g08.bks.cpg/sg2_231_cif.got.tgz:460361.got - 2010.06.03 11:33:40.
