data_PCOD9077127
_publ_section_title
;
Structure prediction by ZEFSAII (Michael W. Deem and Ramdas Pophale) SiO2 
 PCOD9077127
Probable space group: P -1
;
_chemical_formula_sum "Si O2"
_cell_formula_units_Z 14
_cell_length_a 11.211375
_cell_length_b 12.121216
_cell_length_c 6.315523
_cell_angle_alpha 104.414913
_cell_angle_beta 57.868025
_cell_angle_gamma 118.551510
_cell_volume 638.386343
_symmetry_space_group_name_H-M "P -1"
_symmetry_group_IT_number 2
_symmetry_cell_setting 'triclinic'
loop_
_space_group_symop_operation_xyz
x,y,z
-x,-y,-z
loop_
_atom_site_type_symbol
_atom_site_label
_atom_site_fract_x
_atom_site_fract_y
_atom_site_fract_z
Si Si1 0.279407 0.857208 0.584219
Si Si2 0.990120 0.678163 0.556152
Si Si3 0.571278 0.661758 0.306092
Si Si4 0.511248 0.879154 0.696128
Si Si5 0.252649 0.430903 0.595075
Si Si6 0.465454 0.745140 0.079059
Si Si7 0.831806 0.447413 0.917372
O O1 0.101403 0.795531 0.648871
O O2 0.340460 0.863160 0.770337
O O3 0.356791 0.771109 0.365450
O O4 0.367004 0.994275 0.465024
O O5 0.099735 0.649956 0.268069
O O6 0.849113 0.666331 0.531826
O O7 0.916622 0.564497 0.737896
O O8 0.546937 0.765402 0.520677
O O9 0.412985 0.533760 0.397977
O O10 0.704216 0.634399 0.279094
O O11 0.590651 0.716178 0.077059
O O12 0.522803 0.864486 0.928182
O O13 0.164067 0.508859 0.823493
O O14 0.351110 0.623659 0.000279
#
# Coordination Sequence:
#
# PCOD9077127 Si02
#       7
#     2   2   2   2   2   2   2
#     4   9  21  35  56  82 107 140 186 223 273 326
#     4  10  21  36  54  83 113 140 179 225 273 334
#     4  10  22  34  55  82 111 145 188 219 265 325
#     4  10  19  37  57  79 108 143 181 233 267 313
#     4  11  21  36  53  81 115 148 178 223 269 324
#     4  10  18  34  56  83 108 139 182 229 271 315
#     4  10  20  32  56  82 110 142 176 224 283 319
#
# _framework density 21.930295000000001
#
# number of rings (size 3 to 8) (size 9 to 14) (size 15 to 20)
#    0.000    2.000    2.857    0.857    2.000    4.000 
#    0.000    0.714    0.000    1.714    0.000    0.000 
#    0.000    0.000    0.000    0.000    0.000    0.000 
#
# Total GULP energy -78096.177920 kJ/mol
# GULP energy per Si atom -5578.298423 kJ/mol
# Density = 2.188038 g / cm^3
# Si number density = 21.930295 Si / 1000 Ang^3
#
#
#
# Elastic Constant Matrix: (Units=GPa)
#
#
# Indices 1 2 3 4 5 6 
#
# 1 101.2691 39.5873 16.8840 -7.5346 23.5742 8.6848
# 2 39.5873 75.8146 0.2598 -10.3499 11.2063 12.3312
# 3 16.8840 0.2598 52.3773 -8.6221 9.0634 -4.6127
# 4 -7.5346 -10.3499 -8.6221 27.0974 -8.4278 5.9175
# 5 23.5742 11.2063 9.0634 -8.4278 32.3860 -2.5765
# 6 8.6848 12.3312 -4.6127 5.9175 -2.5765 23.3566
#
#
#
# Elastic Compliance Matrix: (Units=1/GPa)
#
#
# Indices 1 2 3 4 5 6 
#
# 1 0.015139 -0.006206 -0.003926 -0.001199 -0.008384 -0.003749
# 2 -0.006206 0.019321 0.002666 0.008110 -0.001567 -0.009594
# 3 -0.003926 0.002666 0.021933 0.005522 -0.002551 0.002704
# 4 -0.001199 0.008110 0.005522 0.046795 0.007604 -0.013762
# 5 -0.008384 -0.001567 -0.002551 0.007604 0.040693 0.006003
# 6 -0.003749 -0.009594 0.002704 -0.013762 0.006003 0.053957
#
#
# Mechanical properties :
#
#
# Convention : Reuss Voigt Hill
#
# Bulk Modulus (GPa) = 24.11954 38.10258 31.11106
# Shear Modulus (GPa) = 22.06616 28.08334 25.07475
#
# Velocity S-wave (km/s) = 3.17550 3.58239 3.38506
# Velocity P-wave (km/s) = 4.94643 5.87567 5.43096
#
# Compressibility (1/GPa) = 0.04146015
#
# Stress axis : x y z
#
# Youngs Moduli (GPa) = 66.05249 51.75776 45.59325
#
# Poissons Ratio (x) = 0.32123 0.17901
# Poissons Ratio (y) = 0.40995 -0.12155
# Poissons Ratio (z) = 0.25934 -0.13799
#
# Static dielectric constant tensor:
#      x y z
#    x 1.914900 0.011910 0.025220 
#    y 0.011910 1.800700 0.043800 
#    z 0.025220 0.043800 1.902160 
# 
# From -- ./inp_files/66274.got.cif
#   From: 2010.05.17/outbox.cif.g08.bks.cpg/sg2_34_cif.got.tgz:66274.got - 2010.06.03 11:33:40.
