data_PCOD9077962
_publ_section_title
;
Structure prediction by ZEFSAII (Michael W. Deem and Ramdas Pophale) SiO2 
 PCOD9077962
Probable space group: P -1
;
_chemical_formula_sum "Si O2"
_cell_formula_units_Z 12
_cell_length_a 18.674254
_cell_length_b 7.241073
_cell_length_c 7.544690
_cell_angle_alpha 40.319952
_cell_angle_beta 57.582548
_cell_angle_gamma 55.323135
_cell_volume 532.747585
_symmetry_space_group_name_H-M "P -1"
_symmetry_group_IT_number 2
_symmetry_cell_setting 'triclinic'
loop_
_space_group_symop_operation_xyz
x,y,z
-x,-y,-z
loop_
_atom_site_type_symbol
_atom_site_label
_atom_site_fract_x
_atom_site_fract_y
_atom_site_fract_z
Si Si1 0.934771 0.329239 0.472413
Si Si2 0.836561 0.827146 0.001977
Si Si3 0.073900 0.091340 0.715907
Si Si4 0.739556 0.041283 0.324393
Si Si5 0.305059 0.065468 0.179941
Si Si6 0.600344 0.498929 0.355320
O O1 0.908419 0.516425 0.189659
O O2 0.917473 0.596863 0.444257
O O3 0.035355 0.144104 0.529154
O O4 0.878250 0.101790 0.744243
O O5 0.765700 0.897168 0.206159
O O6 0.782425 0.825862 0.898681
O O7 0.172920 0.879140 0.772730
O O8 0.000000 0.000000 0.000000
O O9 0.651472 0.318098 0.248543
O O10 0.719008 0.833687 0.658616
O O11 0.342672 0.707839 0.412738
O O12 0.381407 0.186620 0.910034
O O13 0.500000 0.500000 0.500000
#
# Coordination Sequence:
#
# PCOD9077962 Si02
#       6
#     2   2   2   2   2   2
#     4  10  20  32  58  82 123 157 197 240 283 340
#     4  11  21  39  59  89 119 159 195 244 290 346
#     4  10  18  35  56  91 118 158 202 240 284 343
#     4   9  23  36  65  84 119 159 201 233 299 345
#     4  10  23  40  63  87 121 151 196 247 295 350
#     4  10  22  43  65  87 119 153 193 248 300 352
#
# _framework density 22.524737999999999
#
# number of rings (size 3 to 8) (size 9 to 14) (size 15 to 20)
#    1.000    1.000    3.333    1.500    4.667    0.000 
#    0.000    3.333    0.000    0.000    0.000    0.000 
#    0.000    0.000    0.000    0.000    0.000    0.000 
#
# Total GULP energy -66913.001356 kJ/mol
# GULP energy per Si atom -5576.083446 kJ/mol
# Density = 2.247347 g / cm^3
# Si number density = 22.524738 Si / 1000 Ang^3
#
#
#
# Elastic Constant Matrix: (Units=GPa)
#
#
# Indices 1 2 3 4 5 6 
#
# 1 53.5071 13.2753 38.4458 8.8115 -4.9034 -9.6299
# 2 13.2753 72.9361 21.4490 5.5813 -6.7146 -15.9462
# 3 38.4458 21.4490 154.2888 -4.6947 -13.3748 2.8446
# 4 8.8115 5.5813 -4.6947 25.7076 -5.9186 -9.2193
# 5 -4.9034 -6.7146 -13.3748 -5.9186 45.9157 6.7999
# 6 -9.6299 -15.9462 2.8446 -9.2193 6.7999 31.6774
#
#
#
# Elastic Compliance Matrix: (Units=1/GPa)
#
#
# Indices 1 2 3 4 5 6 
#
# 1 0.026152 -0.000925 -0.006858 -0.008158 -0.001280 0.006001
# 2 -0.000925 0.016322 -0.002170 -0.000721 0.000403 0.007834
# 3 -0.006858 -0.002170 0.008890 0.003805 0.002536 -0.003412
# 4 -0.008158 -0.000721 0.003805 0.047050 0.004793 0.009480
# 5 -0.001280 0.000403 0.002536 0.004793 0.023665 -0.004099
# 6 0.006001 0.007834 -0.003412 0.009480 -0.004099 0.041281
#
#
# Mechanical properties :
#
#
# Convention : Reuss Voigt Hill
#
# Bulk Modulus (GPa) = 31.78721 47.45245 39.61983
# Shear Modulus (GPa) = 25.80607 34.49761 30.15184
#
# Velocity S-wave (km/s) = 3.38846 3.91774 3.66267
# Velocity P-wave (km/s) = 5.42693 6.44806 5.95941
#
# Compressibility (1/GPa) = 0.03145920
#
# Stress axis : x y z
#
# Youngs Moduli (GPa) = 38.23755 61.26653 112.48057
#
# Poissons Ratio (x) = 0.05666 0.77139
# Poissons Ratio (y) = 0.03536 0.24409
# Poissons Ratio (z) = 0.26223 0.13295
#
# Static dielectric constant tensor:
#      x y z
#    x 1.832860 -0.009010 0.040780 
#    y -0.009010 1.927680 -0.015610 
#    z 0.040780 -0.015610 1.889140 
# 
# From -- ./inp_files/33210.got.cif
#   From: 2010.05.17/outbox.cif.g08.bks.cpg/sg2_17_cif.got.tgz:33210.got - 2010.06.03 11:33:40.
