data_PCOD9077534
_publ_section_title
;
Structure prediction by ZEFSAII (Michael W. Deem and Ramdas Pophale) SiO2 
 PCOD9077534
Probable space group: P -1
;
_chemical_formula_sum "Si O2"
_cell_formula_units_Z 16
_cell_length_a 9.105142
_cell_length_b 15.831220
_cell_length_c 20.282407
_cell_angle_alpha 146.174642
_cell_angle_beta 142.557560
_cell_angle_gamma 63.194235
_cell_volume 779.120468
_symmetry_space_group_name_H-M "P -1"
_symmetry_group_IT_number 2
_symmetry_cell_setting 'triclinic'
loop_
_space_group_symop_operation_xyz
x,y,z
-x,-y,-z
loop_
_atom_site_type_symbol
_atom_site_label
_atom_site_fract_x
_atom_site_fract_y
_atom_site_fract_z
Si Si1 0.668069 0.621570 0.752853
Si Si2 0.757289 0.069969 0.930591
Si Si3 0.687047 0.847476 0.141203
Si Si4 0.277762 0.052157 0.934668
Si Si5 0.336153 0.488616 0.089501
Si Si6 0.049794 0.598851 0.975447
Si Si7 0.839270 0.800265 0.720655
Si Si8 0.616572 0.910053 0.436604
O O1 0.351604 0.427558 0.490160
O O2 0.920427 0.761010 0.878986
O O3 0.828486 0.550844 0.806748
O O4 0.625492 0.753404 0.868636
O O5 0.853184 0.088490 0.053088
O O6 0.503806 0.100160 0.855005
O O7 0.661563 0.874162 0.736805
O O8 0.728555 0.917843 0.125880
O O9 0.517720 0.618958 0.933863
O O10 0.024081 0.944618 0.353123
O O11 0.948312 0.880706 0.737818
O O12 0.500000 0.000000 0.000000
O O13 0.553013 0.719398 0.323137
O O14 0.114872 0.401506 0.017448
O O15 0.135831 0.460536 0.935801
O O16 0.377798 0.811794 0.226580
O O17 0.500000 0.000000 0.500000
#
# Coordination Sequence:
#
# PCOD9077534 Si02
#       8
#     2   2   2   2   2   2   2   2
#     4  11  22  42  65  86 123 168 202 250 313 362
#     4  10  24  43  60  88 123 165 211 245 301 383
#     4  12  21  39  63  90 130 159 197 258 314 349
#     4  11  23  39  61  99 125 147 209 268 295 364
#     4   9  19  34  56  91 123 152 197 251 296 367
#     4   9  18  36  56  89 120 148 207 242 292 370
#     4  10  23  44  65  83 121 172 204 249 309 367
#     4  10  18  34  60  89 123 164 193 245 312 362
#
# _framework density 20.535976999999999
#
# number of rings (size 3 to 8) (size 9 to 14) (size 15 to 20)
#    0.750    1.000    3.750    0.375    1.750    1.500 
#    6.750    1.250    0.000    0.000    0.000    0.000 
#    0.000    0.000    0.000    0.000    0.000    0.000 
#
# Total GULP energy -89159.665758 kJ/mol
# GULP energy per Si atom -5572.479110 kJ/mol
# Density = 2.048924 g / cm^3
# Si number density = 20.535977 Si / 1000 Ang^3
#
#
#
# Elastic Constant Matrix: (Units=GPa)
#
#
# Indices 1 2 3 4 5 6 
#
# 1 54.6057 10.8087 15.1847 8.7429 1.2018 -17.4496
# 2 10.8087 74.1825 -0.6094 4.6183 0.7472 -14.6485
# 3 15.1847 -0.6094 61.1257 17.2845 7.8724 -12.1184
# 4 8.7429 4.6183 17.2845 31.4362 6.1315 -2.4699
# 5 1.2018 0.7472 7.8724 6.1315 8.7997 -4.3120
# 6 -17.4496 -14.6485 -12.1184 -2.4699 -4.3120 41.0749
#
#
#
# Elastic Compliance Matrix: (Units=1/GPa)
#
#
# Indices 1 2 3 4 5 6 
#
# 1 0.023030 -0.001420 -0.003592 -0.005100 0.008032 0.008754
# 2 -0.001420 0.014926 0.002171 -0.002887 0.001621 0.005357
# 3 -0.003592 0.002171 0.022045 -0.008937 -0.011210 0.004038
# 4 -0.005100 -0.002887 -0.008937 0.042729 -0.023651 -0.005747
# 5 0.008032 0.001621 -0.011210 -0.023651 0.146065 0.014595
# 6 0.008754 0.005357 0.004038 -0.005747 0.014595 0.032353
#
#
# Mechanical properties :
#
#
# Convention : Reuss Voigt Hill
#
# Bulk Modulus (GPa) = 18.40923 26.74242 22.57583
# Shear Modulus (GPa) = 16.39683 27.23082 21.81382
#
# Velocity S-wave (km/s) = 2.82874 3.64539 3.26271
# Velocity P-wave (km/s) = 4.43316 5.54698 5.02105
#
# Compressibility (1/GPa) = 0.05432056
#
# Stress axis : x y z
#
# Youngs Moduli (GPa) = 43.42094 66.99615 45.36143
#
# Poissons Ratio (x) = 0.09512 0.16294
# Poissons Ratio (y) = 0.06165 -0.09849
# Poissons Ratio (z) = 0.15597 -0.14546
#
# Static dielectric constant tensor:
#      x y z
#    x 1.743920 0.028090 0.014130 
#    y 0.028090 1.780200 0.006460 
#    z 0.014130 0.006460 1.776540 
# 
# From -- ./inp_files/590770.got.cif
#   From: 2010.05.17/outbox.cif.g08.bks.cpg/sg2_296_cif.got.tgz:590770.got - 2010.06.03 11:33:40.
