data_PCOD9077810
_publ_section_title
;
Structure prediction by ZEFSAII (Michael W. Deem and Ramdas Pophale) SiO2 
 PCOD9077810
Probable space group: P -1
;
_chemical_formula_sum "Si O2"
_cell_formula_units_Z 16
_cell_length_a 8.869421
_cell_length_b 13.354302
_cell_length_c 7.860531
_cell_angle_alpha 93.201841
_cell_angle_beta 127.494674
_cell_angle_gamma 66.842850
_cell_volume 657.336610
_symmetry_space_group_name_H-M "P -1"
_symmetry_group_IT_number 2
_symmetry_cell_setting 'triclinic'
loop_
_space_group_symop_operation_xyz
x,y,z
-x,-y,-z
loop_
_atom_site_type_symbol
_atom_site_label
_atom_site_fract_x
_atom_site_fract_y
_atom_site_fract_z
Si Si1 0.882917 0.565342 0.094903
Si Si2 0.933120 0.280316 0.608947
Si Si3 0.243692 0.949824 0.107370
Si Si4 0.511159 0.708562 0.614355
Si Si5 0.496296 0.686098 0.240304
Si Si6 0.273228 0.149753 0.336093
Si Si7 0.147536 0.643815 0.828381
Si Si8 0.634467 0.842482 0.205714
O O1 0.023272 0.624504 0.262432
O O2 0.870710 0.471144 0.197093
O O3 0.647380 0.646316 0.866299
O O4 0.000000 0.500000 0.000000
O O5 0.733139 0.266001 0.535952
O O6 0.882493 0.309166 0.378075
O O7 0.168008 0.173047 0.774627
O O8 0.327953 0.815886 0.183719
O O9 0.384004 0.928760 0.023936
O O10 0.292582 0.038293 0.254580
O O11 0.000000 0.000000 0.000000
O O12 0.594343 0.638731 0.486875
O O13 0.560861 0.814097 0.633716
O O14 0.647379 0.716642 0.225020
O O15 0.370334 0.627583 0.059826
O O16 0.042152 0.259905 0.180481
O O17 0.315450 0.133765 0.565506
#
# Coordination Sequence:
#
# PCOD9077810 Si02
#       8
#     2   2   2   2   2   2   2   2
#     4  12  26  45  70  96 132 178 231 274 330 403
#     4  11  26  44  65  97 141 176 216 280 342 389
#     4  10  18  34  72 104 126 171 230 271 324 395
#     4  11  25  42  66  97 136 178 218 276 332 396
#     4   9  21  40  70  99 130 172 226 267 331 395
#     4  10  18  39  66  98 130 175 225 273 324 389
#     4  11  22  43  69  99 133 174 223 282 331 393
#     4   8  20  37  63  93 134 168 215 271 323 392
#
# _framework density 24.34065
#
# number of rings (size 3 to 8) (size 9 to 14) (size 15 to 20)
#    0.750    1.000    2.500    1.500    1.750    2.500 
#    0.000    0.625    0.000    2.250    0.000    0.000 
#    0.000    0.000    0.000    0.000    0.000    0.000 
#
# Total GULP energy -89180.738222 kJ/mol
# GULP energy per Si atom -5573.796139 kJ/mol
# Density = 2.428525 g / cm^3
# Si number density = 24.340650 Si / 1000 Ang^3
#
#
#
# Elastic Constant Matrix: (Units=GPa)
#
#
# Indices 1 2 3 4 5 6 
#
# 1 124.4719 31.1651 45.7524 9.6488 40.7928 -4.8479
# 2 31.1651 83.1091 23.5159 17.6615 7.9018 4.8252
# 3 45.7524 23.5159 95.8122 26.1202 21.7831 10.5045
# 4 9.6488 17.6615 26.1202 41.3385 8.2799 6.4286
# 5 40.7928 7.9018 21.7831 8.2799 46.1394 -1.1660
# 6 -4.8479 4.8252 10.5045 6.4286 -1.1660 28.0100
#
#
#
# Elastic Compliance Matrix: (Units=1/GPa)
#
#
# Indices 1 2 3 4 5 6 
#
# 1 0.013795 -0.003726 -0.004580 0.002644 -0.009776 0.003733
# 2 -0.003726 0.014612 -0.000694 -0.005075 0.001989 -0.001654
# 3 -0.004580 -0.000694 0.015852 -0.007453 -0.002105 -0.004995
# 4 0.002644 -0.005075 -0.007453 0.031711 -0.003724 -0.003306
# 5 -0.009776 0.001989 -0.002105 -0.003724 0.031661 0.000927
# 6 0.003733 -0.001654 -0.004995 -0.003306 0.000927 0.039304
#
#
# Mechanical properties :
#
#
# Convention : Reuss Voigt Hill
#
# Bulk Modulus (GPa) = 38.08347 56.02889 47.05618
# Shear Modulus (GPa) = 28.78732 36.62824 32.70778
#
# Velocity S-wave (km/s) = 3.44275 3.88341 3.66970
# Velocity P-wave (km/s) = 5.61100 6.57088 6.10982
#
# Compressibility (1/GPa) = 0.02625811
#
# Stress axis : x y z
#
# Youngs Moduli (GPa) = 72.49180 68.43911 63.08153
#
# Poissons Ratio (x) = 0.25500 0.28893
# Poissons Ratio (y) = 0.27010 0.04378
# Poissons Ratio (z) = 0.33203 0.04750
#
# Static dielectric constant tensor:
#      x y z
#    x 2.027690 -0.047220 0.018300 
#    y -0.047220 2.002790 -0.116260 
#    z 0.018300 -0.116260 2.020260 
# 
# From -- ./inp_files/208493.got.cif
#   From: 2010.05.17/outbox.cif.g08.bks.cpg/sg2_105_cif.got.tgz:208493.got - 2010.06.03 11:33:40.
