data_PCOD9077626
_publ_section_title
;
Structure prediction by ZEFSAII (Michael W. Deem and Ramdas Pophale) SiO2 
 PCOD9077626
Probable space group: P -1
;
_chemical_formula_sum "Si O2"
_cell_formula_units_Z 16
_cell_length_a 18.834738
_cell_length_b 21.085968
_cell_length_c 9.136065
_cell_angle_alpha 33.674716
_cell_angle_beta 158.231830
_cell_angle_gamma 152.405743
_cell_volume 622.403219
_symmetry_space_group_name_H-M "P -1"
_symmetry_group_IT_number 2
_symmetry_cell_setting 'triclinic'
loop_
_space_group_symop_operation_xyz
x,y,z
-x,-y,-z
loop_
_atom_site_type_symbol
_atom_site_label
_atom_site_fract_x
_atom_site_fract_y
_atom_site_fract_z
Si Si1 0.289971 0.914841 0.866796
Si Si2 0.812495 0.895705 0.228062
Si Si3 0.084599 0.077579 0.163962
Si Si4 0.145734 0.333781 0.675312
Si Si5 0.561302 0.337504 0.864632
Si Si6 0.816227 0.591451 0.073895
Si Si7 0.161103 0.512196 0.149646
Si Si8 0.067643 0.741635 0.008744
O O1 0.299888 0.846471 0.166803
O O2 0.089416 0.784873 0.633638
O O3 0.242101 0.027418 0.616822
O O4 0.500000 0.000000 0.000000
O O5 0.577432 0.804815 0.040446
O O6 0.893979 0.791930 0.541967
O O7 0.000000 0.000000 0.500000
O O8 0.860413 0.999206 0.988447
O O9 0.213136 0.235018 0.066292
O O10 0.000000 0.000000 0.000000
O O11 0.287105 0.449557 0.600764
O O12 0.136341 0.404595 0.671295
O O13 0.722487 0.449949 0.080625
O O14 0.375316 0.374713 0.392136
O O15 0.683333 0.354830 0.908447
O O16 0.041134 0.710903 0.188350
O O17 0.025907 0.399708 0.981814
O O18 0.000000 0.500000 0.000000
#
# Coordination Sequence:
#
# PCOD9077626 Si02
#       8
#     2   2   2   2   2   2   2   2
#     4   9  18  35  58  85 126 171 200 237 313 386
#     4  10  18  34  61  92 119 152 196 255 311 365
#     4   9  18  33  59  89 123 155 191 262 313 341
#     4  10  20  37  61  89 121 154 211 270 299 349
#     4   9  19  36  61  89 119 160 207 247 316 374
#     4   9  17  34  60  86 116 153 201 265 308 348
#     4  10  21  40  61  84 123 171 206 254 312 372
#     4   8  17  35  56  82 121 159 191 254 307 354
#
# _framework density 25.706810000000001
#
# number of rings (size 3 to 8) (size 9 to 14) (size 15 to 20)
#    0.000    2.750    0.000    3.000    0.000    0.500 
#   13.500    4.375   11.000    0.000    0.000    0.000 
#    0.000    0.000    0.000    0.000    0.000    0.000 
#
# Total GULP energy -89131.194676 kJ/mol
# GULP energy per Si atom -5570.699667 kJ/mol
# Density = 2.564830 g / cm^3
# Si number density = 25.706810 Si / 1000 Ang^3
#
#
#
# Elastic Constant Matrix: (Units=GPa)
#
#
# Indices 1 2 3 4 5 6 
#
# 1 188.3575 54.5179 25.1259 2.9399 -37.3195 33.2998
# 2 54.5179 87.7916 9.5143 -4.4799 -13.6491 19.7262
# 3 25.1259 9.5143 47.2773 1.4291 -10.5875 3.5944
# 4 2.9399 -4.4799 1.4291 26.6640 6.0064 -5.0266
# 5 -37.3195 -13.6491 -10.5875 6.0064 48.6687 -11.3402
# 6 33.2998 19.7262 3.5944 -5.0266 -11.3402 67.3131
#
#
#
# Elastic Compliance Matrix: (Units=1/GPa)
#
#
# Indices 1 2 3 4 5 6 
#
# 1 0.007986 -0.003670 -0.002261 -0.002792 0.004431 -0.002217
# 2 -0.003670 0.014399 -0.000800 0.002406 0.000255 -0.002139
# 3 -0.002261 -0.000800 0.023302 -0.001810 0.003465 0.000557
# 4 -0.002792 0.002406 -0.001810 0.040222 -0.006187 0.002734
# 5 0.004431 0.000255 0.003465 -0.006187 0.025870 0.001445
# 6 -0.002217 -0.002139 0.000557 0.002734 0.001445 0.016997
#
#
# Mechanical properties :
#
#
# Convention : Reuss Voigt Hill
#
# Bulk Modulus (GPa) = 31.03075 55.74919 43.38997
# Shear Modulus (GPa) = 32.68381 44.14703 38.41542
#
# Velocity S-wave (km/s) = 3.56955 4.14856 3.86990
# Velocity P-wave (km/s) = 5.39315 6.68439 6.07319
#
# Compressibility (1/GPa) = 0.03222610
#
# Stress axis : x y z
#
# Youngs Moduli (GPa) = 125.21661 69.44767 42.91390
#
# Poissons Ratio (x) = 0.25487 0.09701
# Poissons Ratio (y) = 0.45953 0.03435
# Poissons Ratio (z) = 0.28306 0.05559
#
# Static dielectric constant tensor:
#      x y z
#    x 2.086090 0.037100 0.107880 
#    y 0.037100 2.109230 -0.125050 
#    z 0.107880 -0.125050 2.314400 
# 
# From -- ./inp_files/337550.got.cif
#   From: 2010.05.17/outbox.cif.g08.bks.cpg/sg2_169_cif.got.tgz:337550.got - 2010.06.03 11:33:40.
