data_PCOD9077411
_publ_section_title
;
Structure prediction by ZEFSAII (Michael W. Deem and Ramdas Pophale) SiO2 
 PCOD9077411
Probable space group: P -1
;
_chemical_formula_sum "Si O2"
_cell_formula_units_Z 16
_cell_length_a 13.696962
_cell_length_b 10.220978
_cell_length_c 15.777859
_cell_angle_alpha 134.166622
_cell_angle_beta 142.038441
_cell_angle_gamma 44.273422
_cell_volume 902.423173
_symmetry_space_group_name_H-M "P -1"
_symmetry_group_IT_number 2
_symmetry_cell_setting 'triclinic'
loop_
_space_group_symop_operation_xyz
x,y,z
-x,-y,-z
loop_
_atom_site_type_symbol
_atom_site_label
_atom_site_fract_x
_atom_site_fract_y
_atom_site_fract_z
Si Si1 0.181466 0.885873 0.817671
Si Si2 0.784484 0.409395 0.864434
Si Si3 0.058966 0.768236 0.447041
Si Si4 0.679961 0.828512 0.524560
Si Si5 0.614383 0.425597 0.310002
Si Si6 0.035083 0.311621 0.836479
Si Si7 0.083795 0.287434 0.508653
Si Si8 0.044379 0.024869 0.139570
O O1 0.341082 0.704974 0.805455
O O2 0.024861 0.842137 0.649704
O O3 0.161593 0.098166 0.863117
O O4 0.130307 0.897318 0.887235
O O5 0.581251 0.512098 0.770611
O O6 0.844069 0.193059 0.847754
O O7 0.875994 0.384289 0.824978
O O8 0.864735 0.542675 0.030157
O O9 0.250076 0.698658 0.583441
O O10 0.039524 0.691818 0.307816
O O11 0.943006 0.702359 0.404724
O O12 0.000000 0.000000 0.500000
O O13 0.657158 0.621852 0.423717
O O14 0.734791 0.825874 0.462244
O O15 0.500000 0.000000 0.500000
O O16 0.834722 0.851647 0.697677
O O17 0.000000 0.500000 0.500000
O O18 0.000000 0.000000 0.000000
#
# Coordination Sequence:
#
# PCOD9077411 Si02
#       8
#     2   2   2   2   2   2   2   2
#     4   9  19  37  60  82 120 155 197 242 299 357
#     4  10  23  40  59  83 122 162 198 245 307 362
#     4  11  21  37  64  92 117 153 207 252 288 359
#     4  11  21  37  61  87 123 156 192 249 307 351
#     4  11  21  38  62  92 117 155 204 254 303 351
#     4  10  21  41  60  82 118 164 199 241 304 363
#     4  10  18  34  59  87 117 156 192 238 301 355
#     4  10  22  38  59  85 117 162 202 238 295 368
#
# _framework density 17.730042000000001
#
# number of rings (size 3 to 8) (size 9 to 14) (size 15 to 20)
#    0.000    1.750    6.250    0.000    1.750    1.000 
#    0.000    1.875    0.000    0.000    0.000    0.000 
#    0.000    0.000    0.000    0.000    0.000    0.000 
#
# Total GULP energy -89067.892309 kJ/mol
# GULP energy per Si atom -5566.743269 kJ/mol
# Density = 1.768969 g / cm^3
# Si number density = 17.730042 Si / 1000 Ang^3
#
#
#
# Elastic Constant Matrix: (Units=GPa)
#
#
# Indices 1 2 3 4 5 6 
#
# 1 58.9781 34.0411 62.5132 -12.9760 7.2011 -12.3450
# 2 34.0411 80.8095 23.8018 4.4542 12.0353 -19.9110
# 3 62.5132 23.8018 84.9398 -0.5145 -9.8631 -11.5469
# 4 -12.9760 4.4542 -0.5145 26.3806 2.0360 -2.5208
# 5 7.2011 12.0353 -9.8631 2.0360 33.5099 -2.6761
# 6 -12.3450 -19.9110 -11.5469 -2.5208 -2.6761 23.4115
#
#
#
# Elastic Compliance Matrix: (Units=1/GPa)
#
#
# Indices 1 2 3 4 5 6 
#
# 1 -0.396253 0.066675 0.287888 -0.214184 0.157735 -0.015281
# 2 0.066675 0.006358 -0.052484 0.034644 -0.032996 0.014638
# 3 0.287888 -0.052484 -0.194970 0.156527 -0.108680 0.015436
# 4 -0.214184 0.034644 0.156527 -0.077198 0.083948 -0.004991
# 5 0.157735 -0.032996 -0.108680 0.083948 -0.028713 0.007266
# 6 -0.015281 0.014638 0.015436 -0.004991 0.007266 0.055012
#
#
# Mechanical properties :
#
#
# Convention : Reuss Voigt Hill
#
# Bulk Modulus (GPa) = 51.83252 51.71552 51.77402
# Shear Modulus (GPa) = -4.05353 23.61848 9.78248
#
# Velocity S-wave (km/s) = -1.51368 3.65378 2.35148
# Velocity P-wave (km/s) = 5.12277 6.85797 6.05287
#
# Compressibility (1/GPa) = 0.01929291
#
# Stress axis : x y z
#
# Youngs Moduli (GPa) = -2.52364 157.28439 -5.12898
#
# Poissons Ratio (x) = -10.48699 1.47657
# Poissons Ratio (y) = 0.16826 -0.26919
# Poissons Ratio (z) = 0.72653 8.25497
#
# Static dielectric constant tensor:
#      x y z
#    x 1.665800 -0.022730 -0.021820 
#    y -0.022730 1.616160 0.042460 
#    z -0.021820 0.042460 1.588020 
# 
# From -- ./inp_files/215864.got.cif
#   From: 2010.05.17/outbox.cif.g08.bks.cpg/sg2_108_cif.got.tgz:215864.got - 2010.06.03 11:33:40.
