data_PCOD9077182
_publ_section_title
;
Structure prediction by ZEFSAII (Michael W. Deem and Ramdas Pophale) SiO2 
 PCOD9077182
Probable space group: P -1
;
_chemical_formula_sum "Si O2"
_cell_formula_units_Z 16
_cell_length_a 8.712992
_cell_length_b 10.211433
_cell_length_c 15.245604
_cell_angle_alpha 99.507160
_cell_angle_beta 143.214597
_cell_angle_gamma 63.829488
_cell_volume 682.905728
_symmetry_space_group_name_H-M "P -1"
_symmetry_group_IT_number 2
_symmetry_cell_setting 'triclinic'
loop_
_space_group_symop_operation_xyz
x,y,z
-x,-y,-z
loop_
_atom_site_type_symbol
_atom_site_label
_atom_site_fract_x
_atom_site_fract_y
_atom_site_fract_z
Si Si1 0.241395 0.162407 0.190433
Si Si2 0.106026 0.082394 0.488333
Si Si3 0.894579 0.242367 0.873032
Si Si4 0.931923 0.680558 0.705398
Si Si5 0.118729 0.680288 0.447155
Si Si6 0.769316 0.528827 0.754899
Si Si7 0.223383 0.876160 0.369007
Si Si8 0.244451 0.447010 0.683966
O O1 0.537851 0.006726 0.340113
O O2 0.024508 0.229076 0.183994
O O3 0.306260 0.304585 0.220106
O O4 0.117071 0.141719 0.041204
O O5 0.080491 0.042811 0.371604
O O6 0.000000 0.000000 0.500000
O O7 0.930883 0.249729 0.469226
O O8 0.962501 0.371455 0.879504
O O9 0.879866 0.143154 0.775329
O O10 0.573884 0.348638 0.785473
O O11 0.913278 0.544708 0.734070
O O12 0.587700 0.793017 0.526214
O O13 0.168345 0.592573 0.727607
O O14 0.460350 0.534782 0.591544
O O15 0.140368 0.783214 0.391484
O O16 0.837033 0.660919 0.308294
O O17 0.000000 0.500000 0.500000
#
# Coordination Sequence:
#
# PCOD9077182 Si02
#       8
#     2   2   2   2   2   2   2   2
#     4   9  20  34  55  76 106 135 170 212 259 303
#     4   9  16  36  58  74  94 138 185 208 240 307
#     4  12  21  31  51  84 111 132 160 218 269 295
#     4   8  17  34  50  74 102 137 173 197 257 304
#     4  10  18  34  57  78  96 139 175 213 245 306
#     4   9  17  33  56  75 105 130 170 212 259 302
#     4   9  17  32  57  76 100 131 178 216 250 292
#     4  12  21  30  51  81 111 129 170 213 255 307
#
# _framework density 23.429293999999999
#
# number of rings (size 3 to 8) (size 9 to 14) (size 15 to 20)
#    0.750    1.500    5.000    1.125    0.000    2.500 
#    0.000    3.750    0.000    0.000    0.000    0.000 
#    0.000    0.000    0.000    0.000    0.000    0.000 
#
# Total GULP energy -89140.343254 kJ/mol
# GULP energy per Si atom -5571.271453 kJ/mol
# Density = 2.337597 g / cm^3
# Si number density = 23.429294 Si / 1000 Ang^3
#
#
#
# Elastic Constant Matrix: (Units=GPa)
#
#
# Indices 1 2 3 4 5 6 
#
# 1 78.3441 40.6820 22.4560 12.8133 -11.8216 -18.1868
# 2 40.6820 84.0366 16.0783 23.1342 -15.5210 -44.1681
# 3 22.4560 16.0783 67.9868 23.8990 -36.4230 -23.8313
# 4 12.8133 23.1342 23.8990 24.3543 -12.5614 -11.3940
# 5 -11.8216 -15.5210 -36.4230 -12.5614 25.1482 12.2858
# 6 -18.1868 -44.1681 -23.8313 -11.3940 12.2858 48.9192
#
#
#
# Elastic Compliance Matrix: (Units=1/GPa)
#
#
# Indices 1 2 3 4 5 6 
#
# 1 0.023029 -0.025176 -0.032087 0.017761 -0.033940 -0.017140
# 2 -0.025176 0.077767 0.091839 -0.066994 0.104579 0.063726
# 3 -0.032087 0.091839 0.185929 -0.100455 0.220227 0.082860
# 4 0.017761 -0.066994 -0.100455 0.122357 -0.092401 -0.051117
# 5 -0.033940 0.104579 0.220227 -0.092401 0.318360 0.087613
# 6 -0.017140 0.063726 0.082860 -0.051117 0.087613 0.078063
#
#
# Mechanical properties :
#
#
# Convention : Reuss Voigt Hill
#
# Bulk Modulus (GPa) = 2.80996 43.20001 23.00499
# Shear Modulus (GPa) = 5.84809 29.76108 17.80459
#
# Velocity S-wave (km/s) = 1.58161 3.56792 2.75967
# Velocity P-wave (km/s) = 2.13008 5.95415 4.47153
#
# Compressibility (1/GPa) = 0.35587668
#
# Stress axis : x y z
#
# Youngs Moduli (GPa) = 43.42263 12.85899 5.37840
#
# Poissons Ratio (x) = 0.32373 0.17258
# Poissons Ratio (y) = 1.09319 -0.49394
# Poissons Ratio (z) = 1.39331 -1.18095
#
# Static dielectric constant tensor:
#      x y z
#    x 1.973090 0.064140 -0.002670 
#    y 0.064140 2.044370 0.049070 
#    z -0.002670 0.049070 1.870670 
# 
# From -- ./inp_files/504163.got.cif
#   From: 2010.05.17/outbox.cif.g08.bks.cpg/sg2_253_cif.got.tgz:504163.got - 2010.06.03 11:33:40.
