data_PCOD9077522
_publ_section_title
;
Structure prediction by ZEFSAII (Michael W. Deem and Ramdas Pophale) SiO2 
 PCOD9077522
Probable space group: P -1
;
_chemical_formula_sum "Si O2"
_cell_formula_units_Z 14
_cell_length_a 14.356312
_cell_length_b 7.186123
_cell_length_c 11.179115
_cell_angle_alpha 38.721478
_cell_angle_beta 130.423443
_cell_angle_gamma 112.357076
_cell_volume 529.784380
_symmetry_space_group_name_H-M "P -1"
_symmetry_group_IT_number 2
_symmetry_cell_setting 'triclinic'
loop_
_space_group_symop_operation_xyz
x,y,z
-x,-y,-z
loop_
_atom_site_type_symbol
_atom_site_label
_atom_site_fract_x
_atom_site_fract_y
_atom_site_fract_z
Si Si1 0.795167 0.201439 0.251350
Si Si2 0.983540 0.276673 0.206770
Si Si3 0.976027 0.309214 0.750862
Si Si4 0.241071 0.169627 0.961884
Si Si5 0.454755 0.780733 0.473626
Si Si6 0.408265 0.857642 0.742235
Si Si7 0.683567 0.504213 0.341140
O O1 0.850007 0.197658 0.164534
O O2 0.747812 0.550866 0.081601
O O3 0.675587 0.068228 0.245143
O O4 0.902680 0.025281 0.524570
O O5 0.994013 0.455916 0.247592
O O6 0.000000 0.500000 0.000000
O O7 0.829404 0.428159 0.540751
O O8 0.089846 0.227248 0.789188
O O9 0.000000 0.000000 0.000000
O O10 0.321650 0.207714 0.894309
O O11 0.313660 0.884043 0.244886
O O12 0.436159 0.486028 0.677779
O O13 0.500000 0.000000 0.500000
O O14 0.539744 0.853990 0.399200
O O15 0.317375 0.797432 0.589849
O O16 0.500000 0.500000 0.000000
#
# Coordination Sequence:
#
# PCOD9077522 Si02
#       7
#     2   2   2   2   2   2   2
#     4   9  20  37  58  84 119 152 203 236 292 351
#     4  10  23  40  59  84 122 162 197 239 299 361
#     4  11  22  36  59  89 120 152 199 252 303 350
#     4  10  19  35  56  86 121 151 192 242 303 346
#     4  10  19  30  51  89 120 150 191 246 291 348
#     4  10  18  34  60  88 118 150 198 250 286 345
#     4  10  20  33  53  86 122 146 188 247 305 337
#
# _framework density 26.425844000000001
#
# number of rings (size 3 to 8) (size 9 to 14) (size 15 to 20)
#    0.000    2.000    4.286    0.429    4.000    1.143 
#    2.571    0.000    0.000    1.714    0.000    0.000 
#    0.000    0.000    0.000    0.000    0.000    0.000 
#
# Total GULP energy -77957.262577 kJ/mol
# GULP energy per Si atom -5568.375898 kJ/mol
# Density = 2.636570 g / cm^3
# Si number density = 26.425844 Si / 1000 Ang^3
#
#
#
# Elastic Constant Matrix: (Units=GPa)
#
#
# Indices 1 2 3 4 5 6 
#
# 1 260.7995 23.6745 35.8111 -1.5540 -39.0054 37.8774
# 2 23.6745 49.1736 -8.1922 6.9946 -1.2893 9.5787
# 3 35.8111 -8.1922 85.9897 5.7361 -22.6481 7.3131
# 4 -1.5540 6.9946 5.7361 28.2708 9.6505 1.8718
# 5 -39.0054 -1.2893 -22.6481 9.6505 37.7427 -6.9360
# 6 37.8774 9.5787 7.3131 1.8718 -6.9360 42.2820
#
#
#
# Elastic Compliance Matrix: (Units=1/GPa)
#
#
# Indices 1 2 3 4 5 6 
#
# 1 0.005265 -0.001874 -0.000940 -0.000283 0.004257 -0.003419
# 2 -0.001874 0.023921 0.004678 -0.007743 0.002985 -0.003717
# 3 -0.000940 0.004678 0.015862 -0.007984 0.010588 -0.000871
# 4 -0.000283 -0.007743 -0.007984 0.044809 -0.017061 -0.001394
# 5 0.004257 0.002985 0.010588 -0.017061 0.041954 0.001317
# 6 -0.003419 -0.003717 -0.000871 -0.001394 0.001317 0.027984
#
#
# Mechanical properties :
#
#
# Convention : Reuss Voigt Hill
#
# Bulk Modulus (GPa) = 20.50173 55.39442 37.94807
# Shear Modulus (GPa) = 29.01484 44.63704 36.82594
#
# Velocity S-wave (km/s) = 3.31716 4.11438 3.73709
# Velocity P-wave (km/s) = 4.73777 6.60140 5.74565
#
# Compressibility (1/GPa) = 0.04877638
#
# Stress axis : x y z
#
# Youngs Moduli (GPa) = 189.93037 41.80356 63.04461
#
# Poissons Ratio (x) = 0.07833 0.05928
# Poissons Ratio (y) = 0.35587 -0.29493
# Poissons Ratio (z) = 0.17860 -0.19556
#
# Static dielectric constant tensor:
#      x y z
#    x 2.302390 0.063460 0.022880 
#    y 0.063460 2.016530 0.140640 
#    z 0.022880 0.140640 2.057950 
# 
# From -- ./inp_files/446689.got.cif
#   From: 2010.05.17/outbox.cif.g08.bks.cpg/sg2_224_cif.got.tgz:446689.got - 2010.06.03 11:33:40.
