data_PCOD9077158
_publ_section_title
;
Structure prediction by ZEFSAII (Michael W. Deem and Ramdas Pophale) SiO2 
 PCOD9077158
Probable space group: P -1
;
_chemical_formula_sum "Si O2"
_cell_formula_units_Z 16
_cell_length_a 21.379835
_cell_length_b 12.265332
_cell_length_c 8.614278
_cell_angle_alpha 112.865571
_cell_angle_beta 124.782173
_cell_angle_gamma 26.273881
_cell_volume 772.890936
_symmetry_space_group_name_H-M "P -1"
_symmetry_group_IT_number 2
_symmetry_cell_setting 'triclinic'
loop_
_space_group_symop_operation_xyz
x,y,z
-x,-y,-z
loop_
_atom_site_type_symbol
_atom_site_label
_atom_site_fract_x
_atom_site_fract_y
_atom_site_fract_z
Si Si1 0.153132 0.214270 0.839507
Si Si2 0.901919 0.040598 0.985094
Si Si3 0.660129 0.179847 0.633514
Si Si4 0.296613 0.513657 0.835629
Si Si5 0.840826 0.547302 0.392089
Si Si6 0.972845 0.372013 0.123198
Si Si7 0.545129 0.317399 0.876352
Si Si8 0.408845 0.910299 0.753620
O O1 0.123979 0.386362 0.959158
O O2 0.276249 0.061186 0.782793
O O3 0.982108 0.401962 0.627468
O O4 0.260469 0.984087 0.977665
O O5 0.750269 0.183323 0.756466
O O6 0.822604 0.216713 0.117855
O O7 0.027363 0.755149 0.030174
O O8 0.000000 0.000000 0.000000
O O9 0.574834 0.232067 0.400404
O O10 0.538811 0.343777 0.699038
O O11 0.830325 0.866737 0.724856
O O12 0.419676 0.393559 0.810906
O O13 0.415229 0.308804 0.034558
O O14 0.198872 0.531704 0.660577
O O15 0.912409 0.445572 0.258457
O O16 0.675337 0.860980 0.325419
O O17 0.500000 0.500000 0.000000
#
# Coordination Sequence:
#
# PCOD9077158 Si02
#       8
#     2   2   2   2   2   2   2   2
#     4  10  19  36  64  84 110 153 198 227 288 339
#     4  10  18  34  56  87 114 141 187 242 283 323
#     4  10  19  37  59  77 120 148 193 232 272 343
#     4  11  22  35  60  84 120 151 187 234 297 328
#     4  11  17  37  60  87 118 141 194 244 284 333
#     4   9  17  33  60  87 107 143 192 246 269 329
#     4  11  23  41  55  83 117 159 188 227 286 358
#     4  10  20  36  58  92 109 152 191 241 281 338
#
# _framework density 20.701498000000001
#
# number of rings (size 3 to 8) (size 9 to 14) (size 15 to 20)
#    0.750    1.000    5.000    1.125    0.000    1.000 
#    2.250    1.250    5.500    0.000    0.000    0.000 
#    0.000    0.000    0.000    0.000    0.000    0.000 
#
# Total GULP energy -89183.794744 kJ/mol
# GULP energy per Si atom -5573.987171 kJ/mol
# Density = 2.065438 g / cm^3
# Si number density = 20.701498 Si / 1000 Ang^3
#
#
#
# Elastic Constant Matrix: (Units=GPa)
#
#
# Indices 1 2 3 4 5 6 
#
# 1 63.8658 39.4884 25.4269 13.6155 16.3878 -3.6726
# 2 39.4884 103.5901 33.4872 8.6072 10.5923 15.7423
# 3 25.4269 33.4872 43.1781 16.2882 19.5819 8.7947
# 4 13.6155 8.6072 16.2882 19.0707 9.6961 0.9507
# 5 16.3878 10.5923 19.5819 9.6961 18.8302 8.7088
# 6 -3.6726 15.7423 8.7947 0.9507 8.7088 31.9127
#
#
#
# Elastic Compliance Matrix: (Units=1/GPa)
#
#
# Indices 1 2 3 4 5 6 
#
# 1 0.031403 -0.011810 0.001785 -0.005528 -0.027364 0.016580
# 2 -0.011810 0.018552 -0.015139 0.003944 0.018930 -0.011622
# 3 0.001785 -0.015139 0.064892 -0.024847 -0.049607 0.004068
# 4 -0.005528 0.003944 -0.024847 0.084829 -0.018372 0.006753
# 5 -0.027364 0.018930 -0.049607 -0.018372 0.144794 -0.037782
# 6 0.016580 -0.011622 0.004068 0.006753 -0.037782 0.047965
#
#
# Mechanical properties :
#
#
# Convention : Reuss Voigt Hill
#
# Bulk Modulus (GPa) = 15.49927 45.27098 30.38513
# Shear Modulus (GPa) = 10.76960 21.44483 16.10722
#
# Velocity S-wave (km/s) = 2.28334 3.22204 2.79242
# Velocity P-wave (km/s) = 3.80194 5.97980 5.01063
#
# Compressibility (1/GPa) = 0.06451916
#
# Stress axis : x y z
#
# Youngs Moduli (GPa) = 31.84433 53.90194 15.41018
#
# Poissons Ratio (x) = 0.63658 -0.02751
# Poissons Ratio (y) = 0.37608 0.23330
# Poissons Ratio (z) = -0.05685 0.81603
#
# Static dielectric constant tensor:
#      x y z
#    x 1.749100 0.040860 -0.036070 
#    y 0.040860 1.804460 -0.025270 
#    z -0.036070 -0.025270 1.740750 
# 
# From -- ./inp_files/345530.got.cif
#   From: 2010.05.17/outbox.cif.g08.bks.cpg/sg2_173_cif.got.tgz:345530.got - 2010.06.03 11:33:40.
