data_PCOD9077890
_publ_section_title
;
Structure prediction by ZEFSAII (Michael W. Deem and Ramdas Pophale) SiO2 
 PCOD9077890
Probable space group: P -1
;
_chemical_formula_sum "Si O2"
_cell_formula_units_Z 16
_cell_length_a 15.202779
_cell_length_b 7.231524
_cell_length_c 8.336472
_cell_angle_alpha 126.170919
_cell_angle_beta 78.479644
_cell_angle_gamma 120.979464
_cell_volume 627.105947
_symmetry_space_group_name_H-M "P -1"
_symmetry_group_IT_number 2
_symmetry_cell_setting 'triclinic'
loop_
_space_group_symop_operation_xyz
x,y,z
-x,-y,-z
loop_
_atom_site_type_symbol
_atom_site_label
_atom_site_fract_x
_atom_site_fract_y
_atom_site_fract_z
Si Si1 0.284812 0.521632 0.156851
Si Si2 0.504850 0.172684 0.940809
Si Si3 0.665360 0.689762 0.239059
Si Si4 0.994899 0.886878 0.689688
Si Si5 0.055615 0.711755 0.885835
Si Si6 0.616226 0.111401 0.450594
Si Si7 0.153663 0.737403 0.156119
Si Si8 0.826037 0.757595 0.447755
O O1 0.390420 0.752685 0.155992
O O2 0.197734 0.574359 0.148203
O O3 0.311885 0.583907 0.365855
O O4 0.278319 0.276272 0.937392
O O5 0.406072 0.998427 0.778254
O O6 0.542790 0.470801 0.142966
O O7 0.500000 0.000000 0.000000
O O8 0.670100 0.956505 0.426159
O O9 0.720874 0.591955 0.295883
O O10 0.087673 0.077483 0.635778
O O11 0.040047 0.757403 0.730255
O O12 0.892851 0.695316 0.521085
O O13 0.961817 0.067003 0.900272
O O14 0.964040 0.420605 0.817332
O O15 0.152213 0.726935 0.956994
O O16 0.500000 0.000000 0.500000
O O17 0.198579 0.036339 0.345441
#
# Coordination Sequence:
#
# PCOD9077890 Si02
#       8
#     2   2   2   2   2   2   2   2
#     4   9  20  35  62  79 117 146 194 232 286 352
#     4   9  21  39  59  84 114 148 187 246 296 346
#     4  10  20  36  63  83 114 153 191 236 289 349
#     4   9  19  36  54  82 115 156 193 236 286 346
#     4   9  19  34  58  77 117 155 196 233 289 345
#     4  10  19  38  64  82 109 149 195 228 290 363
#     4  10  18  35  55  83 113 156 192 241 286 337
#     4  10  19  34  57  81 117 153 195 238 289 338
#
# _framework density 25.514030000000002
#
# number of rings (size 3 to 8) (size 9 to 14) (size 15 to 20)
#    0.750    1.750    1.250    1.125    0.000    1.500 
#    4.500    2.500    0.000    0.000    0.000    0.000 
#    0.000    0.000    0.000    0.000    0.000    0.000 
#
# Total GULP energy -89115.282287 kJ/mol
# GULP energy per Si atom -5569.705143 kJ/mol
# Density = 2.545596 g / cm^3
# Si number density = 25.514030 Si / 1000 Ang^3
#
#
#
# Elastic Constant Matrix: (Units=GPa)
#
#
# Indices 1 2 3 4 5 6 
#
# 1 90.9476 3.4507 33.5946 -5.6045 15.2688 -18.9477
# 2 3.4507 55.2776 14.9919 -14.9198 13.3994 -6.5038
# 3 33.5946 14.9919 140.7728 0.0062 37.5420 -14.4933
# 4 -5.6045 -14.9198 0.0062 27.2076 -18.0924 5.4081
# 5 15.2688 13.3994 37.5420 -18.0924 47.9056 -3.7823
# 6 -18.9477 -6.5038 -14.4933 5.4081 -3.7823 29.5602
#
#
#
# Elastic Compliance Matrix: (Units=1/GPa)
#
#
# Indices 1 2 3 4 5 6 
#
# 1 0.013715 0.001276 -0.001961 0.000364 -0.002443 0.007731
# 2 0.001276 0.022170 -0.002425 0.011953 -0.000010 0.002319
# 3 -0.001961 -0.002425 0.011113 -0.009687 -0.010744 0.004056
# 4 0.000364 0.011953 -0.009687 0.063561 0.027346 -0.010016
# 5 -0.002443 -0.000010 -0.010744 0.027346 0.039871 -0.006737
# 6 0.007731 0.002319 0.004056 -0.010016 -0.006737 0.042254
#
#
# Mechanical properties :
#
#
# Convention : Reuss Voigt Hill
#
# Bulk Modulus (GPa) = 24.52325 43.45248 33.98786
# Shear Modulus (GPa) = 23.52978 36.59872 30.06425
#
# Velocity S-wave (km/s) = 3.04012 3.79153 3.43642
# Velocity P-wave (km/s) = 4.68568 6.01958 5.39402
#
# Compressibility (1/GPa) = 0.04077764
#
# Stress axis : x y z
#
# Youngs Moduli (GPa) = 72.91488 45.10616 89.98410
#
# Poissons Ratio (x) = -0.05755 0.17648
# Poissons Ratio (y) = -0.09303 0.21817
# Poissons Ratio (z) = 0.14301 0.10936
#
# Static dielectric constant tensor:
#      x y z
#    x 2.040770 -0.040910 -0.024790 
#    y -0.040910 2.072390 0.137140 
#    z -0.024790 0.137140 2.430720 
# 
# From -- ./inp_files/326626.got.cif
#   From: 2010.05.17/outbox.cif.g08.bks.cpg/sg2_164_cif.got.tgz:326626.got - 2010.06.03 11:33:40.
