data_PCOD9077744
_publ_section_title
;
Structure prediction by ZEFSAII (Michael W. Deem and Ramdas Pophale) SiO2 
 PCOD9077744
Probable space group: P -1
;
_chemical_formula_sum "Si O2"
_cell_formula_units_Z 13
_cell_length_a 7.775097
_cell_length_b 12.918056
_cell_length_c 18.799023
_cell_angle_alpha 151.216633
_cell_angle_beta 46.142057
_cell_angle_gamma 135.091206
_cell_volume 627.217186
_symmetry_space_group_name_H-M "P -1"
_symmetry_group_IT_number 2
_symmetry_cell_setting 'triclinic'
loop_
_space_group_symop_operation_xyz
x,y,z
-x,-y,-z
loop_
_atom_site_type_symbol
_atom_site_label
_atom_site_fract_x
_atom_site_fract_y
_atom_site_fract_z
Si Si1 0.089135 0.055681 0.301305
Si Si2 0.946503 0.485498 0.266899
Si Si3 0.819823 0.017065 0.498790
Si Si4 0.703218 0.293071 0.486324
Si Si5 0.500000 0.500000 0.500000
Si Si6 0.793239 0.125051 0.979897
Si Si7 0.006584 0.263782 0.258670
O O1 0.144420 0.880576 0.124633
O O2 0.341910 0.247989 0.361980
O O3 0.935073 0.958034 0.357170
O O4 0.912694 0.184119 0.389853
O O5 0.702025 0.538252 0.398844
O O6 0.165680 0.719252 0.348677
O O7 0.000666 0.321451 0.212880
O O8 0.884529 0.364266 0.136392
O O9 0.552940 0.856758 0.499706
O O10 0.000000 0.000000 0.500000
O O11 0.778285 0.542008 0.646694
O O12 0.751796 0.294473 0.387435
O O13 0.945511 0.970293 0.880610
O O14 0.500000 0.000000 0.000000
#
# Coordination Sequence:
#
# PCOD9077744 Si02
#       7
#     2   2   2   2   1   2   2
#     4  10  21  39  61  91 124 164 203 257 302 371
#     4  11  23  40  61  93 127 160 206 254 313 366
#     4  11  25  38  64  92 125 162 209 259 308 364
#     4  10  21  39  65  95 120 158 214 257 308 360
#     4  10  18  34  64  88 116 152 210 254 294 344
#     4  11  23  38  63  93 128 159 205 258 312 366
#     4  10  22  37  67  93 121 162 206 258 302 373
#
# _framework density 20.726472999999999
#
# number of rings (size 3 to 8) (size 9 to 14) (size 15 to 20)
#    0.000    1.538    4.615    0.923    6.462    0.000 
#    0.000    3.846    3.385    0.000    0.000    0.000 
#    0.000    0.000    0.000    0.000    0.000    0.000 
#
# Total GULP energy -72417.163422 kJ/mol
# GULP energy per Si atom -5570.551032 kJ/mol
# Density = 2.067930 g / cm^3
# Si number density = 20.726473 Si / 1000 Ang^3
#
#
#
# Elastic Constant Matrix: (Units=GPa)
#
#
# Indices 1 2 3 4 5 6 
#
# 1 42.2134 18.5999 8.0931 -6.4193 17.4194 2.8508
# 2 18.5999 143.9595 40.2398 -4.1477 30.6022 15.0953
# 3 8.0931 40.2398 115.9991 -25.6737 33.7930 -1.5184
# 4 -6.4193 -4.1477 -25.6737 19.8088 -10.9926 14.0564
# 5 17.4194 30.6022 33.7930 -10.9926 35.2339 0.1355
# 6 2.8508 15.0953 -1.5184 14.0564 0.1355 39.5372
#
#
#
# Elastic Compliance Matrix: (Units=1/GPa)
#
#
# Indices 1 2 3 4 5 6 
#
# 1 0.032248 -0.001293 0.005713 0.012944 -0.016238 -0.006158
# 2 -0.001293 0.009173 -0.001858 -0.002653 -0.006364 -0.002515
# 3 0.005713 -0.001858 0.016714 0.022418 -0.010220 -0.006996
# 4 0.012944 -0.002653 0.022418 0.119081 0.011715 -0.041435
# 5 -0.016238 -0.006364 -0.010220 0.011715 0.055399 -0.001147
# 6 -0.006158 -0.002515 -0.006996 -0.041435 -0.001147 0.041163
#
#
# Mechanical properties :
#
#
# Convention : Reuss Voigt Hill
#
# Bulk Modulus (GPa) = 15.80787 48.44862 32.12824
# Shear Modulus (GPa) = 17.25680 34.59861 25.92770
#
# Velocity S-wave (km/s) = 2.88861 4.09013 3.54071
# Velocity P-wave (km/s) = 4.33230 6.76251 5.67893
#
# Compressibility (1/GPa) = 0.06325963
#
# Stress axis : x y z
#
# Youngs Moduli (GPa) = 31.00936 109.01633 59.82925
#
# Poissons Ratio (x) = 0.14097 -0.34182
# Poissons Ratio (y) = 0.04010 0.11117
# Poissons Ratio (z) = -0.17716 0.20256
#
# Static dielectric constant tensor:
#      x y z
#    x 0.537540 0.223490 0.407290 
#    y 0.223490 1.714400 -0.105200 
#    z 0.407290 -0.105200 1.612520 
# 
# From -- ./inp_files/147795.got.cif
#   From: 2010.05.17/outbox.cif.g08.bks.cpg/sg2_74_cif.got.tgz:147795.got - 2010.06.03 11:33:40.
