data_PCOD9077120
_publ_section_title
;
Structure prediction by ZEFSAII (Michael W. Deem and Ramdas Pophale) SiO2 
 PCOD9077120
Probable space group: P -1
;
_chemical_formula_sum "Si O2"
_cell_formula_units_Z 14
_cell_length_a 15.535267
_cell_length_b 12.847524
_cell_length_c 27.057607
_cell_angle_alpha 31.052283
_cell_angle_beta 18.457103
_cell_angle_gamma 26.851380
_cell_volume 770.204696
_symmetry_space_group_name_H-M "P -1"
_symmetry_group_IT_number 2
_symmetry_cell_setting 'triclinic'
loop_
_space_group_symop_operation_xyz
x,y,z
-x,-y,-z
loop_
_atom_site_type_symbol
_atom_site_label
_atom_site_fract_x
_atom_site_fract_y
_atom_site_fract_z
Si Si1 0.598865 0.803898 0.954716
Si Si2 0.812046 0.501552 0.054110
Si Si3 0.935346 0.897847 0.315430
Si Si4 0.770487 0.075670 0.231960
Si Si5 0.816419 0.627448 0.637812
Si Si6 0.640219 0.411212 0.906443
Si Si7 0.168386 0.836673 0.314894
O O1 0.810194 0.647949 0.948343
O O2 0.580811 0.654495 0.979845
O O3 0.247170 0.913834 0.123333
O O4 0.705251 0.990654 0.808512
O O5 0.455240 0.622119 0.218408
O O6 0.918888 0.244324 0.083248
O O7 0.000000 0.500000 0.000000
O O8 0.697720 0.048237 0.340337
O O9 0.022322 0.631379 0.367885
O O10 0.908441 0.952731 0.365696
O O11 0.026421 0.823033 0.177629
O O12 0.477471 0.205472 0.303489
O O13 0.699343 0.592643 0.768765
O O14 0.044403 0.735372 0.466141
O O15 0.500000 0.500000 0.000000
#
# Coordination Sequence:
#
# PCOD9077120 Si02
#       7
#     2   2   2   2   2   2   2
#     4   9  18  35  50  80 110 140 187 220 250 324
#     4  11  18  31  54  85 115 151 177 204 260 335
#     4   9  18  32  51  77 118 148 175 206 254 323
#     4  10  18  34  56  82 106 139 193 210 261 338
#     4  10  20  36  51  84 113 140 183 219 267 335
#     4  10  22  42  61  74 101 140 189 248 275 300
#     4  11  19  32  53  79 127 146 163 223 268 313
#
# _framework density 18.176987
#
# number of rings (size 3 to 8) (size 9 to 14) (size 15 to 20)
#    0.000    2.286    4.286    4.714    0.000    1.143 
#    7.714    0.714    0.000    0.857    0.000    0.000 
#    0.000    0.000    0.000    0.000    0.000    0.000 
#
# Total GULP energy -78041.547297 kJ/mol
# GULP energy per Si atom -5574.396235 kJ/mol
# Density = 1.813562 g / cm^3
# Si number density = 18.176987 Si / 1000 Ang^3
#
#
#
# Elastic Constant Matrix: (Units=GPa)
#
#
# Indices 1 2 3 4 5 6 
#
# 1 99.3306 38.8879 48.4510 -5.9661 16.1638 -3.2434
# 2 38.8879 64.8886 37.5074 -13.5627 11.1860 -18.9082
# 3 48.4510 37.5074 122.2263 -39.1854 21.4356 3.2966
# 4 -5.9661 -13.5627 -39.1854 27.1280 -5.9305 -0.4078
# 5 16.1638 11.1860 21.4356 -5.9305 24.2801 4.5609
# 6 -3.2434 -18.9082 3.2966 -0.4078 4.5609 34.7594
#
#
#
# Elastic Compliance Matrix: (Units=1/GPa)
#
#
# Indices 1 2 3 4 5 6 
#
# 1 0.016514 -0.008182 -0.007037 -0.011403 -0.003436 -0.001925
# 2 -0.008182 0.029424 -0.002350 0.008207 -0.007129 0.016497
# 3 -0.007037 -0.002350 0.021459 0.026905 -0.006070 -0.002858
# 4 -0.011403 0.008207 0.026905 0.077023 -0.001495 0.001948
# 5 -0.003436 -0.007129 -0.006070 -0.001495 0.053760 -0.010694
# 6 -0.001925 0.016497 -0.002858 0.001948 -0.010694 0.039261
#
#
# Mechanical properties :
#
#
# Convention : Reuss Voigt Hill
#
# Bulk Modulus (GPa) = 30.99746 59.57088 45.28417
# Shear Modulus (GPa) = 17.64716 28.00677 22.82697
#
# Velocity S-wave (km/s) = 3.11923 3.92954 3.54760
# Velocity P-wave (km/s) = 5.48297 7.30973 6.46124
#
# Compressibility (1/GPa) = 0.03226070
#
# Stress axis : x y z
#
# Youngs Moduli (GPa) = 60.55356 33.98596 46.59968
#
# Poissons Ratio (x) = 0.27806 0.32793
# Poissons Ratio (y) = 0.49543 0.10949
# Poissons Ratio (z) = 0.42612 0.07986
#
# Static dielectric constant tensor:
#      x y z
#    x 1.665590 -0.058330 -0.026150 
#    y -0.058330 1.647320 0.005100 
#    z -0.026150 0.005100 1.688450 
# 
# From -- ./inp_files/214610.got.cif
#   From: 2010.05.17/outbox.cif.g08.bks.cpg/sg2_108_cif.got.tgz:214610.got - 2010.06.03 11:33:40.
