data_PCOD9077911
_publ_section_title
;
Structure prediction by ZEFSAII (Michael W. Deem and Ramdas Pophale) SiO2 
 PCOD9077911
Probable space group: P -1
;
_chemical_formula_sum "Si O2"
_cell_formula_units_Z 14
_cell_length_a 15.563821
_cell_length_b 8.590148
_cell_length_c 19.724675
_cell_angle_alpha 140.395184
_cell_angle_beta 148.870052
_cell_angle_gamma 34.045857
_cell_volume 746.017367
_symmetry_space_group_name_H-M "P -1"
_symmetry_group_IT_number 2
_symmetry_cell_setting 'triclinic'
loop_
_space_group_symop_operation_xyz
x,y,z
-x,-y,-z
loop_
_atom_site_type_symbol
_atom_site_label
_atom_site_fract_x
_atom_site_fract_y
_atom_site_fract_z
Si Si1 0.988479 0.558356 0.632432
Si Si2 0.683499 0.029828 0.389984
Si Si3 0.045310 0.286107 0.194366
Si Si4 0.726969 0.696971 0.847129
Si Si5 0.272489 0.833214 0.384158
Si Si6 0.323545 0.437436 0.493620
Si Si7 0.906353 0.320234 0.965183
O O1 0.788252 0.561704 0.513946
O O2 0.068832 0.551488 0.760119
O O3 0.917299 0.865724 0.657019
O O4 0.139776 0.289747 0.602513
O O5 0.487964 0.064970 0.238795
O O6 0.653920 0.147364 0.485673
O O7 0.724742 0.245027 0.447564
O O8 0.225675 0.336428 0.336892
O O9 0.927722 0.389429 0.080330
O O10 0.118864 0.952694 0.141497
O O11 0.768273 0.421347 0.738174
O O12 0.888077 0.773648 0.963393
O O13 0.753571 0.580605 0.903042
O O14 0.445847 0.760547 0.423606
#
# Coordination Sequence:
#
# PCOD9077911 Si02
#       7
#     2   2   2   2   2   2   2
#     4  10  21  34  51  83 111 135 167 213 275 308
#     4  11  21  34  53  82 112 134 165 220 273 307
#     4   9  19  33  55  77 103 134 176 216 256 298
#     4  10  20  34  56  79 101 136 183 213 253 305
#     4  11  19  35  56  81 104 139 175 213 256 318
#     4   9  19  35  56  78 105 134 176 217 252 314
#     4  10  18  35  56  77  98 140 182 220 241 303
#
# _framework density 18.76632
#
# number of rings (size 3 to 8) (size 9 to 14) (size 15 to 20)
#    0.857    1.143    1.429    4.714    0.000    0.000 
#    0.000    1.429    0.000    0.000    0.000    0.000 
#    0.000    0.000    0.000    0.000    0.000    0.000 
#
# Total GULP energy -77991.264358 kJ/mol
# GULP energy per Si atom -5570.804597 kJ/mol
# Density = 1.872361 g / cm^3
# Si number density = 18.766320 Si / 1000 Ang^3
#
#
#
# Elastic Constant Matrix: (Units=GPa)
#
#
# Indices 1 2 3 4 5 6 
#
# 1 22.7009 3.2041 -2.9383 -7.2671 -6.7531 -1.3877
# 2 3.2041 83.5899 0.3123 -7.8910 7.7869 -16.0526
# 3 -2.9383 0.3123 62.1905 -6.6267 -6.7610 -2.6733
# 4 -7.2671 -7.8910 -6.6267 20.5312 7.5435 -5.5374
# 5 -6.7531 7.7869 -6.7610 7.5435 29.7300 -4.6668
# 6 -1.3877 -16.0526 -2.6733 -5.5374 -4.6668 19.0133
#
#
#
# Elastic Compliance Matrix: (Units=1/GPa)
#
#
# Indices 1 2 3 4 5 6 
#
# 1 0.056308 0.002238 0.007005 0.023671 0.010369 0.016423
# 2 0.002238 0.017093 0.001853 0.014419 -0.004384 0.017978
# 3 0.007005 0.001853 0.018266 0.009883 0.004090 0.008526
# 4 0.023671 0.014419 0.009883 0.079393 -0.010678 0.035792
# 5 0.010369 -0.004384 0.004090 -0.010678 0.041519 0.004712
# 6 0.016423 0.017978 0.008526 0.035792 0.004712 0.081752
#
#
# Mechanical properties :
#
#
# Convention : Reuss Voigt Hill
#
# Bulk Modulus (GPa) = 8.78301 18.84860 13.81581
# Shear Modulus (GPa) = 16.12428 25.04844 20.58636
#
# Velocity S-wave (km/s) = 2.93441 3.65739 3.31567
# Velocity P-wave (km/s) = 4.02137 5.28214 4.69427
#
# Compressibility (1/GPa) = 0.11385620
#
# Stress axis : x y z
#
# Youngs Moduli (GPa) = 17.75949 58.50510 54.74788
#
# Poissons Ratio (x) = -0.13094 -0.38348
# Poissons Ratio (y) = -0.03975 -0.10142
# Poissons Ratio (z) = -0.12440 -0.10838
#
# Static dielectric constant tensor:
#      x y z
#    x 1.673870 0.030840 -0.012370 
#    y 0.030840 1.639360 -0.007940 
#    z -0.012370 -0.007940 1.667100 
# 
# From -- ./inp_files/347672.got.cif
#   From: 2010.05.17/outbox.cif.g08.bks.cpg/sg2_174_cif.got.tgz:347672.got - 2010.06.03 11:33:40.
