data_PCOD9077429
_publ_section_title
;
Structure prediction by ZEFSAII (Michael W. Deem and Ramdas Pophale) SiO2 
 PCOD9077429
Probable space group: P -1
;
_chemical_formula_sum "Si O2"
_cell_formula_units_Z 16
_cell_length_a 9.398621
_cell_length_b 12.222537
_cell_length_c 8.748810
_cell_angle_alpha 51.263155
_cell_angle_beta 100.524707
_cell_angle_gamma 112.308766
_cell_volume 723.166992
_symmetry_space_group_name_H-M "P -1"
_symmetry_group_IT_number 2
_symmetry_cell_setting 'triclinic'
loop_
_space_group_symop_operation_xyz
x,y,z
-x,-y,-z
loop_
_atom_site_type_symbol
_atom_site_label
_atom_site_fract_x
_atom_site_fract_y
_atom_site_fract_z
Si Si1 0.100525 0.647674 0.801002
Si Si2 0.060983 0.155062 0.242154
Si Si3 0.319403 0.367684 0.911664
Si Si4 0.683572 0.596495 0.442968
Si Si5 0.236798 0.619038 0.541284
Si Si6 0.457572 0.777163 0.796107
Si Si7 0.477222 0.914808 0.339327
Si Si8 0.211244 0.120510 0.593615
O O1 0.114161 0.625999 0.639115
O O2 0.275407 0.701001 0.851050
O O3 0.034347 0.776407 0.722506
O O4 0.000000 0.500000 0.000000
O O5 0.159804 0.284797 0.037054
O O6 0.180785 0.113890 0.410767
O O7 0.943928 0.008146 0.267522
O O8 0.454588 0.336605 0.053443
O O9 0.305063 0.303761 0.793282
O O10 0.338395 0.539549 0.731305
O O11 0.500000 0.500000 0.500000
O O12 0.784317 0.491969 0.510449
O O13 0.750271 0.708938 0.495246
O O14 0.331712 0.784150 0.357044
O O15 0.476352 0.849877 0.568089
O O16 0.472172 0.079244 0.205424
O O17 0.639184 0.919138 0.299746
#
# Coordination Sequence:
#
# PCOD9077429 Si02
#       8
#     2   2   2   2   2   2   2   2
#     4  11  20  35  56  91 124 149 198 263 304 348
#     4  11  23  37  63  94 119 160 208 252 306 361
#     4  10  21  40  61  92 116 161 214 240 304 374
#     4  10  21  40  62  88 123 165 204 253 306 367
#     4   9  21  35  62  84 123 159 198 246 308 359
#     4  10  21  34  60  91 123 156 202 256 305 355
#     4  10  18  34  59  89 124 153 196 257 304 346
#     4  11  21  38  62  88 125 161 204 249 307 370
#
# _framework density 22.124904999999998
#
# number of rings (size 3 to 8) (size 9 to 14) (size 15 to 20)
#    0.750    1.000    5.000    0.000    0.000    4.500 
#    0.000    1.250    0.000    0.000    0.000    0.000 
#    0.000    0.000    0.000    0.000    0.000    0.000 
#
# Total GULP energy -89142.518388 kJ/mol
# GULP energy per Si atom -5571.407399 kJ/mol
# Density = 2.207455 g / cm^3
# Si number density = 22.124905 Si / 1000 Ang^3
#
#
#
# Elastic Constant Matrix: (Units=GPa)
#
#
# Indices 1 2 3 4 5 6 
#
# 1 96.5928 33.2365 20.6919 -5.8673 -22.1269 1.0320
# 2 33.2365 103.2971 13.9686 -25.9564 -18.1201 6.7486
# 3 20.6919 13.9686 32.0729 -17.8322 -8.8258 2.8449
# 4 -5.8673 -25.9564 -17.8322 30.9202 -2.0621 -3.4055
# 5 -22.1269 -18.1201 -8.8258 -2.0621 22.0497 -0.6422
# 6 1.0320 6.7486 2.8449 -3.4055 -0.6422 29.0702
#
#
#
# Elastic Compliance Matrix: (Units=1/GPa)
#
#
# Indices 1 2 3 4 5 6 
#
# 1 0.014947 -0.003161 -0.007964 -0.003735 0.008887 0.000741
# 2 -0.003161 0.018143 0.011970 0.022527 0.018571 -0.002222
# 3 -0.007964 0.011970 0.068427 0.049971 0.033832 -0.002591
# 4 -0.003735 0.022527 0.049971 0.082260 0.042476 0.000588
# 5 0.008887 0.018571 0.033832 0.042476 0.087015 -0.001039
# 6 0.000741 -0.002222 -0.002591 0.000588 -0.001039 0.035188
#
#
# Mechanical properties :
#
#
# Convention : Reuss Voigt Hill
#
# Bulk Modulus (GPa) = 9.68926 40.86189 25.27558
# Shear Modulus (GPa) = 14.76270 27.34574 21.05422
#
# Velocity S-wave (km/s) = 2.58591 3.51945 3.08816
# Velocity P-wave (km/s) = 3.64757 5.91813 4.91574
#
# Compressibility (1/GPa) = 0.10320701
#
# Stress axis : x y z
#
# Youngs Moduli (GPa) = 66.90229 55.11910 14.61421
#
# Poissons Ratio (x) = 0.17421 0.11639
# Poissons Ratio (y) = 0.21145 -0.17493
# Poissons Ratio (z) = 0.53280 -0.65977
#
# Static dielectric constant tensor:
#      x y z
#    x 1.850330 0.002900 -0.009350 
#    y 0.002900 1.943370 0.010920 
#    z -0.009350 0.010920 1.799150 
# 
# From -- ./inp_files/389081.got.cif
#   From: 2010.05.17/outbox.cif.g08.bks.cpg/sg2_195_cif.got.tgz:389081.got - 2010.06.03 11:33:40.
