data_PCOD9077425
_publ_section_title
;
Structure prediction by ZEFSAII (Michael W. Deem and Ramdas Pophale) SiO2 
 PCOD9077425
Probable space group: P -1
;
_chemical_formula_sum "Si O2"
_cell_formula_units_Z 16
_cell_length_a 9.397412
_cell_length_b 15.340388
_cell_length_c 11.263266
_cell_angle_alpha 58.770104
_cell_angle_beta 78.393075
_cell_angle_gamma 35.676383
_cell_volume 726.709032
_symmetry_space_group_name_H-M "P -1"
_symmetry_group_IT_number 2
_symmetry_cell_setting 'triclinic'
loop_
_space_group_symop_operation_xyz
x,y,z
-x,-y,-z
loop_
_atom_site_type_symbol
_atom_site_label
_atom_site_fract_x
_atom_site_fract_y
_atom_site_fract_z
Si Si1 0.372953 0.880008 0.921477
Si Si2 0.362389 0.153053 0.312514
Si Si3 0.168501 0.416028 0.354501
Si Si4 0.804229 0.324874 0.523200
Si Si5 0.623404 0.039851 0.703608
Si Si6 0.123755 0.220925 0.771416
Si Si7 0.684626 0.588773 0.257826
Si Si8 0.106584 0.941846 0.235540
O O1 0.453057 0.894810 0.779247
O O2 0.226049 0.048513 0.915743
O O3 0.636194 0.678748 0.082353
O O4 0.160665 0.917992 0.896172
O O5 0.214861 0.331335 0.281298
O O6 0.500000 0.000000 0.500000
O O7 0.240779 0.135569 0.263781
O O8 0.427622 0.227827 0.521161
O O9 0.084038 0.584506 0.258050
O O10 0.886722 0.526250 0.358898
O O11 0.500000 0.500000 0.500000
O O12 0.800841 0.405773 0.358621
O O13 0.896534 0.154805 0.607585
O O14 0.972847 0.278961 0.633034
O O15 0.401507 0.118670 0.772393
O O16 0.848737 0.978207 0.765382
O O17 0.381778 0.764089 0.238609
#
# Coordination Sequence:
#
# PCOD9077425 Si02
#       8
#     2   2   2   2   2   2   2   2
#     4  10  23  39  59  86 124 158 191 236 303 354
#     4   9  22  40  61  84 118 158 199 242 288 352
#     4  11  19  33  62  87 117 147 198 241 295 334
#     4   9  18  31  55  91 117 146 190 244 290 339
#     4  10  18  36  61  90 112 149 203 249 285 341
#     4  10  18  34  59  89 113 149 200 245 285 345
#     4  11  20  34  60  92 121 150 190 249 301 342
#     4  10  20  36  62  87 117 155 200 240 291 348
#
# _framework density 22.017063
#
# number of rings (size 3 to 8) (size 9 to 14) (size 15 to 20)
#    0.000    2.000    2.500    2.250    1.750    1.000 
#    0.000    2.500    8.250    0.750    0.000    0.000 
#    0.000    0.000    0.000    0.000    0.000    0.000 
#
# Total GULP energy -89080.466801 kJ/mol
# GULP energy per Si atom -5567.529175 kJ/mol
# Density = 2.196695 g / cm^3
# Si number density = 22.017063 Si / 1000 Ang^3
#
#
#
# Elastic Constant Matrix: (Units=GPa)
#
#
# Indices 1 2 3 4 5 6 
#
# 1 151.0172 33.2496 31.6915 -5.0490 3.4463 31.4688
# 2 33.2496 94.5047 14.8774 -4.7318 -2.4656 37.6135
# 3 31.6915 14.8774 72.2753 -9.6220 -5.4760 -1.4355
# 4 -5.0490 -4.7318 -9.6220 17.7076 -6.7424 1.1682
# 5 3.4463 -2.4656 -5.4760 -6.7424 16.0600 -0.7309
# 6 31.4688 37.6135 -1.4355 1.1682 -0.7309 35.4707
#
#
#
# Elastic Compliance Matrix: (Units=1/GPa)
#
#
# Indices 1 2 3 4 5 6 
#
# 1 0.009605 0.001349 -0.005107 -0.000652 -0.004334 -0.010226
# 2 0.001349 0.020337 -0.004188 0.006190 0.002953 -0.023075
# 3 -0.005107 -0.004188 0.019754 0.012411 0.012837 0.009628
# 4 -0.000652 0.006190 0.012411 0.079828 0.038503 -0.007319
# 5 -0.004334 0.002953 0.012837 0.038503 0.084269 0.001702
# 6 -0.010226 -0.023075 0.009628 -0.007319 0.001702 0.062400
#
#
# Mechanical properties :
#
#
# Convention : Reuss Voigt Hill
#
# Bulk Modulus (GPa) = 29.58370 53.04822 41.31596
# Shear Modulus (GPa) = 16.48241 29.71290 23.09765
#
# Velocity S-wave (km/s) = 2.73906 3.67759 3.24246
# Velocity P-wave (km/s) = 4.84450 6.49456 5.72925
#
# Compressibility (1/GPa) = 0.03380240
#
# Stress axis : x y z
#
# Youngs Moduli (GPa) = 104.11698 49.17076 50.62319
#
# Poissons Ratio (x) = -0.06634 0.25856
# Poissons Ratio (y) = -0.14048 0.21203
# Poissons Ratio (z) = 0.53178 0.20595
#
# Static dielectric constant tensor:
#      x y z
#    x 1.844320 -0.067600 -0.042250 
#    y -0.067600 2.064650 0.005840 
#    z -0.042250 0.005840 1.881130 
# 
# From -- ./inp_files/398788.got.cif
#   From: 2010.05.17/outbox.cif.g08.bks.cpg/sg2_200_cif.got.tgz:398788.got - 2010.06.03 11:33:40.
