data_PCOD9077054
_publ_section_title
;
Structure prediction by ZEFSAII (Michael W. Deem and Ramdas Pophale) SiO2 
 PCOD9077054
Probable space group: P -1
;
_chemical_formula_sum "Si O2"
_cell_formula_units_Z 14
_cell_length_a 14.040510
_cell_length_b 14.289598
_cell_length_c 7.207636
_cell_angle_alpha 89.524243
_cell_angle_beta 106.527052
_cell_angle_gamma 30.028910
_cell_volume 588.038596
_symmetry_space_group_name_H-M "P -1"
_symmetry_group_IT_number 2
_symmetry_cell_setting 'triclinic'
loop_
_space_group_symop_operation_xyz
x,y,z
-x,-y,-z
loop_
_atom_site_type_symbol
_atom_site_label
_atom_site_fract_x
_atom_site_fract_y
_atom_site_fract_z
Si Si1 0.766875 0.618979 0.970265
Si Si2 0.681443 0.876750 0.764685
Si Si3 0.558710 0.614809 0.008041
Si Si4 0.381115 0.507365 0.362229
Si Si5 0.944610 0.976714 0.194120
Si Si6 0.971761 0.893093 0.637570
Si Si7 0.511851 0.203985 0.543812
O O1 0.691320 0.792193 0.937919
O O2 0.629991 0.661870 0.019783
O O3 0.683456 0.666780 0.712102
O O4 0.045402 0.362052 0.146341
O O5 0.500000 0.000000 0.500000
O O6 0.586502 0.063357 0.739631
O O7 0.513421 0.612872 0.774527
O O8 0.329261 0.793708 0.998516
O O9 0.782888 0.366798 0.198615
O O10 0.500000 0.500000 0.500000
O O11 0.414592 0.391289 0.520196
O O12 0.109711 0.765103 0.179547
O O13 0.963444 0.927500 0.417982
O O14 0.033197 0.007728 0.244169
O O15 0.756577 0.011519 0.573980
#
# Coordination Sequence:
#
# PCOD9077054 Si02
#       7
#     2   2   2   2   2   2   2
#     4   9  17  31  54  85 110 142 188 238 286 336
#     4   9  17  30  55  86 108 139 192 236 285 343
#     4  11  22  38  58  85 116 153 194 237 283 336
#     4  11  21  38  58  81 119 159 192 233 281 331
#     4  11  22  38  54  82 121 155 193 234 276 338
#     4  11  20  37  57  79 119 155 190 236 280 331
#     4  10  18  34  55  81 115 151 185 233 282 336
#
# _framework density 23.807957999999999
#
# number of rings (size 3 to 8) (size 9 to 14) (size 15 to 20)
#    0.000    1.714    5.714    1.286    0.000    0.571 
#    2.571    0.000    0.000    0.857    0.000   14.000 
#    0.000    0.000    0.000    0.000    0.000    0.000 
#
# Total GULP energy -78220.428224 kJ/mol
# GULP energy per Si atom -5587.173445 kJ/mol
# Density = 2.375377 g / cm^3
# Si number density = 23.807958 Si / 1000 Ang^3
#
#
#
# Elastic Constant Matrix: (Units=GPa)
#
#
# Indices 1 2 3 4 5 6 
#
# 1 100.0371 38.8234 32.3162 -12.3529 0.4770 26.0443
# 2 38.8234 115.6165 44.2043 -34.9793 -6.8521 10.6808
# 3 32.3162 44.2043 127.7439 -39.2772 -0.4165 9.7371
# 4 -12.3529 -34.9793 -39.2772 38.5229 1.4981 -4.0905
# 5 0.4770 -6.8521 -0.4165 1.4981 39.8503 -24.2923
# 6 26.0443 10.6808 9.7371 -4.0905 -24.2923 31.5174
#
#
#
# Elastic Compliance Matrix: (Units=1/GPa)
#
#
# Indices 1 2 3 4 5 6 
#
# 1 0.019859 -0.005174 -0.001906 -0.002599 -0.018544 -0.028698
# 2 -0.005174 0.013593 -0.000553 0.010468 0.005151 0.005169
# 3 -0.001906 -0.000553 0.011996 0.011008 -0.001273 -0.001497
# 4 -0.002599 0.010468 0.011008 0.046054 0.001758 0.002532
# 5 -0.018544 0.005151 -0.001273 0.001758 0.065600 0.064761
# 6 -0.028698 0.005169 -0.001497 0.002532 0.064761 0.104398
#
#
# Mechanical properties :
#
#
# Convention : Reuss Voigt Hill
#
# Bulk Modulus (GPa) = 33.13223 63.78726 48.45974
# Shear Modulus (GPa) = 17.43211 37.18170 27.30691
#
# Velocity S-wave (km/s) = 2.70885 3.95617 3.39036
# Velocity P-wave (km/s) = 4.87139 6.90789 5.97701
#
# Compressibility (1/GPa) = 0.03018209
#
# Stress axis : x y z
#
# Youngs Moduli (GPa) = 50.35540 73.56669 83.35876
#
# Poissons Ratio (x) = 0.38064 0.15884
# Poissons Ratio (y) = 0.26055 0.04614
# Poissons Ratio (z) = 0.09595 0.04072
#
# Static dielectric constant tensor:
#      x y z
#    x 1.967820 0.056640 0.015050 
#    y 0.056640 1.925930 0.030200 
#    z 0.015050 0.030200 1.966090 
# 
# From -- ./inp_files/268434.got.cif
#   From: 2010.05.17/outbox.cif.g08.bks.cpg/sg2_135_cif.got.tgz:268434.got - 2010.06.03 11:33:40.
