data_PCOD9077443
_publ_section_title
;
Structure prediction by ZEFSAII (Michael W. Deem and Ramdas Pophale) SiO2 
 PCOD9077443
Probable space group: P -1
;
_chemical_formula_sum "Si O2"
_cell_formula_units_Z 14
_cell_length_a 24.873892
_cell_length_b 12.507357
_cell_length_c 10.752524
_cell_angle_alpha 136.526003
_cell_angle_beta 32.412609
_cell_angle_gamma 159.045284
_cell_volume 605.991535
_symmetry_space_group_name_H-M "P -1"
_symmetry_group_IT_number 2
_symmetry_cell_setting 'triclinic'
loop_
_space_group_symop_operation_xyz
x,y,z
-x,-y,-z
loop_
_atom_site_type_symbol
_atom_site_label
_atom_site_fract_x
_atom_site_fract_y
_atom_site_fract_z
Si Si1 0.185641 0.405142 0.335885
Si Si2 0.520870 0.344596 0.839144
Si Si3 0.105518 0.798802 0.083530
Si Si4 0.824423 0.337617 0.595911
Si Si5 0.192018 0.273719 0.626337
Si Si6 0.229677 0.033199 0.512697
Si Si7 0.082623 0.835644 0.881125
O O1 0.366003 0.555177 0.174470
O O2 0.273159 0.661379 0.296597
O O3 0.024169 0.083454 0.304332
O O4 0.041341 0.285356 0.624490
O O5 0.658433 0.479916 0.568804
O O6 0.289581 0.987964 0.969453
O O7 0.500000 0.500000 0.000000
O O8 0.159690 0.943130 0.963484
O O9 0.000000 0.500000 0.000000
O O10 0.685400 0.028911 0.686282
O O11 0.000707 0.667034 0.606201
O O12 0.927664 0.356122 0.310332
O O13 0.285039 0.251534 0.500462
O O14 0.123880 0.342591 0.880824
O O15 0.229029 0.100793 0.711025
#
# Coordination Sequence:
#
# PCOD9077443 Si02
#       7
#     2   2   2   2   2   2   2
#     4  11  21  41  63  90 125 164 206 252 318 364
#     4  12  25  39  61  95 128 165 209 250 319 374
#     4  12  23  40  62  91 128 165 206 262 308 366
#     4   8  17  34  61  89 117 160 206 251 302 371
#     4  11  20  36  64  92 125 165 204 256 309 373
#     4   8  17  34  60  90 120 164 208 244 312 363
#     4  10  18  34  59  91 124 156 208 252 306 365
#
# _framework density 23.102630999999999
#
# number of rings (size 3 to 8) (size 9 to 14) (size 15 to 20)
#    0.857    0.857    4.286    1.714    0.000    0.571 
#    0.000    0.714    0.000    0.857    3.714    0.000 
#    0.000    0.000    0.000    0.000    0.000    0.000 
#
# Total GULP energy -77935.534559 kJ/mol
# GULP energy per Si atom -5566.823897 kJ/mol
# Density = 2.305005 g / cm^3
# Si number density = 23.102631 Si / 1000 Ang^3
#
#
#
# Elastic Constant Matrix: (Units=GPa)
#
#
# Indices 1 2 3 4 5 6 
#
# 1 150.5629 6.3713 24.4165 -8.9894 -31.2080 9.6106
# 2 6.3713 41.4256 17.6041 -0.3904 -19.9005 7.4827
# 3 24.4165 17.6041 71.1710 9.0102 -24.7406 0.2633
# 4 -8.9894 -0.3904 9.0102 23.4366 4.4761 -2.9576
# 5 -31.2080 -19.9005 -24.7406 4.4761 33.6246 3.4678
# 6 9.6106 7.4827 0.2633 -2.9576 3.4678 21.2841
#
#
#
# Elastic Compliance Matrix: (Units=1/GPa)
#
#
# Indices 1 2 3 4 5 6 
#
# 1 0.009902 0.007016 -0.000205 0.000133 0.014125 -0.009218
# 2 0.007016 0.045550 0.000309 -0.007117 0.037353 -0.026260
# 3 -0.000205 0.000309 0.022095 -0.012735 0.018468 -0.005068
# 4 0.000133 -0.007117 -0.012735 0.053409 -0.021971 0.013601
# 5 0.014125 0.037353 0.018468 -0.021971 0.085254 -0.036682
# 6 -0.009218 -0.026260 -0.005068 0.013601 -0.036682 0.068307
#
#
# Mechanical properties :
#
#
# Convention : Reuss Voigt Hill
#
# Bulk Modulus (GPa) = 10.89470 39.99372 25.44421
# Shear Modulus (GPa) = 16.61830 29.98688 23.30259
#
# Velocity S-wave (km/s) = 2.68493 3.60667 3.17938
# Velocity P-wave (km/s) = 3.78653 5.89007 4.95130
#
# Compressibility (1/GPa) = 0.09178776
#
# Stress axis : x y z
#
# Youngs Moduli (GPa) = 100.98746 21.95410 45.25824
#
# Poissons Ratio (x) = -0.15403 0.00928
# Poissons Ratio (y) = -0.70853 -0.01400
# Poissons Ratio (z) = 0.02071 -0.00679
#
# Static dielectric constant tensor:
#      x y z
#    x 2.007300 -0.110970 0.055320 
#    y -0.110970 2.223100 -0.186800 
#    z 0.055320 -0.186800 1.995740 
# 
# From -- ./inp_files/476805.got.cif
#   From: 2010.05.17/outbox.cif.g08.bks.cpg/sg2_239_cif.got.tgz:476805.got - 2010.06.03 11:33:40.
