data_PCOD9077240
_publ_section_title
;
Structure prediction by ZEFSAII (Michael W. Deem and Ramdas Pophale) SiO2 
 PCOD9077240
Probable space group: P -1
;
_chemical_formula_sum "Si O2"
_cell_formula_units_Z 14
_cell_length_a 16.460485
_cell_length_b 10.602865
_cell_length_c 20.148009
_cell_angle_alpha 50.781760
_cell_angle_beta 17.658475
_cell_angle_gamma 43.412454
_cell_volume 702.131383
_symmetry_space_group_name_H-M "P -1"
_symmetry_group_IT_number 2
_symmetry_cell_setting 'triclinic'
loop_
_space_group_symop_operation_xyz
x,y,z
-x,-y,-z
loop_
_atom_site_type_symbol
_atom_site_label
_atom_site_fract_x
_atom_site_fract_y
_atom_site_fract_z
Si Si1 0.171276 0.573617 0.795433
Si Si2 0.435553 0.324849 0.444384
Si Si3 0.914965 0.000623 0.978884
Si Si4 0.268159 0.623103 0.200933
Si Si5 0.324501 0.243945 0.686512
Si Si6 0.063726 0.012989 0.183413
Si Si7 0.360635 0.382477 0.336786
O O1 0.398762 0.596138 0.662486
O O2 0.307086 0.416279 0.684422
O O3 0.953347 0.786026 0.862482
O O4 0.000000 0.500000 0.000000
O O5 0.208447 0.309839 0.679244
O O6 0.321221 0.436807 0.427339
O O7 0.707898 0.108461 0.283439
O O8 0.850197 0.840318 0.109762
O O9 0.696235 0.187193 0.129415
O O10 0.804655 0.053920 0.971003
O O11 0.354587 0.525149 0.238556
O O12 0.927199 0.649631 0.442951
O O13 0.237728 0.828968 0.155640
O O14 0.500000 0.500000 0.000000
O O15 0.694403 0.081071 0.449509
#
# Coordination Sequence:
#
# PCOD9077240 Si02
#       7
#     2   2   2   2   2   2   2
#     4  10  18  36  59  86 113 146 181 231 291 335
#     4  10  22  33  56  89 117 145 178 235 292 333
#     4  10  18  34  57  85 115 145 177 233 289 342
#     4  11  23  39  58  76 112 163 194 226 266 334
#     4  10  18  35  57  83 115 145 180 228 291 333
#     4  10  19  33  56  85 105 146 194 223 275 332
#     4  11  23  38  55  83 117 150 193 229 275 334
#
# _framework density 19.939287
#
# number of rings (size 3 to 8) (size 9 to 14) (size 15 to 20)
#    0.000    2.000    5.714    2.143    0.000    1.714 
#    0.000    0.000    0.000    4.286    0.000    0.000 
#    0.000    0.000    0.000    0.000    0.000    0.000 
#
# Total GULP energy -77972.778877 kJ/mol
# GULP energy per Si atom -5569.484206 kJ/mol
# Density = 1.989390 g / cm^3
# Si number density = 19.939287 Si / 1000 Ang^3
#
#
#
# Elastic Constant Matrix: (Units=GPa)
#
#
# Indices 1 2 3 4 5 6 
#
# 1 115.6321 56.2771 24.6766 -0.5036 35.6600 -17.4224
# 2 56.2771 146.8400 20.6118 -14.8943 16.8212 -19.9666
# 3 24.6766 20.6118 69.8583 -11.3161 23.2851 1.5592
# 4 -0.5036 -14.8943 -11.3161 27.5676 -1.0510 8.7457
# 5 35.6600 16.8212 23.2851 -1.0510 35.3681 -10.1247
# 6 -17.4224 -19.9666 1.5592 8.7457 -10.1247 25.2035
#
#
#
# Elastic Compliance Matrix: (Units=1/GPa)
#
#
# Indices 1 2 3 4 5 6 
#
# 1 0.015010 -0.004177 -0.000984 -0.004068 -0.011498 0.003920
# 2 -0.004177 0.009288 -0.001628 0.002949 0.002225 0.004442
# 3 -0.000984 -0.001628 0.023372 0.012746 -0.017498 -0.014868
# 4 -0.004068 0.002949 0.012746 0.049879 -0.010765 -0.022897
# 5 -0.011498 0.002225 -0.017498 -0.010765 0.056065 0.021155
# 6 0.003920 0.004442 -0.014868 -0.022897 0.021155 0.063269
#
#
# Mechanical properties :
#
#
# Convention : Reuss Voigt Hill
#
# Bulk Modulus (GPa) = 29.33234 59.49570 44.41402
# Shear Modulus (GPa) = 20.67623 33.01216 26.84419
#
# Velocity S-wave (km/s) = 3.22368 4.07336 3.67317
# Velocity P-wave (km/s) = 5.34779 7.21292 6.34922
#
# Compressibility (1/GPa) = 0.03409206
#
# Stress axis : x y z
#
# Youngs Moduli (GPa) = 66.62305 107.66942 42.78715
#
# Poissons Ratio (x) = 0.44973 0.04208
# Poissons Ratio (y) = 0.27828 0.06966
# Poissons Ratio (z) = 0.06553 0.17528
#
# Static dielectric constant tensor:
#      x y z
#    x 1.748670 -0.013620 0.010430 
#    y -0.013620 1.749390 -0.017360 
#    z 0.010430 -0.017360 1.769520 
# 
# From -- ./inp_files/570557.got.cif
#   From: 2010.05.17/outbox.cif.g08.bks.cpg/sg2_286_cif.got.tgz:570557.got - 2010.06.03 11:33:40.
