data_PCOD9077331
_publ_section_title
;
Structure prediction by ZEFSAII (Michael W. Deem and Ramdas Pophale) SiO2 
 PCOD9077331
Probable space group: P -1
;
_chemical_formula_sum "Si O2"
_cell_formula_units_Z 16
_cell_length_a 9.570584
_cell_length_b 17.434326
_cell_length_c 7.956820
_cell_angle_alpha 143.018432
_cell_angle_beta 75.363857
_cell_angle_gamma 110.403570
_cell_volume 747.765033
_symmetry_space_group_name_H-M "P -1"
_symmetry_group_IT_number 2
_symmetry_cell_setting 'triclinic'
loop_
_space_group_symop_operation_xyz
x,y,z
-x,-y,-z
loop_
_atom_site_type_symbol
_atom_site_label
_atom_site_fract_x
_atom_site_fract_y
_atom_site_fract_z
Si Si1 0.723222 0.634697 0.588499
Si Si2 0.383577 0.616979 0.653344
Si Si3 0.393200 0.672498 0.365307
Si Si4 0.347276 0.952537 0.856746
Si Si5 0.142784 0.208580 0.856949
Si Si6 0.820686 0.056719 0.792435
Si Si7 0.472397 0.889065 0.179172
Si Si8 0.721672 0.630015 0.212578
O O1 0.545571 0.589820 0.522013
O O2 0.740667 0.500152 0.434510
O O3 0.791188 0.672991 0.450863
O O4 0.767063 0.738379 0.907732
O O5 0.344743 0.660128 0.555487
O O6 0.432542 0.738425 0.978994
O O7 0.349884 0.803738 0.540860
O O8 0.571748 0.683597 0.325549
O O9 0.322395 0.529744 0.056064
O O10 0.381527 0.065148 0.902014
O O11 0.207920 0.956840 0.022728
O O12 0.500000 0.000000 0.000000
O O13 0.178295 0.316013 0.885363
O O14 0.970836 0.162007 0.881682
O O15 0.180224 0.080058 0.538117
O O16 0.677693 0.100036 0.847357
O O17 0.500000 0.000000 0.500000
#
# Coordination Sequence:
#
# PCOD9077331 Si02
#       8
#     2   2   2   2   2   2   2   2
#     4  10  22  36  57  89 118 151 195 243 287 343
#     4  10  19  35  56  89 118 144 196 245 291 337
#     4  10  18  34  58  87 113 149 194 248 288 343
#     4  10  19  36  58  84 113 149 193 235 299 341
#     4  11  22  42  59  82 122 158 196 236 295 351
#     4  10  23  40  60  85 113 156 197 236 293 363
#     4  11  22  36  60  90 120 148 190 249 296 342
#     4  10  21  34  61  85 115 156 193 238 294 344
#
# _framework density 21.397096999999999
#
# number of rings (size 3 to 8) (size 9 to 14) (size 15 to 20)
#    0.000    1.750    3.750    2.250    5.250    0.000 
#    2.250    3.750    0.000    1.500    0.000    0.000 
#    0.000    0.000    0.000    0.000    0.000    0.000 
#
# Total GULP energy -89140.860800 kJ/mol
# GULP energy per Si atom -5571.303800 kJ/mol
# Density = 2.134840 g / cm^3
# Si number density = 21.397097 Si / 1000 Ang^3
#
#
#
# Elastic Constant Matrix: (Units=GPa)
#
#
# Indices 1 2 3 4 5 6 
#
# 1 25.7273 33.3743 15.9044 -0.0796 -0.4902 5.2456
# 2 33.3743 119.7746 36.4393 -8.8107 4.9441 18.4449
# 3 15.9044 36.4393 110.5816 -4.6795 -2.0651 3.6189
# 4 -0.0796 -8.8107 -4.6795 34.4461 -4.7625 -4.0043
# 5 -0.4902 4.9441 -2.0651 -4.7625 20.0949 -5.8578
# 6 5.2456 18.4449 3.6189 -4.0043 -5.8578 20.5882
#
#
#
# Elastic Compliance Matrix: (Units=1/GPa)
#
#
# Indices 1 2 3 4 5 6 
#
# 1 0.063216 -0.017058 -0.003568 -0.004045 0.004500 0.000297
# 2 -0.017058 0.016068 -0.002552 0.001322 -0.007679 -0.011528
# 3 -0.003568 -0.002552 0.010427 0.001398 0.002639 0.002385
# 4 -0.004045 0.001322 0.001398 0.031901 0.009784 0.008589
# 5 0.004500 -0.007679 0.002639 0.009784 0.061549 0.024684
# 6 0.000297 -0.011528 0.002385 0.008589 0.024684 0.067098
#
#
# Mechanical properties :
#
#
# Convention : Reuss Voigt Hill
#
# Bulk Modulus (GPa) = 23.06467 47.50217 35.28342
# Shear Modulus (GPa) = 16.07372 26.38353 21.22862
#
# Velocity S-wave (km/s) = 2.74379 3.51528 3.15322
# Velocity P-wave (km/s) = 4.56515 6.22292 5.45735
#
# Compressibility (1/GPa) = 0.04335635
#
# Stress axis : x y z
#
# Youngs Moduli (GPa) = 15.81871 62.23556 95.90097
#
# Poissons Ratio (x) = 1.06163 0.34215
# Poissons Ratio (y) = 0.26984 0.24470
# Poissons Ratio (z) = 0.05644 0.15880
#
# Static dielectric constant tensor:
#      x y z
#    x 1.787540 -0.080970 -0.002770 
#    y -0.080970 1.907460 -0.050790 
#    z -0.002770 -0.050790 1.895520 
# 
# From -- ./inp_files/283493.got.cif
#   From: 2010.05.17/outbox.cif.g08.bks.cpg/sg2_142_cif.got.tgz:283493.got - 2010.06.03 11:33:40.
