data_PCOD9077857
_publ_section_title
;
Structure prediction by ZEFSAII (Michael W. Deem and Ramdas Pophale) SiO2 
 PCOD9077857
Probable space group: P -1
;
_chemical_formula_sum "Si O2"
_cell_formula_units_Z 16
_cell_length_a 11.479691
_cell_length_b 17.384819
_cell_length_c 11.398860
_cell_angle_alpha 42.087518
_cell_angle_beta 35.588690
_cell_angle_gamma 34.202329
_cell_volume 727.177933
_symmetry_space_group_name_H-M "P -1"
_symmetry_group_IT_number 2
_symmetry_cell_setting 'triclinic'
loop_
_space_group_symop_operation_xyz
x,y,z
-x,-y,-z
loop_
_atom_site_type_symbol
_atom_site_label
_atom_site_fract_x
_atom_site_fract_y
_atom_site_fract_z
Si Si1 0.840634 0.052171 0.193845
Si Si2 0.910807 0.349525 0.274344
Si Si3 0.104566 0.668938 0.331097
Si Si4 0.474217 0.636700 0.588371
Si Si5 0.675947 0.170879 0.908423
Si Si6 0.280686 0.151410 0.387984
Si Si7 0.295522 0.342787 0.819255
Si Si8 0.296892 0.663973 0.952322
O O1 0.700383 0.983068 0.423785
O O2 0.671330 0.217370 0.159651
O O3 0.000000 0.000000 0.000000
O O4 0.080539 0.974557 0.169205
O O5 0.670230 0.374335 0.388196
O O6 0.831077 0.490540 0.249507
O O7 0.077410 0.220833 0.371434
O O8 0.082655 0.327234 0.049831
O O9 0.290540 0.508014 0.392856
O O10 0.080478 0.693721 0.182972
O O11 0.849644 0.736503 0.527511
O O12 0.231707 0.741313 0.203837
O O13 0.587829 0.708893 0.346473
O O14 0.294927 0.688039 0.788386
O O15 0.515547 0.139517 0.158752
O O16 0.499834 0.262883 0.842738
O O17 0.500000 0.500000 0.000000
#
# Coordination Sequence:
#
# PCOD9077857 Si02
#       8
#     2   2   2   2   2   2   2   2
#     4  11  21  40  61  84 116 148 198 237 281 344
#     4  10  19  32  55  88 117 150 197 238 279 338
#     4  10  18  35  54  86 116 146 192 236 281 337
#     4  11  19  33  59  79 120 159 184 232 298 325
#     4  10  20  34  59  88 114 143 191 247 287 325
#     4  10  20  34  59  88 114 143 191 247 287 325
#     4  10  19  32  55  88 117 150 197 238 279 338
#     4  10  23  40  58  85 118 153 189 236 285 354
#
# _framework density 22.002866000000001
#
# number of rings (size 3 to 8) (size 9 to 14) (size 15 to 20)
#    0.000    1.750    5.000    1.875    0.000    0.500 
#    0.000    5.000    0.000    9.750    0.000    0.000 
#    0.000    0.000    0.000    0.000    0.000    0.000 
#
# Total GULP energy -89081.017039 kJ/mol
# GULP energy per Si atom -5567.563565 kJ/mol
# Density = 2.195279 g / cm^3
# Si number density = 22.002866 Si / 1000 Ang^3
#
#
#
# Elastic Constant Matrix: (Units=GPa)
#
#
# Indices 1 2 3 4 5 6 
#
# 1 32.7351 22.5155 40.6443 3.9999 4.6814 -9.0023
# 2 22.5155 75.3012 19.2311 -12.1664 -6.5858 -3.1975
# 3 40.6443 19.2311 188.4292 3.7862 23.3654 -5.7333
# 4 3.9999 -12.1664 3.7862 34.1412 -4.0262 0.9527
# 5 4.6814 -6.5858 23.3654 -4.0262 30.6237 10.8484
# 6 -9.0023 -3.1975 -5.7333 0.9527 10.8484 16.8982
#
#
#
# Elastic Compliance Matrix: (Units=1/GPa)
#
#
# Indices 1 2 3 4 5 6 
#
# 1 0.088266 -0.029160 -0.008578 -0.026329 -0.039969 0.065738
# 2 -0.029160 0.025241 0.000080 0.015536 0.020683 -0.024886
# 3 -0.008578 0.000080 0.007860 -0.000503 -0.005276 0.001528
# 4 -0.026329 0.015536 -0.000503 0.041516 0.023331 -0.028577
# 5 -0.039969 0.020683 -0.005276 0.023331 0.074507 -0.068317
# 6 0.065738 -0.024886 0.001528 -0.028577 -0.068317 0.135478
#
#
# Mechanical properties :
#
#
# Convention : Reuss Voigt Hill
#
# Bulk Modulus (GPa) = 21.71480 51.24971 36.48226
# Shear Modulus (GPa) = 10.78671 30.60425 20.69548
#
# Velocity S-wave (km/s) = 2.21654 3.73355 3.07022
# Velocity P-wave (km/s) = 4.05478 6.47524 5.40231
#
# Compressibility (1/GPa) = 0.04605154
#
# Stress axis : x y z
#
# Youngs Moduli (GPa) = 11.32941 39.61816 127.22761
#
# Poissons Ratio (x) = 1.15525 1.09130
# Poissons Ratio (y) = 0.33036 -0.01012
# Poissons Ratio (z) = 0.09718 -0.00315
#
# Static dielectric constant tensor:
#      x y z
#    x 1.851900 -0.028690 0.039830 
#    y -0.028690 1.851640 -0.004750 
#    z 0.039830 -0.004750 1.884140 
# 
# From -- ./inp_files/457464.got.cif
#   From: 2010.05.17/outbox.cif.g08.bks.cpg/sg2_229_cif.got.tgz:457464.got - 2010.06.03 11:33:40.
