data_PCOD9077671
_publ_section_title
;
Structure prediction by ZEFSAII (Michael W. Deem and Ramdas Pophale) SiO2 
 PCOD9077671
Probable space group: P -1
;
_chemical_formula_sum "Si O2"
_cell_formula_units_Z 14
_cell_length_a 16.248054
_cell_length_b 9.436671
_cell_length_c 13.043319
_cell_angle_alpha 32.651905
_cell_angle_beta 37.868456
_cell_angle_gamma 62.521476
_cell_volume 522.960624
_symmetry_space_group_name_H-M "P -1"
_symmetry_group_IT_number 2
_symmetry_cell_setting 'triclinic'
loop_
_space_group_symop_operation_xyz
x,y,z
-x,-y,-z
loop_
_atom_site_type_symbol
_atom_site_label
_atom_site_fract_x
_atom_site_fract_y
_atom_site_fract_z
Si Si1 0.182604 0.456004 0.776386
Si Si2 0.495834 0.550449 0.728623
Si Si3 0.682541 0.767130 0.605609
Si Si4 0.553714 0.828286 0.184226
Si Si5 0.083328 0.465715 0.094267
Si Si6 0.167151 0.364407 0.281228
Si Si7 0.767088 0.082457 0.997235
O O1 0.379826 0.781127 0.389411
O O2 0.115404 0.365316 0.014471
O O3 0.179173 0.156187 0.918017
O O4 0.076252 0.536900 0.767888
O O5 0.641176 0.618746 0.621475
O O6 0.421555 0.243885 0.910900
O O7 0.592725 0.870015 0.364946
O O8 0.348838 0.513080 0.959324
O O9 0.816871 0.807042 0.530300
O O10 0.753256 0.145761 0.289668
O O11 0.500000 0.500000 0.000000
O O12 0.500000 0.500000 0.500000
O O13 0.712230 0.117511 0.917404
O O14 0.062869 0.272764 0.334306
O O15 0.125438 0.586903 0.244364
#
# Coordination Sequence:
#
# PCOD9077671 Si02
#       7
#     2   2   2   2   2   2   2
#     4   9  21  36  61  87 110 160 194 228 295 339
#     4   9  17  34  54  83 116 145 188 241 279 332
#     4  10  23  35  58  92 115 146 201 237 280 345
#     4   8  16  31  57  84 113 142 194 236 274 340
#     4  11  21  41  62  79 121 157 189 236 285 353
#     4  11  21  34  63  89 113 152 192 236 296 334
#     4  10  18  34  62  90 113 147 197 242 283 340
#
# _framework density 26.770657
#
# number of rings (size 3 to 8) (size 9 to 14) (size 15 to 20)
#    0.000    2.571    1.429    3.000    6.000    0.571 
#    0.000    4.286    9.429    0.000    0.000    0.000 
#    0.000    0.000    0.000    0.000    0.000    0.000 
#
# Total GULP energy -78195.567307 kJ/mol
# GULP energy per Si atom -5585.397665 kJ/mol
# Density = 2.670973 g / cm^3
# Si number density = 26.770657 Si / 1000 Ang^3
#
#
#
# Elastic Constant Matrix: (Units=GPa)
#
#
# Indices 1 2 3 4 5 6 
#
# 1 194.8211 99.2576 46.8529 1.7895 10.7038 37.3994
# 2 99.2576 148.3669 21.5360 25.2350 5.4086 31.9053
# 3 46.8529 21.5360 66.3410 2.6759 0.1559 -3.0911
# 4 1.7895 25.2350 2.6759 24.6764 -5.8902 -11.0985
# 5 10.7038 5.4086 0.1559 -5.8902 40.2651 8.4745
# 6 37.3994 31.9053 -3.0911 -11.0985 8.4745 56.8198
#
#
#
# Elastic Compliance Matrix: (Units=1/GPa)
#
#
# Indices 1 2 3 4 5 6 
#
# 1 0.010066 -0.006322 -0.005369 0.005157 -0.000573 -0.002275
# 2 -0.006322 0.016606 -0.000498 -0.020937 -0.001711 -0.009025
# 3 -0.005369 -0.000498 0.019211 0.001199 0.000540 0.005013
# 4 0.005157 -0.020937 0.001199 0.072927 0.007571 0.021542
# 5 -0.000573 -0.001711 0.000540 0.007571 0.026558 -0.001115
# 6 -0.002275 -0.009025 0.005013 0.021542 -0.001115 0.028811
#
#
# Mechanical properties :
#
#
# Convention : Reuss Voigt Hill
#
# Bulk Modulus (GPa) = 46.50155 82.75801 64.62978
# Shear Modulus (GPa) = 24.30426 40.47773 32.39100
#
# Velocity S-wave (km/s) = 3.01636 3.89269 3.48220
# Velocity P-wave (km/s) = 5.43500 7.15436 6.35311
#
# Compressibility (1/GPa) = 0.02150466
#
# Stress axis : x y z
#
# Youngs Moduli (GPa) = 99.34586 60.22059 52.05256
#
# Poissons Ratio (x) = 0.38070 0.27949
# Poissons Ratio (y) = 0.62804 0.02592
# Poissons Ratio (z) = 0.53343 0.02999
#
# Static dielectric constant tensor:
#      x y z
#    x 2.144710 0.033660 -0.074440 
#    y 0.033660 2.082450 -0.097410 
#    z -0.074440 -0.097410 2.252600 
# 
# From -- ./inp_files/460287.got.cif
#   From: 2010.05.17/outbox.cif.g08.bks.cpg/sg2_231_cif.got.tgz:460287.got - 2010.06.03 11:33:40.
