data_PCOD9077768
_publ_section_title
;
Structure prediction by ZEFSAII (Michael W. Deem and Ramdas Pophale) SiO2 
 PCOD9077768
Probable space group: P -1
;
_chemical_formula_sum "Si O2"
_cell_formula_units_Z 16
_cell_length_a 33.530169
_cell_length_b 18.087815
_cell_length_c 9.844865
_cell_angle_alpha 142.093566
_cell_angle_beta 149.689517
_cell_angle_gamma 15.320350
_cell_volume 752.397892
_symmetry_space_group_name_H-M "P -1"
_symmetry_group_IT_number 2
_symmetry_cell_setting 'triclinic'
loop_
_space_group_symop_operation_xyz
x,y,z
-x,-y,-z
loop_
_atom_site_type_symbol
_atom_site_label
_atom_site_fract_x
_atom_site_fract_y
_atom_site_fract_z
Si Si1 0.707330 0.708180 0.116903
Si Si2 0.437255 0.446431 0.142978
Si Si3 0.671486 0.173288 0.973396
Si Si4 0.309563 0.538297 0.366678
Si Si5 0.776786 0.793701 0.219515
Si Si6 0.906691 0.754252 0.318619
Si Si7 0.811832 0.217470 0.340640
Si Si8 0.749786 0.194342 0.647115
O O1 0.744796 0.515399 0.926634
O O2 0.711002 0.765584 0.062567
O O3 0.860986 0.564899 0.457750
O O4 0.500000 0.000000 0.000000
O O5 0.531753 0.442367 0.372043
O O6 0.255431 0.725208 0.111538
O O7 0.605700 0.128060 0.239545
O O8 0.364317 0.495661 0.858356
O O9 0.796702 0.092621 0.134242
O O10 0.500000 0.500000 0.000000
O O11 0.541401 0.247831 0.633870
O O12 0.802570 0.940786 0.145355
O O13 0.219332 0.683465 0.459776
O O14 0.222743 0.756394 0.325044
O O15 0.000000 0.500000 0.500000
O O16 0.809221 0.770658 0.120019
O O17 0.868017 0.910245 0.548296
O O18 0.000000 0.000000 0.500000
#
# Coordination Sequence:
#
# PCOD9077768 Si02
#       8
#     2   2   2   2   2   2   2   2
#     4  11  25  40  58  92 127 167 215 260 294 358
#     4  10  20  35  61  95 124 150 205 259 304 366
#     4  10  18  40  63  90 124 161 195 245 327 389
#     4  11  21  40  65  88 129 167 200 250 321 373
#     4   9  19  39  58  80 117 169 206 245 291 351
#     4  10  20  39  67  87 120 164 208 256 312 367
#     4  11  23  37  58  97 133 155 192 255 327 384
#     4  10  18  34  64  95 117 154 200 257 321 370
#
# _framework density 21.265343000000001
#
# number of rings (size 3 to 8) (size 9 to 14) (size 15 to 20)
#    0.000    1.750    3.750    3.000    1.750    2.500 
#    0.000    4.375    0.000    1.500    0.000    0.000 
#    0.000    0.000    0.000    0.000    0.000    0.000 
#
# Total GULP energy -89092.263219 kJ/mol
# GULP energy per Si atom -5568.266451 kJ/mol
# Density = 2.121694 g / cm^3
# Si number density = 21.265343 Si / 1000 Ang^3
#
#
#
# Elastic Constant Matrix: (Units=GPa)
#
#
# Indices 1 2 3 4 5 6 
#
# 1 117.5653 23.7948 26.0133 -20.2137 16.5324 6.6620
# 2 23.7948 27.5120 -0.9040 -12.6949 1.5177 6.3781
# 3 26.0133 -0.9040 55.1244 -19.4279 14.9809 -0.0247
# 4 -20.2137 -12.6949 -19.4279 27.7911 -0.6786 2.1627
# 5 16.5324 1.5177 14.9809 -0.6786 34.7388 -3.3098
# 6 6.6620 6.3781 -0.0247 2.1627 -3.3098 39.2198
#
#
#
# Elastic Compliance Matrix: (Units=1/GPa)
#
#
# Indices 1 2 3 4 5 6 
#
# 1 0.012245 -0.009778 -0.004553 0.001238 -0.003494 -0.000856
# 2 -0.009778 0.066978 0.021808 0.039472 -0.008057 -0.012074
# 3 -0.004553 0.021808 0.035624 0.031653 -0.014072 -0.005684
# 4 0.001238 0.039472 0.031653 0.077610 -0.015611 -0.012207
# 5 -0.003494 -0.008057 -0.014072 -0.015611 0.037126 0.005889
# 6 -0.000856 -0.012074 -0.005684 -0.012207 0.005889 0.028773
#
#
# Mechanical properties :
#
#
# Convention : Reuss Voigt Hill
#
# Bulk Modulus (GPa) = 7.70404 33.11222 20.40813
# Shear Modulus (GPa) = 17.44167 30.43644 23.93905
#
# Velocity S-wave (km/s) = 2.86701 3.78732 3.35883
# Velocity P-wave (km/s) = 3.81973 5.89320 4.96589
#
# Compressibility (1/GPa) = 0.12980204
#
# Stress axis : x y z
#
# Youngs Moduli (GPa) = 81.66503 14.93018 28.07065
#
# Poissons Ratio (x) = 0.14598 0.12781
# Poissons Ratio (y) = 0.79850 -0.61217
# Poissons Ratio (z) = 0.37184 -0.32560
#
# Static dielectric constant tensor:
#      x y z
#    x 1.832220 -0.075580 -0.015770 
#    y -0.075580 1.909910 0.002570 
#    z -0.015770 0.002570 1.854430 
# 
# From -- ./inp_files/357450.got.cif
#   From: 2010.05.17/outbox.cif.g08.bks.cpg/sg2_179_cif.got.tgz:357450.got - 2010.06.03 11:33:40.
