data_PCOD9077072
_publ_section_title
;
Structure prediction by ZEFSAII (Michael W. Deem and Ramdas Pophale) SiO2 
 PCOD9077072
Probable space group: P -1
;
_chemical_formula_sum "Si O2"
_cell_formula_units_Z 16
_cell_length_a 11.074787
_cell_length_b 7.919592
_cell_length_c 16.003210
_cell_angle_alpha 121.906035
_cell_angle_beta 33.783851
_cell_angle_gamma 119.603406
_cell_volume 658.106066
_symmetry_space_group_name_H-M "P -1"
_symmetry_group_IT_number 2
_symmetry_cell_setting 'triclinic'
loop_
_space_group_symop_operation_xyz
x,y,z
-x,-y,-z
loop_
_atom_site_type_symbol
_atom_site_label
_atom_site_fract_x
_atom_site_fract_y
_atom_site_fract_z
Si Si1 0.414207 0.175019 0.848548
Si Si2 0.232347 0.290508 0.373722
Si Si3 0.377653 0.083341 0.669296
Si Si4 0.315546 0.540172 0.784281
Si Si5 0.112096 0.512142 0.070095
Si Si6 0.256922 0.925031 0.157614
Si Si7 0.807402 0.484177 0.721485
Si Si8 0.089609 0.098969 0.141128
O O1 0.492764 0.084983 0.693950
O O2 0.605837 0.322739 0.816867
O O3 0.228711 0.314955 0.965043
O O4 0.284868 0.036235 0.954963
O O5 0.443047 0.343995 0.324494
O O6 0.260811 0.414059 0.300951
O O7 0.018460 0.369503 0.555433
O O8 0.218368 0.058253 0.295134
O O9 0.349186 0.309035 0.719016
O O10 0.500000 0.000000 0.500000
O O11 0.141754 0.958215 0.782699
O O12 0.146946 0.545674 0.806607
O O13 0.196327 0.598518 0.953490
O O14 0.199334 0.686517 0.129864
O O15 0.089198 0.989070 0.201082
O O16 0.500000 0.000000 0.000000
O O17 0.859802 0.667797 0.802572
#
# Coordination Sequence:
#
# PCOD9077072 Si02
#       8
#     2   2   2   2   2   2   2   2
#     4  11  23  40  60  90 124 157 194 254 314 350
#     4  10  19  33  57  87 115 152 201 248 289 348
#     4  11  22  37  61  91 119 156 207 250 292 361
#     4  10  18  34  55  84 114 150 200 243 292 338
#     4  10  19  34  56  85 116 155 197 248 285 362
#     4  11  20  34  59  94 115 153 209 246 285 360
#     4  10  20  35  57  84 120 155 194 245 303 358
#     4  11  23  38  60  92 121 157 199 252 304 350
#
# _framework density 24.312192
#
# number of rings (size 3 to 8) (size 9 to 14) (size 15 to 20)
#    0.000    1.500    5.000    2.250    3.500    0.000 
#    0.000    0.000    0.000    7.500    0.000    0.000 
#    0.000    0.000    0.000    0.000    0.000    0.000 
#
# Total GULP energy -89574.329047 kJ/mol
# GULP energy per Si atom -5598.395565 kJ/mol
# Density = 2.425686 g / cm^3
# Si number density = 24.312192 Si / 1000 Ang^3
#
#
#
# Elastic Constant Matrix: (Units=GPa)
#
#
# Indices 1 2 3 4 5 6 
#
# 1 85.2278 40.8234 16.6705 8.1603 -4.0724 26.1546
# 2 40.8234 92.5763 30.7772 11.2526 3.4040 21.8791
# 3 16.6705 30.7772 87.5482 22.3494 5.2811 14.6312
# 4 8.1603 11.2526 22.3494 32.0113 7.6183 2.9654
# 5 -4.0724 3.4040 5.2811 7.6183 36.2272 -0.6319
# 6 26.1546 21.8791 14.6312 2.9654 -0.6319 42.0377
#
#
#
# Elastic Compliance Matrix: (Units=1/GPa)
#
#
# Indices 1 2 3 4 5 6 
#
# 1 0.017084 -0.005686 0.000539 -0.002695 0.002810 -0.007625
# 2 -0.005686 0.015387 -0.003473 -0.000891 -0.001447 -0.003220
# 3 0.000539 -0.003473 0.015492 -0.009445 0.000058 -0.003252
# 4 -0.002695 -0.000891 -0.009445 0.040337 -0.007282 0.002473
# 5 0.002810 -0.001447 0.000058 -0.007282 0.029577 -0.000057
# 6 -0.007625 -0.003220 -0.003252 0.002473 -0.000057 0.031165
#
#
# Mechanical properties :
#
#
# Convention : Reuss Voigt Hill
#
# Bulk Modulus (GPa) = 32.55178 49.09939 40.82559
# Shear Modulus (GPa) = 28.32484 33.86067 31.09275
#
# Velocity S-wave (km/s) = 3.41698 3.73600 3.58004
# Velocity P-wave (km/s) = 5.38385 6.23293 5.82389
#
# Compressibility (1/GPa) = 0.03072029
#
# Stress axis : x y z
#
# Youngs Moduli (GPa) = 58.53550 64.99098 64.55009
#
# Poissons Ratio (x) = 0.36956 -0.03477
# Poissons Ratio (y) = 0.33285 0.22420
# Poissons Ratio (z) = -0.03153 0.22573
#
# Static dielectric constant tensor:
#      x y z
#    x 1.997690 -0.047380 0.035460 
#    y -0.047380 1.947160 0.003390 
#    z 0.035460 0.003390 1.911730 
# 
# From -- ./inp_files/295424.got.cif
#   From: 2010.05.17/outbox.cif.g08.bks.cpg/sg2_148_cif.got.tgz:295424.got - 2010.06.03 11:33:40.
