data_PCOD9077318
_publ_section_title
;
Structure prediction by ZEFSAII (Michael W. Deem and Ramdas Pophale) SiO2 
 PCOD9077318
Probable space group: P -1
;
_chemical_formula_sum "Si O2"
_cell_formula_units_Z 16
_cell_length_a 9.981532
_cell_length_b 10.934054
_cell_length_c 8.574844
_cell_angle_alpha 59.184214
_cell_angle_beta 62.279690
_cell_angle_gamma 94.903408
_cell_volume 643.735466
_symmetry_space_group_name_H-M "P -1"
_symmetry_group_IT_number 2
_symmetry_cell_setting 'triclinic'
loop_
_space_group_symop_operation_xyz
x,y,z
-x,-y,-z
loop_
_atom_site_type_symbol
_atom_site_label
_atom_site_fract_x
_atom_site_fract_y
_atom_site_fract_z
Si Si1 0.576132 0.753222 0.856965
Si Si2 0.159173 0.004191 0.774020
Si Si3 0.380008 0.330424 0.473838
Si Si4 0.918428 0.803747 0.582842
Si Si5 0.205330 0.552582 0.170135
Si Si6 0.059264 0.328059 0.781287
Si Si7 0.259907 0.568634 0.758870
Si Si8 0.730572 0.102512 0.505127
O O1 0.592616 0.697845 0.706372
O O2 0.757104 0.768091 0.807121
O O3 0.393038 0.632537 0.087216
O O4 0.592517 0.930773 0.741886
O O5 0.251506 0.921277 0.673420
O O6 0.019576 0.859650 0.032661
O O7 0.300748 0.148326 0.695483
O O8 0.086638 0.086200 0.629793
O O9 0.237043 0.383299 0.564263
O O10 0.564369 0.439868 0.357254
O O11 0.094228 0.874980 0.526876
O O12 0.889905 0.634487 0.644978
O O13 0.231607 0.576867 0.952686
O O14 0.085036 0.630832 0.238532
O O15 0.110386 0.423115 0.854905
O O16 0.285142 0.736750 0.564693
#
# Coordination Sequence:
#
# PCOD9077318 Si02
#       8
#     2   2   2   2   2   2   2   2
#     4   9  21  36  58  84 114 142 184 230 275 328
#     4  10  21  36  57  82 115 142 185 226 278 328
#     4   9  22  37  55  81 115 150 179 227 280 328
#     4  10  19  37  55  87 112 147 177 232 281 326
#     4  11  21  34  60  87 112 137 191 232 275 322
#     4  12  21  36  57  88 108 150 185 227 275 329
#     4  11  21  35  57  88 113 138 188 238 271 319
#     4  10  18  34  58  85 110 144 181 231 280 317
#
# _framework density 24.854932000000002
#
# number of rings (size 3 to 8) (size 9 to 14) (size 15 to 20)
#    0.000    2.000    2.500    3.750    1.750    1.500 
#    0.000    2.500    0.000    0.750    0.000    0.875 
#    0.000    0.000    0.000    0.000    0.000    0.000 
#
# Total GULP energy -89359.944255 kJ/mol
# GULP energy per Si atom -5584.996516 kJ/mol
# Density = 2.479836 g / cm^3
# Si number density = 24.854932 Si / 1000 Ang^3
#
#
#
# Elastic Constant Matrix: (Units=GPa)
#
#
# Indices 1 2 3 4 5 6 
#
# 1 68.2826 21.3819 36.8829 0.6253 -24.4772 -13.7882
# 2 21.3819 78.5551 41.2064 -17.5843 -2.4944 -20.7984
# 3 36.8829 41.2064 128.2024 -16.0492 -22.7484 -13.6993
# 4 0.6253 -17.5843 -16.0492 38.7350 -9.5799 -8.0499
# 5 -24.4772 -2.4944 -22.7484 -9.5799 36.7819 -3.0434
# 6 -13.7882 -20.7984 -13.6993 -8.0499 -3.0434 42.5248
#
#
#
# Elastic Compliance Matrix: (Units=1/GPa)
#
#
# Indices 1 2 3 4 5 6 
#
# 1 0.023604 -0.002023 -0.002090 0.003352 0.015793 0.007755
# 2 -0.002023 0.019995 -0.003199 0.010276 0.001547 0.010149
# 3 -0.002090 -0.003199 0.011887 0.006067 0.007596 0.003279
# 4 0.003352 0.010276 0.006067 0.041173 0.018827 0.017209
# 5 0.015793 0.001547 0.007596 0.018827 0.048675 0.015372
# 6 0.007755 0.010149 0.003279 0.017209 0.015372 0.036408
#
#
# Mechanical properties :
#
#
# Convention : Reuss Voigt Hill
#
# Bulk Modulus (GPa) = 24.47288 52.66473 38.56881
# Shear Modulus (GPa) = 23.81083 35.31293 29.56188
#
# Velocity S-wave (km/s) = 3.09850 3.77339 3.45248
# Velocity P-wave (km/s) = 4.76116 6.34188 5.60750
#
# Compressibility (1/GPa) = 0.04086156
#
# Stress axis : x y z
#
# Youngs Moduli (GPa) = 42.36576 50.01199 84.12309
#
# Poissons Ratio (x) = 0.10120 0.17579
# Poissons Ratio (y) = 0.08573 0.26914
# Poissons Ratio (z) = 0.08853 0.16001
#
# Static dielectric constant tensor:
#      x y z
#    x 2.052860 -0.013260 0.032920 
#    y -0.013260 2.012210 0.034340 
#    z 0.032920 0.034340 2.002700 
# 
# From -- ./inp_files/419110.got.cif
#   From: 2010.05.17/outbox.cif.g08.bks.cpg/sg2_210_cif.got.tgz:419110.got - 2010.06.03 11:33:40.
