data_PCOD9077844
_publ_section_title
;
Structure prediction by ZEFSAII (Michael W. Deem and Ramdas Pophale) SiO2 
 PCOD9077844
Probable space group: P -1
;
_chemical_formula_sum "Si O2"
_cell_formula_units_Z 16
_cell_length_a 8.237406
_cell_length_b 16.896689
_cell_length_c 6.904833
_cell_angle_alpha 112.133771
_cell_angle_beta 79.595831
_cell_angle_gamma 51.555864
_cell_volume 572.003087
_symmetry_space_group_name_H-M "P -1"
_symmetry_group_IT_number 2
_symmetry_cell_setting 'triclinic'
loop_
_space_group_symop_operation_xyz
x,y,z
-x,-y,-z
loop_
_atom_site_type_symbol
_atom_site_label
_atom_site_fract_x
_atom_site_fract_y
_atom_site_fract_z
Si Si1 0.518185 0.290278 0.429608
Si Si2 0.121068 0.058980 0.378071
Si Si3 0.177298 0.440425 0.214402
Si Si4 0.083282 0.580011 0.974085
Si Si5 0.550313 0.432067 0.131612
Si Si6 0.787641 0.045697 0.323920
Si Si7 0.890361 0.280594 0.385417
Si Si8 0.443481 0.141220 0.144935
O O1 0.842151 0.641725 0.967700
O O2 0.309459 0.436586 0.690680
O O3 0.596143 0.201608 0.515598
O O4 0.758873 0.252790 0.274013
O O5 0.401397 0.962977 0.154619
O O6 0.037228 0.008704 0.219041
O O7 0.939450 0.209286 0.510338
O O8 0.144537 0.029929 0.568752
O O9 0.561980 0.752903 0.741049
O O10 0.000000 0.500000 0.500000
O O11 0.455527 0.372748 0.106490
O O12 0.167993 0.643043 0.964171
O O13 0.500000 0.500000 0.000000
O O14 0.065408 0.553422 0.176370
O O15 0.327375 0.563663 0.427056
O O16 0.633779 0.050057 0.205317
O O17 0.159972 0.219122 0.254730
#
# Coordination Sequence:
#
# PCOD9077844 Si02
#       8
#     2   2   2   2   2   2   2   2
#     4   8  18  35  53  76 108 148 179 214 268 324
#     4  10  18  35  54  79 112 144 181 225 263 318
#     4  10  20  34  59  85 103 140 186 231 282 332
#     4   9  18  37  56  77 114 144 178 229 277 329
#     4   9  19  37  59  79 112 150 181 228 287 328
#     4   8  19  33  53  78 107 146 181 217 263 319
#     4  10  19  32  57  81 105 145 189 219 266 334
#     4  10  19  33  56  75 112 147 175 225 273 309
#
# _framework density 27.971876999999999
#
# number of rings (size 3 to 8) (size 9 to 14) (size 15 to 20)
#    0.750    2.000    0.000    1.500    0.000    1.000 
#    4.500    0.000    0.000    6.000    0.000    0.000 
#    0.000    0.000    0.000    0.000    0.000    0.000 
#
# Total GULP energy -89145.570363 kJ/mol
# GULP energy per Si atom -5571.598148 kJ/mol
# Density = 2.790821 g / cm^3
# Si number density = 27.971877 Si / 1000 Ang^3
#
#
#
# Elastic Constant Matrix: (Units=GPa)
#
#
# Indices 1 2 3 4 5 6 
#
# 1 275.8392 29.6605 64.5405 -16.7403 -34.6032 -5.7969
# 2 29.6605 82.3431 21.4762 -14.3378 0.9247 -5.6709
# 3 64.5405 21.4762 85.1676 -12.5605 -17.8956 -1.9801
# 4 -16.7403 -14.3378 -12.5605 40.8874 4.9161 -1.1190
# 5 -34.6032 0.9247 -17.8956 4.9161 31.1131 1.8531
# 6 -5.7969 -5.6709 -1.9801 -1.1190 1.8531 42.4424
#
#
#
# Elastic Compliance Matrix: (Units=1/GPa)
#
#
# Indices 1 2 3 4 5 6 
#
# 1 0.004846 -0.001047 -0.002529 0.000379 0.003892 0.000244
# 2 -0.001047 0.014204 -0.002985 0.004178 -0.004077 0.001904
# 3 -0.002529 -0.002985 0.016010 0.002089 0.006167 -0.000211
# 4 0.000379 0.004178 0.002089 0.027107 -0.002877 0.001548
# 5 0.003892 -0.004077 0.006167 -0.002877 0.040686 -0.001578
# 6 0.000244 0.001904 -0.000211 0.001548 -0.001578 0.023949
#
#
# Mechanical properties :
#
#
# Convention : Reuss Voigt Hill
#
# Bulk Modulus (GPa) = 45.58179 74.96715 60.27447
# Shear Modulus (GPa) = 33.95917 44.73344 39.34630
#
# Velocity S-wave (km/s) = 3.48810 4.00337 3.75459
# Velocity P-wave (km/s) = 5.70556 6.94467 6.35538
#
# Compressibility (1/GPa) = 0.02193858
#
# Stress axis : x y z
#
# Youngs Moduli (GPa) = 206.35955 70.40192 62.46239
#
# Poissons Ratio (x) = 0.07370 0.15797
# Poissons Ratio (y) = 0.21603 0.18643
# Poissons Ratio (z) = 0.52189 0.21013
#
# Static dielectric constant tensor:
#      x y z
#    x 2.392550 -0.059170 0.057080 
#    y -0.059170 2.291040 -0.104730 
#    z 0.057080 -0.104730 2.222440 
# 
# From -- ./inp_files/210564.got.cif
#   From: 2010.05.17/outbox.cif.g08.bks.cpg/sg2_106_cif.got.tgz:210564.got - 2010.06.03 11:33:40.
