data_PCOD9077644
_publ_section_title
;
Structure prediction by ZEFSAII (Michael W. Deem and Ramdas Pophale) SiO2 
 PCOD9077644
Probable space group: P -1
;
_chemical_formula_sum "Si O2"
_cell_formula_units_Z 16
_cell_length_a 7.241347
_cell_length_b 11.181538
_cell_length_c 12.874681
_cell_angle_alpha 111.316186
_cell_angle_beta 135.032072
_cell_angle_gamma 66.164807
_cell_volume 669.007234
_symmetry_space_group_name_H-M "P -1"
_symmetry_group_IT_number 2
_symmetry_cell_setting 'triclinic'
loop_
_space_group_symop_operation_xyz
x,y,z
-x,-y,-z
loop_
_atom_site_type_symbol
_atom_site_label
_atom_site_fract_x
_atom_site_fract_y
_atom_site_fract_z
Si Si1 0.911458 0.818148 0.610226
Si Si2 0.124694 0.930785 0.418071
Si Si3 0.360462 0.647780 0.437396
Si Si4 0.495852 0.170135 0.156459
Si Si5 0.226751 0.326183 0.681592
Si Si6 0.570988 0.876249 0.126792
Si Si7 0.982871 0.591378 0.710357
Si Si8 0.149939 0.458173 0.151126
O O1 0.209864 0.819663 0.688017
O O2 0.762959 0.741517 0.446669
O O3 0.970240 0.737120 0.713210
O O4 0.786912 0.970073 0.595412
O O5 0.360285 0.803052 0.483403
O O6 0.117165 0.118106 0.748383
O O7 0.000000 0.000000 0.500000
O O8 0.079983 0.662732 0.395119
O O9 0.665737 0.583670 0.573900
O O10 0.302611 0.570005 0.286367
O O11 0.315993 0.309023 0.161400
O O12 0.432439 0.033630 0.133411
O O13 0.497840 0.161050 0.028423
O O14 0.202064 0.482157 0.702353
O O15 0.424245 0.232426 0.813283
O O16 0.061876 0.553122 0.846868
O O17 0.000000 0.500000 0.000000
#
# Coordination Sequence:
#
# PCOD9077644 Si02
#       8
#     2   2   2   2   2   2   2   2
#     4  11  21  34  56  85 114 151 181 238 284 325
#     4  10  18  34  62  83 109 141 195 233 270 332
#     4  10  20  36  58  85 110 150 193 231 272 336
#     4  10  20  36  60  83 110 149 196 225 276 335
#     4  10  18  36  56  79 112 150 193 229 273 332
#     4   9  19  34  60  87 102 141 203 238 253 328
#     4  11  23  34  53  86 122 142 185 238 284 331
#     4  11  22  38  61  82 113 153 190 229 280 336
#
# _framework density 23.916034
#
# number of rings (size 3 to 8) (size 9 to 14) (size 15 to 20)
#    0.000    1.750    2.500    5.625    1.750    0.500 
#    0.000    3.750    0.000   10.500    0.000    0.000 
#    0.000    0.000    0.000    0.000    0.000    0.000 
#
# Total GULP energy -89097.732031 kJ/mol
# GULP energy per Si atom -5568.608252 kJ/mol
# Density = 2.386160 g / cm^3
# Si number density = 23.916034 Si / 1000 Ang^3
#
#
#
# Elastic Constant Matrix: (Units=GPa)
#
#
# Indices 1 2 3 4 5 6 
#
# 1 28.8551 9.6232 6.1863 -0.3661 -4.7183 4.7668
# 2 9.6232 130.2057 27.6358 -15.4787 -7.5834 -6.0770
# 3 6.1863 27.6358 118.4962 -8.2037 -18.5067 2.0464
# 4 -0.3661 -15.4787 -8.2037 43.5172 2.2930 -8.5050
# 5 -4.7183 -7.5834 -18.5067 2.2930 19.7862 -8.5598
# 6 4.7668 -6.0770 2.0464 -8.5050 -8.5598 31.7824
#
#
#
# Elastic Compliance Matrix: (Units=1/GPa)
#
#
# Indices 1 2 3 4 5 6 
#
# 1 0.037425 -0.002841 -0.000514 -0.002100 0.005327 -0.005251
# 2 -0.002841 0.008935 -0.001323 0.003523 0.002795 0.003915
# 3 -0.000514 -0.001323 0.010372 0.001388 0.009855 0.002182
# 4 -0.002100 0.003523 0.001388 0.026012 0.002867 0.008632
# 5 0.005327 0.002795 0.009855 0.002867 0.069849 0.018680
# 6 -0.005251 0.003915 0.002182 0.008632 0.018680 0.040201
#
#
# Mechanical properties :
#
#
# Convention : Reuss Voigt Hill
#
# Bulk Modulus (GPa) = 21.10746 40.49418 30.80082
# Shear Modulus (GPa) = 22.94181 34.62460 28.78320
#
# Velocity S-wave (km/s) = 3.10056 3.80907 3.47293
# Velocity P-wave (km/s) = 4.65433 6.02610 5.38408
#
# Compressibility (1/GPa) = 0.04737661
#
# Stress axis : x y z
#
# Youngs Moduli (GPa) = 26.71979 111.91643 96.41432
#
# Poissons Ratio (x) = 0.31800 0.04955
# Poissons Ratio (y) = 0.07592 0.12752
# Poissons Ratio (z) = 0.01373 0.14803
#
# Static dielectric constant tensor:
#      x y z
#    x 2.001310 0.129860 -0.043470 
#    y 0.129860 2.217920 -0.029200 
#    z -0.043470 -0.029200 1.920560 
# 
# From -- ./inp_files/390828.got.cif
#   From: 2010.05.17/outbox.cif.g08.bks.cpg/sg2_196_cif.got.tgz:390828.got - 2010.06.03 11:33:40.
