data_PCOD9077294
_publ_section_title
;
Structure prediction by ZEFSAII (Michael W. Deem and Ramdas Pophale) SiO2 
 PCOD9077294
Probable space group: P -1
;
_chemical_formula_sum "Si O2"
_cell_formula_units_Z 16
_cell_length_a 6.817426
_cell_length_b 11.906600
_cell_length_c 22.351798
_cell_angle_alpha 154.939006
_cell_angle_beta 73.519909
_cell_angle_gamma 110.351866
_cell_volume 718.300990
_symmetry_space_group_name_H-M "P -1"
_symmetry_group_IT_number 2
_symmetry_cell_setting 'triclinic'
loop_
_space_group_symop_operation_xyz
x,y,z
-x,-y,-z
loop_
_atom_site_type_symbol
_atom_site_label
_atom_site_fract_x
_atom_site_fract_y
_atom_site_fract_z
Si Si1 0.389126 0.968021 0.879347
Si Si2 0.756002 0.494279 0.237709
Si Si3 0.571610 0.674190 0.635604
Si Si4 0.967318 0.126294 0.282570
Si Si5 0.247929 0.915688 0.476921
Si Si6 0.720788 0.634384 0.834902
Si Si7 0.803395 0.301338 0.492701
Si Si8 0.868759 0.099924 0.951326
O O1 0.267509 0.712345 0.804854
O O2 0.413491 0.857892 0.758022
O O3 0.633023 0.039205 0.914089
O O4 0.293115 0.218911 0.029615
O O5 0.518716 0.437661 0.203613
O O6 0.817251 0.807800 0.401534
O O7 0.888706 0.380980 0.120524
O O8 0.500000 0.500000 0.500000
O O9 0.805784 0.858715 0.697474
O O10 0.609156 0.454000 0.576893
O O11 0.003232 0.436996 0.405029
O O12 0.804505 0.105127 0.340833
O O13 0.975044 0.933572 0.132094
O O14 0.200830 0.642837 0.309735
O O15 0.179786 0.834703 0.511636
O O16 0.500000 0.000000 0.500000
O O17 0.847330 0.858129 0.885522
#
# Coordination Sequence:
#
# PCOD9077294 Si02
#       8
#     2   2   2   2   2   2   2   2
#     4   8  13  22  34  55  80  99 127 163 199 235
#     4   8  14  19  34  58  82 101 124 163 205 232
#     4   9  15  24  40  61  80 102 136 172 194 218
#     4   8  15  26  41  56  83 107 133 159 199 238
#     4  10  15  22  36  62  86 102 124 168 208 235
#     4   8  12  19  33  51  78 104 124 156 203 239
#     4   9  16  26  38  61  84 104 132 161 200 240
#     4   8  11  22  36  53  76 106 128 155 196 242
#
# _framework density 22.274782999999999
#
# number of rings (size 3 to 8) (size 9 to 14) (size 15 to 20)
#    0.750    2.750    1.250    3.000    0.000    0.000 
#    0.000    0.625    0.000    0.000    0.000   33.250 
#    0.000    0.000    0.000    0.000    0.000    0.000 
#
# Total GULP energy -89178.490676 kJ/mol
# GULP energy per Si atom -5573.655667 kJ/mol
# Density = 2.222409 g / cm^3
# Si number density = 22.274783 Si / 1000 Ang^3
#
#
#
# Elastic Constant Matrix: (Units=GPa)
#
#
# Indices 1 2 3 4 5 6 
#
# 1 70.2568 -1.5595 31.7487 -1.8145 -13.4155 7.3881
# 2 -1.5595 43.8878 45.7723 -18.9068 -3.8530 5.0854
# 3 31.7487 45.7723 223.7954 -30.4093 -15.6671 3.0157
# 4 -1.8145 -18.9068 -30.4093 42.9808 -0.0834 -4.3515
# 5 -13.4155 -3.8530 -15.6671 -0.0834 46.8506 -4.8739
# 6 7.3881 5.0854 3.0157 -4.3515 -4.8739 8.5261
#
#
#
# Elastic Compliance Matrix: (Units=1/GPa)
#
#
# Indices 1 2 3 4 5 6 
#
# 1 0.018288 0.006272 -0.003548 -0.000705 0.002786 -0.017100
# 2 0.006272 0.036487 -0.006754 0.009549 0.000512 -0.019643
# 3 -0.003548 -0.006754 0.006667 0.002275 0.001357 0.006682
# 4 -0.000705 0.009549 0.002275 0.030160 0.002538 0.010954
# 5 0.002786 0.000512 0.001357 0.002538 0.023864 0.011737
# 6 -0.017100 -0.019643 0.006682 0.010954 0.011737 0.153758
#
#
# Mechanical properties :
#
#
# Convention : Reuss Voigt Hill
#
# Bulk Modulus (GPa) = 18.73271 54.42922 36.58097
# Shear Modulus (GPa) = 16.94466 37.13674 27.04070
#
# Velocity S-wave (km/s) = 2.76109 4.08758 3.48797
# Velocity P-wave (km/s) = 4.31195 6.83858 5.71660
#
# Compressibility (1/GPa) = 0.05338256
#
# Stress axis : x y z
#
# Youngs Moduli (GPa) = 54.68116 27.40690 149.98655
#
# Poissons Ratio (x) = -0.17190 0.53208
# Poissons Ratio (y) = -0.34297 1.01308
# Poissons Ratio (z) = 0.19398 0.18512
#
# Static dielectric constant tensor:
#      x y z
#    x 2.020130 -0.192610 0.099130 
#    y -0.192610 2.327810 -0.345570 
#    z 0.099130 -0.345570 2.035730 
# 
# From -- ./inp_files/452922.got.cif
#   From: 2010.05.17/outbox.cif.g08.bks.cpg/sg2_227_cif.got.tgz:452922.got - 2010.06.03 11:33:40.
