data_PCOD9077249
_publ_section_title
;
Structure prediction by ZEFSAII (Michael W. Deem and Ramdas Pophale) SiO2 
 PCOD9077249
Probable space group: P -1
;
_chemical_formula_sum "Si O2"
_cell_formula_units_Z 14
_cell_length_a 10.639213
_cell_length_b 14.335281
_cell_length_c 18.879789
_cell_angle_alpha 23.782211
_cell_angle_beta 138.294051
_cell_angle_gamma 151.675185
_cell_volume 524.139098
_symmetry_space_group_name_H-M "P -1"
_symmetry_group_IT_number 2
_symmetry_cell_setting 'triclinic'
loop_
_space_group_symop_operation_xyz
x,y,z
-x,-y,-z
loop_
_atom_site_type_symbol
_atom_site_label
_atom_site_fract_x
_atom_site_fract_y
_atom_site_fract_z
Si Si1 0.457752 0.702986 0.297341
Si Si2 0.868756 0.333150 0.636061
Si Si3 0.076109 0.735086 0.797771
Si Si4 0.432688 0.464608 0.201731
Si Si5 0.308336 0.521263 0.969052
Si Si6 0.039438 0.720574 0.141078
Si Si7 0.480642 0.371127 0.431015
O O1 0.500000 0.500000 0.500000
O O2 0.176499 0.599529 0.257515
O O3 0.501021 0.654402 0.268966
O O4 0.694403 0.069553 0.178585
O O5 0.051466 0.405706 0.728185
O O6 0.734961 0.460323 0.510963
O O7 0.000000 0.500000 0.500000
O O8 0.599261 0.921485 0.805132
O O9 0.089172 0.499345 0.929683
O O10 0.816934 0.627536 0.798275
O O11 0.207238 0.018715 0.595972
O O12 0.488792 0.326254 0.382045
O O13 0.346163 0.355545 0.159249
O O14 0.707113 0.870017 0.034395
O O15 0.183395 0.375225 0.940349
#
# Coordination Sequence:
#
# PCOD9077249 Si02
#       7
#     2   2   2   2   2   2   2
#     4  10  18  34  57  86 124 150 192 237 284 348
#     4  10  22  45  66  83 109 150 206 252 292 342
#     4  10  19  35  54  86 128 162 189 231 286 349
#     4  11  22  35  56  90 127 159 189 231 293 360
#     4  10  22  38  58  86 121 158 194 231 295 355
#     4  11  22  39  60  89 123 155 190 239 296 352
#     4  10  21  37  58  91 118 157 194 248 285 341
#
# _framework density 26.710467000000001
#
# number of rings (size 3 to 8) (size 9 to 14) (size 15 to 20)
#    0.000    1.714    5.714    1.714    2.000    5.143 
#    0.000    2.857    0.000    1.714    0.000    0.000 
#    0.000    0.000    0.000    0.000    0.000    0.000 
#
# Total GULP energy -78256.405308 kJ/mol
# GULP energy per Si atom -5589.743236 kJ/mol
# Density = 2.664967 g / cm^3
# Si number density = 26.710467 Si / 1000 Ang^3
#
#
#
# Elastic Constant Matrix: (Units=GPa)
#
#
# Indices 1 2 3 4 5 6 
#
# 1 114.0382 17.6327 27.5956 13.0279 -19.2214 -9.4196
# 2 17.6327 158.0964 40.1257 51.7967 -26.3507 -33.2050
# 3 27.5956 40.1257 101.3963 36.0104 -42.8681 -10.3187
# 4 13.0279 51.7967 36.0104 46.8678 -11.9187 -7.8765
# 5 -19.2214 -26.3507 -42.8681 -11.9187 53.2442 17.2922
# 6 -9.4196 -33.2050 -10.3187 -7.8765 17.2922 20.8709
#
#
#
# Elastic Compliance Matrix: (Units=1/GPa)
#
#
# Indices 1 2 3 4 5 6 
#
# 1 0.009665 0.000584 -0.001559 -0.001313 0.001262 0.002979
# 2 0.000584 0.014485 -0.000015 -0.013333 -0.002121 0.020027
# 3 -0.001559 -0.000015 0.020794 -0.012887 0.016094 -0.008644
# 4 -0.001313 -0.013333 -0.012887 0.043771 -0.005286 -0.007277
# 5 0.001262 -0.002121 0.016094 -0.005286 0.039589 -0.029644
# 6 0.002979 0.020027 -0.008644 -0.007277 -0.029644 0.098661
#
#
# Mechanical properties :
#
#
# Convention : Reuss Voigt Hill
#
# Bulk Modulus (GPa) = 23.27519 60.47098 41.87309
# Shear Modulus (GPa) = 20.55381 43.40838 31.98110
#
# Velocity S-wave (km/s) = 2.77700 4.03568 3.46399
# Velocity P-wave (km/s) = 4.36063 6.66365 5.63113
#
# Compressibility (1/GPa) = 0.04296420
#
# Stress axis : x y z
#
# Youngs Moduli (GPa) = 103.47070 69.03808 48.09181
#
# Poissons Ratio (x) = -0.04030 0.07495
# Poissons Ratio (y) = -0.06040 0.00070
# Poissons Ratio (z) = 0.16126 0.00100
#
# Static dielectric constant tensor:
#      x y z
#    x 2.142840 -0.017600 -0.006960 
#    y -0.017600 2.151480 0.051140 
#    z -0.006960 0.051140 2.154000 
# 
# From -- ./inp_files/197109.got.cif
#   From: 2010.05.17/outbox.cif.g08.bks.cpg/sg2_99_cif.got.tgz:197109.got - 2010.06.03 11:33:40.
