data_PCOD9077823
_publ_section_title
;
Structure prediction by ZEFSAII (Michael W. Deem and Ramdas Pophale) SiO2 
 PCOD9077823
Probable space group: P -1
;
_chemical_formula_sum "Si O2"
_cell_formula_units_Z 16
_cell_length_a 23.399867
_cell_length_b 22.379941
_cell_length_c 15.087426
_cell_angle_alpha 150.067219
_cell_angle_beta 160.729754
_cell_angle_gamma 18.970892
_cell_volume 822.241171
_symmetry_space_group_name_H-M "P -1"
_symmetry_group_IT_number 2
_symmetry_cell_setting 'triclinic'
loop_
_space_group_symop_operation_xyz
x,y,z
-x,-y,-z
loop_
_atom_site_type_symbol
_atom_site_label
_atom_site_fract_x
_atom_site_fract_y
_atom_site_fract_z
Si Si1 0.438328 0.612931 0.694345
Si Si2 0.321069 0.304804 0.479971
Si Si3 0.910548 0.064437 0.095438
Si Si4 0.897202 0.342647 0.878276
Si Si5 0.205605 0.947747 0.888507
Si Si6 0.182995 0.635377 0.720768
Si Si7 0.780952 0.712453 0.489743
Si Si8 0.167410 0.691843 0.973668
O O1 0.686145 0.513251 0.860701
O O2 0.270682 0.600343 0.382126
O O3 0.245555 0.825200 0.714781
O O4 0.578160 0.492048 0.834347
O O5 0.646689 0.160841 0.774133
O O6 0.161266 0.514195 0.494719
O O7 0.273247 0.294414 0.498501
O O8 0.163811 0.281214 0.170935
O O9 0.850724 0.080236 0.133121
O O10 0.971862 0.169067 0.296642
O O11 0.150207 0.843183 0.139697
O O12 0.989072 0.165573 0.826360
O O13 0.502012 0.851421 0.206533
O O14 0.142221 0.653050 0.788996
O O15 0.500000 0.500000 0.000000
O O16 0.000000 0.500000 0.500000
O O17 0.902598 0.780088 0.749539
#
# Coordination Sequence:
#
# PCOD9077823 Si02
#       8
#     2   2   2   2   2   2   2   2
#     4  11  22  34  55  81 115 150 181 223 272 326
#     4  10  18  35  52  78 116 136 181 225 272 333
#     4  10  21  34  56  84 108 145 181 226 276 326
#     4  11  22  36  53  85 111 149 188 218 273 327
#     4  11  20  37  57  82 118 141 181 228 275 334
#     4  10  21  34  55  80 107 148 178 224 280 323
#     4  11  17  29  55  86 105 143 170 221 297 321
#     4  12  19  35  55  82 115 138 183 229 272 335
#
# _framework density 19.459012000000001
#
# number of rings (size 3 to 8) (size 9 to 14) (size 15 to 20)
#    0.000    1.250    5.000    3.000    0.000    2.000 
#    0.000    0.000    0.000    7.500    0.000    0.000 
#    0.000    0.000    0.000    0.000    0.000    0.000 
#
# Total GULP energy -89280.986543 kJ/mol
# GULP energy per Si atom -5580.061659 kJ/mol
# Density = 1.941472 g / cm^3
# Si number density = 19.459012 Si / 1000 Ang^3
#
#
#
# Elastic Constant Matrix: (Units=GPa)
#
#
# Indices 1 2 3 4 5 6 
#
# 1 39.8220 13.7426 6.8488 5.1284 -2.0891 6.9800
# 2 13.7426 75.8983 7.5376 17.8277 -2.8724 13.1779
# 3 6.8488 7.5376 53.1661 7.0101 -5.7611 9.9466
# 4 5.1284 17.8277 7.0101 24.7132 0.4265 4.1778
# 5 -2.0891 -2.8724 -5.7611 0.4265 17.4638 6.4770
# 6 6.9800 13.1779 9.9466 4.1778 6.4770 32.9802
#
#
#
# Elastic Compliance Matrix: (Units=1/GPa)
#
#
# Indices 1 2 3 4 5 6 
#
# 1 0.027851 -0.003437 -0.001524 -0.002163 0.004013 -0.004576
# 2 -0.003437 0.017664 0.001227 -0.011401 0.005530 -0.006343
# 3 -0.001524 0.001227 0.022265 -0.005674 0.010558 -0.008237
# 4 -0.002163 -0.011401 -0.005674 0.050602 -0.005779 0.001450
# 5 0.004013 0.005530 0.010558 -0.005779 0.069372 -0.019135
# 6 -0.004576 -0.006343 -0.008237 0.001450 -0.019135 0.039883
#
#
# Mechanical properties :
#
#
# Convention : Reuss Voigt Hill
#
# Bulk Modulus (GPa) = 16.58028 25.01606 20.79817
# Shear Modulus (GPa) = 19.59179 24.41525 22.00352
#
# Velocity S-wave (km/s) = 3.17649 3.54602 3.36633
# Velocity P-wave (km/s) = 4.68962 5.44512 5.08143
#
# Compressibility (1/GPa) = 0.06031261
#
# Stress axis : x y z
#
# Youngs Moduli (GPa) = 35.90512 56.61080 44.91417
#
# Poissons Ratio (x) = 0.19457 0.06846
# Poissons Ratio (y) = 0.12341 -0.05513
# Poissons Ratio (z) = 0.05473 -0.06949
#
# Static dielectric constant tensor:
#      x y z
#    x 1.434310 -0.081480 0.035870 
#    y -0.081480 1.742780 0.036010 
#    z 0.035870 0.036010 1.703380 
# 
# From -- ./inp_files/250003.got.cif
#   From: 2010.05.17/outbox.cif.g08.bks.cpg/sg2_126_cif.got.tgz:250003.got - 2010.06.03 11:33:40.
