data_PCOD9077664
_publ_section_title
;
Structure prediction by ZEFSAII (Michael W. Deem and Ramdas Pophale) SiO2 
 PCOD9077664
Probable space group: P -1
;
_chemical_formula_sum "Si O2"
_cell_formula_units_Z 16
_cell_length_a 8.039515
_cell_length_b 10.493580
_cell_length_c 18.310566
_cell_angle_alpha 40.577346
_cell_angle_beta 49.065373
_cell_angle_gamma 74.970267
_cell_volume 663.847287
_symmetry_space_group_name_H-M "P -1"
_symmetry_group_IT_number 2
_symmetry_cell_setting 'triclinic'
loop_
_space_group_symop_operation_xyz
x,y,z
-x,-y,-z
loop_
_atom_site_type_symbol
_atom_site_label
_atom_site_fract_x
_atom_site_fract_y
_atom_site_fract_z
Si Si1 0.269886 0.909441 0.694042
Si Si2 0.199606 0.728870 0.635870
Si Si3 0.214971 0.286077 0.813919
Si Si4 0.088682 0.771280 0.200068
Si Si5 0.176881 0.226089 0.023794
Si Si6 0.704914 0.367378 0.583623
Si Si7 0.109408 0.249235 0.520095
Si Si8 0.698641 0.537615 0.774325
O O1 0.216316 0.750211 0.709179
O O2 0.569228 0.044922 0.561724
O O3 0.179792 0.083343 0.613348
O O4 0.089354 0.801900 0.861292
O O5 0.270575 0.540491 0.674485
O O6 0.917449 0.651274 0.722442
O O7 0.956897 0.157507 0.898542
O O8 0.221829 0.278507 0.902186
O O9 0.407437 0.243718 0.727986
O O10 0.843879 0.561838 0.398630
O O11 0.270969 0.668560 0.178792
O O12 0.168918 0.984308 0.135615
O O13 0.400458 0.417860 0.924183
O O14 0.822390 0.201855 0.617721
O O15 0.771887 0.512391 0.575956
O O16 0.220878 0.286135 0.391215
#
# Coordination Sequence:
#
# PCOD9077664 Si02
#       8
#     2   2   2   2   2   2   2   2
#     4  11  23  41  65  85 117 154 207 244 283 350
#     4  10  23  44  62  84 114 162 203 242 284 351
#     4  11  21  38  59  87 125 157 196 239 301 349
#     4  10  21  35  58  89 120 157 197 240 288 356
#     4  12  22  36  59  89 122 154 193 247 299 345
#     4  10  18  34  62  87 120 154 196 236 296 351
#     4  10  19  36  59  89 115 157 192 241 290 353
#     4  10  22  38  61  87 122 154 192 243 304 350
#
# _framework density 24.101927
#
# number of rings (size 3 to 8) (size 9 to 14) (size 15 to 20)
#    0.000    1.500    3.750    1.125    0.000    4.500 
#    0.000    2.500    0.000    0.000    0.000    0.000 
#    0.000    0.000    0.000    0.000    0.000    0.000 
#
# Total GULP energy -89308.477283 kJ/mol
# GULP energy per Si atom -5581.779830 kJ/mol
# Density = 2.404707 g / cm^3
# Si number density = 24.101927 Si / 1000 Ang^3
#
#
#
# Elastic Constant Matrix: (Units=GPa)
#
#
# Indices 1 2 3 4 5 6 
#
# 1 80.2637 8.7903 35.4520 -1.7448 -4.3990 3.2497
# 2 8.7903 62.6105 23.4827 -1.6889 -23.5774 1.0232
# 3 35.4520 23.4827 82.5088 19.4742 -19.8655 8.5641
# 4 -1.7448 -1.6889 19.4742 27.9511 1.8856 -4.0251
# 5 -4.3990 -23.5774 -19.8655 1.8856 25.9915 -1.3780
# 6 3.2497 1.0232 8.5641 -4.0251 -1.3780 32.6314
#
#
#
# Elastic Compliance Matrix: (Units=1/GPa)
#
#
# Indices 1 2 3 4 5 6 
#
# 1 0.017364 -0.000482 -0.011565 0.009904 -0.006937 0.002250
# 2 -0.000482 0.024651 -0.002501 0.001983 0.020279 0.001032
# 3 -0.011565 -0.002501 0.028783 -0.023421 0.019026 -0.008409
# 4 0.009904 0.001983 -0.023421 0.055653 -0.017869 0.011209
# 5 -0.006937 0.020279 0.019026 -0.017869 0.071314 -0.004131
# 6 0.002250 0.001032 -0.008409 0.011209 -0.004131 0.033804
#
#
# Mechanical properties :
#
#
# Convention : Reuss Voigt Hill
#
# Bulk Modulus (GPa) = 23.98074 40.09255 32.03664
# Shear Modulus (GPa) = 18.21059 27.82531 23.01795
#
# Velocity S-wave (km/s) = 2.75174 3.40146 3.09370
# Velocity P-wave (km/s) = 4.47966 5.66544 5.10709
#
# Compressibility (1/GPa) = 0.04170014
#
# Stress axis : x y z
#
# Youngs Moduli (GPa) = 57.59033 40.56701 34.74303
#
# Poissons Ratio (x) = 0.01956 0.40181
# Poissons Ratio (y) = 0.02777 0.08690
# Poissons Ratio (z) = 0.66604 0.10147
#
# Static dielectric constant tensor:
#      x y z
#    x 2.016620 -0.038560 -0.048060 
#    y -0.038560 1.915750 -0.054260 
#    z -0.048060 -0.054260 2.069820 
# 
# From -- ./inp_files/589467.got.cif
#   From: 2010.05.17/outbox.cif.g08.bks.cpg/sg2_295_cif.got.tgz:589467.got - 2010.06.03 11:33:40.
