data_PCOD9077762
_publ_section_title
;
Structure prediction by ZEFSAII (Michael W. Deem and Ramdas Pophale) SiO2 
 PCOD9077762
Probable space group: P -1
;
_chemical_formula_sum "Si O2"
_cell_formula_units_Z 14
_cell_length_a 14.562097
_cell_length_b 7.687255
_cell_length_c 7.709856
_cell_angle_alpha 74.367225
_cell_angle_beta 43.693935
_cell_angle_gamma 92.860568
_cell_volume 533.885832
_symmetry_space_group_name_H-M "P -1"
_symmetry_group_IT_number 2
_symmetry_cell_setting 'triclinic'
loop_
_space_group_symop_operation_xyz
x,y,z
-x,-y,-z
loop_
_atom_site_type_symbol
_atom_site_label
_atom_site_fract_x
_atom_site_fract_y
_atom_site_fract_z
Si Si1 0.033346 0.834684 0.886530
Si Si2 0.500016 0.738527 0.601492
Si Si3 0.499992 0.336371 0.787546
Si Si4 0.966666 0.301347 0.486549
Si Si5 0.192653 0.189877 0.355929
Si Si6 0.756039 0.127974 0.115951
Si Si7 0.192643 0.502743 0.566142
O O1 0.143594 0.784804 0.878373
O O2 0.101081 0.969868 0.593465
O O3 0.888254 0.645375 0.130297
O O4 0.000000 0.000000 0.000000
O O5 0.499952 0.552441 0.751931
O O6 0.500005 0.703503 0.405427
O O7 0.354078 0.773432 0.823763
O O8 0.646027 0.919223 0.385900
O O9 0.648874 0.347234 0.656985
O O10 0.351139 0.198312 0.103616
O O11 0.898920 0.368798 0.396708
O O12 0.000000 0.500000 0.500000
O O13 0.111769 0.257128 0.295029
O O14 0.856427 0.141222 0.809120
O O15 0.198402 0.349184 0.452408
#
# Coordination Sequence:
#
# PCOD9077762 Si02
#       7
#     2   2   2   2   2   2   2
#     4  10  18  34  64  92 121 155 213 258 303 364
#     4  10  24  39  63  90 125 172 203 263 304 381
#     4  11  23  41  61  91 135 161 210 248 326 364
#     4  10  18  34  64  92 121 155 213 258 303 364
#     4  10  20  35  64  92 124 163 207 256 308 374
#     4  11  20  40  66  91 120 164 220 253 308 366
#     4  10  20  35  64  92 124 163 207 256 308 374
#
# _framework density 26.222833999999999
#
# number of rings (size 3 to 8) (size 9 to 14) (size 15 to 20)
#    0.000    1.714    4.286    3.857    0.000    2.286 
#    0.000    4.286    6.286    0.000    0.000    0.000 
#    0.000    0.000    0.000    0.000    0.000    0.000 
#
# Total GULP energy -78391.226936 kJ/mol
# GULP energy per Si atom -5599.373353 kJ/mol
# Density = 2.616315 g / cm^3
# Si number density = 26.222834 Si / 1000 Ang^3
#
#
#
# Elastic Constant Matrix: (Units=GPa)
#
#
# Indices 1 2 3 4 5 6 
#
# 1 114.3149 3.9254 60.8750 -7.7452 -14.1489 -12.8506
# 2 3.9254 72.7516 15.7347 -9.3701 -12.5541 -12.1345
# 3 60.8750 15.7347 137.4624 1.2511 -20.5124 -18.9479
# 4 -7.7452 -9.3701 1.2511 26.6130 -0.7545 2.2533
# 5 -14.1489 -12.5541 -20.5124 -0.7545 44.5879 0.4712
# 6 -12.8506 -12.1345 -18.9479 2.2533 0.4712 26.7973
#
#
#
# Elastic Compliance Matrix: (Units=1/GPa)
#
#
# Indices 1 2 3 4 5 6 
#
# 1 0.012177 0.001786 -0.004935 0.004231 0.002139 0.002765
# 2 0.001786 0.016652 -0.001063 0.005971 0.004793 0.007059
# 3 -0.004935 -0.001063 0.010726 -0.002646 0.002972 0.004906
# 4 0.004231 0.005971 -0.002646 0.041159 0.002510 -0.000643
# 5 0.002139 0.004793 0.002972 0.002510 0.025817 0.004633
# 6 0.002765 0.007059 0.004906 -0.000643 0.004633 0.045281
#
#
# Mechanical properties :
#
#
# Convention : Reuss Voigt Hill
#
# Bulk Modulus (GPa) = 32.12360 53.95546 43.03953
# Shear Modulus (GPa) = 29.30598 35.86589 32.58594
#
# Velocity S-wave (km/s) = 3.34664 3.70230 3.52896
# Velocity P-wave (km/s) = 5.21634 6.23670 5.74920
#
# Compressibility (1/GPa) = 0.03112976
#
# Stress axis : x y z
#
# Youngs Moduli (GPa) = 82.12448 60.05141 93.23345
#
# Poissons Ratio (x) = -0.10722 0.46011
# Poissons Ratio (y) = -0.14663 0.09911
# Poissons Ratio (z) = 0.40529 0.06384
#
# Static dielectric constant tensor:
#      x y z
#    x 2.180410 0.137900 0.087190 
#    y 0.137900 2.112080 0.096800 
#    z 0.087190 0.096800 2.100010 
# 
# From -- ./inp_files/235627.got.cif
#   From: 2010.05.17/outbox.cif.g08.bks.cpg/sg2_118_cif.got.tgz:235627.got - 2010.06.03 11:33:40.
