data_PCOD9077362
_publ_section_title
;
Structure prediction by ZEFSAII (Michael W. Deem and Ramdas Pophale) SiO2 
 PCOD9077362
Probable space group: P -1
;
_chemical_formula_sum "Si O2"
_cell_formula_units_Z 16
_cell_length_a 14.344733
_cell_length_b 9.439724
_cell_length_c 8.137208
_cell_angle_alpha 104.095895
_cell_angle_beta 144.170041
_cell_angle_gamma 82.624677
_cell_volume 620.939237
_symmetry_space_group_name_H-M "P -1"
_symmetry_group_IT_number 2
_symmetry_cell_setting 'triclinic'
loop_
_space_group_symop_operation_xyz
x,y,z
-x,-y,-z
loop_
_atom_site_type_symbol
_atom_site_label
_atom_site_fract_x
_atom_site_fract_y
_atom_site_fract_z
Si Si1 0.243916 0.172650 0.312728
Si Si2 0.281806 0.631914 0.670925
Si Si3 0.897238 0.150484 0.705638
Si Si4 0.165156 0.332052 0.585191
Si Si5 0.815556 0.933138 0.264933
Si Si6 0.579768 0.123024 0.826320
Si Si7 0.185273 0.705024 0.036666
Si Si8 0.343911 0.478239 0.380625
O O1 0.207941 0.247434 0.456105
O O2 0.299503 0.310612 0.315243
O O3 0.075124 0.107334 0.975587
O O4 0.392915 0.081210 0.516105
O O5 0.128886 0.709357 0.407981
O O6 0.236242 0.500083 0.698191
O O7 0.399182 0.762004 0.958338
O O8 0.357830 0.565702 0.599481
O O9 0.841496 0.194380 0.816470
O O10 0.795224 0.016060 0.432569
O O11 0.211266 0.239232 0.781352
O O12 0.972291 0.314409 0.305175
O O13 0.685032 0.992119 0.977737
O O14 0.000000 0.000000 0.500000
O O15 0.665155 0.221130 0.830498
O O16 0.210321 0.549156 0.106468
O O17 0.500000 0.500000 0.500000
#
# Coordination Sequence:
#
# PCOD9077362 Si02
#       8
#     2   2   2   2   2   2   2   2
#     4  10  21  38  62  96 125 162 204 263 309 372
#     4   9  21  39  65  97 122 169 204 259 313 375
#     4   9  21  42  69  89 124 165 213 249 322 372
#     4  10  21  39  65  87 127 162 217 250 310 363
#     4  11  23  44  65  91 122 171 213 261 301 379
#     4  11  22  40  65  94 133 158 212 257 318 364
#     4  10  19  36  62  92 122 167 203 258 302 382
#     4  10  18  34  58  92 132 159 199 254 315 371
#
# _framework density 25.767416000000001
#
# number of rings (size 3 to 8) (size 9 to 14) (size 15 to 20)
#    0.000    2.000    2.500    0.750    0.000    8.000 
#    2.250    0.625    0.000    1.500    0.000    0.000 
#    0.000    0.000    0.000    0.000    0.000    0.000 
#
# Total GULP energy -89665.100561 kJ/mol
# GULP energy per Si atom -5604.068785 kJ/mol
# Density = 2.570877 g / cm^3
# Si number density = 25.767416 Si / 1000 Ang^3
#
#
#
# Elastic Constant Matrix: (Units=GPa)
#
#
# Indices 1 2 3 4 5 6 
#
# 1 85.6181 43.1084 24.3088 -13.1682 3.7760 0.3249
# 2 43.1084 171.2571 49.8450 -27.7278 4.9996 24.4466
# 3 24.3088 49.8450 106.2677 -20.8686 0.5059 -9.7669
# 4 -13.1682 -27.7278 -20.8686 38.7021 -10.5938 -0.0161
# 5 3.7760 4.9996 0.5059 -10.5938 35.3268 -2.6343
# 6 0.3249 24.4466 -9.7669 -0.0161 -2.6343 43.8057
#
#
#
# Elastic Compliance Matrix: (Units=1/GPa)
#
#
# Indices 1 2 3 4 5 6 
#
# 1 0.013836 -0.002986 -0.001304 0.001751 -0.000419 0.001248
# 2 -0.002986 0.008966 -0.003358 0.003519 -0.000275 -0.005746
# 3 -0.001304 -0.003358 0.012609 0.004541 0.002156 0.004826
# 4 0.001751 0.003519 0.004541 0.033980 0.009411 -0.000386
# 5 -0.000419 -0.000275 0.002156 0.009411 0.031371 0.002527
# 6 0.001248 -0.005746 0.004826 -0.000386 0.002527 0.027253
#
#
# Mechanical properties :
#
#
# Convention : Reuss Voigt Hill
#
# Bulk Modulus (GPa) = 49.71298 66.40746 58.06022
# Shear Modulus (GPa) = 33.32967 39.95897 36.64432
#
# Velocity S-wave (km/s) = 3.60040 3.94224 3.77519
# Velocity P-wave (km/s) = 6.05134 6.82272 6.44857
#
# Compressibility (1/GPa) = 0.02011547
#
# Stress axis : x y z
#
# Youngs Moduli (GPa) = 72.27302 111.53009 79.30976
#
# Poissons Ratio (x) = 0.33300 0.10342
# Poissons Ratio (y) = 0.21579 0.26634
# Poissons Ratio (z) = 0.09424 0.37454
#
# Static dielectric constant tensor:
#      x y z
#    x 2.026540 -0.028630 -0.027150 
#    y -0.028630 2.027810 -0.025870 
#    z -0.027150 -0.025870 1.972510 
# 
# From -- ./inp_files/299333.got.cif
#   From: 2010.05.17/outbox.cif.g08.bks.cpg/sg2_150_cif.got.tgz:299333.got - 2010.06.03 11:33:40.
