data_PCOD9077525
_publ_section_title
;
Structure prediction by ZEFSAII (Michael W. Deem and Ramdas Pophale) SiO2 
 PCOD9077525
Probable space group: P -1
;
_chemical_formula_sum "Si O2"
_cell_formula_units_Z 13
_cell_length_a 8.068422
_cell_length_b 6.299549
_cell_length_c 17.348688
_cell_angle_alpha 103.564813
_cell_angle_beta 135.207725
_cell_angle_gamma 95.386042
_cell_volume 558.601122
_symmetry_space_group_name_H-M "P -1"
_symmetry_group_IT_number 2
_symmetry_cell_setting 'triclinic'
loop_
_space_group_symop_operation_xyz
x,y,z
-x,-y,-z
loop_
_atom_site_type_symbol
_atom_site_label
_atom_site_fract_x
_atom_site_fract_y
_atom_site_fract_z
Si Si1 0.756692 0.559895 0.408278
Si Si2 0.097472 0.491061 0.822865
Si Si3 0.462618 0.820580 0.403044
Si Si4 0.500000 0.000000 0.000000
Si Si5 0.379830 0.301486 0.780120
Si Si6 0.165419 0.277910 0.985856
Si Si7 0.403625 0.031293 0.233895
O O1 0.684999 0.720835 0.459487
O O2 0.785580 0.690782 0.347268
O O3 0.000000 0.500000 0.500000
O O4 0.520502 0.310604 0.301807
O O5 0.244590 0.348522 0.814274
O O6 0.118842 0.431860 0.913862
O O7 0.807158 0.392877 0.693017
O O8 0.240776 0.765392 0.880527
O O9 0.436713 0.935133 0.321674
O O10 0.500000 0.000000 0.500000
O O11 0.666522 0.861858 0.001376
O O12 0.432501 0.063206 0.777841
O O13 0.654693 0.518063 0.880909
O O14 0.887073 0.092072 0.899522
#
# Coordination Sequence:
#
# PCOD9077525 Si02
#       7
#     2   2   2   1   2   2   2
#     4  11  26  42  60  94 126 166 214 253 312 372
#     4  10  22  39  64  96 122 162 211 254 318 367
#     4  10  24  44  66  89 123 170 214 260 304 373
#     4  10  18  34  60  88 132 146 196 260 300 368
#     4  10  22  38  64  92 126 164 200 261 314 375
#     4  10  21  40  62  94 123 161 207 255 314 374
#     4  10  23  42  64  88 127 164 207 260 313 370
#
# _framework density 23.272417999999998
#
# number of rings (size 3 to 8) (size 9 to 14) (size 15 to 20)
#    0.000    1.846    0.000    3.231    4.308    7.385 
#    5.538    0.000    0.000    0.000    0.000    0.000 
#    0.000    0.000    0.000    0.000    0.000    0.000 
#
# Total GULP energy -72512.933687 kJ/mol
# GULP energy per Si atom -5577.917976 kJ/mol
# Density = 2.321945 g / cm^3
# Si number density = 23.272418 Si / 1000 Ang^3
#
#
#
# Elastic Constant Matrix: (Units=GPa)
#
#
# Indices 1 2 3 4 5 6 
#
# 1 71.4941 32.4359 37.4800 0.6497 2.9617 -20.2429
# 2 32.4359 59.6698 31.0262 6.8155 -6.1128 -27.2364
# 3 37.4800 31.0262 101.1497 -6.1118 5.9773 -10.9486
# 4 0.6497 6.8155 -6.1118 35.7636 -11.4965 0.3557
# 5 2.9617 -6.1128 5.9773 -11.4965 31.2521 11.8182
# 6 -20.2429 -27.2364 -10.9486 0.3557 11.8182 36.1951
#
#
#
# Elastic Compliance Matrix: (Units=1/GPa)
#
#
# Indices 1 2 3 4 5 6 
#
# 1 0.022028 -0.005762 -0.005248 -0.002294 -0.006254 0.008461
# 2 -0.005762 0.033364 -0.006168 -0.008413 -0.002789 0.021011
# 3 -0.005248 -0.006168 0.013630 0.003352 -0.000873 -0.003202
# 4 -0.002294 -0.008413 0.003352 0.035260 0.015434 -0.011986
# 5 -0.006254 -0.002789 -0.000873 0.015434 0.045821 -0.020973
# 6 0.008461 0.021011 -0.003202 -0.011986 -0.020973 0.054168
#
#
# Mechanical properties :
#
#
# Convention : Reuss Voigt Hill
#
# Bulk Modulus (GPa) = 28.84682 48.24422 38.54552
# Shear Modulus (GPa) = 19.98538 29.40024 24.69281
#
# Velocity S-wave (km/s) = 2.93364 3.55816 3.26088
# Velocity P-wave (km/s) = 4.88847 6.13644 5.54766
#
# Compressibility (1/GPa) = 0.03466587
#
# Stress axis : x y z
#
# Youngs Moduli (GPa) = 45.39638 29.97233 73.36517
#
# Poissons Ratio (x) = 0.17271 0.38502
# Poissons Ratio (y) = 0.26159 0.45252
# Poissons Ratio (z) = 0.23824 0.18487
#
# Static dielectric constant tensor:
#      x y z
#    x 1.881280 0.032320 0.004140 
#    y 0.032320 1.890990 -0.035610 
#    z 0.004140 -0.035610 1.865950 
# 
# From -- ./inp_files/18531.got.cif
#   From: 2010.05.17/outbox.cif.g08.bks.cpg/sg2_10_cif.got.tgz:18531.got - 2010.06.03 11:33:40.
