data_PCOD9077256
_publ_section_title
;
Structure prediction by ZEFSAII (Michael W. Deem and Ramdas Pophale) SiO2 
 PCOD9077256
Probable space group: P -1
;
_chemical_formula_sum "Si O2"
_cell_formula_units_Z 16
_cell_length_a 14.415869
_cell_length_b 13.836333
_cell_length_c 6.546086
_cell_angle_alpha 120.259971
_cell_angle_beta 117.510808
_cell_angle_gamma 42.108895
_cell_volume 747.440482
_symmetry_space_group_name_H-M "P -1"
_symmetry_group_IT_number 2
_symmetry_cell_setting 'triclinic'
loop_
_space_group_symop_operation_xyz
x,y,z
-x,-y,-z
loop_
_atom_site_type_symbol
_atom_site_label
_atom_site_fract_x
_atom_site_fract_y
_atom_site_fract_z
Si Si1 0.400580 0.605754 0.325036
Si Si2 0.514903 0.326994 0.899211
Si Si3 0.701360 0.695544 0.349682
Si Si4 0.895358 0.144544 0.825121
Si Si5 0.193075 0.934421 0.978754
Si Si6 0.930135 0.354212 0.318088
Si Si7 0.797436 0.817409 0.832787
Si Si8 0.099728 0.337009 0.819727
O O1 0.500000 0.500000 0.500000
O O2 0.457738 0.666807 0.306144
O O3 0.235112 0.743695 0.339834
O O4 0.412357 0.493122 0.061445
O O5 0.445859 0.256685 0.793609
O O6 0.661560 0.234134 0.070872
O O7 0.795521 0.528635 0.361721
O O8 0.693537 0.801737 0.614812
O O9 0.789388 0.679623 0.231350
O O10 0.858138 0.066515 0.849111
O O11 0.900942 0.250713 0.093829
O O12 0.056513 0.015783 0.784191
O O13 0.230252 0.037859 0.112389
O O14 0.047882 0.320107 0.247939
O O15 0.003934 0.319164 0.573967
O O16 0.813841 0.791866 0.061467
O O17 0.000000 0.500000 0.000000
#
# Coordination Sequence:
#
# PCOD9077256 Si02
#       8
#     2   2   2   2   2   2   2   2
#     4  10  21  40  63  90 119 152 196 249 291 344
#     4  10  22  40  58  87 124 153 197 242 294 353
#     4  11  20  34  57  85 116 155 191 245 301 335
#     4   9  18  39  64  85 114 157 197 237 295 353
#     4   9  20  39  60  82 120 161 192 236 292 358
#     4  10  18  34  57  88 115 145 196 250 295 336
#     4  10  20  36  55  86 118 151 200 241 287 352
#     4  11  19  33  56  87 120 150 198 249 289 343
#
# _framework density 21.406388
#
# number of rings (size 3 to 8) (size 9 to 14) (size 15 to 20)
#    0.000    2.000    3.750    0.750    0.000    1.500 
#    4.500   10.625    0.000    0.000    0.000    0.000 
#    0.000    0.000    0.000    0.000    0.000    0.000 
#
# Total GULP energy -89212.022947 kJ/mol
# GULP energy per Si atom -5575.751434 kJ/mol
# Density = 2.135767 g / cm^3
# Si number density = 21.406388 Si / 1000 Ang^3
#
#
#
# Elastic Constant Matrix: (Units=GPa)
#
#
# Indices 1 2 3 4 5 6 
#
# 1 81.1346 38.5432 39.1462 -13.2870 17.8034 5.2167
# 2 38.5432 101.2020 18.1848 -21.2280 2.3645 -15.0103
# 3 39.1462 18.1848 75.7568 -20.8979 -0.4383 5.3956
# 4 -13.2870 -21.2280 -20.8979 26.8286 -2.5526 9.3397
# 5 17.8034 2.3645 -0.4383 -2.5526 13.6330 1.8187
# 6 5.2167 -15.0103 5.3956 9.3397 1.8187 39.9399
#
#
#
# Elastic Compliance Matrix: (Units=1/GPa)
#
#
# Indices 1 2 3 4 5 6 
#
# 1 0.035157 -0.011325 -0.018130 -0.009306 -0.045989 -0.002129
# 2 -0.011325 0.015786 0.004830 0.010684 0.013722 0.003636
# 3 -0.018130 0.004830 0.027868 0.021303 0.028505 -0.005861
# 4 -0.009306 0.010684 0.021303 0.064957 0.025011 -0.013976
# 5 -0.045989 0.013722 0.028505 0.025011 0.137266 -0.004786
# 6 -0.002129 0.003636 -0.005861 -0.013976 -0.004786 0.030960
#
#
# Mechanical properties :
#
#
# Convention : Reuss Voigt Hill
#
# Bulk Modulus (GPa) = 33.82722 49.98244 41.90483
# Shear Modulus (GPa) = 13.47354 26.89491 20.18422
#
# Velocity S-wave (km/s) = 2.51154 3.54841 3.07401
# Velocity P-wave (km/s) = 4.92414 6.33943 5.67607
#
# Compressibility (1/GPa) = 0.02956199
#
# Stress axis : x y z
#
# Youngs Moduli (GPa) = 28.44398 63.34591 35.88378
#
# Poissons Ratio (x) = 0.71740 0.65057
# Poissons Ratio (y) = 0.32213 -0.17334
# Poissons Ratio (z) = 0.51568 -0.30599
#
# Static dielectric constant tensor:
#      x y z
#    x 1.784930 -0.017810 0.003590 
#    y -0.017810 1.805990 -0.015610 
#    z 0.003590 -0.015610 1.790820 
# 
# From -- ./inp_files/98629.got.cif
#   From: 2010.05.17/outbox.cif.g08.bks.cpg/sg2_50_cif.got.tgz:98629.got - 2010.06.03 11:33:40.
