data_PCOD9077372
_publ_section_title
;
Structure prediction by ZEFSAII (Michael W. Deem and Ramdas Pophale) SiO2 
 PCOD9077372
Probable space group: P -1
;
_chemical_formula_sum "Si O2"
_cell_formula_units_Z 14
_cell_length_a 10.151729
_cell_length_b 15.219356
_cell_length_c 8.916381
_cell_angle_alpha 146.449689
_cell_angle_beta 51.175271
_cell_angle_gamma 132.082050
_cell_volume 557.158721
_symmetry_space_group_name_H-M "P -1"
_symmetry_group_IT_number 2
_symmetry_cell_setting 'triclinic'
loop_
_space_group_symop_operation_xyz
x,y,z
-x,-y,-z
loop_
_atom_site_type_symbol
_atom_site_label
_atom_site_fract_x
_atom_site_fract_y
_atom_site_fract_z
Si Si1 0.838428 0.228396 0.814983
Si Si2 0.072100 0.917012 0.191783
Si Si3 0.259577 0.622549 0.382959
Si Si4 0.121265 0.322644 0.264151
Si Si5 0.575450 0.888661 0.396620
Si Si6 0.611796 0.422870 0.082091
Si Si7 0.212368 0.260702 0.444903
O O1 0.851732 0.214129 0.964685
O O2 0.722738 0.336258 0.985737
O O3 0.037438 0.287353 0.685716
O O4 0.741015 0.035458 0.555441
O O5 0.208951 0.076201 0.233474
O O6 0.000000 0.000000 0.500000
O O7 0.923789 0.815055 0.033115
O O8 0.241608 0.502486 0.365696
O O9 0.432939 0.792887 0.491071
O O10 0.283918 0.523360 0.074304
O O11 0.078218 0.663629 0.549680
O O12 0.178987 0.273150 0.311849
O O13 0.563374 0.728009 0.069862
O O14 0.500000 0.000000 0.500000
O O15 0.615767 0.589526 0.402503
#
# Coordination Sequence:
#
# PCOD9077372 Si02
#       7
#     2   2   2   2   2   2   2
#     4  10  18  34  59  80 109 141 182 223 266 315
#     4  10  23  35  53  79 111 144 188 219 267 321
#     4   9  19  31  56  85 110 131 183 221 274 311
#     4  11  20  33  54  82 115 137 177 231 272 312
#     4   8  16  34  55  82 110 139 177 220 268 323
#     4   9  18  33  58  83 107 132 187 216 268 318
#     4  11  20  34  57  83 108 146 180 223 265 317
#
# _framework density 25.127488
#
# number of rings (size 3 to 8) (size 9 to 14) (size 15 to 20)
#    0.857    1.429    1.429    2.571    4.000    0.000 
#    0.000    1.429    3.143    0.857    0.000    0.000 
#    0.000    0.000    0.000    0.000    0.000    0.000 
#
# Total GULP energy -78206.187021 kJ/mol
# GULP energy per Si atom -5586.156216 kJ/mol
# Density = 2.507030 g / cm^3
# Si number density = 25.127488 Si / 1000 Ang^3
#
#
#
# Elastic Constant Matrix: (Units=GPa)
#
#
# Indices 1 2 3 4 5 6 
#
# 1 72.9309 37.5913 31.9800 -0.3246 35.1182 -15.6537
# 2 37.5913 136.1712 53.1877 14.3185 11.7043 -26.8764
# 3 31.9800 53.1877 114.0302 12.3280 38.3165 2.4782
# 4 -0.3246 14.3185 12.3280 32.6631 4.1359 15.7744
# 5 35.1182 11.7043 38.3165 4.1359 46.2220 0.2298
# 6 -15.6537 -26.8764 2.4782 15.7744 0.2298 40.4066
#
#
#
# Elastic Compliance Matrix: (Units=1/GPa)
#
#
# Indices 1 2 3 4 5 6 
#
# 1 0.027054 -0.005105 0.001420 0.001408 -0.020598 0.006566
# 2 -0.005105 0.014160 -0.006517 -0.010349 0.006562 0.011843
# 3 0.001420 -0.006517 0.015583 0.001006 -0.012411 -0.005062
# 4 0.001408 -0.010349 0.001006 0.047194 -0.003382 -0.024805
# 5 -0.020598 0.006562 -0.012411 -0.003382 0.046223 -0.001796
# 6 0.006566 0.011843 -0.005062 -0.024805 -0.001796 0.045174
#
#
# Mechanical properties :
#
#
# Convention : Reuss Voigt Hill
#
# Bulk Modulus (GPa) = 27.47678 63.18336 45.33007
# Shear Modulus (GPa) = 21.93726 37.21658 29.57692
#
# Velocity S-wave (km/s) = 2.95793 3.85269 3.43457
# Velocity P-wave (km/s) = 4.75652 6.70751 5.81443
#
# Compressibility (1/GPa) = 0.03639437
#
# Stress axis : x y z
#
# Youngs Moduli (GPa) = 36.96259 70.62113 64.17425
#
# Poissons Ratio (x) = 0.36052 -0.09115
# Poissons Ratio (y) = 0.18870 0.41820
# Poissons Ratio (z) = -0.05250 0.46021
#
# Static dielectric constant tensor:
#      x y z
#    x 2.122030 0.008270 -0.050780 
#    y 0.008270 1.959330 -0.012400 
#    z -0.050780 -0.012400 1.986460 
# 
# From -- ./inp_files/190915.got.cif
#   From: 2010.05.17/outbox.cif.g08.bks.cpg/sg2_96_cif.got.tgz:190915.got - 2010.06.03 11:33:40.
