data_PCOD9077013
_publ_section_title
;
Structure prediction by ZEFSAII (Michael W. Deem and Ramdas Pophale) SiO2 
 PCOD9077013
Probable space group: P -1
;
_chemical_formula_sum "Si O2"
_cell_formula_units_Z 16
_cell_length_a 30.683903
_cell_length_b 14.651630
_cell_length_c 8.633241
_cell_angle_alpha 130.916861
_cell_angle_beta 40.792951
_cell_angle_gamma 160.099958
_cell_volume 834.371699
_symmetry_space_group_name_H-M "P -1"
_symmetry_group_IT_number 2
_symmetry_cell_setting 'triclinic'
loop_
_space_group_symop_operation_xyz
x,y,z
-x,-y,-z
loop_
_atom_site_type_symbol
_atom_site_label
_atom_site_fract_x
_atom_site_fract_y
_atom_site_fract_z
Si Si1 0.947753 0.047981 0.642462
Si Si2 0.340533 0.087877 0.008294
Si Si3 0.625598 0.090361 0.470402
Si Si4 0.729659 0.525952 0.242438
Si Si5 0.212297 0.572846 0.289718
Si Si6 0.113823 0.378598 0.842034
Si Si7 0.701009 0.708899 0.695019
Si Si8 0.142353 0.642850 0.289423
O O1 0.066359 0.298474 0.480061
O O2 0.971682 0.153276 0.858238
O O3 0.000000 0.000000 0.500000
O O4 0.787441 0.796532 0.709172
O O5 0.259926 0.086122 0.200815
O O6 0.286538 0.943335 0.155098
O O7 0.520996 0.405226 0.873179
O O8 0.314399 0.944726 0.784801
O O9 0.657574 0.177682 0.659243
O O10 0.730825 0.352148 0.377988
O O11 0.444061 0.795342 0.598306
O O12 0.857730 0.689908 0.202100
O O13 0.734871 0.679643 0.420733
O O14 0.754627 0.490171 0.978332
O O15 0.178409 0.634919 0.344281
O O16 0.103963 0.471176 0.088318
O O17 0.000000 0.500000 0.500000
#
# Coordination Sequence:
#
# PCOD9077013 Si02
#       8
#     2   2   2   2   2   2   2   2
#     4  11  21  38  54  82 114 147 185 222 273 339
#     4   9  20  38  60  82 108 151 192 218 275 331
#     4   9  18  34  57  79 111 143 184 230 270 327
#     4  10  18  34  54  83 112 144 176 233 279 323
#     4  10  22  35  56  84 111 139 188 231 281 323
#     4   9  19  34  55  82 107 144 191 218 275 331
#     4  10  20  36  60  80 114 152 186 222 267 340
#     4  10  20  38  58  84 110 142 184 238 277 318
#
# _framework density 19.176103999999999
#
# number of rings (size 3 to 8) (size 9 to 14) (size 15 to 20)
#    0.000    2.250    1.250    1.500    0.000    2.500 
#    4.500    3.750    0.000    3.000    0.000    0.000 
#    0.000    0.000    0.000    0.000    0.000    0.000 
#
# Total GULP energy -89101.245372 kJ/mol
# GULP energy per Si atom -5568.827836 kJ/mol
# Density = 1.913246 g / cm^3
# Si number density = 19.176104 Si / 1000 Ang^3
#
#
#
# Elastic Constant Matrix: (Units=GPa)
#
#
# Indices 1 2 3 4 5 6 
#
# 1 103.9146 24.9154 38.0926 21.8902 -3.5366 5.1630
# 2 24.9154 43.5270 6.3375 17.1721 -1.0857 10.0540
# 3 38.0926 6.3375 61.5285 10.7022 -4.7432 2.5299
# 4 21.8902 17.1721 10.7022 13.5164 2.1770 0.1607
# 5 -3.5366 -1.0857 -4.7432 2.1770 23.3862 3.5308
# 6 5.1630 10.0540 2.5299 0.1607 3.5308 34.5550
#
#
#
# Elastic Compliance Matrix: (Units=1/GPa)
#
#
# Indices 1 2 3 4 5 6 
#
# 1 0.017139 0.002718 -0.005621 -0.027467 0.004631 -0.003286
# 2 0.002718 0.062401 0.010527 -0.094568 0.017367 -0.020668
# 3 -0.005621 0.010527 0.023593 -0.024082 0.007359 -0.004590
# 4 -0.027467 -0.094568 -0.024082 0.264261 -0.043555 0.036604
# 5 0.004631 0.017367 0.007359 -0.043555 0.051527 -0.011346
# 6 -0.003286 -0.020668 -0.004590 0.036604 -0.011346 0.036769
#
#
# Mechanical properties :
#
#
# Convention : Reuss Voigt Hill
#
# Bulk Modulus (GPa) = 8.44721 38.62901 23.53811
# Shear Modulus (GPa) = 10.41879 23.59984 17.00931
#
# Velocity S-wave (km/s) = 2.33345 3.51192 2.98149
# Velocity P-wave (km/s) = 3.41682 6.05251 4.91465
#
# Compressibility (1/GPa) = 0.11838229
#
# Stress axis : x y z
#
# Youngs Moduli (GPa) = 58.34662 16.02534 42.38495
#
# Poissons Ratio (x) = -0.04356 0.23825
# Poissons Ratio (y) = -0.15861 -0.44620
# Poissons Ratio (z) = 0.32798 -0.16870
#
# Static dielectric constant tensor:
#      x y z
#    x 1.692340 -0.004270 -0.025230 
#    y -0.004270 1.730900 0.021930 
#    z -0.025230 0.021930 1.714990 
# 
# From -- ./inp_files/252930.got.cif
#   From: 2010.05.17/outbox.cif.g08.bks.cpg/sg2_127_cif.got.tgz:252930.got - 2010.06.03 11:33:40.
