data_PCOD9077571
_publ_section_title
;
Structure prediction by ZEFSAII (Michael W. Deem and Ramdas Pophale) SiO2 
 PCOD9077571
Probable space group: P -1
;
_chemical_formula_sum "Si O2"
_cell_formula_units_Z 16
_cell_length_a 22.261558
_cell_length_b 11.645823
_cell_length_c 20.887152
_cell_angle_alpha 26.358592
_cell_angle_beta 19.703466
_cell_angle_gamma 25.643265
_cell_volume 747.418151
_symmetry_space_group_name_H-M "P -1"
_symmetry_group_IT_number 2
_symmetry_cell_setting 'triclinic'
loop_
_space_group_symop_operation_xyz
x,y,z
-x,-y,-z
loop_
_atom_site_type_symbol
_atom_site_label
_atom_site_fract_x
_atom_site_fract_y
_atom_site_fract_z
Si Si1 0.938129 0.605942 0.402307
Si Si2 0.134371 0.462857 0.946431
Si Si3 0.374872 0.811417 0.576161
Si Si4 0.769872 0.341848 0.008979
Si Si5 0.426882 0.333575 0.419340
Si Si6 0.055741 0.322969 0.841084
Si Si7 0.446471 0.960729 0.825894
Si Si8 0.206264 0.597329 0.244133
O O1 0.846697 0.400726 0.628279
O O2 0.015319 0.699506 0.342790
O O3 0.767616 0.880609 0.409307
O O4 0.125167 0.516014 0.214620
O O5 0.240252 0.678506 0.742660
O O6 0.314416 0.166401 0.908756
O O7 0.000000 0.500000 0.000000
O O8 0.004099 0.511415 0.115784
O O9 0.496062 0.640218 0.600012
O O10 0.515511 0.860281 0.358627
O O11 0.540544 0.449327 0.196879
O O12 0.839174 0.013009 0.083673
O O13 0.870181 0.348028 0.973172
O O14 0.197437 0.430303 0.605180
O O15 0.500000 0.000000 0.500000
O O16 0.653199 0.721641 0.755154
O O17 0.323243 0.784868 0.014825
#
# Coordination Sequence:
#
# PCOD9077571 Si02
#       8
#     2   2   2   2   2   2   2   2
#     4  10  18  34  61  78 111 150 195 252 286 327
#     4  12  22  35  57  87 125 159 181 235 311 359
#     4  11  20  35  55  90 123 146 186 243 299 365
#     4  10  18  35  57  82 120 150 188 247 279 351
#     4  10  20  31  54  89 123 152 185 230 300 359
#     4  10  20  35  52  89 121 152 187 225 308 357
#     4  10  22  36  54  79 118 154 192 245 284 346
#     4   9  21  38  53  82 108 154 212 239 279 332
#
# _framework density 21.407025000000001
#
# number of rings (size 3 to 8) (size 9 to 14) (size 15 to 20)
#    0.000    1.750    2.500    3.375    3.500    0.000 
#    2.250    0.000    0.000    1.500    0.000    0.000 
#    0.000    0.000    0.000    0.000    0.000    0.000 
#
# Total GULP energy -89217.133095 kJ/mol
# GULP energy per Si atom -5576.070818 kJ/mol
# Density = 2.135830 g / cm^3
# Si number density = 21.407025 Si / 1000 Ang^3
#
#
#
# Elastic Constant Matrix: (Units=GPa)
#
#
# Indices 1 2 3 4 5 6 
#
# 1 56.2247 17.2253 13.8449 2.2858 -2.1939 15.3810
# 2 17.2253 48.1305 22.0295 20.9565 5.7414 13.9851
# 3 13.8449 22.0295 129.7938 32.5618 -5.0871 5.0617
# 4 2.2858 20.9565 32.5618 27.4055 3.7063 7.2752
# 5 -2.1939 5.7414 -5.0871 3.7063 27.3497 6.7552
# 6 15.3810 13.9851 5.0617 7.2752 6.7552 21.9065
#
#
#
# Elastic Compliance Matrix: (Units=1/GPa)
#
#
# Indices 1 2 3 4 5 6 
#
# 1 0.025914 -0.008659 -0.003521 0.012582 0.005949 -0.017866
# 2 -0.008659 0.037945 0.001657 -0.027649 -0.002487 -0.008578
# 3 -0.003521 0.001657 0.011897 -0.016358 0.003017 0.003168
# 4 0.012582 -0.027649 -0.016358 0.079929 -0.003914 -0.012741
# 5 0.005949 -0.002487 0.003017 -0.003914 0.042372 -0.015053
# 6 -0.017866 -0.008578 0.003168 -0.012741 -0.015053 0.071810
#
#
# Mechanical properties :
#
#
# Convention : Reuss Voigt Hill
#
# Bulk Modulus (GPa) = 18.27846 37.81651 28.04749
# Shear Modulus (GPa) = 16.17327 27.40230 21.78779
#
# Velocity S-wave (km/s) = 2.75164 3.58168 3.19374
# Velocity P-wave (km/s) = 4.31885 5.89986 5.17014
#
# Compressibility (1/GPa) = 0.05470919
#
# Stress axis : x y z
#
# Youngs Moduli (GPa) = 38.58948 26.35373 84.05187
#
# Poissons Ratio (x) = 0.22821 0.29595
# Poissons Ratio (y) = 0.33416 -0.13925
# Poissons Ratio (z) = 0.13587 -0.04366
#
# Static dielectric constant tensor:
#      x y z
#    x 1.796370 0.001600 0.020770 
#    y 0.001600 1.774900 0.008950 
#    z 0.020770 0.008950 1.872540 
# 
# From -- ./inp_files/472926.got.cif
#   From: 2010.05.17/outbox.cif.g08.bks.cpg/sg2_237_cif.got.tgz:472926.got - 2010.06.03 11:33:40.
