data_PCOD9077259
_publ_section_title
;
Structure prediction by ZEFSAII (Michael W. Deem and Ramdas Pophale) SiO2 
 PCOD9077259
Probable space group: P -1
;
_chemical_formula_sum "Si O2"
_cell_formula_units_Z 16
_cell_length_a 9.335512
_cell_length_b 24.724230
_cell_length_c 9.280369
_cell_angle_alpha 134.673842
_cell_angle_beta 74.458899
_cell_angle_gamma 141.718045
_cell_volume 721.522340
_symmetry_space_group_name_H-M "P -1"
_symmetry_group_IT_number 2
_symmetry_cell_setting 'triclinic'
loop_
_space_group_symop_operation_xyz
x,y,z
-x,-y,-z
loop_
_atom_site_type_symbol
_atom_site_label
_atom_site_fract_x
_atom_site_fract_y
_atom_site_fract_z
Si Si1 0.204404 0.420936 0.801346
Si Si2 0.785664 0.271058 0.879969
Si Si3 0.194343 0.299476 0.323437
Si Si4 0.983174 0.456640 0.723700
Si Si5 0.169221 0.136423 0.109377
Si Si6 0.583696 0.706740 0.373968
Si Si7 0.856779 0.978487 0.360485
Si Si8 0.901492 0.603739 0.662962
O O1 0.231087 0.362748 0.579410
O O2 0.933704 0.293101 0.748031
O O3 0.143921 0.465473 0.794245
O O4 0.481006 0.577319 0.112587
O O5 0.429699 0.099030 0.664797
O O6 0.841476 0.386158 0.050330
O O7 0.965077 0.334099 0.096883
O O8 0.003241 0.137582 0.095642
O O9 0.536510 0.429718 0.427093
O O10 0.054023 0.295525 0.239724
O O11 0.674724 0.344561 0.675954
O O12 0.943557 0.395367 0.467567
O O13 0.388008 0.272318 0.422002
O O14 0.271250 0.137435 0.942506
O O15 0.000000 0.000000 0.000000
O O16 0.879306 0.859808 0.491902
O O17 0.000000 0.000000 0.500000
#
# Coordination Sequence:
#
# PCOD9077259 Si02
#       8
#     2   2   2   2   2   2   2   2
#     4  10  21  35  60  91 124 159 197 251 303 360
#     4  11  20  34  58  92 121 156 206 253 300 353
#     4  10  21  40  61  90 125 161 202 245 311 368
#     4  10  18  34  57  88 122 154 202 252 300 352
#     4  10  22  39  62  85 112 158 207 249 295 365
#     4  10  20  36  60  87 119 158 199 244 299 365
#     4  11  22  37  61  88 120 158 203 254 302 355
#     4  10  21  33  58  91 124 157 198 260 305 354
#
# _framework density 22.175336000000001
#
# number of rings (size 3 to 8) (size 9 to 14) (size 15 to 20)
#    0.000    1.750    0.000    6.375    0.000    4.000 
#    0.000    1.250    0.000   48.750    0.000    0.000 
#    0.000    0.000    0.000    0.000    0.000    0.000 
#
# Total GULP energy -89335.672539 kJ/mol
# GULP energy per Si atom -5583.479534 kJ/mol
# Density = 2.212486 g / cm^3
# Si number density = 22.175336 Si / 1000 Ang^3
#
#
#
# Elastic Constant Matrix: (Units=GPa)
#
#
# Indices 1 2 3 4 5 6 
#
# 1 81.5478 34.6991 11.0049 6.4957 -14.0707 -8.2162
# 2 34.6991 125.9741 36.0333 -4.9575 -1.5833 10.6147
# 3 11.0049 36.0333 45.2918 -13.6651 -1.2410 3.7715
# 4 6.4957 -4.9575 -13.6651 41.5494 -4.0499 9.3936
# 5 -14.0707 -1.5833 -1.2410 -4.0499 33.3301 -4.5009
# 6 -8.2162 10.6147 3.7715 9.3936 -4.5009 36.2080
#
#
#
# Elastic Compliance Matrix: (Units=1/GPa)
#
#
# Indices 1 2 3 4 5 6 
#
# 1 0.017056 -0.004802 -0.002283 -0.005024 0.007321 0.007729
# 2 -0.004802 0.011847 -0.007899 0.000270 -0.002279 -0.004093
# 3 -0.002283 -0.007899 0.032695 0.011235 0.000644 -0.004443
# 4 -0.005024 0.000270 0.011235 0.030985 0.000678 -0.010344
# 5 0.007321 -0.002279 0.000644 0.000678 0.033943 0.006305
# 6 0.007729 -0.004093 -0.004443 -0.010344 0.006305 0.034502
#
#
# Mechanical properties :
#
#
# Convention : Reuss Voigt Hill
#
# Bulk Modulus (GPa) = 31.61433 46.25427 38.93430
# Shear Modulus (GPa) = 24.80910 33.62258 29.21584
#
# Velocity S-wave (km/s) = 3.34843 3.89809 3.63367
# Velocity P-wave (km/s) = 5.40711 6.41590 5.93298
#
# Compressibility (1/GPa) = 0.03163122
#
# Stress axis : x y z
#
# Youngs Moduli (GPa) = 58.62965 84.40914 30.58580
#
# Poissons Ratio (x) = 0.40534 0.06982
# Poissons Ratio (y) = 0.28155 0.24159
# Poissons Ratio (z) = 0.13383 0.66672
#
# Static dielectric constant tensor:
#      x y z
#    x 1.865990 -0.051310 0.034710 
#    y -0.051310 1.832700 0.002330 
#    z 0.034710 0.002330 1.864570 
# 
# From -- ./inp_files/226499.got.cif
#   From: 2010.05.17/outbox.cif.g08.bks.cpg/sg2_114_cif.got.tgz:226499.got - 2010.06.03 11:33:40.
