data_PCOD9077032
_publ_section_title
;
Structure prediction by ZEFSAII (Michael W. Deem and Ramdas Pophale) SiO2 
 PCOD9077032
Probable space group: P -1
;
_chemical_formula_sum "Si O2"
_cell_formula_units_Z 16
_cell_length_a 10.207479
_cell_length_b 20.435111
_cell_length_c 23.185547
_cell_angle_alpha 17.246761
_cell_angle_beta 40.901367
_cell_angle_gamma 39.759246
_cell_volume 911.065643
_symmetry_space_group_name_H-M "P -1"
_symmetry_group_IT_number 2
_symmetry_cell_setting 'triclinic'
loop_
_space_group_symop_operation_xyz
x,y,z
-x,-y,-z
loop_
_atom_site_type_symbol
_atom_site_label
_atom_site_fract_x
_atom_site_fract_y
_atom_site_fract_z
Si Si1 0.815866 0.873189 0.484282
Si Si2 0.429747 0.779830 0.638683
Si Si3 0.763864 0.804376 0.065148
Si Si4 0.352041 0.384348 0.069892
Si Si5 0.197177 0.702617 0.951557
Si Si6 0.274501 0.680696 0.536434
Si Si7 0.510845 0.229611 0.718674
Si Si8 0.236960 0.935494 0.455242
O O1 0.666309 0.742508 0.611279
O O2 0.045857 0.742681 0.532385
O O3 0.691597 0.984084 0.489396
O O4 0.829377 0.081313 0.263179
O O5 0.383349 0.797198 0.572517
O O6 0.335905 0.588081 0.859324
O O7 0.670862 0.595951 0.246852
O O8 0.699309 0.809067 0.150170
O O9 0.005568 0.739044 0.027054
O O10 0.671001 0.042944 0.861709
O O11 0.585186 0.323318 0.067652
O O12 0.298458 0.175010 0.232199
O O13 0.213583 0.486680 0.085390
O O14 0.418196 0.794273 0.351415
O O15 0.261819 0.796383 0.505285
O O16 0.500000 0.500000 0.500000
O O17 0.000000 0.000000 0.500000
#
# Coordination Sequence:
#
# PCOD9077032 Si02
#       8
#     2   2   2   2   2   2   2   2
#     4  10  18  34  55  77 107 147 191 229 268 314
#     4  10  21  35  51  74 111 152 191 226 259 322
#     4  10  19  34  59  84 109 142 187 234 285 324
#     4  10  22  35  53  82 116 149 191 223 266 335
#     4  10  18  34  59  83 108 147 191 235 272 320
#     4  11  21  34  55  82 116 147 180 230 281 333
#     4   9  20  36  54  84 111 140 185 237 282 331
#     4  12  23  35  50  80 120 154 184 221 278 335
#
# _framework density 17.561852999999999
#
# number of rings (size 3 to 8) (size 9 to 14) (size 15 to 20)
#    0.000    1.750    3.750    1.500    1.750    1.500 
#    0.000    0.000    0.000    0.750    0.000   30.625 
#    0.000    0.000    0.000    0.000    0.000    0.000 
#
# Total GULP energy -89150.536637 kJ/mol
# GULP energy per Si atom -5571.908540 kJ/mol
# Density = 1.752188 g / cm^3
# Si number density = 17.561853 Si / 1000 Ang^3
#
#
#
# Elastic Constant Matrix: (Units=GPa)
#
#
# Indices 1 2 3 4 5 6 
#
# 1 63.3753 34.6348 29.6919 0.8446 1.5322 13.8106
# 2 34.6348 110.3358 21.1836 20.4380 0.8058 3.7134
# 3 29.6919 21.1836 104.8767 -2.4950 12.0004 5.9505
# 4 0.8446 20.4380 -2.4950 28.8792 -1.3921 1.5473
# 5 1.5322 0.8058 12.0004 -1.3921 23.0129 -0.2404
# 6 13.8106 3.7134 5.9505 1.5473 -0.2404 24.1167
#
#
#
# Elastic Compliance Matrix: (Units=1/GPa)
#
#
# Indices 1 2 3 4 5 6 
#
# 1 0.024533 -0.007248 -0.004836 0.004701 0.001301 -0.012028
# 2 -0.007248 0.013162 -0.000998 -0.009348 0.000008 0.002970
# 3 -0.004836 -0.000998 0.011805 0.001601 -0.005704 -0.000149
# 4 0.004701 -0.009348 0.001601 0.041553 0.001648 -0.004298
# 5 0.001301 0.000008 -0.005704 0.001648 0.046452 0.001018
# 6 -0.012028 0.002970 -0.000149 -0.004298 0.001018 0.048219
#
#
# Mechanical properties :
#
#
# Convention : Reuss Voigt Hill
#
# Bulk Modulus (GPa) = 42.85464 49.95649 46.40556
# Shear Modulus (GPa) = 22.76189 28.07359 25.41774
#
# Velocity S-wave (km/s) = 3.60404 4.00253 3.80850
# Velocity P-wave (km/s) = 6.46327 7.06174 6.76912
#
# Compressibility (1/GPa) = 0.02333470
#
# Stress axis : x y z
#
# Youngs Moduli (GPa) = 40.76149 75.97899 84.70988
#
# Poissons Ratio (x) = 0.55070 0.40967
# Poissons Ratio (y) = 0.29544 0.08456
# Poissons Ratio (z) = 0.19713 0.07584
#
# Static dielectric constant tensor:
#      x y z
#    x 1.572780 -0.009080 0.020070 
#    y -0.009080 1.644040 0.001330 
#    z 0.020070 0.001330 1.648920 
# 
# From -- ./inp_files/299714.got.cif
#   From: 2010.05.17/outbox.cif.g08.bks.cpg/sg2_150_cif.got.tgz:299714.got - 2010.06.03 11:33:40.
