data_PCOD9077064
_publ_section_title
;
Structure prediction by ZEFSAII (Michael W. Deem and Ramdas Pophale) SiO2 
 PCOD9077064
Probable space group: P -1
;
_chemical_formula_sum "Si O2"
_cell_formula_units_Z 14
_cell_length_a 8.431521
_cell_length_b 21.214554
_cell_length_c 9.846048
_cell_angle_alpha 33.659417
_cell_angle_beta 43.997771
_cell_angle_gamma 32.723564
_cell_volume 526.611277
_symmetry_space_group_name_H-M "P -1"
_symmetry_group_IT_number 2
_symmetry_cell_setting 'triclinic'
loop_
_space_group_symop_operation_xyz
x,y,z
-x,-y,-z
loop_
_atom_site_type_symbol
_atom_site_label
_atom_site_fract_x
_atom_site_fract_y
_atom_site_fract_z
Si Si1 0.247454 0.662807 0.916975
Si Si2 0.118371 0.427385 0.705062
Si Si3 0.750001 0.791690 0.660049
Si Si4 0.695329 0.361918 0.531627
Si Si5 0.988158 0.814930 0.077951
Si Si6 0.156543 0.969538 0.814629
Si Si7 0.380950 0.248823 0.481638
O O1 0.348362 0.755007 0.640661
O O2 0.500000 0.500000 0.000000
O O3 0.209868 0.695901 0.042614
O O4 0.958937 0.680329 0.026813
O O5 0.459219 0.353261 0.625320
O O6 0.000000 0.500000 0.500000
O O7 0.907647 0.575928 0.659467
O O8 0.499374 0.822477 0.857302
O O9 0.594908 0.815213 0.567044
O O10 0.085963 0.644103 0.697186
O O11 0.813160 0.904488 0.450611
O O12 0.500000 0.500000 0.500000
O O13 0.898216 0.241360 0.737685
O O14 0.699964 0.827093 0.229162
O O15 0.984098 0.951883 0.837473
O O16 0.000000 0.000000 0.000000
#
# Coordination Sequence:
#
# PCOD9077064 Si02
#       7
#     2   2   2   2   2   2   2
#     4  10  21  34  55  83 121 159 204 236 301 371
#     4  11  20  36  58  84 126 170 193 239 310 374
#     4  10  21  35  60  94 121 153 204 262 303 359
#     4  11  20  36  60  90 132 156 199 259 310 363
#     4  11  20  36  62  87 120 160 200 258 305 350
#     4  11  20  36  61  92 120 158 206 258 307 356
#     4  10  18  34  55  83 116 150 204 242 296 360
#
# _framework density 26.585073999999999
#
# number of rings (size 3 to 8) (size 9 to 14) (size 15 to 20)
#    0.000    1.429    8.571    0.000    0.000    0.000 
#    0.000   10.714    0.000    0.857    0.000    5.000 
#    0.000    0.000    0.000    0.000    0.000    0.000 
#
# Total GULP energy -78136.773966 kJ/mol
# GULP energy per Si atom -5581.198140 kJ/mol
# Density = 2.652456 g / cm^3
# Si number density = 26.585074 Si / 1000 Ang^3
#
#
#
# Elastic Constant Matrix: (Units=GPa)
#
#
# Indices 1 2 3 4 5 6 
#
# 1 96.7912 46.1426 56.1390 7.9744 -34.5110 3.9200
# 2 46.1426 128.9066 58.6846 39.6963 -16.0364 24.8710
# 3 56.1390 58.6846 170.1934 28.6069 -58.9377 1.7593
# 4 7.9744 39.6963 28.6069 59.5984 0.1686 -17.2424
# 5 -34.5110 -16.0364 -58.9377 0.1686 60.5707 0.9364
# 6 3.9200 24.8710 1.7593 -17.2424 0.9364 48.9540
#
#
#
# Elastic Compliance Matrix: (Units=1/GPa)
#
#
# Indices 1 2 3 4 5 6 
#
# 1 0.015712 -0.005615 -0.001911 0.003329 0.005555 0.002729
# 2 -0.005615 0.017298 -0.001659 -0.013773 0.000007 -0.013130
# 3 -0.001911 -0.001659 0.010986 -0.004248 0.009190 -0.001071
# 4 0.003329 -0.013773 -0.004248 0.032947 -0.006263 0.018608
# 5 0.005555 0.000007 0.009190 -0.006263 0.028691 -0.003533
# 6 0.002729 -0.013130 -0.001071 0.018608 -0.003533 0.033540
#
#
# Mechanical properties :
#
#
# Convention : Reuss Voigt Hill
#
# Bulk Modulus (GPa) = 39.02209 79.75818 59.39014
# Shear Modulus (GPa) = 30.10485 49.48628 39.79557
#
# Velocity S-wave (km/s) = 3.36876 4.31911 3.87319
# Velocity P-wave (km/s) = 5.46273 7.41210 6.51079
#
# Compressibility (1/GPa) = 0.02562651
#
# Stress axis : x y z
#
# Youngs Moduli (GPa) = 63.64376 57.80880 91.02884
#
# Poissons Ratio (x) = 0.32460 0.17392
# Poissons Ratio (y) = 0.35736 0.15104
# Poissons Ratio (z) = 0.12160 0.09592
#
# Static dielectric constant tensor:
#      x y z
#    x 2.128430 -0.029070 0.006240 
#    y -0.029070 2.150860 -0.062030 
#    z 0.006240 -0.062030 2.244700 
# 
# From -- ./inp_files/404116.got.cif
#   From: 2010.05.17/outbox.cif.g08.bks.cpg/sg2_203_cif.got.tgz:404116.got - 2010.06.03 11:33:40.
