data_PCOD9077233
_publ_section_title
;
Structure prediction by ZEFSAII (Michael W. Deem and Ramdas Pophale) SiO2 
 PCOD9077233
Probable space group: P -1
;
_chemical_formula_sum "Si O2"
_cell_formula_units_Z 16
_cell_length_a 11.724190
_cell_length_b 10.378962
_cell_length_c 8.596461
_cell_angle_alpha 118.137325
_cell_angle_beta 89.763047
_cell_angle_gamma 126.879942
_cell_volume 677.731831
_symmetry_space_group_name_H-M "P -1"
_symmetry_group_IT_number 2
_symmetry_cell_setting 'triclinic'
loop_
_space_group_symop_operation_xyz
x,y,z
-x,-y,-z
loop_
_atom_site_type_symbol
_atom_site_label
_atom_site_fract_x
_atom_site_fract_y
_atom_site_fract_z
Si Si1 0.026673 0.918571 0.107153
Si Si2 0.108937 0.394400 0.293843
Si Si3 0.535136 0.677599 0.956176
Si Si4 0.362710 0.077256 0.209434
Si Si5 0.450327 0.564474 0.397885
Si Si6 0.741940 0.183875 0.514978
Si Si7 0.132738 0.975842 0.691923
Si Si8 0.590614 0.174143 0.819684
O O1 0.203872 0.028352 0.184032
O O2 0.963904 0.958051 0.274252
O O3 0.939761 0.695097 0.931455
O O4 0.000000 0.000000 0.000000
O O5 0.269817 0.446061 0.348264
O O6 0.146308 0.595989 0.430269
O O7 0.971429 0.218478 0.305572
O O8 0.545631 0.786429 0.863008
O O9 0.509207 0.490582 0.789375
O O10 0.406955 0.653136 0.041259
O O11 0.704882 0.834610 0.122196
O O12 0.455434 0.205888 0.437955
O O13 0.345384 0.888586 0.094689
O O14 0.500000 0.500000 0.500000
O O15 0.824521 0.098554 0.488594
O O16 0.678873 0.207498 0.682272
O O17 0.592476 0.020658 0.315508
#
# Coordination Sequence:
#
# PCOD9077233 Si02
#       8
#     2   2   2   2   2   2   2   2
#     4  10  18  34  58  85 113 140 175 231 283 324
#     4  11  18  35  57  84 109 143 186 221 277 324
#     4  10  18  34  57  85 111 141 180 228 278 323
#     4  11  19  36  58  86 112 141 183 228 276 322
#     4  10  19  31  55  90 113 133 180 236 273 319
#     4  10  22  38  54  79 114 151 187 222 267 327
#     4  10  18  34  58  84 110 143 181 225 277 328
#     4  10  22  38  54  78 116 151 183 225 271 321
#
# _framework density 23.608159000000001
#
# number of rings (size 3 to 8) (size 9 to 14) (size 15 to 20)
#    0.000    1.750    5.000    3.000    0.000    0.000 
#    0.000    4.375    0.000    0.000    0.000    0.000 
#    0.000    0.000    0.000    0.000    0.000    0.000 
#
# Total GULP energy -89322.996983 kJ/mol
# GULP energy per Si atom -5582.687311 kJ/mol
# Density = 2.355443 g / cm^3
# Si number density = 23.608159 Si / 1000 Ang^3
#
#
#
# Elastic Constant Matrix: (Units=GPa)
#
#
# Indices 1 2 3 4 5 6 
#
# 1 145.3543 9.9485 39.4017 -9.2676 -33.5171 11.8584
# 2 9.9485 50.1453 11.9915 2.4427 0.4421 3.8124
# 3 39.4017 11.9915 69.0003 11.5229 -23.2855 13.7569
# 4 -9.2676 2.4427 11.5229 21.5376 5.0666 1.6573
# 5 -33.5171 0.4421 -23.2855 5.0666 38.6915 -4.9049
# 6 11.8584 3.8124 13.7569 1.6573 -4.9049 32.2254
#
#
#
# Elastic Compliance Matrix: (Units=1/GPa)
#
#
# Indices 1 2 3 4 5 6 
#
# 1 0.009735 -0.001105 -0.004430 0.005615 0.004905 -0.001103
# 2 -0.001105 0.021270 -0.004284 0.000402 -0.003946 -0.000902
# 3 -0.004430 -0.004284 0.026844 -0.018599 0.014013 -0.006234
# 4 0.005615 0.000402 -0.018599 0.062109 -0.014411 0.000438
# 5 0.004905 -0.003946 0.014013 -0.014411 0.040405 -0.000429
# 6 -0.001103 -0.000902 -0.006234 0.000438 -0.000429 0.034117
#
#
# Mechanical properties :
#
#
# Convention : Reuss Voigt Hill
#
# Bulk Modulus (GPa) = 26.17033 43.02036 34.59534
# Shear Modulus (GPa) = 22.04050 32.03478 27.03764
#
# Velocity S-wave (km/s) = 3.05880 3.68766 3.38785
# Velocity P-wave (km/s) = 4.85637 6.03274 5.47624
#
# Compressibility (1/GPa) = 0.03821121
#
# Stress axis : x y z
#
# Youngs Moduli (GPa) = 102.72040 47.01556 37.25168
#
# Poissons Ratio (x) = 0.05195 0.16502
# Poissons Ratio (y) = 0.11351 0.15959
# Poissons Ratio (z) = 0.45503 0.20142
#
# Static dielectric constant tensor:
#      x y z
#    x 1.920430 -0.019470 -0.062770 
#    y -0.019470 1.977900 -0.019190 
#    z -0.062770 -0.019190 1.972090 
# 
# From -- ./inp_files/263070.got.cif
#   From: 2010.05.17/outbox.cif.g08.bks.cpg/sg2_132_cif.got.tgz:263070.got - 2010.06.03 11:33:40.
