data_PCOD9077180
_publ_section_title
;
Structure prediction by ZEFSAII (Michael W. Deem and Ramdas Pophale) SiO2 
 PCOD9077180
Probable space group: P -1
;
_chemical_formula_sum "Si O2"
_cell_formula_units_Z 16
_cell_length_a 15.214252
_cell_length_b 11.213522
_cell_length_c 7.771378
_cell_angle_alpha 63.608203
_cell_angle_beta 69.114781
_cell_angle_gamma 39.025067
_cell_volume 747.671678
_symmetry_space_group_name_H-M "P -1"
_symmetry_group_IT_number 2
_symmetry_cell_setting 'triclinic'
loop_
_space_group_symop_operation_xyz
x,y,z
-x,-y,-z
loop_
_atom_site_type_symbol
_atom_site_label
_atom_site_fract_x
_atom_site_fract_y
_atom_site_fract_z
Si Si1 0.289372 0.310033 0.503838
Si Si2 0.652142 0.966485 0.932893
Si Si3 0.579140 0.315313 0.804348
Si Si4 0.308434 0.029038 0.496585
Si Si5 0.383112 0.340353 0.062625
Si Si6 0.445721 0.383706 0.486137
Si Si7 0.984814 0.615251 0.657943
Si Si8 0.137547 0.480828 0.963471
O O1 0.339001 0.106229 0.571967
O O2 0.335780 0.333175 0.281024
O O3 0.357667 0.339863 0.572431
O O4 0.124031 0.471837 0.540915
O O5 0.693270 0.077305 0.878885
O O6 0.648289 0.964124 0.729327
O O7 0.500581 0.123399 0.027458
O O8 0.764013 0.738379 0.051244
O O9 0.490063 0.376389 0.652487
O O10 0.627124 0.415025 0.683419
O O11 0.465348 0.393853 0.976557
O O12 0.143467 0.186106 0.482834
O O13 0.407909 0.799565 0.596113
O O14 0.243081 0.480968 0.957148
O O15 0.028999 0.637871 0.793348
O O16 0.935166 0.522273 0.825105
#
# Coordination Sequence:
#
# PCOD9077180 Si02
#       8
#     2   2   2   2   2   2   2   2
#     4  12  22  32  55  87 114 143 173 230 283 321
#     4   8  17  32  56  82 106 136 183 221 273 314
#     4   8  19  36  57  79 108 144 179 234 264 321
#     4  10  20  36  54  82 116 143 175 233 270 317
#     4  10  19  32  58  83 114 138 177 231 279 312
#     4  10  20  37  58  81 109 140 190 225 270 317
#     4  10  22  34  52  81 114 148 182 211 280 329
#     4  10  18  34  57  77 113 147 178 226 264 333
#
# _framework density 21.399768999999999
#
# number of rings (size 3 to 8) (size 9 to 14) (size 15 to 20)
#    0.750    1.500    2.500    1.875    0.000    1.500 
#    0.000    0.000    0.000   21.000    0.000    0.000 
#    0.000    0.000    0.000    0.000    0.000    0.000 
#
# Total GULP energy -89109.100415 kJ/mol
# GULP energy per Si atom -5569.318776 kJ/mol
# Density = 2.135106 g / cm^3
# Si number density = 21.399769 Si / 1000 Ang^3
#
#
#
# Elastic Constant Matrix: (Units=GPa)
#
#
# Indices 1 2 3 4 5 6 
#
# 1 59.6253 26.1560 13.7955 0.4167 3.2680 -11.6967
# 2 26.1560 65.1829 22.9657 8.6998 -15.5685 -11.4857
# 3 13.7955 22.9657 57.9159 17.6394 -7.1040 -1.3553
# 4 0.4167 8.6998 17.6394 38.1679 -5.2708 -7.7070
# 5 3.2680 -15.5685 -7.1040 -5.2708 29.1011 0.6043
# 6 -11.6967 -11.4857 -1.3553 -7.7070 0.6043 27.9941
#
#
#
# Elastic Compliance Matrix: (Units=1/GPa)
#
#
# Indices 1 2 3 4 5 6 
#
# 1 0.023554 -0.009230 -0.003989 0.004031 -0.007975 0.007143
# 2 -0.009230 0.025365 -0.006181 0.000188 0.013007 0.006022
# 3 -0.003989 -0.006181 0.023915 -0.010650 0.001175 -0.006002
# 4 0.004031 0.000188 -0.010650 0.033540 0.002906 0.010417
# 5 -0.007975 0.013007 0.001175 0.002906 0.042990 0.001933
# 6 0.007143 0.006022 -0.006002 0.010417 0.001933 0.043713
#
#
# Mechanical properties :
#
#
# Convention : Reuss Voigt Hill
#
# Bulk Modulus (GPa) = 29.38230 34.28427 31.83328
# Shear Modulus (GPa) = 20.55746 27.03974 23.79860
#
# Velocity S-wave (km/s) = 3.10278 3.55851 3.33843
# Velocity P-wave (km/s) = 5.15716 5.73930 5.45600
#
# Compressibility (1/GPa) = 0.03403410
#
# Stress axis : x y z
#
# Youngs Moduli (GPa) = 42.45651 39.42378 41.81525
#
# Poissons Ratio (x) = 0.36388 0.16682
# Poissons Ratio (y) = 0.39187 0.25844
# Poissons Ratio (z) = 0.16937 0.24366
#
# Static dielectric constant tensor:
#      x y z
#    x 1.859510 0.018590 0.032920 
#    y 0.018590 1.816650 -0.001070 
#    z 0.032920 -0.001070 1.889930 
# 
# From -- ./inp_files/302804.got.cif
#   From: 2010.05.17/outbox.cif.g08.bks.cpg/sg2_152_cif.got.tgz:302804.got - 2010.06.03 11:33:40.
