data_PCOD9077757
_publ_section_title
;
Structure prediction by ZEFSAII (Michael W. Deem and Ramdas Pophale) SiO2 
 PCOD9077757
Probable space group: P -1
;
_chemical_formula_sum "Si O2"
_cell_formula_units_Z 16
_cell_length_a 7.625198
_cell_length_b 14.873453
_cell_length_c 10.673803
_cell_angle_alpha 42.620488
_cell_angle_beta 60.069035
_cell_angle_gamma 46.010076
_cell_volume 589.567395
_symmetry_space_group_name_H-M "P -1"
_symmetry_group_IT_number 2
_symmetry_cell_setting 'triclinic'
loop_
_space_group_symop_operation_xyz
x,y,z
-x,-y,-z
loop_
_atom_site_type_symbol
_atom_site_label
_atom_site_fract_x
_atom_site_fract_y
_atom_site_fract_z
Si Si1 0.117005 0.400857 0.247537
Si Si2 0.877677 0.884793 0.865278
Si Si3 0.519322 0.800082 0.208834
Si Si4 0.727183 0.007567 0.247348
Si Si5 0.924848 0.703338 0.361261
Si Si6 0.231925 0.080610 0.410292
Si Si7 0.405812 0.358630 0.883045
Si Si8 0.693358 0.439498 0.843738
O O1 0.035699 0.372542 0.439528
O O2 0.186859 0.249409 0.295379
O O3 0.318772 0.434672 0.183395
O O4 0.883566 0.556414 0.109854
O O5 0.894017 0.901209 0.694678
O O6 0.748622 0.051344 0.815302
O O7 0.670582 0.847236 0.015313
O O8 0.131602 0.734177 0.976791
O O9 0.680311 0.745459 0.332841
O O10 0.414372 0.815913 0.939832
O O11 0.898676 0.871255 0.225945
O O12 0.819104 0.988112 0.377872
O O13 0.517023 0.972208 0.383455
O O14 0.140243 0.588704 0.307985
O O15 0.450746 0.472019 0.834586
O O16 0.488010 0.329650 0.738111
#
# Coordination Sequence:
#
# PCOD9077757 Si02
#       8
#     2   2   2   2   2   2   2   2
#     4  11  24  41  62  91 131 168 206 252 302 381
#     4  10  18  37  63  93 116 157 208 253 310 362
#     4  10  18  34  64  91 122 151 200 266 306 355
#     4  10  20  37  64  95 120 158 216 259 305 371
#     4  10  20  40  65  94 123 159 210 264 311 361
#     4  10  20  38  67  90 121 170 206 251 315 365
#     4  12  23  40  64  93 128 165 206 261 309 366
#     4  11  24  38  65  93 127 167 207 251 319 370
#
# _framework density 27.138542000000001
#
# number of rings (size 3 to 8) (size 9 to 14) (size 15 to 20)
#    0.000    1.500    5.000    1.875    0.000    4.500 
#    0.000    3.125    0.000    0.000    0.000    0.000 
#    0.000    0.000    0.000    0.000    0.000    0.000 
#
# Total GULP energy -89522.347548 kJ/mol
# GULP energy per Si atom -5595.146722 kJ/mol
# Density = 2.707677 g / cm^3
# Si number density = 27.138542 Si / 1000 Ang^3
#
#
#
# Elastic Constant Matrix: (Units=GPa)
#
#
# Indices 1 2 3 4 5 6 
#
# 1 132.8332 24.7055 32.4478 11.2763 25.4493 29.8958
# 2 24.7055 127.7920 40.3558 14.7883 11.7827 34.2399
# 3 32.4478 40.3558 127.9468 1.7689 42.6603 7.4257
# 4 11.2763 14.7883 1.7689 38.5616 8.3971 2.1493
# 5 25.4493 11.7827 42.6603 8.3971 36.4405 10.2479
# 6 29.8958 34.2399 7.4257 2.1493 10.2479 36.6207
#
#
#
# Elastic Compliance Matrix: (Units=1/GPa)
#
#
# Indices 1 2 3 4 5 6 
#
# 1 0.010296 0.001249 -0.001501 -0.002312 -0.002970 -0.008303
# 2 0.001249 0.013187 -0.005952 -0.005921 0.007069 -0.013774
# 3 -0.001501 -0.005952 0.016001 0.005756 -0.019524 0.008672
# 4 -0.002312 -0.005921 0.005756 0.030909 -0.012570 0.007960
# 5 -0.002970 0.007069 -0.019524 -0.012570 0.057352 -0.015538
# 6 -0.008303 -0.013774 0.008672 0.007960 -0.015538 0.049086
#
#
# Mechanical properties :
#
#
# Convention : Reuss Voigt Hill
#
# Bulk Modulus (GPa) = 36.93279 64.84337 50.88808
# Shear Modulus (GPa) = 25.21883 41.72874 33.47379
#
# Velocity S-wave (km/s) = 3.05169 3.92550 3.51585
# Velocity P-wave (km/s) = 5.10447 6.67019 5.93915
#
# Compressibility (1/GPa) = 0.02707621
#
# Stress axis : x y z
#
# Youngs Moduli (GPa) = 97.12112 75.83136 62.49774
#
# Poissons Ratio (x) = -0.09475 0.09383
# Poissons Ratio (y) = -0.12135 0.37199
# Poissons Ratio (z) = 0.14581 0.45135
#
# Static dielectric constant tensor:
#      x y z
#    x 2.227300 0.056000 -0.096640 
#    y 0.056000 2.113940 -0.023490 
#    z -0.096640 -0.023490 2.145700 
# 
# From -- ./inp_files/366131.got.cif
#   From: 2010.05.17/outbox.cif.g08.bks.cpg/sg2_184_cif.got.tgz:366131.got - 2010.06.03 11:33:40.
