data_PCOD9077567
_publ_section_title
;
Structure prediction by ZEFSAII (Michael W. Deem and Ramdas Pophale) SiO2 
 PCOD9077567
Probable space group: P -1
;
_chemical_formula_sum "Si O2"
_cell_formula_units_Z 16
_cell_length_a 9.299202
_cell_length_b 19.985730
_cell_length_c 25.621725
_cell_angle_alpha 159.975054
_cell_angle_beta 148.839720
_cell_angle_gamma 40.786936
_cell_volume 813.700420
_symmetry_space_group_name_H-M "P -1"
_symmetry_group_IT_number 2
_symmetry_cell_setting 'triclinic'
loop_
_space_group_symop_operation_xyz
x,y,z
-x,-y,-z
loop_
_atom_site_type_symbol
_atom_site_label
_atom_site_fract_x
_atom_site_fract_y
_atom_site_fract_z
Si Si1 0.274363 0.334086 0.068840
Si Si2 0.736021 0.901017 0.217805
Si Si3 0.852227 0.972807 0.856290
Si Si4 0.195673 0.340321 0.297936
Si Si5 0.834621 0.621485 0.424429
Si Si6 0.663470 0.823488 0.420989
Si Si7 0.841625 0.526607 0.024992
Si Si8 0.811412 0.027226 0.142318
O O1 0.587017 0.487737 0.286049
O O2 0.287204 0.216074 0.931248
O O3 0.041582 0.463275 0.083852
O O4 0.197561 0.166824 0.966890
O O5 0.446863 0.966396 0.186582
O O6 0.796294 0.748852 0.169083
O O7 0.016986 0.088148 0.436843
O O8 0.822324 0.771281 0.733622
O O9 0.949575 0.948027 0.810084
O O10 0.103885 0.154808 0.093062
O O11 0.500000 0.500000 0.500000
O O12 0.960237 0.467439 0.316825
O O13 0.690498 0.747953 0.432799
O O14 0.092600 0.773723 0.646215
O O15 0.466043 0.636512 0.191185
O O16 0.500000 0.000000 0.500000
O O17 0.000000 0.500000 0.000000
O O18 0.500000 0.000000 0.000000
#
# Coordination Sequence:
#
# PCOD9077567 Si02
#       8
#     2   2   2   2   2   2   2   2
#     4  11  21  39  65  91 124 162 210 254 305 373
#     4  11  20  37  63  92 122 157 204 259 305 359
#     4  11  25  42  59  91 128 158 204 269 310 359
#     4  11  23  39  65  86 116 161 216 258 311 360
#     4  12  22  38  63  91 119 164 211 250 303 378
#     4  12  18  31  63  97 120 153 206 258 306 361
#     4  10  18  34  61 100 119 152 208 263 298 361
#     4  12  27  42  61  89 130 169 207 252 315 369
#
# _framework density 19.663254999999999
#
# number of rings (size 3 to 8) (size 9 to 14) (size 15 to 20)
#    0.000    0.750    7.500    2.250    1.750    3.000 
#    0.000    0.625    0.000    5.250    0.000    0.000 
#    0.000    0.000    0.000    0.000    0.000    0.000 
#
# Total GULP energy -89411.925567 kJ/mol
# GULP energy per Si atom -5588.245348 kJ/mol
# Density = 1.961850 g / cm^3
# Si number density = 19.663255 Si / 1000 Ang^3
#
#
#
# Elastic Constant Matrix: (Units=GPa)
#
#
# Indices 1 2 3 4 5 6 
#
# 1 46.3730 24.0037 5.3918 10.0580 15.1127 2.9444
# 2 24.0037 83.5784 4.4042 6.3092 7.2342 7.8963
# 3 5.3918 4.4042 113.5927 -2.2070 34.9320 7.8742
# 4 10.0580 6.3092 -2.2070 34.5278 -0.6320 10.3993
# 5 15.1127 7.2342 34.9320 -0.6320 27.1745 -2.8067
# 6 2.9444 7.8963 7.8742 10.3993 -2.8067 22.3673
#
#
#
# Elastic Compliance Matrix: (Units=1/GPa)
#
#
# Indices 1 2 3 4 5 6 
#
# 1 0.035472 -0.007134 0.007369 -0.007656 -0.027963 -0.004694
# 2 -0.007134 0.014457 0.000399 0.000902 -0.000872 -0.004834
# 3 0.007369 0.000399 0.018150 0.002046 -0.028733 -0.012057
# 4 -0.007656 0.000902 0.002046 0.036232 0.000494 -0.016814
# 5 -0.027963 -0.000872 -0.028733 0.000494 0.092157 0.025438
# 6 -0.004694 -0.004834 -0.012057 -0.016814 0.025438 0.062287
#
#
# Mechanical properties :
#
#
# Convention : Reuss Voigt Hill
#
# Bulk Modulus (GPa) = 14.42052 34.57151 24.49602
# Shear Modulus (GPa) = 17.81891 30.79688 24.30789
#
# Velocity S-wave (km/s) = 3.01359 3.96184 3.51979
# Velocity P-wave (km/s) = 4.41119 6.20872 5.38548
#
# Compressibility (1/GPa) = 0.06934562
#
# Stress axis : x y z
#
# Youngs Moduli (GPa) = 28.19126 69.17176 55.09791
#
# Poissons Ratio (x) = 0.49347 -0.40601
# Poissons Ratio (y) = 0.20112 -0.02198
# Poissons Ratio (z) = -0.20774 -0.02759
#
# Static dielectric constant tensor:
#      x y z
#    x 1.667140 0.005180 0.005080 
#    y 0.005180 1.691260 -0.006400 
#    z 0.005080 -0.006400 1.700270 
# 
# From -- ./inp_files/617557.got.cif
#   From: 2010.05.17/outbox.cif.g08.bks.cpg/sg2_309_cif.got.tgz:617557.got - 2010.06.03 11:33:40.
