data_PCOD9077833
_publ_section_title
;
Structure prediction by ZEFSAII (Michael W. Deem and Ramdas Pophale) SiO2 
 PCOD9077833
Probable space group: P -1
;
_chemical_formula_sum "Si O2"
_cell_formula_units_Z 16
_cell_length_a 22.009701
_cell_length_b 16.741638
_cell_length_c 11.255652
_cell_angle_alpha 147.747345
_cell_angle_beta 44.772028
_cell_angle_gamma 156.170574
_cell_volume 854.299433
_symmetry_space_group_name_H-M "P -1"
_symmetry_group_IT_number 2
_symmetry_cell_setting 'triclinic'
loop_
_space_group_symop_operation_xyz
x,y,z
-x,-y,-z
loop_
_atom_site_type_symbol
_atom_site_label
_atom_site_fract_x
_atom_site_fract_y
_atom_site_fract_z
Si Si1 0.549930 0.655867 0.744096
Si Si2 0.338213 0.791197 0.259271
Si Si3 0.816888 0.207265 0.358123
Si Si4 0.874025 0.630305 0.158539
Si Si5 0.226934 0.312579 0.818289
Si Si6 0.093368 0.289167 0.504727
Si Si7 0.187971 0.094702 0.148772
Si Si8 0.315042 0.840224 0.761277
O O1 0.500000 0.500000 0.500000
O O2 0.392334 0.473449 0.802810
O O3 0.661219 0.714247 0.740258
O O4 0.639145 0.942335 0.957698
O O5 0.287150 0.868498 0.490122
O O6 0.521836 0.016862 0.295794
O O7 0.263668 0.677876 0.087424
O O8 0.247552 0.512308 0.091536
O O9 0.754131 0.200167 0.317814
O O10 0.000000 0.500000 0.500000
O O11 0.802516 0.010657 0.103124
O O12 0.810882 0.699358 0.283227
O O13 0.902760 0.671643 0.309816
O O14 0.033139 0.834812 0.118442
O O15 0.082751 0.999876 0.661039
O O16 0.175717 0.247958 0.320745
O O17 0.184731 0.551564 0.641960
#
# Coordination Sequence:
#
# PCOD9077833 Si02
#       8
#     2   2   2   2   2   2   2   2
#     4  10  18  35  53  81 113 148 190 223 270 343
#     4   9  19  37  57  82 106 158 197 218 269 346
#     4  11  19  40  62  80 108 150 203 234 264 340
#     4   9  17  32  58  80 113 154 187 213 277 351
#     4   8  17  33  55  79 108 159 189 212 275 345
#     4  11  19  37  55  89 119 142 185 236 283 340
#     4  10  20  33  61  87 106 156 190 227 281 331
#     4  10  24  35  58  89 113 145 189 238 287 318
#
# _framework density 18.728795000000002
#
# number of rings (size 3 to 8) (size 9 to 14) (size 15 to 20)
#    0.750    1.500    1.250    3.375    0.000    0.500 
#    0.000   10.000    0.000    0.000    0.000    0.000 
#    0.000    0.000    0.000    0.000    0.000    0.000 
#
# Total GULP energy -89082.514200 kJ/mol
# GULP energy per Si atom -5567.657137 kJ/mol
# Density = 1.868617 g / cm^3
# Si number density = 18.728795 Si / 1000 Ang^3
#
#
#
# Elastic Constant Matrix: (Units=GPa)
#
#
# Indices 1 2 3 4 5 6 
#
# 1 27.9460 16.7413 12.5363 6.9467 0.1511 17.9108
# 2 16.7413 48.2077 20.8829 19.4015 -8.1977 12.0520
# 3 12.5363 20.8829 108.2776 0.8331 -0.5142 -5.0623
# 4 6.9467 19.4015 0.8331 34.0370 2.0475 -1.7875
# 5 0.1511 -8.1977 -0.5142 2.0475 23.1431 6.7322
# 6 17.9108 12.0520 -5.0623 -1.7875 6.7322 31.0809
#
#
#
# Elastic Compliance Matrix: (Units=1/GPa)
#
#
# Indices 1 2 3 4 5 6 
#
# 1 0.079048 0.002623 -0.011914 -0.021207 0.017599 -0.053542
# 2 0.002623 0.050578 -0.011127 -0.032514 0.029609 -0.031219
# 3 -0.011914 -0.011127 0.013385 0.009826 -0.009057 0.015888
# 4 -0.021207 -0.032514 0.009826 0.055440 -0.026340 0.035322
# 5 0.017599 0.029609 -0.009057 -0.026340 0.067099 -0.039147
# 6 -0.053542 -0.031219 0.015888 0.035322 -0.039147 0.088232
#
#
# Mechanical properties :
#
#
# Convention : Reuss Voigt Hill
#
# Bulk Modulus (GPa) = 9.78721 31.63915 20.71318
# Shear Modulus (GPa) = 11.66374 26.60359 19.13367
#
# Velocity S-wave (km/s) = 2.49824 3.77299 3.19974
# Velocity P-wave (km/s) = 3.68222 5.99255 4.97340
#
# Compressibility (1/GPa) = 0.10217418
#
# Stress axis : x y z
#
# Youngs Moduli (GPa) = 12.65048 19.77137 74.70945
#
# Poissons Ratio (x) = -0.05186 0.89013
# Poissons Ratio (y) = -0.03318 0.83131
# Poissons Ratio (z) = 0.15072 0.22000
#
# Static dielectric constant tensor:
#      x y z
#    x 1.642080 0.014080 -0.000330 
#    y 0.014080 1.659050 0.005260 
#    z -0.000330 0.005260 1.700380 
# 
# From -- ./inp_files/475454.got.cif
#   From: 2010.05.17/outbox.cif.g08.bks.cpg/sg2_238_cif.got.tgz:475454.got - 2010.06.03 11:33:40.
