data_PCOD9077169
_publ_section_title
;
Structure prediction by ZEFSAII (Michael W. Deem and Ramdas Pophale) SiO2 
 PCOD9077169
Probable space group: P -1
;
_chemical_formula_sum "Si O2"
_cell_formula_units_Z 14
_cell_length_a 11.172746
_cell_length_b 22.543423
_cell_length_c 13.038250
_cell_angle_alpha 25.278792
_cell_angle_beta 36.377776
_cell_angle_gamma 25.103883
_cell_volume 593.250003
_symmetry_space_group_name_H-M "P -1"
_symmetry_group_IT_number 2
_symmetry_cell_setting 'triclinic'
loop_
_space_group_symop_operation_xyz
x,y,z
-x,-y,-z
loop_
_atom_site_type_symbol
_atom_site_label
_atom_site_fract_x
_atom_site_fract_y
_atom_site_fract_z
Si Si1 0.959720 0.592466 0.741868
Si Si2 0.411508 0.701154 0.148619
Si Si3 0.058908 0.733488 0.023129
Si Si4 0.172731 0.549878 0.443470
Si Si5 0.276260 0.835337 0.400093
Si Si6 0.935992 0.895683 0.347412
Si Si7 0.300155 0.536078 0.963434
O O1 0.837943 0.783712 0.586249
O O2 0.971523 0.625873 0.560524
O O3 0.722497 0.574086 0.175551
O O4 0.808705 0.517374 0.963868
O O5 0.367139 0.587296 0.286738
O O6 0.204118 0.776060 0.271659
O O7 0.292762 0.889741 0.875380
O O8 0.020983 0.667448 0.258794
O O9 0.371732 0.652405 0.945811
O O10 0.110068 0.615028 0.073308
O O11 0.826454 0.964358 0.807076
O O12 0.405235 0.318913 0.623322
O O13 0.280358 0.707858 0.677961
O O14 0.053254 0.893690 0.376695
#
# Coordination Sequence:
#
# PCOD9077169 Si02
#       7
#     2   2   2   2   2   2   2
#     4  11  21  37  56  90 121 140 178 238 288 328
#     4  10  18  34  56  90 117 144 181 226 281 343
#     4  10  22  43  59  78 107 156 203 222 268 340
#     4  10  19  35  64  85 110 146 187 233 278 331
#     4  11  19  38  62  82 107 153 191 226 274 338
#     4  10  19  32  60  87 115 149 179 223 286 339
#     4  10  25  40  57  79 116 154 186 234 280 326
#
# _framework density 23.598818000000001
#
# number of rings (size 3 to 8) (size 9 to 14) (size 15 to 20)
#    0.000    1.714    4.286    1.286    0.000    2.286 
#    0.000    2.143    0.000    0.000    0.000    0.000 
#    0.000    0.000    0.000    0.000    0.000    0.000 
#
# Total GULP energy -78353.514999 kJ/mol
# GULP energy per Si atom -5596.679643 kJ/mol
# Density = 2.354511 g / cm^3
# Si number density = 23.598818 Si / 1000 Ang^3
#
#
#
# Elastic Constant Matrix: (Units=GPa)
#
#
# Indices 1 2 3 4 5 6 
#
# 1 56.0324 0.7765 6.8671 -1.2098 -6.0190 2.7743
# 2 0.7765 63.2528 18.4160 -11.8996 -1.8584 1.6818
# 3 6.8671 18.4160 65.1441 -18.2195 8.3920 -16.2497
# 4 -1.2098 -11.8996 -18.2195 49.9606 8.1293 6.6084
# 5 -6.0190 -1.8584 8.3920 8.1293 41.1533 5.2685
# 6 2.7743 1.6818 -16.2497 6.6084 5.2685 27.0369
#
#
#
# Elastic Compliance Matrix: (Units=1/GPa)
#
#
# Indices 1 2 3 4 5 6 
#
# 1 0.019148 0.001206 -0.004600 -0.000964 0.004685 -0.005482
# 2 0.001206 0.018414 -0.006585 0.002415 0.002685 -0.006340
# 3 -0.004600 -0.006585 0.024784 0.006779 -0.009405 0.015953
# 4 -0.000964 0.002415 0.006779 0.024122 -0.006091 -0.000686
# 5 0.004685 0.002685 -0.009405 -0.006091 0.029581 -0.010576
# 6 -0.005482 -0.006340 0.015953 -0.000686 -0.010576 0.049760
#
#
# Mechanical properties :
#
#
# Convention : Reuss Voigt Hill
#
# Bulk Modulus (GPa) = 23.59113 26.28316 24.93714
# Shear Modulus (GPa) = 25.01326 34.18815 29.60071
#
# Velocity S-wave (km/s) = 3.25920 3.81034 3.54549
# Velocity P-wave (km/s) = 4.91748 5.52448 5.22980
#
# Compressibility (1/GPa) = 0.04238881
#
# Stress axis : x y z
#
# Youngs Moduli (GPa) = 52.22544 54.30728 40.34904
#
# Poissons Ratio (x) = -0.06551 0.18561
# Poissons Ratio (y) = -0.06300 0.26568
# Poissons Ratio (z) = 0.24024 0.35759
#
# Static dielectric constant tensor:
#      x y z
#    x 1.856530 0.027420 -0.004950 
#    y 0.027420 1.927910 0.076990 
#    z -0.004950 0.076990 1.922370 
# 
# From -- ./inp_files/535587.got.cif
#   From: 2010.05.17/outbox.cif.g08.bks.cpg/sg2_268_cif.got.tgz:535587.got - 2010.06.03 11:33:40.
