data_PCOD9077573
_publ_section_title
;
Structure prediction by ZEFSAII (Michael W. Deem and Ramdas Pophale) SiO2 
 PCOD9077573
Probable space group: P -1
;
_chemical_formula_sum "Si O2"
_cell_formula_units_Z 14
_cell_length_a 24.829404
_cell_length_b 20.096039
_cell_length_c 8.759591
_cell_angle_alpha 138.643374
_cell_angle_beta 140.225142
_cell_angle_gamma 12.210857
_cell_volume 591.443539
_symmetry_space_group_name_H-M "P -1"
_symmetry_group_IT_number 2
_symmetry_cell_setting 'triclinic'
loop_
_space_group_symop_operation_xyz
x,y,z
-x,-y,-z
loop_
_atom_site_type_symbol
_atom_site_label
_atom_site_fract_x
_atom_site_fract_y
_atom_site_fract_z
Si Si1 0.244965 0.788434 0.835128
Si Si2 0.239763 0.611222 0.002441
Si Si3 0.072881 0.687617 0.138858
Si Si4 0.104427 0.664303 0.526263
Si Si5 0.210408 0.413941 0.720025
Si Si6 0.507118 0.338214 0.404464
Si Si7 0.800644 0.666070 0.744351
O O1 0.320139 0.624676 0.584632
O O2 0.500000 0.500000 0.000000
O O3 0.141602 0.001626 0.881289
O O4 0.002360 0.049318 0.874400
O O5 0.193984 0.545410 0.836792
O O6 0.259187 0.576608 0.803529
O O7 0.474799 0.384225 0.230018
O O8 0.371026 0.386883 0.231395
O O9 0.064630 0.713980 0.344970
O O10 0.064026 0.589794 0.866580
O O11 0.227955 0.414852 0.393461
O O12 0.806965 0.006326 0.533015
O O13 0.100332 0.463433 0.436982
O O14 0.515665 0.039837 0.760262
O O15 0.000000 0.500000 0.000000
#
# Coordination Sequence:
#
# PCOD9077573 Si02
#       7
#     2   2   2   2   2   2   2
#     4  10  18  37  62  81 112 157 188 229 284 334
#     4   9  18  36  56  83 114 146 188 231 280 329
#     4  10  22  39  57  86 117 147 190 235 280 333
#     4  11  22  37  58  87 116 145 191 238 276 335
#     4   8  18  35  54  78 114 144 179 234 272 331
#     4  10  20  39  59  79 116 155 185 230 283 335
#     4  10  18  34  61  82 106 152 188 221 287 336
#
# _framework density 23.670895999999999
#
# number of rings (size 3 to 8) (size 9 to 14) (size 15 to 20)
#    0.000    2.571    1.429    3.429    0.000    1.143 
#    2.571    2.143    0.000    0.000    0.000    0.000 
#    0.000    0.000    0.000    0.000    0.000    0.000 
#
# Total GULP energy -78039.549316 kJ/mol
# GULP energy per Si atom -5574.253523 kJ/mol
# Density = 2.361702 g / cm^3
# Si number density = 23.670896 Si / 1000 Ang^3
#
#
#
# Elastic Constant Matrix: (Units=GPa)
#
#
# Indices 1 2 3 4 5 6 
#
# 1 47.2937 14.5898 27.0777 6.7440 -20.0512 13.0293
# 2 14.5898 76.7082 41.1649 1.7231 -7.2201 19.1596
# 3 27.0777 41.1649 217.8229 6.1011 -45.5810 15.5443
# 4 6.7440 1.7231 6.1011 48.2419 5.7112 -0.5769
# 5 -20.0512 -7.2201 -45.5810 5.7112 33.0011 -4.2592
# 6 13.0293 19.1596 15.5443 -0.5769 -4.2592 25.1785
#
#
#
# Elastic Compliance Matrix: (Units=1/GPa)
#
#
# Indices 1 2 3 4 5 6 
#
# 1 0.035794 -0.001906 0.002177 -0.008212 0.023879 -0.014565
# 2 -0.001906 0.017402 -0.002847 0.000197 -0.002731 -0.010955
# 3 0.002177 -0.002847 0.007368 -0.002467 0.011085 -0.001690
# 4 -0.008212 0.000197 -0.002467 0.023641 -0.011910 0.004149
# 5 0.023879 -0.002731 0.011085 -0.011910 0.060664 -0.007133
# 6 -0.014565 -0.010955 -0.001690 0.004149 -0.007133 0.055521
#
#
# Mechanical properties :
#
#
# Convention : Reuss Voigt Hill
#
# Bulk Modulus (GPa) = 18.04717 56.38775 37.21746
# Shear Modulus (GPa) = 22.32023 38.55046 30.43535
#
# Velocity S-wave (km/s) = 3.07406 4.03997 3.58965
# Velocity P-wave (km/s) = 4.49895 6.75538 5.73915
#
# Compressibility (1/GPa) = 0.05541035
#
# Stress axis : x y z
#
# Youngs Moduli (GPa) = 27.93783 57.46609 135.73066
#
# Poissons Ratio (x) = 0.10955 -0.29548
# Poissons Ratio (y) = 0.05326 0.38641
# Poissons Ratio (z) = -0.06082 0.16360
#
# Static dielectric constant tensor:
#      x y z
#    x 2.036320 -0.026490 -0.053750 
#    y -0.026490 1.831240 0.006440 
#    z -0.053750 0.006440 2.035170 
# 
# From -- ./inp_files/213694.got.cif
#   From: 2010.05.17/outbox.cif.g08.bks.cpg/sg2_107_cif.got.tgz:213694.got - 2010.06.03 11:33:40.
