data_PCOD9077630
_publ_section_title
;
Structure prediction by ZEFSAII (Michael W. Deem and Ramdas Pophale) SiO2 
 PCOD9077630
Probable space group: P -1
;
_chemical_formula_sum "Si O2"
_cell_formula_units_Z 16
_cell_length_a 24.168781
_cell_length_b 5.331004
_cell_length_c 8.179538
_cell_angle_alpha 117.192271
_cell_angle_beta 127.835266
_cell_angle_gamma 58.892239
_cell_volume 697.185333
_symmetry_space_group_name_H-M "P -1"
_symmetry_group_IT_number 2
_symmetry_cell_setting 'triclinic'
loop_
_space_group_symop_operation_xyz
x,y,z
-x,-y,-z
loop_
_atom_site_type_symbol
_atom_site_label
_atom_site_fract_x
_atom_site_fract_y
_atom_site_fract_z
Si Si1 0.144049 0.706047 0.425093
Si Si2 0.441337 0.933328 0.258039
Si Si3 0.439788 0.303385 0.046091
Si Si4 0.009792 0.150328 0.888339
Si Si5 0.744869 0.181709 0.553092
Si Si6 0.719576 0.753859 0.870625
Si Si7 0.716626 0.655705 0.213213
Si Si8 0.164038 0.133183 0.074722
O O1 0.057507 0.865400 0.354575
O O2 0.182122 0.907249 0.455999
O O3 0.205350 0.532327 0.616706
O O4 0.140870 0.464459 0.209618
O O5 0.468530 0.582220 0.159934
O O6 0.500000 0.000000 0.500000
O O7 0.429943 0.185356 0.173942
O O8 0.360052 0.988955 0.204390
O O9 0.354119 0.413288 0.861395
O O10 0.500000 0.000000 0.000000
O O11 0.000000 0.500000 0.000000
O O12 0.093171 0.022893 0.925752
O O13 0.000000 0.000000 0.000000
O O14 0.716039 0.530661 0.649404
O O15 0.696557 0.007025 0.330050
O O16 0.772762 0.049812 0.740765
O O17 0.791520 0.855427 0.005488
O O18 0.726277 0.619984 0.025578
#
# Coordination Sequence:
#
# PCOD9077630 Si02
#       8
#     2   2   2   2   2   2   2   2
#     4   9  19  35  59  95 126 176 228 274 340 401
#     4  11  26  46  71 101 137 181 226 284 351 409
#     4  11  26  46  71 101 137 181 226 284 351 409
#     4  10  18  34  61  93 135 172 226 287 331 400
#     4  10  20  37  64  92 126 180 226 278 338 401
#     4  10  24  40  65  96 137 176 228 281 349 410
#     4  10  24  40  65  96 137 176 228 281 349 410
#     4   9  19  35  59  95 126 176 228 274 340 401
#
# _framework density 22.949421000000001
#
# number of rings (size 3 to 8) (size 9 to 14) (size 15 to 20)
#    0.000    2.000    1.250    0.750    8.750    3.000 
#    0.000    0.625    0.000    1.500    0.000    0.000 
#    0.000    0.000    0.000    0.000    0.000    0.000 
#
# Total GULP energy -89141.046599 kJ/mol
# GULP energy per Si atom -5571.315412 kJ/mol
# Density = 2.289719 g / cm^3
# Si number density = 22.949421 Si / 1000 Ang^3
#
#
#
# Elastic Constant Matrix: (Units=GPa)
#
#
# Indices 1 2 3 4 5 6 
#
# 1 94.5199 7.0637 44.3266 -17.5387 8.7788 -3.6462
# 2 7.0637 65.7855 24.2002 7.2202 3.9148 14.5492
# 3 44.3266 24.2002 94.8957 -0.5823 18.9382 -3.6300
# 4 -17.5387 7.2202 -0.5823 35.2360 -1.3127 0.5291
# 5 8.7788 3.9148 18.9382 -1.3127 26.0539 -4.1843
# 6 -3.6462 14.5492 -3.6300 0.5291 -4.1843 31.4404
#
#
#
# Elastic Compliance Matrix: (Units=1/GPa)
#
#
# Indices 1 2 3 4 5 6 
#
# 1 0.015331 -0.000075 -0.007179 0.007536 0.000594 0.000936
# 2 -0.000075 0.019811 -0.005232 -0.004070 -0.000933 -0.009836
# 3 -0.007179 -0.005232 0.017090 -0.002589 -0.008960 0.002413
# 4 0.007536 -0.004070 -0.002589 0.032963 0.001963 0.002165
# 5 0.000594 -0.000933 -0.008960 0.001963 0.045823 0.005531
# 6 0.000936 -0.009836 0.002413 0.002165 0.005531 0.037445
#
#
# Mechanical properties :
#
#
# Convention : Reuss Voigt Hill
#
# Bulk Modulus (GPa) = 36.68240 45.15358 40.91799
# Shear Modulus (GPa) = 24.68869 30.52010 27.60439
#
# Velocity S-wave (km/s) = 3.28348 3.65072 3.47196
# Velocity P-wave (km/s) = 5.51305 6.12277 5.82589
#
# Compressibility (1/GPa) = 0.02726103
#
# Stress axis : x y z
#
# Youngs Moduli (GPa) = 65.22628 50.47587 58.51338
#
# Poissons Ratio (x) = 0.00378 0.42005
# Poissons Ratio (y) = 0.00488 0.30616
# Poissons Ratio (z) = 0.46824 0.26411
#
# Static dielectric constant tensor:
#      x y z
#    x 1.986600 -0.043770 0.040040 
#    y -0.043770 2.117640 0.015490 
#    z 0.040040 0.015490 1.924160 
# 
# From -- ./inp_files/141396.got.cif
#   From: 2010.05.17/outbox.cif.g08.bks.cpg/sg2_71_cif.got.tgz:141396.got - 2010.06.03 11:33:40.
