data_PCOD9077682
_publ_section_title
;
Structure prediction by ZEFSAII (Michael W. Deem and Ramdas Pophale) SiO2 
 PCOD9077682
Probable space group: P -1
;
_chemical_formula_sum "Si O2"
_cell_formula_units_Z 13
_cell_length_a 11.853216
_cell_length_b 8.222476
_cell_length_c 7.410845
_cell_angle_alpha 55.062544
_cell_angle_beta 106.404205
_cell_angle_gamma 121.287334
_cell_volume 505.885890
_symmetry_space_group_name_H-M "P -1"
_symmetry_group_IT_number 2
_symmetry_cell_setting 'triclinic'
loop_
_space_group_symop_operation_xyz
x,y,z
-x,-y,-z
loop_
_atom_site_type_symbol
_atom_site_label
_atom_site_fract_x
_atom_site_fract_y
_atom_site_fract_z
Si Si1 0.797338 0.246490 0.736400
Si Si2 0.943818 0.425673 0.222494
Si Si3 0.000000 0.000000 0.500000
Si Si4 0.606654 0.905735 0.598476
Si Si5 0.326138 0.834811 0.869163
Si Si6 0.485566 0.586884 0.168037
Si Si7 0.279224 0.367568 0.543941
O O1 0.730935 0.051687 0.686927
O O2 0.763235 0.443847 0.534973
O O3 0.956599 0.364700 0.748110
O O4 0.733977 0.174403 0.953910
O O5 0.790476 0.361216 0.174669
O O6 0.959148 0.202679 0.401059
O O7 0.000000 0.500000 0.000000
O O8 0.851074 0.841287 0.452701
O O9 0.638166 0.946619 0.372344
O O10 0.500000 0.000000 0.500000
O O11 0.555330 0.651358 0.793357
O O12 0.449070 0.779542 0.966354
O O13 0.383864 0.494261 0.351553
O O14 0.636525 0.673185 0.237256
#
# Coordination Sequence:
#
# PCOD9077682 Si02
#       7
#     2   2   1   2   2   2   2
#     4   9  20  42  64  94 129 160 214 264 306 383
#     4   9  19  39  63  94 124 160 211 257 310 380
#     4  10  18  34  62  92 122 162 212 254 312 372
#     4  12  24  41  62  94 128 167 214 260 312 375
#     4  10  23  42  65  92 128 171 204 261 323 367
#     4  10  21  41  61  91 130 161 213 262 310 380
#     4   9  18  38  63  90 125 165 206 263 310 372
#
# _framework density 25.697493999999999
#
# number of rings (size 3 to 8) (size 9 to 14) (size 15 to 20)
#    0.000    2.154    1.538    1.846    0.000    1.846 
#    5.538    5.385    0.000    0.000    0.000    0.000 
#    0.000    0.000    0.000    0.000    0.000    0.000 
#
# Total GULP energy -72470.671104 kJ/mol
# GULP energy per Si atom -5574.667008 kJ/mol
# Density = 2.563901 g / cm^3
# Si number density = 25.697494 Si / 1000 Ang^3
#
#
#
# Elastic Constant Matrix: (Units=GPa)
#
#
# Indices 1 2 3 4 5 6 
#
# 1 57.5555 18.3249 27.1303 10.4461 12.6648 24.0696
# 2 18.3249 212.7196 55.6296 -0.1041 15.4745 41.3289
# 3 27.1303 55.6296 141.9707 -7.6125 -2.0258 9.2852
# 4 10.4461 -0.1041 -7.6125 32.4577 1.0301 6.9816
# 5 12.6648 15.4745 -2.0258 1.0301 44.1099 19.3008
# 6 24.0696 41.3289 9.2852 6.9816 19.3008 48.1860
#
#
#
# Elastic Compliance Matrix: (Units=1/GPa)
#
#
# Indices 1 2 3 4 5 6 
#
# 1 0.025946 0.001489 -0.005260 -0.007136 -0.003290 -0.010872
# 2 0.001489 0.006306 -0.002383 0.000196 -0.000303 -0.005600
# 3 -0.005260 -0.002383 0.009086 0.003401 0.001966 0.001640
# 4 -0.007136 0.000196 0.003401 0.034545 0.002813 -0.003391
# 5 -0.003290 -0.000303 0.001966 0.002813 0.028200 -0.010179
# 6 -0.010872 -0.005600 0.001640 -0.003391 -0.010179 0.035239
#
#
# Mechanical properties :
#
#
# Convention : Reuss Voigt Hill
#
# Bulk Modulus (GPa) = 34.44869 68.26840 51.35854
# Shear Modulus (GPa) = 30.99695 45.69477 38.34586
#
# Velocity S-wave (km/s) = 3.47684 4.22142 3.86709
# Velocity P-wave (km/s) = 5.43622 7.09820 6.32206
#
# Compressibility (1/GPa) = 0.02902868
#
# Stress axis : x y z
#
# Youngs Moduli (GPa) = 38.54216 158.57468 110.06214
#
# Poissons Ratio (x) = -0.23604 0.57892
# Poissons Ratio (y) = -0.05737 0.26228
# Poissons Ratio (z) = 0.20273 0.37788
#
# Static dielectric constant tensor:
#      x y z
#    x 2.052190 -0.053180 -0.076020 
#    y -0.053180 2.056300 0.064740 
#    z -0.076020 0.064740 2.105310 
# 
# From -- ./inp_files/294268.got.cif
#   From: 2010.05.17/outbox.cif.g08.bks.cpg/sg2_148_cif.got.tgz:294268.got - 2010.06.03 11:33:40.
