data_PCOD9077139
_publ_section_title
;
Structure prediction by ZEFSAII (Michael W. Deem and Ramdas Pophale) SiO2 
 PCOD9077139
Probable space group: P -1
;
_chemical_formula_sum "Si O2"
_cell_formula_units_Z 16
_cell_length_a 14.022134
_cell_length_b 12.719179
_cell_length_c 6.609717
_cell_angle_alpha 109.754850
_cell_angle_beta 55.665213
_cell_angle_gamma 138.740119
_cell_volume 633.902398
_symmetry_space_group_name_H-M "P -1"
_symmetry_group_IT_number 2
_symmetry_cell_setting 'triclinic'
loop_
_space_group_symop_operation_xyz
x,y,z
-x,-y,-z
loop_
_atom_site_type_symbol
_atom_site_label
_atom_site_fract_x
_atom_site_fract_y
_atom_site_fract_z
Si Si1 0.623804 0.252893 0.480710
Si Si2 0.857062 0.535322 0.057063
Si Si3 0.256049 0.160798 0.414223
Si Si4 0.225902 0.357099 0.141231
Si Si5 0.007133 0.179434 0.672180
Si Si6 0.441426 0.315506 0.914406
Si Si7 0.740471 0.266746 0.766701
Si Si8 0.586337 0.937179 0.723004
O O1 0.725620 0.403778 0.300851
O O2 0.472325 0.213098 0.740280
O O3 0.742162 0.293114 0.543521
O O4 0.528011 0.100144 0.349980
O O5 0.991679 0.704668 0.127987
O O6 0.799729 0.579114 0.974621
O O7 0.874063 0.430705 0.842353
O O8 0.140295 0.184872 0.617737
O O9 0.331371 0.125294 0.456087
O O10 0.405049 0.305621 0.189322
O O11 0.156403 0.009770 0.278270
O O12 0.071215 0.239682 0.402945
O O13 0.372436 0.506063 0.206827
O O14 0.299897 0.287341 0.951825
O O15 0.729010 0.126440 0.722070
O O16 0.555142 0.173433 0.007674
#
# Coordination Sequence:
#
# PCOD9077139 Si02
#       8
#     2   2   2   2   2   2   2   2
#     4  11  19  34  58  87 114 145 183 238 289 327
#     4  11  20  35  59  81 110 157 185 228 286 336
#     4  10  21  41  56  84 119 149 189 234 276 341
#     4  10  20  35  54  84 117 145 186 234 277 340
#     4  10  22  39  58  81 120 153 184 231 284 333
#     4  10  18  34  56  84 116 142 182 241 275 331
#     4  10  20  37  55  88 116 140 194 241 275 333
#     4  10  21  35  59  82 115 154 184 232 289 333
#
# _framework density 25.240482
#
# number of rings (size 3 to 8) (size 9 to 14) (size 15 to 20)
#    0.000    1.750    3.750    1.125    1.750    0.500 
#    2.250    2.500    0.000    3.000    0.000    0.000 
#    0.000    0.000    0.000    0.000    0.000    0.000 
#
# Total GULP energy -89209.961441 kJ/mol
# GULP energy per Si atom -5575.622590 kJ/mol
# Density = 2.518303 g / cm^3
# Si number density = 25.240482 Si / 1000 Ang^3
#
#
#
# Elastic Constant Matrix: (Units=GPa)
#
#
# Indices 1 2 3 4 5 6 
#
# 1 54.8756 5.1632 26.0155 -15.8870 13.6235 -10.7802
# 2 5.1632 89.1258 26.3697 19.5652 -2.1959 -7.3533
# 3 26.0155 26.3697 70.9387 9.0979 22.0971 -1.8091
# 4 -15.8870 19.5652 9.0979 36.1976 -7.1324 -0.9453
# 5 13.6235 -2.1959 22.0971 -7.1324 27.6309 -6.8002
# 6 -10.7802 -7.3533 -1.8091 -0.9453 -6.8002 31.9627
#
#
#
# Elastic Compliance Matrix: (Units=1/GPa)
#
#
# Indices 1 2 3 4 5 6 
#
# 1 0.032219 -0.000667 -0.014916 0.019279 0.003731 0.011233
# 2 -0.000667 0.014816 -0.006418 -0.005354 0.006238 0.003989
# 3 -0.014916 -0.006418 0.031642 -0.016285 -0.025266 -0.010574
# 4 0.019279 -0.005354 -0.016285 0.046768 0.017492 0.009453
# 5 0.003731 0.006238 -0.025266 0.017492 0.063322 0.015253
# 6 0.011233 0.003989 -0.010574 0.009453 0.015253 0.038919
#
#
# Mechanical properties :
#
#
# Convention : Reuss Voigt Hill
#
# Bulk Modulus (GPa) = 28.83875 36.67077 32.75476
# Shear Modulus (GPa) = 17.65252 29.65103 23.65178
#
# Velocity S-wave (km/s) = 2.64744 3.43117 3.06446
# Velocity P-wave (km/s) = 4.56022 5.50066 5.05237
#
# Compressibility (1/GPa) = 0.03467557
#
# Stress axis : x y z
#
# Youngs Moduli (GPa) = 31.03758 67.49583 31.60379
#
# Poissons Ratio (x) = 0.04500 0.47141
# Poissons Ratio (y) = 0.02069 0.20282
# Poissons Ratio (z) = 0.46296 0.43316
#
# Static dielectric constant tensor:
#      x y z
#    x 2.031100 -0.053170 0.004830 
#    y -0.053170 1.984480 0.041170 
#    z 0.004830 0.041170 1.985440 
# 
# From -- ./inp_files/97160.got.cif
#   From: 2010.05.17/outbox.cif.g08.bks.cpg/sg2_49_cif.got.tgz:97160.got - 2010.06.03 11:33:40.
