data_PCOD9077070
_publ_section_title
;
Structure prediction by ZEFSAII (Michael W. Deem and Ramdas Pophale) SiO2 
 PCOD9077070
Probable space group: P -1
;
_chemical_formula_sum "Si O2"
_cell_formula_units_Z 16
_cell_length_a 19.253419
_cell_length_b 11.109707
_cell_length_c 17.368989
_cell_angle_alpha 146.837589
_cell_angle_beta 148.765561
_cell_angle_gamma 55.460215
_cell_volume 897.160190
_symmetry_space_group_name_H-M "P -1"
_symmetry_group_IT_number 2
_symmetry_cell_setting 'triclinic'
loop_
_space_group_symop_operation_xyz
x,y,z
-x,-y,-z
loop_
_atom_site_type_symbol
_atom_site_label
_atom_site_fract_x
_atom_site_fract_y
_atom_site_fract_z
Si Si1 0.939841 0.776199 0.124417
Si Si2 0.459213 0.210762 0.101870
Si Si3 0.141794 0.944213 0.926814
Si Si4 0.788327 0.613163 0.649893
Si Si5 0.600839 0.035665 0.926737
Si Si6 0.112510 0.533283 0.483866
Si Si7 0.765647 0.261956 0.582546
Si Si8 0.134233 0.032848 0.699342
O O1 0.111704 0.830937 0.338874
O O2 0.944250 0.987675 0.184526
O O3 0.855537 0.781293 0.124062
O O4 0.832704 0.500901 0.833917
O O5 0.610455 0.488342 0.384781
O O6 0.420928 0.159632 0.129168
O O7 0.500000 0.000000 0.000000
O O8 0.301728 0.152676 0.880953
O O9 0.028890 0.656233 0.696430
O O10 0.302726 0.989526 0.065789
O O11 0.167083 0.138460 0.124415
O O12 0.882381 0.626345 0.669915
O O13 0.785256 0.400634 0.592255
O O14 0.419772 0.949089 0.693174
O O15 0.722328 0.315031 0.230556
O O16 0.095775 0.762662 0.555415
O O17 0.000000 0.000000 0.500000
#
# Coordination Sequence:
#
# PCOD9077070 Si02
#       8
#     2   2   2   2   2   2   2   2
#     4  10  20  36  53  86 109 146 178 229 274 333
#     4  10  18  34  55  84 111 134 183 232 275 310
#     4  11  22  36  58  80 112 152 188 213 271 335
#     4  10  20  34  60  83 107 149 181 230 271 321
#     4  10  20  34  58  80 109 146 180 231 269 317
#     4  11  21  38  55  83 114 144 186 228 264 330
#     4   9  21  35  57  82 117 135 182 231 286 310
#     4  11  22  33  59  82 107 141 183 231 281 318
#
# _framework density 17.834050000000001
#
# number of rings (size 3 to 8) (size 9 to 14) (size 15 to 20)
#    0.000    1.750    5.000    1.500    3.500    1.500 
#    0.000    0.625    2.750    0.750    0.000    0.000 
#    0.000    0.000    0.000    0.000    0.000    0.000 
#
# Total GULP energy -89137.598386 kJ/mol
# GULP energy per Si atom -5571.099899 kJ/mol
# Density = 1.779346 g / cm^3
# Si number density = 17.834050 Si / 1000 Ang^3
#
#
#
# Elastic Constant Matrix: (Units=GPa)
#
#
# Indices 1 2 3 4 5 6 
#
# 1 98.8179 17.7571 29.9670 -5.9691 0.4695 -19.4731
# 2 17.7571 63.2650 41.9765 -27.7583 9.4279 -10.7230
# 3 29.9670 41.9765 82.6717 -28.3951 8.8697 -2.7057
# 4 -5.9691 -27.7583 -28.3951 32.6183 -4.4721 6.8554
# 5 0.4695 9.4279 8.8697 -4.4721 35.9149 2.5035
# 6 -19.4731 -10.7230 -2.7057 6.8554 2.5035 20.0773
#
#
#
# Elastic Compliance Matrix: (Units=1/GPa)
#
#
# Indices 1 2 3 4 5 6 
#
# 1 0.015103 0.000637 -0.007529 -0.006749 -0.000484 0.016339
# 2 0.000637 0.031744 -0.010277 0.015093 -0.004734 0.011624
# 3 -0.007529 -0.010277 0.024477 0.014111 -0.000499 -0.014249
# 4 -0.006749 0.015093 0.014111 0.058177 0.001041 -0.016578
# 5 -0.000484 -0.004734 -0.000499 0.001041 0.029843 -0.007142
# 6 0.016339 0.011624 -0.014249 -0.016578 -0.007142 0.076494
#
#
# Mechanical properties :
#
#
# Convention : Reuss Voigt Hill
#
# Bulk Modulus (GPa) = 27.03728 47.12841 37.08285
# Shear Modulus (GPa) = 17.69883 28.05904 22.87894
#
# Velocity S-wave (km/s) = 3.15368 3.97084 3.58562
# Velocity P-wave (km/s) = 5.33426 6.89252 6.16284
#
# Compressibility (1/GPa) = 0.03698597
#
# Stress axis : x y z
#
# Youngs Moduli (GPa) = 66.21298 31.50194 40.85465
#
# Poissons Ratio (x) = -0.02007 0.30760
# Poissons Ratio (y) = -0.04218 0.41985
# Poissons Ratio (z) = 0.49853 0.32374
#
# Static dielectric constant tensor:
#      x y z
#    x 1.643920 -0.017850 -0.020470 
#    y -0.017850 1.611860 -0.018790 
#    z -0.020470 -0.018790 1.645480 
# 
# From -- ./inp_files/271088.got.cif
#   From: 2010.05.17/outbox.cif.g08.bks.cpg/sg2_136_cif.got.tgz:271088.got - 2010.06.03 11:33:40.
