data_PCOD9077917
_publ_section_title
;
Structure prediction by ZEFSAII (Michael W. Deem and Ramdas Pophale) SiO2 
 PCOD9077917
Probable space group: P -1
;
_chemical_formula_sum "Si O2"
_cell_formula_units_Z 16
_cell_length_a 8.596038
_cell_length_b 24.015549
_cell_length_c 6.823024
_cell_angle_alpha 146.441087
_cell_angle_beta 58.492929
_cell_angle_gamma 126.458678
_cell_volume 625.049684
_symmetry_space_group_name_H-M "P -1"
_symmetry_group_IT_number 2
_symmetry_cell_setting 'triclinic'
loop_
_space_group_symop_operation_xyz
x,y,z
-x,-y,-z
loop_
_atom_site_type_symbol
_atom_site_label
_atom_site_fract_x
_atom_site_fract_y
_atom_site_fract_z
Si Si1 0.619454 0.823383 0.825242
Si Si2 0.482312 0.414404 0.934015
Si Si3 0.163677 0.293110 0.067600
Si Si4 0.856982 0.347700 0.968715
Si Si5 0.450345 0.997621 0.760261
Si Si6 0.105128 0.583404 0.392898
Si Si7 0.456783 0.185262 0.716855
Si Si8 0.015167 0.839579 0.576408
O O1 0.607698 0.705485 0.437171
O O2 0.847751 0.884079 0.887537
O O3 0.507417 0.811904 0.064227
O O4 0.539615 0.878561 0.866121
O O5 0.327243 0.398696 0.167326
O O6 0.702374 0.423331 0.854738
O O7 0.500000 0.500000 0.000000
O O8 0.285416 0.231999 0.925721
O O9 0.040573 0.200379 0.726258
O O10 0.005693 0.340209 0.396732
O O11 0.842877 0.374059 0.289805
O O12 0.960587 0.463128 0.150844
O O13 0.655357 0.276820 0.794905
O O14 0.985319 0.270274 0.645291
O O15 0.572133 0.942256 0.651105
O O16 0.227509 0.923198 0.708136
O O17 0.500000 0.000000 0.500000
#
# Coordination Sequence:
#
# PCOD9077917 Si02
#       8
#     2   2   2   2   2   2   2   2
#     4  10  19  35  61  83 105 151 197 226 276 343
#     4  11  21  38  61  85 112 154 197 229 271 347
#     4  10  23  36  56  86 121 145 185 241 290 327
#     4   9  17  33  57  77 108 150 190 226 274 336
#     4   9  19  35  61  81 108 149 190 230 278 342
#     4  10  18  35  56  81 108 156 192 222 277 341
#     4  10  20  38  54  85 117 144 183 244 286 324
#     4   9  18  35  57  81 110 144 191 231 275 346
#
# _framework density 25.597964999999999
#
# number of rings (size 3 to 8) (size 9 to 14) (size 15 to 20)
#    0.000    2.250    1.250    3.375    1.750    0.500 
#    4.500    5.625    0.000    0.000    0.000    0.000 
#    0.000    0.000    0.000    0.000    0.000    0.000 
#
# Total GULP energy -89253.646255 kJ/mol
# GULP energy per Si atom -5578.352891 kJ/mol
# Density = 2.553970 g / cm^3
# Si number density = 25.597965 Si / 1000 Ang^3
#
#
#
# Elastic Constant Matrix: (Units=GPa)
#
#
# Indices 1 2 3 4 5 6 
#
# 1 134.5479 46.1941 34.5914 27.6161 -31.9553 -6.1527
# 2 46.1941 95.0838 26.7362 22.2026 -20.7163 -10.1503
# 3 34.5914 26.7362 89.9671 31.6233 -28.9210 0.0304
# 4 27.6161 22.2026 31.6233 41.7266 -8.3348 -13.2144
# 5 -31.9553 -20.7163 -28.9210 -8.3348 46.7909 11.6299
# 6 -6.1527 -10.1503 0.0304 -13.2144 11.6299 48.2923
#
#
#
# Elastic Compliance Matrix: (Units=1/GPa)
#
#
# Indices 1 2 3 4 5 6 
#
# 1 0.010759 -0.003063 0.000600 -0.005455 0.005937 -0.002196
# 2 -0.003063 0.013802 -0.000616 -0.004071 0.002729 0.000740
# 3 0.000600 -0.000616 0.020179 -0.015269 0.011641 -0.007047
# 4 -0.005455 -0.004071 -0.015269 0.043288 -0.010441 0.012818
# 5 0.005937 0.002729 0.011641 -0.010441 0.034411 -0.009821
# 6 -0.002196 0.000740 -0.007047 0.012818 -0.009821 0.026460
#
#
# Mechanical properties :
#
#
# Convention : Reuss Voigt Hill
#
# Bulk Modulus (GPa) = 25.91828 59.40468 42.66148
# Shear Modulus (GPa) = 29.77643 41.50046 35.63844
#
# Velocity S-wave (km/s) = 3.41432 4.03083 3.73532
# Velocity P-wave (km/s) = 5.06859 6.70229 5.94185
#
# Compressibility (1/GPa) = 0.03858280
#
# Stress axis : x y z
#
# Youngs Moduli (GPa) = 92.94754 72.45091 49.55583
#
# Poissons Ratio (x) = 0.22190 -0.02974
# Poissons Ratio (y) = 0.28468 0.03054
# Poissons Ratio (z) = -0.05579 0.04465
#
# Static dielectric constant tensor:
#      x y z
#    x 2.074530 -0.028650 0.033560 
#    y -0.028650 2.102630 -0.181530 
#    z 0.033560 -0.181530 2.588460 
# 
# From -- ./inp_files/196286.got.cif
#   From: 2010.05.17/outbox.cif.g08.bks.cpg/sg2_99_cif.got.tgz:196286.got - 2010.06.03 11:33:40.
