data_PCOD9077650
_publ_section_title
;
Structure prediction by ZEFSAII (Michael W. Deem and Ramdas Pophale) SiO2 
 PCOD9077650
Probable space group: P -1
;
_chemical_formula_sum "Si O2"
_cell_formula_units_Z 14
_cell_length_a 7.894293
_cell_length_b 16.339096
_cell_length_c 7.077050
_cell_angle_alpha 133.586774
_cell_angle_beta 121.984032
_cell_angle_gamma 72.509666
_cell_volume 557.710838
_symmetry_space_group_name_H-M "P -1"
_symmetry_group_IT_number 2
_symmetry_cell_setting 'triclinic'
loop_
_space_group_symop_operation_xyz
x,y,z
-x,-y,-z
loop_
_atom_site_type_symbol
_atom_site_label
_atom_site_fract_x
_atom_site_fract_y
_atom_site_fract_z
Si Si1 0.622094 0.139284 0.819258
Si Si2 0.447345 0.632662 0.779190
Si Si3 0.179297 0.341130 0.680960
Si Si4 0.216307 0.050138 0.609385
Si Si5 0.922338 0.101829 0.237133
Si Si6 0.069217 0.467820 0.282536
Si Si7 0.737200 0.730414 0.805821
O O1 0.380800 0.115267 0.657091
O O2 0.716557 0.073383 0.598734
O O3 0.680922 0.272784 0.053146
O O4 0.704656 0.103029 0.015446
O O5 0.299114 0.521574 0.485845
O O6 0.530820 0.684645 0.713870
O O7 0.630041 0.630612 0.027825
O O8 0.253359 0.310156 0.466700
O O9 0.033780 0.228245 0.471339
O O10 0.065600 0.454837 0.795632
O O11 0.991085 0.066085 0.428836
O O12 0.245146 0.134290 0.938827
O O13 0.000000 0.000000 0.000000
O O14 0.089987 0.332866 0.081500
O O15 0.000000 0.500000 0.500000
#
# Coordination Sequence:
#
# PCOD9077650 Si02
#       7
#     2   2   2   2   2   2   2
#     4   9  17  32  63  82 113 158 191 234 300 349
#     4  11  21  41  65  84 120 162 196 244 305 347
#     4  11  22  40  62  88 122 159 198 247 297 352
#     4   9  18  36  56  86 119 149 192 245 290 349
#     4  10  18  34  62  85 115 162 195 234 300 352
#     4  10  23  41  63  89 120 156 202 249 295 355
#     4  10  22  39  61  91 120 153 207 244 290 359
#
# _framework density 25.102613999999999
#
# number of rings (size 3 to 8) (size 9 to 14) (size 15 to 20)
#    0.000    2.000    4.286    0.429    0.000    2.857 
#    0.000   12.143    0.000    0.000    0.000    0.000 
#    0.000    0.000    0.000    0.000    0.000    0.000 
#
# Total GULP energy -78083.975787 kJ/mol
# GULP energy per Si atom -5577.426842 kJ/mol
# Density = 2.504548 g / cm^3
# Si number density = 25.102614 Si / 1000 Ang^3
#
#
#
# Elastic Constant Matrix: (Units=GPa)
#
#
# Indices 1 2 3 4 5 6 
#
# 1 97.8335 0.6027 43.0885 10.0350 -22.4111 -6.5767
# 2 0.6027 79.0668 29.9869 12.6017 -2.9590 -24.3968
# 3 43.0885 29.9869 124.2593 2.4155 -31.8243 -6.0404
# 4 10.0350 12.6017 2.4155 43.2050 -11.5059 -0.4711
# 5 -22.4111 -2.9590 -31.8243 -11.5059 55.8763 3.7264
# 6 -6.5767 -24.3968 -6.0404 -0.4711 3.7264 34.3036
#
#
#
# Elastic Compliance Matrix: (Units=1/GPa)
#
#
# Indices 1 2 3 4 5 6 
#
# 1 0.013320 0.003513 -0.004725 -0.003307 0.001892 0.003969
# 2 0.003513 0.020430 -0.006201 -0.007199 -0.003483 0.014391
# 3 -0.004725 -0.006201 0.012434 0.003735 0.005875 -0.003713
# 4 -0.003307 -0.007199 0.003735 0.027459 0.006435 -0.005418
# 5 0.001892 -0.003483 0.005875 0.006435 0.023378 -0.003531
# 6 0.003969 0.014391 -0.003713 -0.005418 -0.003531 0.039803
#
#
# Mechanical properties :
#
#
# Convention : Reuss Voigt Hill
#
# Bulk Modulus (GPa) = 31.88906 49.83509 40.86208
# Shear Modulus (GPa) = 30.84463 41.84242 36.34352
#
# Velocity S-wave (km/s) = 3.50914 4.08714 3.80912
# Velocity P-wave (km/s) = 5.39906 6.49374 5.97154
#
# Compressibility (1/GPa) = 0.03135872
#
# Stress axis : x y z
#
# Youngs Moduli (GPa) = 75.07365 48.94750 80.42343
#
# Poissons Ratio (x) = -0.17196 0.38001
# Poissons Ratio (y) = -0.26375 0.49871
# Poissons Ratio (z) = 0.35473 0.30353
#
# Static dielectric constant tensor:
#      x y z
#    x 2.030160 -0.001700 -0.011650 
#    y -0.001700 2.115000 0.015780 
#    z -0.011650 0.015780 1.966540 
# 
# From -- ./inp_files/216216.got.cif
#   From: 2010.05.17/outbox.cif.g08.bks.cpg/sg2_109_cif.got.tgz:216216.got - 2010.06.03 11:33:40.
