data_PCOD9077812
_publ_section_title
;
Structure prediction by ZEFSAII (Michael W. Deem and Ramdas Pophale) SiO2 
 PCOD9077812
Probable space group: P -1
;
_chemical_formula_sum "Si O2"
_cell_formula_units_Z 16
_cell_length_a 5.116868
_cell_length_b 13.584431
_cell_length_c 14.350254
_cell_angle_alpha 84.943575
_cell_angle_beta 108.359244
_cell_angle_gamma 123.172994
_cell_volume 787.953864
_symmetry_space_group_name_H-M "P -1"
_symmetry_group_IT_number 2
_symmetry_cell_setting 'triclinic'
loop_
_space_group_symop_operation_xyz
x,y,z
-x,-y,-z
loop_
_atom_site_type_symbol
_atom_site_label
_atom_site_fract_x
_atom_site_fract_y
_atom_site_fract_z
Si Si1 0.004348 0.182133 0.030938
Si Si2 0.784469 0.038436 0.849793
Si Si3 0.947368 0.720681 0.787963
Si Si4 0.120253 0.640069 0.109639
Si Si5 0.266784 0.611030 0.928792
Si Si6 0.803060 0.994590 0.568849
Si Si7 0.511606 0.809370 0.714187
Si Si8 0.350902 0.147838 0.763224
O O1 0.877355 0.174450 0.121965
O O2 0.400151 0.267956 0.072905
O O3 0.839219 0.062593 0.964221
O O4 0.935582 0.264954 0.952449
O O5 0.526049 0.073819 0.786422
O O6 0.146313 0.126223 0.837292
O O7 0.688788 0.915793 0.802283
O O8 0.613931 0.714987 0.735855
O O9 0.974641 0.621337 0.851609
O O10 0.137977 0.749657 0.709880
O O11 0.363879 0.713343 0.214792
O O12 0.798419 0.511868 0.105741
O O13 0.273497 0.610743 0.041711
O O14 0.640393 0.878424 0.625754
O O15 0.500000 0.000000 0.500000
O O16 0.000000 0.000000 0.500000
O O17 0.075717 0.099922 0.656783
#
# Coordination Sequence:
#
# PCOD9077812 Si02
#       8
#     2   2   2   2   2   2   2   2
#     4  10  19  33  51  76 118 149 201 220 257 300
#     4  10  20  33  53  74 114 151 180 223 260 315
#     4  11  22  35  51  76 115 151 192 215 254 325
#     4   9  19  31  57  78 114 153 183 238 265 291
#     4  10  18  35  50  83 111 156 197 221 253 302
#     4  11  22  39  64  85 105 130 174 230 289 350
#     4  11  22  38  53  78 109 144 178 221 283 327
#     4  10  19  36  54  86 110 137 177 226 285 327
#
# _framework density 20.305758000000001
#
# number of rings (size 3 to 8) (size 9 to 14) (size 15 to 20)
#    0.000    1.750    2.500    4.125    0.000    1.000 
#    0.000    0.000    0.000    0.000    0.000    5.250 
#    0.000    0.000    0.000    0.000    0.000    0.000 
#
# Total GULP energy -89147.314112 kJ/mol
# GULP energy per Si atom -5571.707132 kJ/mol
# Density = 2.025954 g / cm^3
# Si number density = 20.305758 Si / 1000 Ang^3
#
#
#
# Elastic Constant Matrix: (Units=GPa)
#
#
# Indices 1 2 3 4 5 6 
#
# 1 132.3923 16.2751 33.2022 -4.8418 3.0471 -0.4478
# 2 16.2751 54.6507 22.2859 6.9165 12.9533 -6.8592
# 3 33.2022 22.2859 78.8644 -5.8248 -3.7486 0.0251
# 4 -4.8418 6.9165 -5.8248 23.2741 9.5237 -2.0326
# 5 3.0471 12.9533 -3.7486 9.5237 38.2617 -8.4656
# 6 -0.4478 -6.8592 0.0251 -2.0326 -8.4656 23.6294
#
#
#
# Elastic Compliance Matrix: (Units=1/GPa)
#
#
# Indices 1 2 3 4 5 6 
#
# 1 0.008597 -0.001286 -0.003176 0.001789 -0.001105 -0.000449
# 2 -0.001286 0.024432 -0.007134 -0.006345 -0.006347 0.004256
# 3 -0.003176 -0.007134 0.016495 0.004272 0.003070 -0.000681
# 4 0.001789 -0.006345 0.004272 0.050443 -0.010397 -0.001198
# 5 -0.001105 -0.006347 0.003070 -0.010397 0.033289 0.009165
# 6 -0.000449 0.004256 -0.000681 -0.001198 0.009165 0.046728
#
#
# Mechanical properties :
#
#
# Convention : Reuss Voigt Hill
#
# Bulk Modulus (GPa) = 37.97826 45.49265 41.73545
# Shear Modulus (GPa) = 23.59003 29.97599 26.78301
#
# Velocity S-wave (km/s) = 3.41213 3.84634 3.63572
# Velocity P-wave (km/s) = 5.85383 6.49448 6.18246
#
# Compressibility (1/GPa) = 0.02633086
#
# Stress axis : x y z
#
# Youngs Moduli (GPa) = 116.31541 40.93051 60.62442
#
# Poissons Ratio (x) = 0.05263 0.19257
# Poissons Ratio (y) = 0.14955 0.43252
# Poissons Ratio (z) = 0.36947 0.29201
#
# Static dielectric constant tensor:
#      x y z
#    x 1.827620 0.005960 0.019330 
#    y 0.005960 1.775150 -0.014910 
#    z 0.019330 -0.014910 1.745870 
# 
# From -- ./inp_files/440620.got.cif
#   From: 2010.05.17/outbox.cif.g08.bks.cpg/sg2_221_cif.got.tgz:440620.got - 2010.06.03 11:33:40.
