data_PCOD9077639
_publ_section_title
;
Structure prediction by ZEFSAII (Michael W. Deem and Ramdas Pophale) SiO2 
 PCOD9077639
Probable space group: P -1
;
_chemical_formula_sum "Si O2"
_cell_formula_units_Z 13
_cell_length_a 9.532842
_cell_length_b 16.461878
_cell_length_c 14.181063
_cell_angle_alpha 147.418118
_cell_angle_beta 137.852666
_cell_angle_gamma 24.899912
_cell_volume 501.990795
_symmetry_space_group_name_H-M "P -1"
_symmetry_group_IT_number 2
_symmetry_cell_setting 'triclinic'
loop_
_space_group_symop_operation_xyz
x,y,z
-x,-y,-z
loop_
_atom_site_type_symbol
_atom_site_label
_atom_site_fract_x
_atom_site_fract_y
_atom_site_fract_z
Si Si1 0.250367 0.746016 0.556459
Si Si2 0.633606 0.074842 0.705848
Si Si3 0.353913 0.221143 0.468467
Si Si4 0.173835 0.597216 0.971931
Si Si5 0.000000 0.000000 0.000000
Si Si6 0.291759 0.246289 0.260394
Si Si7 0.623514 0.402076 0.734717
O O1 0.500000 0.500000 0.500000
O O2 0.421063 0.813438 0.698445
O O3 0.213557 0.703048 0.390096
O O4 0.908746 0.951332 0.642872
O O5 0.446469 0.049590 0.425945
O O6 0.290738 0.358038 0.797522
O O7 0.822061 0.036556 0.853526
O O8 0.386479 0.119315 0.283414
O O9 0.533080 0.281921 0.604387
O O10 0.981079 0.479651 0.567938
O O11 0.878756 0.766558 0.913473
O O12 0.500000 0.500000 0.000000
O O13 0.142702 0.664304 0.130384
O O14 0.707793 0.307761 0.156858
#
# Coordination Sequence:
#
# PCOD9077639 Si02
#       7
#     2   2   2   2   1   2   2
#     4  11  20  40  66  98 127 175 212 271 314 396
#     4  11  23  38  71  97 127 167 227 260 329 379
#     4  10  19  38  68  96 116 176 225 258 295 411
#     4  11  24  42  65  99 132 170 210 281 322 385
#     4  10  18  34  62 100 116 170 214 256 302 394
#     4  10  20  37  68  90 131 163 215 262 326 370
#     4  10  21  39  68  89 137 163 221 259 331 369
#
# _framework density 25.896888000000001
#
# number of rings (size 3 to 8) (size 9 to 14) (size 15 to 20)
#    0.000    1.538    4.615    1.846    2.154    0.615 
#    0.000    2.308    0.000   19.385    0.000    0.000 
#    0.000    0.000    0.000    0.000    0.000    0.000 
#
# Total GULP energy -72597.766334 kJ/mol
# GULP energy per Si atom -5584.443564 kJ/mol
# Density = 2.583795 g / cm^3
# Si number density = 25.896888 Si / 1000 Ang^3
#
#
#
# Elastic Constant Matrix: (Units=GPa)
#
#
# Indices 1 2 3 4 5 6 
#
# 1 162.3666 40.4922 64.7513 1.6406 -18.1752 5.0570
# 2 40.4922 76.2612 44.5985 1.6413 -9.5781 10.7844
# 3 64.7513 44.5985 186.2052 -24.9638 -28.5757 -14.7340
# 4 1.6406 1.6413 -24.9638 50.4215 14.5630 6.9791
# 5 -18.1752 -9.5781 -28.5757 14.5630 21.0196 -4.2334
# 6 5.0570 10.7844 -14.7340 6.9791 -4.2334 44.2807
#
#
#
# Elastic Compliance Matrix: (Units=1/GPa)
#
#
# Indices 1 2 3 4 5 6 
#
# 1 0.008108 -0.002579 -0.001736 -0.002562 0.005256 0.000031
# 2 -0.002579 0.017560 -0.003805 -0.001992 0.001005 -0.004838
# 3 -0.001736 -0.003805 0.008769 0.001373 0.008673 0.004655
# 4 -0.002562 -0.001992 0.001373 0.027549 -0.021382 -0.005152
# 5 0.005256 0.001005 0.008673 -0.021382 0.081847 0.013235
# 6 0.000031 -0.004838 0.004655 -0.005152 0.013235 0.027384
#
#
# Mechanical properties :
#
#
# Convention : Reuss Voigt Hill
#
# Bulk Modulus (GPa) = 54.95220 80.50187 67.72704
# Shear Modulus (GPa) = 25.83671 41.47712 33.65692
#
# Velocity S-wave (km/s) = 3.16203 4.00637 3.60898
# Velocity P-wave (km/s) = 5.88191 7.24944 6.60119
#
# Compressibility (1/GPa) = 0.01819763
#
# Stress axis : x y z
#
# Youngs Moduli (GPa) = 123.34008 56.94611 114.04085
#
# Poissons Ratio (x) = 0.14684 0.19799
# Poissons Ratio (y) = 0.31805 0.43391
# Poissons Ratio (z) = 0.21413 0.21667
#
# Static dielectric constant tensor:
#      x y z
#    x 2.050930 0.074560 0.051360 
#    y 0.074560 2.202390 0.134260 
#    z 0.051360 0.134260 2.270960 
# 
# From -- ./inp_files/523611.got.cif
#   From: 2010.05.17/outbox.cif.g08.bks.cpg/sg2_262_cif.got.tgz:523611.got - 2010.06.03 11:33:40.
