data_PCOD9077709
_publ_section_title
;
Structure prediction by ZEFSAII (Michael W. Deem and Ramdas Pophale) SiO2 
 PCOD9077709
Probable space group: P -1
;
_chemical_formula_sum "Si O2"
_cell_formula_units_Z 12
_cell_length_a 13.182847
_cell_length_b 9.292423
_cell_length_c 10.173841
_cell_angle_alpha 47.537318
_cell_angle_beta 147.097748
_cell_angle_gamma 137.335426
_cell_volume 453.131060
_symmetry_space_group_name_H-M "P -1"
_symmetry_group_IT_number 2
_symmetry_cell_setting 'triclinic'
loop_
_space_group_symop_operation_xyz
x,y,z
-x,-y,-z
loop_
_atom_site_type_symbol
_atom_site_label
_atom_site_fract_x
_atom_site_fract_y
_atom_site_fract_z
Si Si1 0.683597 0.538266 0.320747
Si Si2 0.034660 0.811677 0.358262
Si Si3 0.441754 0.834549 0.417065
Si Si4 0.185448 0.980349 0.849864
Si Si5 0.704792 0.205922 0.134723
Si Si6 0.261900 0.333396 0.090047
O O1 0.860327 0.592557 0.372030
O O2 0.716729 0.400153 0.559198
O O3 0.696584 0.772825 0.221497
O O4 0.436934 0.390015 0.127414
O O5 0.986110 0.001299 0.253923
O O6 0.961050 0.784339 0.145065
O O7 0.240214 0.813927 0.641662
O O8 0.500000 0.000000 0.500000
O O9 0.649274 0.797626 0.638782
O O10 0.330326 0.907373 0.139931
O O11 0.125928 0.830672 0.749783
O O12 0.711917 0.437560 0.969224
O O13 0.500000 0.000000 0.000000
#
# Coordination Sequence:
#
# PCOD9077709 Si02
#       6
#     2   2   2   2   2   2
#     4   8  19  35  60  88 111 146 196 234 285 337
#     4  10  20  37  62  85 115 156 198 232 285 345
#     4  10  18  34  63  88 114 147 197 235 286 345
#     4  10  20  37  63  85 114 155 192 233 291 345
#     4  12  22  37  59  87 121 157 190 240 293 342
#     4  10  20  36  59  90 117 148 189 244 288 337
#
# _framework density 26.482403000000001
#
# number of rings (size 3 to 8) (size 9 to 14) (size 15 to 20)
#    2.000    0.000    3.333    1.500    2.333    0.667 
#    0.000    0.833    3.667    2.000    0.000    0.000 
#    0.000    0.000    0.000    0.000    0.000    0.000 
#
# Total GULP energy -66961.878948 kJ/mol
# GULP energy per Si atom -5580.156579 kJ/mol
# Density = 2.642213 g / cm^3
# Si number density = 26.482403 Si / 1000 Ang^3
#
#
#
# Elastic Constant Matrix: (Units=GPa)
#
#
# Indices 1 2 3 4 5 6 
#
# 1 56.3652 24.6832 11.5234 -8.7636 4.8074 4.5173
# 2 24.6832 150.4610 83.9291 -34.7691 -2.0388 -23.3105
# 3 11.5234 83.9291 195.5151 -23.5879 -3.9868 0.7230
# 4 -8.7636 -34.7691 -23.5879 56.5024 6.1849 8.2340
# 5 4.8074 -2.0388 -3.9868 6.1849 35.4859 -1.1185
# 6 4.5173 -23.3105 0.7230 8.2340 -1.1185 41.1882
#
#
#
# Elastic Compliance Matrix: (Units=1/GPa)
#
#
# Indices 1 2 3 4 5 6 
#
# 1 0.020420 -0.004141 0.000772 0.002061 -0.003438 -0.005102
# 2 -0.004141 0.011565 -0.004288 0.003728 0.000294 0.006337
# 3 0.000772 -0.004288 0.007020 0.000795 0.000211 -0.002788
# 4 0.002061 0.003728 0.000795 0.021426 -0.003789 -0.002516
# 5 -0.003438 0.000294 0.000211 -0.003789 0.029413 0.002096
# 6 -0.005102 0.006337 -0.002788 -0.002516 0.002096 0.029034
#
#
# Mechanical properties :
#
#
# Convention : Reuss Voigt Hill
#
# Bulk Modulus (GPa) = 42.21208 71.40140 56.80674
# Shear Modulus (GPa) = 35.18920 45.44900 40.31910
#
# Velocity S-wave (km/s) = 3.64919 4.14719 3.90614
# Velocity P-wave (km/s) = 5.80773 7.06772 6.46848
#
# Compressibility (1/GPa) = 0.02368990
#
# Stress axis : x y z
#
# Youngs Moduli (GPa) = 48.97253 86.46877 142.44050
#
# Poissons Ratio (x) = 0.35807 -0.10989
# Poissons Ratio (y) = 0.20280 0.61079
# Poissons Ratio (z) = -0.03778 0.37078
#
# Static dielectric constant tensor:
#      x y z
#    x 2.321850 0.077110 0.049690 
#    y 0.077110 2.050540 -0.016810 
#    z 0.049690 -0.016810 2.139690 
# 
# From -- ./inp_files/502747.got.cif
#   From: 2010.05.17/outbox.cif.g08.bks.cpg/sg2_252_cif.got.tgz:502747.got - 2010.06.03 11:33:40.
