data_PCOD9077756
_publ_section_title
;
Structure prediction by ZEFSAII (Michael W. Deem and Ramdas Pophale) SiO2 
 PCOD9077756
Probable space group: P -1
;
_chemical_formula_sum "Si O2"
_cell_formula_units_Z 16
_cell_length_a 8.865049
_cell_length_b 21.418973
_cell_length_c 21.391475
_cell_angle_alpha 160.984488
_cell_angle_beta 143.926519
_cell_angle_gamma 34.380010
_cell_volume 738.620245
_symmetry_space_group_name_H-M "P -1"
_symmetry_group_IT_number 2
_symmetry_cell_setting 'triclinic'
loop_
_space_group_symop_operation_xyz
x,y,z
-x,-y,-z
loop_
_atom_site_type_symbol
_atom_site_label
_atom_site_fract_x
_atom_site_fract_y
_atom_site_fract_z
Si Si1 0.375399 0.237967 0.680012
Si Si2 0.914645 0.096521 0.199640
Si Si3 0.545334 0.204035 0.950095
Si Si4 0.827017 0.764388 0.925809
Si Si5 0.467318 0.955851 0.794207
Si Si6 0.797971 0.340565 0.520408
Si Si7 0.483521 0.576909 0.972764
Si Si8 0.926400 0.298578 0.268917
O O1 0.395492 0.332584 0.843776
O O2 0.070722 0.292436 0.606152
O O3 0.500000 0.000000 0.500000
O O4 0.527662 0.343444 0.782349
O O5 0.865400 0.224314 0.367235
O O6 0.827231 0.230235 0.235793
O O7 0.785595 0.918139 0.999552
O O8 0.231037 0.978450 0.183394
O O9 0.707899 0.306202 0.149173
O O10 0.419113 0.364925 0.005931
O O11 0.382365 0.090918 0.830495
O O12 0.716011 0.578008 0.702580
O O13 0.153784 0.677280 0.960007
O O14 0.689485 0.890575 0.059295
O O15 0.391662 0.753210 0.591415
O O16 0.793652 0.872690 0.819333
O O17 0.000000 0.500000 0.500000
#
# Coordination Sequence:
#
# PCOD9077756 Si02
#       8
#     2   2   2   2   2   2   2   2
#     4  10  18  34  64  91 117 146 196 244 290 350
#     4   9  19  38  59  84 115 157 196 239 285 341
#     4  10  21  42  59  81 124 157 199 250 287 347
#     4   9  19  37  62  83 126 154 197 242 296 337
#     4  10  21  40  60  88 122 160 194 245 300 342
#     4  10  21  37  64  94 121 154 196 245 295 354
#     4   9  20  37  62  90 113 156 196 239 295 348
#     4  11  25  39  63  84 118 161 210 240 291 352
#
# _framework density 21.662009999999999
#
# number of rings (size 3 to 8) (size 9 to 14) (size 15 to 20)
#    0.000    2.250    0.000    3.750    7.000    0.000 
#    0.000   18.750    0.000   12.000    0.000    0.000 
#    0.000    0.000    0.000    0.000    0.000    0.000 
#
# Total GULP energy -89371.935847 kJ/mol
# GULP energy per Si atom -5585.745990 kJ/mol
# Density = 2.161271 g / cm^3
# Si number density = 21.662010 Si / 1000 Ang^3
#
#
#
# Elastic Constant Matrix: (Units=GPa)
#
#
# Indices 1 2 3 4 5 6 
#
# 1 147.8627 40.5172 58.7994 15.0961 24.1013 44.3396
# 2 40.5172 65.3191 43.6564 -1.1999 7.0411 40.0095
# 3 58.7994 43.6564 144.3751 20.7867 24.3186 24.8890
# 4 15.0961 -1.1999 20.7867 39.8697 6.8778 8.3707
# 5 24.1013 7.0411 24.3186 6.8778 30.1829 11.5053
# 6 44.3396 40.0095 24.8890 8.3707 11.5053 46.5520
#
#
#
# Elastic Compliance Matrix: (Units=1/GPa)
#
#
# Indices 1 2 3 4 5 6 
#
# 1 0.010715 0.000481 -0.002424 -0.000426 -0.003415 -0.008402
# 2 0.000481 0.044186 -0.010499 0.012904 0.009077 -0.037384
# 3 -0.002424 -0.010499 0.011733 -0.006000 -0.006670 0.007786
# 4 -0.000426 0.012904 -0.006000 0.031520 -0.000009 -0.013143
# 5 -0.003415 0.009077 -0.006670 -0.000009 0.043598 -0.011757
# 6 -0.008402 -0.037384 0.007786 -0.013143 -0.011757 0.062720
#
#
# Mechanical properties :
#
#
# Convention : Reuss Voigt Hill
#
# Bulk Modulus (GPa) = 23.95279 71.50033 47.72656
# Shear Modulus (GPa) = 20.55298 37.62650 29.08974
#
# Velocity S-wave (km/s) = 3.08361 4.17223 3.66852
# Velocity P-wave (km/s) = 4.87439 7.50259 6.32648
#
# Compressibility (1/GPa) = 0.04174880
#
# Stress axis : x y z
#
# Youngs Moduli (GPa) = 93.32677 22.63185 85.22736
#
# Poissons Ratio (x) = -0.01088 0.20661
# Poissons Ratio (y) = -0.04485 0.89479
# Poissons Ratio (z) = 0.22625 0.23761
#
# Static dielectric constant tensor:
#      x y z
#    x 1.815550 -0.029020 0.031550 
#    y -0.029020 1.894530 0.023450 
#    z 0.031550 0.023450 1.829820 
# 
# From -- ./inp_files/349686.got.cif
#   From: 2010.05.17/outbox.cif.g08.bks.cpg/sg2_175_cif.got.tgz:349686.got - 2010.06.03 11:33:40.
