data_PCOD9077896
_publ_section_title
;
Structure prediction by ZEFSAII (Michael W. Deem and Ramdas Pophale) SiO2 
 PCOD9077896
Probable space group: P -1
;
_chemical_formula_sum "Si O2"
_cell_formula_units_Z 16
_cell_length_a 8.661962
_cell_length_b 17.940041
_cell_length_c 17.783104
_cell_angle_alpha 25.322805
_cell_angle_beta 130.667936
_cell_angle_gamma 143.370366
_cell_volume 675.138182
_symmetry_space_group_name_H-M "P -1"
_symmetry_group_IT_number 2
_symmetry_cell_setting 'triclinic'
loop_
_space_group_symop_operation_xyz
x,y,z
-x,-y,-z
loop_
_atom_site_type_symbol
_atom_site_label
_atom_site_fract_x
_atom_site_fract_y
_atom_site_fract_z
Si Si1 0.801933 0.850279 0.833714
Si Si2 0.205214 0.597976 0.863981
Si Si3 0.951154 0.716554 0.571760
Si Si4 0.329537 0.615971 0.357251
Si Si5 0.013293 0.244783 0.885685
Si Si6 0.615310 0.668969 0.639526
Si Si7 0.147767 0.189921 0.742132
Si Si8 0.101754 0.816784 0.761979
O O1 0.487721 0.659489 0.894387
O O2 0.925328 0.755286 0.004923
O O3 0.933638 0.026159 0.644961
O O4 0.858217 0.026597 0.757334
O O5 0.198295 0.723854 0.818671
O O6 0.167759 0.705277 0.684430
O O7 0.972058 0.324457 0.055736
O O8 0.828120 0.555831 0.606809
O O9 0.724136 0.610103 0.660258
O O10 0.253522 0.442461 0.559525
O O11 0.637316 0.766307 0.291792
O O12 0.212352 0.739600 0.216250
O O13 0.304325 0.459811 0.749737
O O14 0.891916 0.992045 0.048787
O O15 0.818615 0.733928 0.713672
O O16 0.684630 0.906706 0.422401
#
# Coordination Sequence:
#
# PCOD9077896 Si02
#       8
#     2   2   2   2   2   2   2   2
#     4   9  19  35  56  82 113 142 189 238 266 334
#     4  10  18  35  55  85 110 151 189 231 275 337
#     4  10  22  35  53  83 124 145 177 239 291 321
#     4  10  19  38  60  87 105 155 185 234 285 326
#     4  10  20  35  63  84 107 147 200 226 269 344
#     4  10  20  36  52  81 115 151 184 235 275 332
#     4   8  19  36  62  81 113 141 199 232 267 337
#     4   9  19  33  56  74 112 158 192 217 275 341
#
# _framework density 23.698851999999999
#
# number of rings (size 3 to 8) (size 9 to 14) (size 15 to 20)
#    0.750    1.750    1.250    0.750    3.500    1.000 
#    2.250    1.875    0.000    6.750    0.000    0.000 
#    0.000    0.000    0.000    0.000    0.000    0.000 
#
# Total GULP energy -89183.383807 kJ/mol
# GULP energy per Si atom -5573.961488 kJ/mol
# Density = 2.364491 g / cm^3
# Si number density = 23.698852 Si / 1000 Ang^3
#
#
#
# Elastic Constant Matrix: (Units=GPa)
#
#
# Indices 1 2 3 4 5 6 
#
# 1 31.4260 5.4399 30.5359 5.2652 0.5105 -1.2267
# 2 5.4399 57.5881 32.9895 13.5952 1.2120 22.1194
# 3 30.5359 32.9895 176.8421 2.2125 -0.6247 18.0027
# 4 5.2652 13.5952 2.2125 35.5579 8.5064 2.6795
# 5 0.5105 1.2120 -0.6247 8.5064 20.9953 -0.2003
# 6 -1.2267 22.1194 18.0027 2.6795 -0.2003 20.4711
#
#
#
# Elastic Compliance Matrix: (Units=1/GPa)
#
#
# Indices 1 2 3 4 5 6 
#
# 1 0.041539 -0.003417 -0.007870 -0.005737 0.001410 0.013867
# 2 -0.003417 0.034501 -0.002234 -0.010435 0.001927 -0.034135
# 3 -0.007870 -0.002234 0.007945 0.001998 -0.000303 -0.005309
# 4 -0.005737 -0.010435 0.001998 0.035775 -0.013652 0.004358
# 5 0.001410 0.001927 -0.000303 -0.013652 0.053012 0.000575
# 6 0.013867 -0.034135 -0.005309 0.004358 0.000575 0.090668
#
#
# Mechanical properties :
#
#
# Convention : Reuss Voigt Hill
#
# Bulk Modulus (GPa) = 17.56146 44.86520 31.21333
# Shear Modulus (GPa) = 16.15702 28.53092 22.34397
#
# Velocity S-wave (km/s) = 2.61389 3.47348 3.07388
# Velocity P-wave (km/s) = 4.06648 5.92109 5.07915
#
# Compressibility (1/GPa) = 0.05694286
#
# Stress axis : x y z
#
# Youngs Moduli (GPa) = 24.07365 28.98469 125.86763
#
# Poissons Ratio (x) = 0.09905 0.99060
# Poissons Ratio (y) = 0.08226 0.28115
# Poissons Ratio (z) = 0.18946 0.06474
#
# Static dielectric constant tensor:
#      x y z
#    x 1.929900 -0.030200 -0.016110 
#    y -0.030200 1.885550 0.026230 
#    z -0.016110 0.026230 1.995130 
# 
# From -- ./inp_files/606395.got.cif
#   From: 2010.05.17/outbox.cif.g08.bks.cpg/sg2_304_cif.got.tgz:606395.got - 2010.06.03 11:33:40.
