data_PCOD9077321
_publ_section_title
;
Structure prediction by ZEFSAII (Michael W. Deem and Ramdas Pophale) SiO2 
 PCOD9077321
Probable space group: P -1
;
_chemical_formula_sum "Si O2"
_cell_formula_units_Z 12
_cell_length_a 14.487760
_cell_length_b 9.625869
_cell_length_c 14.869248
_cell_angle_alpha 105.944061
_cell_angle_beta 160.056455
_cell_angle_gamma 85.294566
_cell_volume 573.619844
_symmetry_space_group_name_H-M "P -1"
_symmetry_group_IT_number 2
_symmetry_cell_setting 'triclinic'
loop_
_space_group_symop_operation_xyz
x,y,z
-x,-y,-z
loop_
_atom_site_type_symbol
_atom_site_label
_atom_site_fract_x
_atom_site_fract_y
_atom_site_fract_z
Si Si1 0.001475 0.540769 0.306577
Si Si2 0.828967 0.304182 0.694744
Si Si3 0.426491 0.889638 0.824248
Si Si4 0.289224 0.323820 0.539023
Si Si5 0.459631 0.617252 0.412963
Si Si6 0.915115 0.038178 0.630045
O O1 0.232306 0.641284 0.449009
O O2 0.125164 0.692924 0.518573
O O3 0.061912 0.394208 0.363698
O O4 0.640619 0.459961 0.926794
O O5 0.568544 0.251256 0.525127
O O6 0.916948 0.164872 0.729233
O O7 0.127931 0.482475 0.036003
O O8 0.331897 0.973905 0.673223
O O9 0.500000 0.000000 0.000000
O O10 0.739914 0.886481 0.085868
O O11 0.300602 0.309172 0.438056
O O12 0.182249 0.142560 0.450601
O O13 0.500000 0.500000 0.500000
#
# Coordination Sequence:
#
# PCOD9077321 Si02
#       6
#     2   2   2   2   2   2
#     4  10  20  39  62  84 117 165 201 234 299 364
#     4   9  20  34  57  84 118 164 206 238 280 355
#     4  11  23  44  68  88 113 157 206 246 297 377
#     4  11  22  38  59  91 128 158 193 249 301 342
#     4  10  18  34  58  85 118 165 212 231 275 359
#     4  11  24  40  61  93 125 151 195 258 310 341
#
# _framework density 20.919778000000001
#
# number of rings (size 3 to 8) (size 9 to 14) (size 15 to 20)
#    0.000    1.667    1.667    4.500    2.333    0.667 
#    0.000    5.833    0.000    0.000    0.000    0.000 
#    0.000    0.000    0.000    0.000    0.000    0.000 
#
# Total GULP energy -66950.530164 kJ/mol
# GULP energy per Si atom -5579.210847 kJ/mol
# Density = 2.087216 g / cm^3
# Si number density = 20.919778 Si / 1000 Ang^3
#
#
#
# Elastic Constant Matrix: (Units=GPa)
#
#
# Indices 1 2 3 4 5 6 
#
# 1 38.0197 20.1484 21.2151 3.3164 -17.5551 -24.7802
# 2 20.1484 122.9155 4.9719 -4.8815 -9.2246 -10.3543
# 3 21.2151 4.9719 49.0126 -8.8400 -11.6700 -17.4524
# 4 3.3164 -4.8815 -8.8400 35.2403 -1.6204 -1.6008
# 5 -17.5551 -9.2246 -11.6700 -1.6204 22.5007 5.8880
# 6 -24.7802 -10.3543 -17.4524 -1.6008 5.8880 32.4355
#
#
#
# Elastic Compliance Matrix: (Units=1/GPa)
#
#
# Indices 1 2 3 4 5 6 
#
# 1 0.098219 -0.007206 -0.010213 -0.007773 0.052834 0.057267
# 2 -0.007206 0.009202 0.002110 0.002413 -0.000250 -0.001268
# 3 -0.010213 0.002110 0.031336 0.009863 0.007544 0.008849
# 4 -0.007773 0.002413 0.009863 0.032070 0.001994 0.001360
# 5 0.052834 -0.000250 0.007544 0.001994 0.081878 0.029578
# 6 0.057267 -0.001268 0.008849 0.001360 0.029578 0.073635
#
#
# Mechanical properties :
#
#
# Convention : Reuss Voigt Hill
#
# Bulk Modulus (GPa) = 9.24758 33.62427 21.43593
# Shear Modulus (GPa) = 12.72251 28.94278 20.83264
#
# Velocity S-wave (km/s) = 2.46876 3.72360 3.15911
# Velocity P-wave (km/s) = 3.54351 5.88173 4.85547
#
# Compressibility (1/GPa) = 0.10813640
#
# Stress axis : x y z
#
# Youngs Moduli (GPa) = 10.18137 108.67397 31.91256
#
# Poissons Ratio (x) = 0.78316 0.32593
# Poissons Ratio (y) = 0.07337 -0.06733
# Poissons Ratio (z) = 0.10399 -0.22929
#
# Static dielectric constant tensor:
#      x y z
#    x 1.844570 -0.021820 -0.024520 
#    y -0.021820 1.753280 -0.010940 
#    z -0.024520 -0.010940 1.843820 
# 
# From -- ./inp_files/28410.got.cif
#   From: 2010.05.17/outbox.cif.g08.bks.cpg/sg2_15_cif.got.tgz:28410.got - 2010.06.03 11:33:40.
