data_PCOD9077821
_publ_section_title
;
Structure prediction by ZEFSAII (Michael W. Deem and Ramdas Pophale) SiO2 
 PCOD9077821
Probable space group: P -1
;
_chemical_formula_sum "Si O2"
_cell_formula_units_Z 16
_cell_length_a 9.763679
_cell_length_b 9.073939
_cell_length_c 11.445728
_cell_angle_alpha 73.530353
_cell_angle_beta 126.318610
_cell_angle_gamma 89.200038
_cell_volume 761.505813
_symmetry_space_group_name_H-M "P -1"
_symmetry_group_IT_number 2
_symmetry_cell_setting 'triclinic'
loop_
_space_group_symop_operation_xyz
x,y,z
-x,-y,-z
loop_
_atom_site_type_symbol
_atom_site_label
_atom_site_fract_x
_atom_site_fract_y
_atom_site_fract_z
Si Si1 0.123416 0.009430 0.398137
Si Si2 0.734253 0.050038 0.139435
Si Si3 0.347134 0.574524 0.992672
Si Si4 0.438028 0.947413 0.722545
Si Si5 0.382975 0.821119 0.380844
Si Si6 0.385328 0.361629 0.259512
Si Si7 0.853391 0.136838 0.951610
Si Si8 0.979571 0.661736 0.826086
O O1 0.088264 0.199436 0.333536
O O2 0.933916 0.972905 0.297590
O O3 0.244306 0.936859 0.583031
O O4 0.243203 0.943333 0.361845
O O5 0.597117 0.005566 0.169844
O O6 0.689767 0.239730 0.089818
O O7 0.748736 0.044415 0.007306
O O8 0.411784 0.512335 0.167777
O O9 0.500000 0.500000 0.000000
O O10 0.152690 0.540010 0.892672
O O11 0.567080 0.783833 0.779214
O O12 0.493184 0.081827 0.642608
O O13 0.490617 0.694171 0.553917
O O14 0.270806 0.769921 0.232375
O O15 0.186418 0.392072 0.197122
O O16 0.945329 0.247451 0.051017
O O17 0.000000 0.000000 0.000000
#
# Coordination Sequence:
#
# PCOD9077821 Si02
#       8
#     2   2   2   2   2   2   2   2
#     4   9  16  31  49  77 105 131 168 212 268 305
#     4  10  21  32  52  77 107 142 171 215 262 312
#     4  10  20  35  52  79 106 136 181 223 259 300
#     4  11  18  30  52  80 113 126 171 225 268 302
#     4  11  19  32  55  79 109 138 169 217 264 318
#     4  11  19  34  54  82 103 137 178 222 261 305
#     4  10  18  35  52  77 111 141 174 203 265 328
#     4  10  19  34  55  77 104 138 179 215 256 313
#
# _framework density 21.011002000000001
#
# number of rings (size 3 to 8) (size 9 to 14) (size 15 to 20)
#    0.000    2.000    6.250    1.500    0.000    0.500 
#    0.000    2.500    0.000    0.000    0.000    4.375 
#    0.000    0.000    0.000    0.000    0.000    0.000 
#
# Total GULP energy -89138.134256 kJ/mol
# GULP energy per Si atom -5571.133391 kJ/mol
# Density = 2.096318 g / cm^3
# Si number density = 21.011002 Si / 1000 Ang^3
#
#
#
# Elastic Constant Matrix: (Units=GPa)
#
#
# Indices 1 2 3 4 5 6 
#
# 1 169.8956 18.7599 59.5103 -4.0232 5.6397 -32.4968
# 2 18.7599 19.5038 19.1333 -5.8760 7.5583 -14.8113
# 3 59.5103 19.1333 105.8059 -7.4857 7.7147 -11.7280
# 4 -4.0232 -5.8760 -7.4857 25.7511 -7.1881 0.5372
# 5 5.6397 7.5583 7.7147 -7.1881 36.4069 -1.0624
# 6 -32.4968 -14.8113 -11.7280 0.5372 -1.0624 34.4143
#
#
#
# Elastic Compliance Matrix: (Units=1/GPa)
#
#
# Indices 1 2 3 4 5 6 
#
# 1 0.008645 0.001881 -0.004318 0.000214 -0.000554 0.007481
# 2 0.001881 0.104196 -0.013141 0.015219 -0.014924 0.041443
# 3 -0.004318 -0.013141 0.013701 0.000542 0.000453 -0.005058
# 4 0.000214 0.015219 0.000542 0.043912 0.005550 0.006423
# 5 -0.000554 -0.014924 0.000453 0.005550 0.031479 -0.005907
# 6 0.007481 0.041443 -0.005058 0.006423 -0.005907 0.051952
#
#
# Mechanical properties :
#
#
# Convention : Reuss Voigt Hill
#
# Bulk Modulus (GPa) = 10.48384 54.44581 32.46482
# Shear Modulus (GPa) = 15.78103 32.50124 24.14113
#
# Velocity S-wave (km/s) = 2.74356 3.93729 3.39333
# Velocity P-wave (km/s) = 3.87772 6.82927 5.55318
#
# Compressibility (1/GPa) = 0.09538492
#
# Stress axis : x y z
#
# Youngs Moduli (GPa) = 115.67278 9.59731 72.98877
#
# Poissons Ratio (x) = -0.01805 0.31515
# Poissons Ratio (y) = -0.21753 0.95916
# Poissons Ratio (z) = 0.49944 0.12612
#
# Static dielectric constant tensor:
#      x y z
#    x 1.823030 -0.007010 0.000920 
#    y -0.007010 1.788250 0.034140 
#    z 0.000920 0.034140 1.842780 
# 
# From -- ./inp_files/389809.got.cif
#   From: 2010.05.17/outbox.cif.g08.bks.cpg/sg2_195_cif.got.tgz:389809.got - 2010.06.03 11:33:40.
