data_PCOD9077117
_publ_section_title
;
Structure prediction by ZEFSAII (Michael W. Deem and Ramdas Pophale) SiO2 
 PCOD9077117
Probable space group: P -1
;
_chemical_formula_sum "Si O2"
_cell_formula_units_Z 12
_cell_length_a 6.687734
_cell_length_b 4.891908
_cell_length_c 16.152943
_cell_angle_alpha 92.169656
_cell_angle_beta 112.375057
_cell_angle_gamma 109.199597
_cell_volume 453.374406
_symmetry_space_group_name_H-M "P -1"
_symmetry_group_IT_number 2
_symmetry_cell_setting 'triclinic'
loop_
_space_group_symop_operation_xyz
x,y,z
-x,-y,-z
loop_
_atom_site_type_symbol
_atom_site_label
_atom_site_fract_x
_atom_site_fract_y
_atom_site_fract_z
Si Si1 0.001559 0.973225 0.872970
Si Si2 0.000000 0.500000 0.000000
Si Si3 0.270517 0.465624 0.700351
Si Si4 0.600746 0.510194 0.899896
Si Si5 0.500000 0.000000 0.000000
Si Si6 0.048344 0.170243 0.318435
Si Si7 0.828719 0.670157 0.488823
O O1 0.271105 0.036759 0.907397
O O2 0.882423 0.717312 0.921781
O O3 0.882476 0.833798 0.766409
O O4 0.980536 0.266951 0.908645
O O5 0.298870 0.696781 0.032990
O O6 0.460292 0.439365 0.793446
O O7 0.172372 0.723859 0.705291
O O8 0.344873 0.447477 0.616973
O O9 0.044960 0.173948 0.678463
O O10 0.515309 0.730130 0.935630
O O11 0.225273 0.336340 0.422223
O O12 0.000000 0.500000 0.500000
O O13 0.000000 0.000000 0.500000
#
# Coordination Sequence:
#
# PCOD9077117 Si02
#       7
#     2   1   2   2   1   2   2
#     4   9  17  31  56  80 112 144 190 229 277 332
#     4   6  16  30  50  72 116 132 182 230 266 322
#     4  10  19  34  58  82 112 148 186 229 281 335
#     4   9  17  31  56  80 112 144 190 229 277 332
#     4  10  14  32  58  74 116 150 186 228 288 322
#     4  10  19  34  58  82 112 148 186 229 281 335
#     4   8  16  30  51  82 109 141 183 226 275 333
#
# _framework density 26.468187
#
# number of rings (size 3 to 8) (size 9 to 14) (size 15 to 20)
#    1.000    2.000    1.667    0.000    0.000    0.000 
#    0.000    5.833    0.000    4.000    0.000   14.000 
#    0.000    0.000    0.000    0.000    0.000    0.000 
#
# Total GULP energy -66867.638895 kJ/mol
# GULP energy per Si atom -5572.303241 kJ/mol
# Density = 2.640794 g / cm^3
# Si number density = 26.468187 Si / 1000 Ang^3
#
#
#
# Elastic Constant Matrix: (Units=GPa)
#
#
# Indices 1 2 3 4 5 6 
#
# 1 142.5743 24.0933 55.6157 3.9748 -27.2951 -23.7285
# 2 24.0933 144.6968 20.3928 6.9420 -19.6178 -38.3353
# 3 55.6157 20.3928 311.0250 0.1332 -46.5933 -15.6476
# 4 3.9748 6.9420 0.1332 35.7040 -3.6425 -8.8662
# 5 -27.2951 -19.6178 -46.5933 -3.6425 51.5723 -6.2447
# 6 -23.7285 -38.3353 -15.6476 -8.8662 -6.2447 48.8555
#
#
#
# Elastic Compliance Matrix: (Units=1/GPa)
#
#
# Indices 1 2 3 4 5 6 
#
# 1 0.009037 0.000735 -0.000596 0.000777 0.005255 0.005587
# 2 0.000735 0.009898 0.000556 0.000873 0.005833 0.009206
# 3 -0.000596 0.000556 0.003953 0.000837 0.003775 0.002048
# 4 0.000777 0.000873 0.000837 0.030036 0.004512 0.007358
# 5 0.005255 0.005833 0.003775 0.004512 0.029688 0.012952
# 6 0.005587 0.009206 0.002048 0.007358 0.012952 0.034052
#
#
# Mechanical properties :
#
#
# Convention : Reuss Voigt Hill
#
# Bulk Modulus (GPa) = 41.18946 88.72218 64.95582
# Shear Modulus (GPa) = 40.52948 60.43932 50.48440
#
# Velocity S-wave (km/s) = 3.91737 4.78375 4.37207
# Velocity P-wave (km/s) = 6.00472 8.00659 7.07680
#
# Compressibility (1/GPa) = 0.02427806
#
# Stress axis : x y z
#
# Youngs Moduli (GPa) = 110.66226 101.02915 252.94387
#
# Poissons Ratio (x) = -0.07424 0.15076
# Poissons Ratio (y) = -0.08132 -0.14068
# Poissons Ratio (z) = 0.06596 -0.05619
#
# Static dielectric constant tensor:
#      x y z
#    x 2.214890 0.282330 -0.025470 
#    y 0.282330 2.152670 -0.053840 
#    z -0.025470 -0.053840 2.189390 
# 
# From -- ./inp_files/3525.got.cif
#   From: 2010.05.17/outbox.cif.g08.bks.cpg/sg2_2_cif.got.tgz:3525.got - 2010.06.03 11:33:40.
