data_PCOD9077301
_publ_section_title
;
Structure prediction by ZEFSAII (Michael W. Deem and Ramdas Pophale) SiO2 
 PCOD9077301
Probable space group: P -1
;
_chemical_formula_sum "Si O2"
_cell_formula_units_Z 15
_cell_length_a 14.181495
_cell_length_b 12.375812
_cell_length_c 6.956111
_cell_angle_alpha 60.271138
_cell_angle_beta 62.405077
_cell_angle_gamma 29.840514
_cell_volume 525.976888
_symmetry_space_group_name_H-M "P -1"
_symmetry_group_IT_number 2
_symmetry_cell_setting 'triclinic'
loop_
_space_group_symop_operation_xyz
x,y,z
-x,-y,-z
loop_
_atom_site_type_symbol
_atom_site_label
_atom_site_fract_x
_atom_site_fract_y
_atom_site_fract_z
Si Si1 0.000000 0.000000 0.000000
Si Si2 0.781362 0.129085 0.483119
Si Si3 0.946164 0.719496 0.676967
Si Si4 0.386102 0.550159 0.341040
Si Si5 0.420689 0.393446 0.070461
Si Si6 0.316267 0.239813 0.209305
Si Si7 0.263949 0.252034 0.708208
Si Si8 0.837235 0.898429 0.188183
O O1 0.875046 0.080041 0.239430
O O2 0.931512 0.936621 0.014700
O O3 0.559504 0.309263 0.486584
O O4 0.767957 0.255352 0.534349
O O5 0.875164 0.914119 0.667771
O O6 0.818269 0.720461 0.818616
O O7 0.911527 0.785213 0.425779
O O8 0.162903 0.467536 0.708253
O O9 0.306729 0.563952 0.209430
O O10 0.493336 0.572329 0.151009
O O11 0.315327 0.390121 0.052990
O O12 0.608871 0.142765 0.196286
O O13 0.275110 0.267486 0.453780
O O14 0.526905 0.980450 0.213007
O O15 0.141194 0.243592 0.840673
#
# Coordination Sequence:
#
# PCOD9077301 Si02
#       8
#     1   2   2   2   2   2   2   2
#     4  10  18  34  58  82 112 156 190 254 298 360
#     4  10  22  38  59  86 125 157 211 250 309 372
#     4  10  18  35  55  92 122 156 202 262 301 368
#     4  10  21  39  58  84 121 165 202 261 301 367
#     4  10  19  36  61  86 117 158 210 248 307 364
#     4   9  18  32  58  91 116 159 204 251 305 379
#     4   9  18  30  54  89 122 151 201 256 306 356
#     4   9  17  32  51  85 116 149 201 248 296 369
#
# _framework density 28.518363000000001
#
# number of rings (size 3 to 8) (size 9 to 14) (size 15 to 20)
#    0.000    2.400    2.667    2.400    0.000    3.200 
#    0.000    1.333    0.000    3.200    0.000    2.800 
#    0.000    0.000    0.000    0.000    0.000    0.000 
#
# Total GULP energy -83934.541835 kJ/mol
# GULP energy per Si atom -5595.636122 kJ/mol
# Density = 2.845345 g / cm^3
# Si number density = 28.518363 Si / 1000 Ang^3
#
#
#
# Elastic Constant Matrix: (Units=GPa)
#
#
# Indices 1 2 3 4 5 6 
#
# 1 147.7719 53.4130 32.5325 7.7264 -11.8206 19.0017
# 2 53.4130 190.8585 41.2624 12.3505 -4.7177 39.1288
# 3 32.5325 41.2624 100.8136 3.8852 -1.4513 10.0302
# 4 7.7264 12.3505 3.8852 20.2213 6.8399 -5.4130
# 5 -11.8206 -4.7177 -1.4513 6.8399 54.4455 3.8579
# 6 19.0017 39.1288 10.0302 -5.4130 3.8579 37.5548
#
#
#
# Elastic Compliance Matrix: (Units=1/GPa)
#
#
# Indices 1 2 3 4 5 6 
#
# 1 0.008364 -0.000865 -0.001780 -0.004157 0.002479 -0.003709
# 2 -0.000865 0.008255 -0.001894 -0.007431 0.002044 -0.008938
# 3 -0.001780 -0.001894 0.011295 -0.000310 -0.000199 -0.000166
# 4 -0.004157 -0.007431 -0.000310 0.064879 -0.011153 0.020426
# 5 0.002479 0.002044 -0.000199 -0.011153 0.020981 -0.007093
# 6 -0.003709 -0.008938 -0.000166 0.020426 -0.007093 0.041535
#
#
# Mechanical properties :
#
#
# Convention : Reuss Voigt Hill
#
# Bulk Modulus (GPa) = 53.09420 77.09553 65.09487
# Shear Modulus (GPa) = 29.29684 43.26006 36.27845
#
# Velocity S-wave (km/s) = 3.20863 3.89899 3.57053
# Velocity P-wave (km/s) = 5.69078 6.88199 6.31454
#
# Compressibility (1/GPa) = 0.01883445
#
# Stress axis : x y z
#
# Youngs Moduli (GPa) = 119.55464 121.13674 88.53659
#
# Poissons Ratio (x) = 0.10483 0.15761
# Poissons Ratio (y) = 0.10346 0.16772
# Poissons Ratio (z) = 0.21282 0.22948
#
# Static dielectric constant tensor:
#      x y z
#    x 2.195000 -0.044280 0.076360 
#    y -0.044280 2.498730 -0.202090 
#    z 0.076360 -0.202090 2.392680 
# 
# From -- ./inp_files/304753.got.cif
#   From: 2010.05.17/outbox.cif.g08.bks.cpg/sg2_153_cif.got.tgz:304753.got - 2010.06.03 11:33:40.
