data_PCOD9077811
_publ_section_title
;
Structure prediction by ZEFSAII (Michael W. Deem and Ramdas Pophale) SiO2 
 PCOD9077811
Probable space group: P -1
;
_chemical_formula_sum "Si O2"
_cell_formula_units_Z 14
_cell_length_a 12.809712
_cell_length_b 9.661975
_cell_length_c 10.995456
_cell_angle_alpha 61.506515
_cell_angle_beta 111.472751
_cell_angle_gamma 61.503510
_cell_volume 672.432002
_symmetry_space_group_name_H-M "P -1"
_symmetry_group_IT_number 2
_symmetry_cell_setting 'triclinic'
loop_
_space_group_symop_operation_xyz
x,y,z
-x,-y,-z
loop_
_atom_site_type_symbol
_atom_site_label
_atom_site_fract_x
_atom_site_fract_y
_atom_site_fract_z
Si Si1 0.554727 0.307800 0.959437
Si Si2 0.033164 0.882906 0.888833
Si Si3 0.303477 0.140661 0.951817
Si Si4 0.610720 0.404584 0.462426
Si Si5 0.997649 0.267981 0.831574
Si Si6 0.700800 0.673374 0.356688
Si Si7 0.809245 0.237666 0.244878
O O1 0.509238 0.486611 0.757118
O O2 0.356257 0.501823 0.857195
O O3 0.704879 0.198041 0.167113
O O4 0.636109 0.065318 0.029946
O O5 0.134096 0.741295 0.864733
O O6 0.812341 0.100350 0.684109
O O7 0.054542 0.042898 0.876012
O O8 0.092463 0.703564 0.098516
O O9 0.231810 0.351773 0.738476
O O10 0.166006 0.199855 0.955151
O O11 0.497073 0.974950 0.164257
O O12 0.500000 0.500000 0.500000
O O13 0.663338 0.529648 0.417750
O O14 0.858443 0.526345 0.582950
O O15 0.000000 0.000000 0.500000
#
# Coordination Sequence:
#
# PCOD9077811 Si02
#       7
#     2   2   2   2   2   2   2
#     4  10  21  33  54  75 106 142 172 219 262 301
#     4  10  19  32  52  76 110 135 171 221 268 310
#     4  10  18  35  50  78 108 135 176 213 258 320
#     4  10  19  33  54  86 110 130 164 221 274 318
#     4  10  19  32  51  79 106 137 166 221 271 311
#     4   9  20  30  52  79 107 140 167 205 271 321
#     4  11  21  36  49  77 106 142 185 213 256 311
#
# _framework density 20.819948
#
# number of rings (size 3 to 8) (size 9 to 14) (size 15 to 20)
#    0.000    2.000    2.857    2.143    4.000    0.000 
#    0.000    0.000    0.000    0.857    0.000   11.000 
#    0.000    0.000    0.000    0.000    0.000    0.000 
#
# Total GULP energy -77980.942359 kJ/mol
# GULP energy per Si atom -5570.067311 kJ/mol
# Density = 2.077256 g / cm^3
# Si number density = 20.819948 Si / 1000 Ang^3
#
#
#
# Elastic Constant Matrix: (Units=GPa)
#
#
# Indices 1 2 3 4 5 6 
#
# 1 93.4165 13.8491 18.8022 1.4849 -6.4165 -33.4307
# 2 13.8491 59.3025 -0.3133 8.9869 -4.8169 -26.6616
# 3 18.8022 -0.3133 74.1103 8.7907 -0.4049 -6.7922
# 4 1.4849 8.9869 8.7907 18.1272 -5.5844 -2.8155
# 5 -6.4165 -4.8169 -0.4049 -5.5844 41.0374 9.9214
# 6 -33.4307 -26.6616 -6.7922 -2.8155 9.9214 36.3128
#
#
#
# Elastic Compliance Matrix: (Units=1/GPa)
#
#
# Indices 1 2 3 4 5 6 
#
# 1 0.017305 0.004345 -0.002666 0.000252 -0.001374 0.019018
# 2 0.004345 0.029349 0.003003 -0.013536 -0.004012 0.026157
# 3 -0.002666 0.003003 0.015452 -0.008915 -0.001709 0.002416
# 4 0.000252 -0.013536 -0.008915 0.067808 0.009710 -0.008769
# 5 -0.001374 -0.004012 -0.001709 0.009710 0.027732 -0.011354
# 6 0.019018 0.026157 0.002416 -0.008769 -0.011354 0.067126
#
#
# Mechanical properties :
#
#
# Convention : Reuss Voigt Hill
#
# Bulk Modulus (GPa) = 13.99223 32.38946 23.19084
# Shear Modulus (GPa) = 20.90023 32.06157 26.48090
#
# Velocity S-wave (km/s) = 3.17181 3.92847 3.57024
# Velocity P-wave (km/s) = 4.48876 6.01397 5.30645
#
# Compressibility (1/GPa) = 0.07146823
#
# Stress axis : x y z
#
# Youngs Moduli (GPa) = 57.78801 34.07264 64.71609
#
# Poissons Ratio (x) = -0.14804 0.17256
# Poissons Ratio (y) = -0.25108 -0.19432
# Poissons Ratio (z) = 0.15408 -0.10231
#
# Static dielectric constant tensor:
#      x y z
#    x 1.798080 0.014350 0.036630 
#    y 0.014350 1.769990 0.018770 
#    z 0.036630 0.018770 1.874150 
# 
# From -- ./inp_files/257165.got.cif
#   From: 2010.05.17/outbox.cif.g08.bks.cpg/sg2_129_cif.got.tgz:257165.got - 2010.06.03 11:33:40.
