data_PCOD9077836
_publ_section_title
;
Structure prediction by ZEFSAII (Michael W. Deem and Ramdas Pophale) SiO2 
 PCOD9077836
Probable space group: P -1
;
_chemical_formula_sum "Si O2"
_cell_formula_units_Z 16
_cell_length_a 10.945912
_cell_length_b 13.963353
_cell_length_c 17.176025
_cell_angle_alpha 133.211156
_cell_angle_beta 35.366818
_cell_angle_gamma 104.475631
_cell_volume 755.726030
_symmetry_space_group_name_H-M "P -1"
_symmetry_group_IT_number 2
_symmetry_cell_setting 'triclinic'
loop_
_space_group_symop_operation_xyz
x,y,z
-x,-y,-z
loop_
_atom_site_type_symbol
_atom_site_label
_atom_site_fract_x
_atom_site_fract_y
_atom_site_fract_z
Si Si1 0.917972 0.981390 0.909447
Si Si2 0.443615 0.998709 0.180911
Si Si3 0.237035 0.009346 0.629307
Si Si4 0.171210 0.871186 0.445833
Si Si5 0.200264 0.705307 0.110440
Si Si6 0.660014 0.623247 0.918369
Si Si7 0.140928 0.332175 0.630264
Si Si8 0.381584 0.684217 0.623996
O O1 0.122150 0.976194 0.742893
O O2 0.132679 0.789464 0.743697
O O3 0.650979 0.006878 0.028655
O O4 0.762520 0.157547 0.146134
O O5 0.371348 0.111242 0.360695
O O6 0.109224 0.103487 0.380753
O O7 0.625509 0.784092 0.990509
O O8 0.334196 0.855325 0.429007
O O9 0.500000 0.000000 0.500000
O O10 0.932864 0.217782 0.864266
O O11 0.416032 0.715937 0.168344
O O12 0.985620 0.087727 0.636871
O O13 0.551858 0.574644 0.878649
O O14 0.088854 0.625113 0.164585
O O15 0.978863 0.450643 0.700091
O O16 0.326462 0.368000 0.588742
O O17 0.500000 0.500000 0.500000
#
# Coordination Sequence:
#
# PCOD9077836 Si02
#       8
#     2   2   2   2   2   2   2   2
#     4  10  22  38  63  78 113 157 182 233 294 327
#     4  10  18  35  53  86 112 141 194 234 275 332
#     4  10  21  37  57  82 114 154 191 227 284 344
#     4   9  19  33  57  81 121 143 184 239 267 330
#     4   9  18  33  53  82 115 142 187 232 269 332
#     4  11  18  33  58  89 116 146 184 239 284 316
#     4  11  19  30  60  84 113 145 188 240 280 329
#     4  10  22  39  57  86 110 146 195 233 277 342
#
# _framework density 21.171692
#
# number of rings (size 3 to 8) (size 9 to 14) (size 15 to 20)
#    0.750    1.250    2.500    2.625    0.000    2.500 
#    0.000    1.250    0.000    4.500    0.000    0.000 
#    0.000    0.000    0.000    0.000    0.000    0.000 
#
# Total GULP energy -89112.678866 kJ/mol
# GULP energy per Si atom -5569.542429 kJ/mol
# Density = 2.112350 g / cm^3
# Si number density = 21.171692 Si / 1000 Ang^3
#
#
#
# Elastic Constant Matrix: (Units=GPa)
#
#
# Indices 1 2 3 4 5 6 
#
# 1 84.8815 36.1926 19.3406 -16.2619 -21.0718 14.4782
# 2 36.1926 115.7677 31.4628 -16.4677 -11.1199 15.2649
# 3 19.3406 31.4628 32.9966 -5.8572 -17.0182 5.4195
# 4 -16.2619 -16.4677 -5.8572 34.5386 0.7182 -14.9320
# 5 -21.0718 -11.1199 -17.0182 0.7182 20.7898 -7.3000
# 6 14.4782 15.2649 5.4195 -14.9320 -7.3000 35.6286
#
#
#
# Elastic Compliance Matrix: (Units=1/GPa)
#
#
# Indices 1 2 3 4 5 6 
#
# 1 0.019065 -0.004341 0.005167 0.007744 0.021292 0.000935
# 2 -0.004341 0.013734 -0.015629 0.000415 -0.011220 -0.003868
# 3 0.005167 -0.015629 0.073438 0.010594 0.060209 0.010202
# 4 0.007744 0.000415 0.010594 0.041397 0.021197 0.016756
# 5 0.021292 -0.011220 0.060209 0.021197 0.119376 0.020339
# 6 0.000935 -0.003868 0.010202 0.016756 0.020339 0.038983
#
#
# Mechanical properties :
#
#
# Convention : Reuss Voigt Hill
#
# Bulk Modulus (GPa) = 13.04954 45.29310 29.17132
# Shear Modulus (GPa) = 13.84498 27.96806 20.90652
#
# Velocity S-wave (km/s) = 2.56000 3.63852 3.14582
# Velocity P-wave (km/s) = 3.86202 6.25231 5.19647
#
# Compressibility (1/GPa) = 0.07663103
#
# Stress axis : x y z
#
# Youngs Moduli (GPa) = 52.45323 72.81179 13.61690
#
# Poissons Ratio (x) = 0.31608 -0.07036
# Poissons Ratio (y) = 0.22770 0.21282
# Poissons Ratio (z) = -0.27104 1.13798
#
# Static dielectric constant tensor:
#      x y z
#    x 1.814190 0.002500 -0.042470 
#    y 0.002500 1.784980 -0.006250 
#    z -0.042470 -0.006250 1.828150 
# 
# From -- ./inp_files/568789.got.cif
#   From: 2010.05.17/outbox.cif.g08.bks.cpg/sg2_285_cif.got.tgz:568789.got - 2010.06.03 11:33:40.
