data_PCOD9077006
_publ_section_title
;
Structure prediction by ZEFSAII (Michael W. Deem and Ramdas Pophale) SiO2 
 PCOD9077006
Probable space group: P -1
;
_chemical_formula_sum "Si O2"
_cell_formula_units_Z 14
_cell_length_a 15.407857
_cell_length_b 7.735289
_cell_length_c 12.655019
_cell_angle_alpha 103.842917
_cell_angle_beta 41.706085
_cell_angle_gamma 133.029677
_cell_volume 609.932367
_symmetry_space_group_name_H-M "P -1"
_symmetry_group_IT_number 2
_symmetry_cell_setting 'triclinic'
loop_
_space_group_symop_operation_xyz
x,y,z
-x,-y,-z
loop_
_atom_site_type_symbol
_atom_site_label
_atom_site_fract_x
_atom_site_fract_y
_atom_site_fract_z
Si Si1 0.105759 0.123575 0.749059
Si Si2 0.927503 0.201859 0.081428
Si Si3 0.716533 0.592099 0.927235
Si Si4 0.307666 0.799655 0.486420
Si Si5 0.490938 0.263994 0.867666
Si Si6 0.151494 0.617173 0.109496
Si Si7 0.523982 0.263448 0.507920
O O1 0.347779 0.418156 0.554718
O O2 0.071256 0.937433 0.841819
O O3 0.957128 0.914294 0.757530
O O4 0.016644 0.203080 0.899048
O O5 0.079916 0.512307 0.036976
O O6 0.681375 0.967850 0.266473
O O7 0.633398 0.456069 0.867724
O O8 0.718180 0.414588 0.971005
O O9 0.581329 0.619075 0.093546
O O10 0.391104 0.751582 0.317009
O O11 0.320021 0.706201 0.571944
O O12 0.068537 0.602384 0.659923
O O13 0.454064 0.123168 0.434153
O O14 0.286251 0.937911 0.043259
#
# Coordination Sequence:
#
# PCOD9077006 Si02
#       7
#     2   2   2   2   2   2   2
#     4  10  18  34  54  81 117 150 183 237 286 334
#     4   9  19  32  56  86 112 146 192 228 286 352
#     4  10  23  39  60  87 116 152 200 234 281 350
#     4  10  22  36  59  87 113 150 198 232 287 353
#     4  11  22  42  61  82 118 156 191 243 286 332
#     4  10  21  41  61  86 117 150 191 244 288 335
#     4  10  19  34  54  83 115 147 185 238 286 337
#
# _framework density 22.953365999999999
#
# number of rings (size 3 to 8) (size 9 to 14) (size 15 to 20)
#    0.000    2.000    0.000    3.429    0.000    0.571 
#    0.000   19.286    0.000    0.000    0.000    0.000 
#    0.000    0.000    0.000    0.000    0.000    0.000 
#
# Total GULP energy -78121.664020 kJ/mol
# GULP energy per Si atom -5580.118859 kJ/mol
# Density = 2.290112 g / cm^3
# Si number density = 22.953366 Si / 1000 Ang^3
#
#
#
# Elastic Constant Matrix: (Units=GPa)
#
#
# Indices 1 2 3 4 5 6 
#
# 1 80.9443 43.4509 22.0831 -4.4007 -27.5428 -2.3680
# 2 43.4509 154.7781 45.1225 -8.7631 -8.5652 16.2342
# 3 22.0831 45.1225 87.7244 -2.7798 -10.7948 2.2170
# 4 -4.4007 -8.7631 -2.7798 44.1874 -1.0388 -10.8806
# 5 -27.5428 -8.5652 -10.7948 -1.0388 22.8762 3.6709
# 6 -2.3680 16.2342 2.2170 -10.8806 3.6709 38.4383
#
#
#
# Elastic Compliance Matrix: (Units=1/GPa)
#
#
# Indices 1 2 3 4 5 6 
#
# 1 0.024981 -0.005538 0.000014 0.002521 0.027814 0.001934
# 2 -0.005538 0.009266 -0.003824 0.000056 -0.004423 -0.003596
# 3 0.000014 -0.003824 0.013995 0.000347 0.005138 0.000416
# 4 0.002521 0.000056 0.000347 0.024661 0.003251 0.006782
# 5 0.027814 -0.004423 0.005138 0.003251 0.078648 -0.003305
# 6 0.001934 -0.003596 0.000416 0.006782 -0.003305 0.029865
#
#
# Mechanical properties :
#
#
# Convention : Reuss Voigt Hill
#
# Bulk Modulus (GPa) = 33.84507 60.52884 47.18696
# Shear Modulus (GPa) = 23.81397 35.28639 29.55018
#
# Velocity S-wave (km/s) = 3.22451 3.92511 3.59193
# Velocity P-wave (km/s) = 5.35168 6.85343 6.14858
#
# Compressibility (1/GPa) = 0.02954640
#
# Stress axis : x y z
#
# Youngs Moduli (GPa) = 40.03034 107.92446 71.45245
#
# Poissons Ratio (x) = 0.59767 -0.00097
# Poissons Ratio (y) = 0.22168 0.27320
# Poissons Ratio (z) = -0.00054 0.41265
#
# Static dielectric constant tensor:
#      x y z
#    x 1.912080 -0.070670 -0.038770 
#    y -0.070670 1.961260 -0.009510 
#    z -0.038770 -0.009510 1.895500 
# 
# From -- ./inp_files/306976.got.cif
#   From: 2010.05.17/outbox.cif.g08.bks.cpg/sg2_154_cif.got.tgz:306976.got - 2010.06.03 11:33:40.
