data_PCOD9077728
_publ_section_title
;
Structure prediction by ZEFSAII (Michael W. Deem and Ramdas Pophale) SiO2 
 PCOD9077728
Probable space group: P -1
;
_chemical_formula_sum "Si O2"
_cell_formula_units_Z 16
_cell_length_a 17.940333
_cell_length_b 18.882933
_cell_length_c 9.320325
_cell_angle_alpha 150.068384
_cell_angle_beta 145.595615
_cell_angle_gamma 24.850353
_cell_volume 650.710575
_symmetry_space_group_name_H-M "P -1"
_symmetry_group_IT_number 2
_symmetry_cell_setting 'triclinic'
loop_
_space_group_symop_operation_xyz
x,y,z
-x,-y,-z
loop_
_atom_site_type_symbol
_atom_site_label
_atom_site_fract_x
_atom_site_fract_y
_atom_site_fract_z
Si Si1 0.158473 0.888536 0.673900
Si Si2 0.061488 0.515014 0.839225
Si Si3 0.817829 0.394413 0.577278
Si Si4 0.425361 0.921475 0.650427
Si Si5 0.422346 0.101349 0.704822
Si Si6 0.332536 0.517988 0.798568
Si Si7 0.034237 0.704967 0.845476
Si Si8 0.592651 0.198622 0.315238
O O1 0.163962 0.756135 0.559524
O O2 0.328449 0.763855 0.619019
O O3 0.000000 0.000000 0.500000
O O4 0.117803 0.063375 0.003139
O O5 0.273557 0.327593 0.831731
O O6 0.015843 0.661779 0.902421
O O7 0.978921 0.425635 0.504397
O O8 0.047144 0.589675 0.107668
O O9 0.820400 0.355370 0.345531
O O10 0.611298 0.604265 0.627661
O O11 0.582746 0.702239 0.457011
O O12 0.320329 0.901384 0.566451
O O13 0.338805 0.050489 0.596254
O O14 0.500000 0.000000 0.000000
O O15 0.500000 0.000000 0.500000
O O16 0.583241 0.054387 0.966493
O O17 0.230153 0.622661 0.968733
O O18 0.500000 0.500000 0.000000
#
# Coordination Sequence:
#
# PCOD9077728 Si02
#       8
#     2   2   2   2   2   2   2   2
#     4  12  24  40  66 100 132 178 226 276 335 402
#     4  10  22  42  64  94 131 172 221 274 332 398
#     4  10  23  45  67  97 130 179 225 269 337 406
#     4   9  20  40  64  94 122 168 221 269 319 386
#     4  10  18  34  63  95 123 163 221 267 322 386
#     4  11  26  44  66  97 139 178 221 280 343 401
#     4  11  25  43  64  96 139 175 220 280 345 393
#     4   9  21  39  65  90 130 170 220 270 324 393
#
# _framework density 24.588505000000001
#
# number of rings (size 3 to 8) (size 9 to 14) (size 15 to 20)
#    0.000    1.750    1.250    2.625    3.500    8.000 
#    2.250    0.000    0.000    0.000    0.000    0.000 
#    0.000    0.000    0.000    0.000    0.000    0.000 
#
# Total GULP energy -89268.442161 kJ/mol
# GULP energy per Si atom -5579.277635 kJ/mol
# Density = 2.453254 g / cm^3
# Si number density = 24.588505 Si / 1000 Ang^3
#
#
#
# Elastic Constant Matrix: (Units=GPa)
#
#
# Indices 1 2 3 4 5 6 
#
# 1 88.6007 12.4643 28.7742 0.5804 -6.0937 16.0056
# 2 12.4643 36.5106 21.6311 -3.6435 -5.0390 23.2050
# 3 28.7742 21.6311 105.6283 5.4022 -4.5027 22.3352
# 4 0.5804 -3.6435 5.4022 32.3162 2.2123 -0.8538
# 5 -6.0937 -5.0390 -4.5027 2.2123 25.4533 3.3458
# 6 16.0056 23.2050 22.3352 -0.8538 3.3458 43.2815
#
#
#
# Elastic Compliance Matrix: (Units=1/GPa)
#
#
# Indices 1 2 3 4 5 6 
#
# 1 0.013027 -0.000191 -0.002607 -0.000128 0.003106 -0.003612
# 2 -0.000191 0.047121 -0.004339 0.004646 0.011231 -0.023731
# 3 -0.002607 -0.004339 0.011883 -0.002592 0.001237 -0.002989
# 4 -0.000128 0.004646 -0.002592 0.032055 -0.002317 -0.000294
# 5 0.003106 0.011231 0.001237 -0.002317 0.044156 -0.011268
# 6 -0.003612 -0.023731 -0.002989 -0.000294 -0.011268 0.039571
#
#
# Mechanical properties :
#
#
# Convention : Reuss Voigt Hill
#
# Bulk Modulus (GPa) = 17.31350 39.60873 28.46112
# Shear Modulus (GPa) = 22.58980 31.40151 26.99566
#
# Velocity S-wave (km/s) = 3.03432 3.57750 3.31705
# Velocity P-wave (km/s) = 4.39690 5.76267 5.12548
#
# Compressibility (1/GPa) = 0.05775841
#
# Stress axis : x y z
#
# Youngs Moduli (GPa) = 76.76312 21.22187 84.15305
#
# Poissons Ratio (x) = 0.00405 0.21937
# Poissons Ratio (y) = 0.01466 0.36511
# Poissons Ratio (z) = 0.20011 0.09207
#
# Static dielectric constant tensor:
#      x y z
#    x 2.021160 -0.035830 0.017110 
#    y -0.035830 1.942900 -0.090350 
#    z 0.017110 -0.090350 2.118550 
# 
# From -- ./inp_files/336849.got.cif
#   From: 2010.05.17/outbox.cif.g08.bks.cpg/sg2_169_cif.got.tgz:336849.got - 2010.06.03 11:33:40.
