data_PCOD9077838
_publ_section_title
;
Structure prediction by ZEFSAII (Michael W. Deem and Ramdas Pophale) SiO2 
 PCOD9077838
Probable space group: P -1
;
_chemical_formula_sum "Si O2"
_cell_formula_units_Z 12
_cell_length_a 8.583550
_cell_length_b 5.122587
_cell_length_c 14.789175
_cell_angle_alpha 93.631778
_cell_angle_beta 51.299221
_cell_angle_gamma 83.932961
_cell_volume 497.582146
_symmetry_space_group_name_H-M "P -1"
_symmetry_group_IT_number 2
_symmetry_cell_setting 'triclinic'
loop_
_space_group_symop_operation_xyz
x,y,z
-x,-y,-z
loop_
_atom_site_type_symbol
_atom_site_label
_atom_site_fract_x
_atom_site_fract_y
_atom_site_fract_z
Si Si1 0.306007 0.534273 0.003063
Si Si2 0.368063 0.331434 0.214819
Si Si3 0.937889 0.536295 0.326626
Si Si4 0.463921 0.267438 0.576256
Si Si5 0.835920 0.916013 0.856724
Si Si6 0.787933 0.909543 0.555814
O O1 0.190081 0.296162 0.060378
O O2 0.164726 0.808613 0.089979
O O3 0.500000 0.500000 0.000000
O O4 0.419765 0.572035 0.868973
O O5 0.306486 0.225580 0.329625
O O6 0.175505 0.553394 0.254428
O O7 0.354867 0.092316 0.142253
O O8 0.774995 0.661572 0.313254
O O9 0.978043 0.218924 0.279956
O O10 0.839911 0.678736 0.455648
O O11 0.500000 0.500000 0.500000
O O12 0.500000 0.000000 0.500000
O O13 0.628201 0.176667 0.592159
O O14 0.000000 0.000000 0.500000
#
# Coordination Sequence:
#
# PCOD9077838 Si02
#       6
#     2   2   2   2   2   2
#     4  10  18  35  53  88 113 153 193 245 286 341
#     4   9  19  32  56  85 116 147 196 244 290 333
#     4   9  21  36  58  86 121 157 196 234 304 351
#     4  10  22  41  57  80 120 162 197 232 290 367
#     4   9  21  32  59  82 118 148 200 240 287 346
#     4  11  22  35  61  91 123 153 199 248 300 347
#
# _framework density 24.116622
#
# number of rings (size 3 to 8) (size 9 to 14) (size 15 to 20)
#    1.000    1.333    0.000    3.500    2.333    4.000 
#    0.000    0.000    0.000    2.000    0.000    0.000 
#    0.000    0.167    0.000    0.000    0.000    0.000 
#
# Total GULP energy -66812.303528 kJ/mol
# GULP energy per Si atom -5567.691961 kJ/mol
# Density = 2.406173 g / cm^3
# Si number density = 24.116622 Si / 1000 Ang^3
#
#
#
# Elastic Constant Matrix: (Units=GPa)
#
#
# Indices 1 2 3 4 5 6 
#
# 1 65.7225 39.1596 37.7369 -0.1847 -17.2891 -15.6116
# 2 39.1596 156.9426 78.0033 -7.3016 -11.2024 -3.1684
# 3 37.7369 78.0033 155.7697 -8.3234 -2.5281 -11.1825
# 4 -0.1847 -7.3016 -8.3234 51.4252 -5.4357 -3.3528
# 5 -17.2891 -11.2024 -2.5281 -5.4357 16.2958 6.4222
# 6 -15.6116 -3.1684 -11.1825 -3.3528 6.4222 33.3882
#
#
#
# Elastic Compliance Matrix: (Units=1/GPa)
#
#
# Indices 1 2 3 4 5 6 
#
# 1 0.027307 -0.002706 -0.004282 0.002043 0.024542 0.006562
# 2 -0.002706 0.009381 -0.004100 0.000945 0.004229 -0.002467
# 3 -0.004282 -0.004100 0.009577 0.000395 -0.006580 0.002122
# 4 0.002043 0.000945 0.000395 0.020721 0.009204 0.001488
# 5 0.024542 0.004229 -0.006580 0.009204 0.095417 -0.007756
# 6 0.006562 -0.002467 0.002122 0.001488 -0.007756 0.035137
#
#
# Mechanical properties :
#
#
# Convention : Reuss Voigt Hill
#
# Bulk Modulus (GPa) = 41.51290 76.47050 58.99170
# Shear Modulus (GPa) = 21.95451 35.12417 28.53934
#
# Velocity S-wave (km/s) = 3.02047 3.82046 3.44377
# Velocity P-wave (km/s) = 5.42357 7.15812 6.35035
#
# Compressibility (1/GPa) = 0.02408890
#
# Stress axis : x y z
#
# Youngs Moduli (GPa) = 36.62079 106.60209 104.41970
#
# Poissons Ratio (x) = 0.28847 0.44710
# Poissons Ratio (y) = 0.09910 0.42811
# Poissons Ratio (z) = 0.15680 0.43705
#
# Static dielectric constant tensor:
#      x y z
#    x 2.023610 -0.017890 -0.016590 
#    y -0.017890 2.014460 -0.070260 
#    z -0.016590 -0.070260 2.073810 
# 
# From -- ./inp_files/552040.got.cif
#   From: 2010.05.17/outbox.cif.g08.bks.cpg/sg2_277_cif.got.tgz:552040.got - 2010.06.03 11:33:40.
