data_PCOD9077311
_publ_section_title
;
Structure prediction by ZEFSAII (Michael W. Deem and Ramdas Pophale) SiO2 
 PCOD9077311
Probable space group: P -1
;
_chemical_formula_sum "Si O2"
_cell_formula_units_Z 16
_cell_length_a 16.804179
_cell_length_b 15.552726
_cell_length_c 13.030674
_cell_angle_alpha 43.951556
_cell_angle_beta 23.552276
_cell_angle_gamma 37.539166
_cell_volume 828.813874
_symmetry_space_group_name_H-M "P -1"
_symmetry_group_IT_number 2
_symmetry_cell_setting 'triclinic'
loop_
_space_group_symop_operation_xyz
x,y,z
-x,-y,-z
loop_
_atom_site_type_symbol
_atom_site_label
_atom_site_fract_x
_atom_site_fract_y
_atom_site_fract_z
Si Si1 0.847223 0.103799 0.974043
Si Si2 0.407682 0.848975 0.323065
Si Si3 0.621094 0.785422 0.445857
Si Si4 0.230120 0.122385 0.010076
Si Si5 0.991689 0.208802 0.894146
Si Si6 0.757352 0.303614 0.494007
Si Si7 0.486093 0.622868 0.602079
Si Si8 0.912748 0.107789 0.667325
O O1 0.622415 0.141267 0.273893
O O2 0.984679 0.166456 0.821053
O O3 0.803136 0.160472 0.862850
O O4 0.979561 0.933544 0.960835
O O5 0.619370 0.873888 0.076751
O O6 0.391864 0.765461 0.314418
O O7 0.425305 0.742966 0.485030
O O8 0.178012 0.998164 0.466350
O O9 0.651833 0.873779 0.239920
O O10 0.636807 0.648915 0.486970
O O11 0.807514 0.764768 0.327156
O O12 0.976224 0.255133 0.202774
O O13 0.189807 0.988428 0.174940
O O14 0.752155 0.339041 0.096087
O O15 0.612825 0.469798 0.534821
O O16 0.862073 0.229830 0.541994
#
# Coordination Sequence:
#
# PCOD9077311 Si02
#       8
#     2   2   2   2   2   2   2   2
#     4  10  20  33  59  89 108 143 185 240 283 321
#     4  10  20  37  60  81 109 149 195 236 265 322
#     4  10  20  34  59  90 112 136 189 248 276 317
#     4  10  21  36  58  86 112 145 191 234 278 324
#     4  10  18  34  58  84 112 138 185 239 279 320
#     4  11  24  38  55  81 123 155 179 223 283 343
#     4  10  21  37  57  86 112 149 190 228 278 329
#     4  11  22  38  56  84 119 149 184 227 284 338
#
# _framework density 19.304697999999998
#
# number of rings (size 3 to 8) (size 9 to 14) (size 15 to 20)
#    0.000    1.750    2.500    3.000    1.750    5.000 
#    0.000    2.500    0.000    1.500    0.000    0.000 
#    0.000    0.000    0.000    0.000    0.000    0.000 
#
# Total GULP energy -89273.125107 kJ/mol
# GULP energy per Si atom -5579.570319 kJ/mol
# Density = 1.926076 g / cm^3
# Si number density = 19.304698 Si / 1000 Ang^3
#
#
#
# Elastic Constant Matrix: (Units=GPa)
#
#
# Indices 1 2 3 4 5 6 
#
# 1 117.5216 22.8100 38.8726 6.1018 -24.1250 8.6584
# 2 22.8100 39.9351 18.2763 11.8103 4.4619 -3.9826
# 3 38.8726 18.2763 59.0277 4.6038 -8.2900 1.6682
# 4 6.1018 11.8103 4.6038 10.4716 2.8821 2.3056
# 5 -24.1250 4.4619 -8.2900 2.8821 42.4855 -1.6023
# 6 8.6584 -3.9826 1.6682 2.3056 -1.6023 13.4197
#
#
#
# Elastic Compliance Matrix: (Units=1/GPa)
#
#
# Indices 1 2 3 4 5 6 
#
# 1 0.014080 -0.008671 -0.005635 0.004497 0.007091 -0.010883
# 2 -0.008671 0.055425 -0.008805 -0.058714 -0.007259 0.032359
# 3 -0.005635 -0.008805 0.023508 0.002787 0.002042 -0.002135
# 4 0.004497 -0.058714 0.002787 0.170119 -0.004178 -0.050400
# 5 0.007091 -0.007259 0.002042 -0.004178 0.028902 -0.002814
# 6 -0.010883 0.032359 -0.002135 -0.050400 -0.002814 0.099731
#
#
# Mechanical properties :
#
#
# Convention : Reuss Voigt Hill
#
# Bulk Modulus (GPa) = 21.37165 41.82245 31.59705
# Shear Modulus (GPa) = 11.02334 22.37705 16.70019
#
# Velocity S-wave (km/s) = 2.39219 3.40832 2.94442
# Velocity P-wave (km/s) = 4.32722 6.09921 5.28797
#
# Compressibility (1/GPa) = 0.04679097
#
# Stress axis : x y z
#
# Youngs Moduli (GPa) = 71.02408 18.04242 42.53833
#
# Poissons Ratio (x) = 0.15644 0.23970
# Poissons Ratio (y) = 0.61583 0.37457
# Poissons Ratio (z) = 0.40021 0.15887
#
# Static dielectric constant tensor:
#      x y z
#    x 1.728080 0.000810 0.003320 
#    y 0.000810 1.639750 0.003100 
#    z 0.003320 0.003100 1.693060 
# 
# From -- ./inp_files/307014.got.cif
#   From: 2010.05.17/outbox.cif.g08.bks.cpg/sg2_154_cif.got.tgz:307014.got - 2010.06.03 11:33:40.
