data_PCOD9077295
_publ_section_title
;
Structure prediction by ZEFSAII (Michael W. Deem and Ramdas Pophale) SiO2 
 PCOD9077295
Probable space group: P -1
;
_chemical_formula_sum "Si O2"
_cell_formula_units_Z 16
_cell_length_a 21.599474
_cell_length_b 27.545104
_cell_length_c 9.892158
_cell_angle_alpha 143.457027
_cell_angle_beta 28.154339
_cell_angle_gamma 163.855527
_cell_volume 728.508499
_symmetry_space_group_name_H-M "P -1"
_symmetry_group_IT_number 2
_symmetry_cell_setting 'triclinic'
loop_
_space_group_symop_operation_xyz
x,y,z
-x,-y,-z
loop_
_atom_site_type_symbol
_atom_site_label
_atom_site_fract_x
_atom_site_fract_y
_atom_site_fract_z
Si Si1 0.138342 0.167293 0.316062
Si Si2 0.504137 0.782929 0.730799
Si Si3 0.105295 0.728379 0.629099
Si Si4 0.041742 0.769974 0.317928
Si Si5 0.589733 0.330746 0.640702
Si Si6 0.354647 0.889721 0.239080
Si Si7 0.153527 0.572374 0.193884
Si Si8 0.282028 0.479003 0.853419
O O1 0.391592 0.349397 0.329616
O O2 0.007919 0.161240 0.449294
O O3 0.298895 0.186228 0.964682
O O4 0.854281 0.981620 0.532706
O O5 0.469461 0.720161 0.514130
O O6 0.376351 0.803469 0.007006
O O7 0.321167 0.642891 0.891248
O O8 0.801865 0.528723 0.690206
O O9 0.298456 0.881353 0.485611
O O10 0.245763 0.717820 0.371452
O O11 0.971460 0.695958 0.946977
O O12 0.097975 0.774904 0.373484
O O13 0.775839 0.583260 0.325175
O O14 0.338681 0.911333 0.976886
O O15 0.803209 0.380025 0.401795
O O16 0.229387 0.547778 0.103182
#
# Coordination Sequence:
#
# PCOD9077295 Si02
#       8
#     2   2   2   2   2   2   2   2
#     4  10  22  35  50  79 117 145 172 214 272 320
#     4  10  18  34  58  81 108 138 176 228 268 312
#     4   8  19  32  55  83 106 128 175 229 269 302
#     4  10  21  35  58  75 108 146 183 218 260 318
#     4   9  18  32  56  83 106 138 174 224 274 307
#     4   9  19  37  56  84 101 136 188 229 259 307
#     4   9  19  32  59  80 104 137 182 225 259 317
#     4  11  20  35  55  80 107 148 178 212 267 325
#
# _framework density 21.962681
#
# number of rings (size 3 to 8) (size 9 to 14) (size 15 to 20)
#    0.750    1.750    0.000    2.250    1.750    1.000 
#    0.000    2.500    2.750    0.000    0.000    0.000 
#    0.000    0.000    0.000    0.000    0.000    0.000 
#
# Total GULP energy -89224.588408 kJ/mol
# GULP energy per Si atom -5576.536776 kJ/mol
# Density = 2.191269 g / cm^3
# Si number density = 21.962681 Si / 1000 Ang^3
#
#
#
# Elastic Constant Matrix: (Units=GPa)
#
#
# Indices 1 2 3 4 5 6 
#
# 1 93.8127 20.7256 44.8601 -25.3500 7.6602 -4.7220
# 2 20.7256 21.6289 10.8700 -0.7153 -8.9462 8.9516
# 3 44.8601 10.8700 89.0707 -16.4512 -3.9603 5.3361
# 4 -25.3500 -0.7153 -16.4512 18.5727 15.5830 -1.9515
# 5 7.6602 -8.9462 -3.9603 15.5830 20.3500 3.3245
# 6 -4.7220 8.9516 5.3361 -1.9515 3.3245 26.0978
#
#
#
# Elastic Compliance Matrix: (Units=1/GPa)
#
#
# Indices 1 2 3 4 5 6 
#
# 1 0.001180 0.014187 -0.005099 -0.023600 0.024255 -0.008465
# 2 0.014187 0.017257 -0.001905 0.050735 -0.037899 0.005659
# 3 -0.005099 -0.001905 0.015480 0.007193 -0.000960 -0.002774
# 4 -0.023600 0.050735 0.007193 -0.013130 0.047572 -0.030185
# 5 0.024255 -0.037899 -0.000960 0.047572 -0.017076 0.023317
# 6 -0.008465 0.005659 -0.002774 -0.030185 0.023317 0.030185
#
#
# Mechanical properties :
#
#
# Convention : Reuss Voigt Hill
#
# Bulk Modulus (GPa) = 20.71109 39.71372 30.21240
# Shear Modulus (GPa) = 140.36117 21.54121 80.95119
#
# Velocity S-wave (km/s) = 8.00298 3.13519 6.07771
# Velocity P-wave (km/s) = 9.73897 5.58815 7.93962
#
# Compressibility (1/GPa) = 0.04828332
#
# Stress axis : x y z
#
# Youngs Moduli (GPa) = 847.67262 57.94822 64.60154
#
# Poissons Ratio (x) = -0.82213 0.32939
# Poissons Ratio (y) = -12.02625 0.12306
# Poissons Ratio (z) = 4.32216 0.11038
#
# Static dielectric constant tensor:
#      x y z
#    x 1.777310 0.002890 -0.002310 
#    y 0.002890 1.866100 0.001310 
#    z -0.002310 0.001310 1.847880 
# 
# From -- ./inp_files/350191.got.cif
#   From: 2010.05.17/outbox.cif.g08.bks.cpg/sg2_176_cif.got.tgz:350191.got - 2010.06.03 11:33:40.
