data_PCOD9077094
_publ_section_title
;
Structure prediction by ZEFSAII (Michael W. Deem and Ramdas Pophale) SiO2 
 PCOD9077094
Probable space group: P -1
;
_chemical_formula_sum "Si O2"
_cell_formula_units_Z 16
_cell_length_a 8.467535
_cell_length_b 7.619653
_cell_length_c 13.184483
_cell_angle_alpha 49.529033
_cell_angle_beta 113.370706
_cell_angle_gamma 106.074961
_cell_volume 593.804083
_symmetry_space_group_name_H-M "P -1"
_symmetry_group_IT_number 2
_symmetry_cell_setting 'triclinic'
loop_
_space_group_symop_operation_xyz
x,y,z
-x,-y,-z
loop_
_atom_site_type_symbol
_atom_site_label
_atom_site_fract_x
_atom_site_fract_y
_atom_site_fract_z
Si Si1 0.926391 0.550493 0.574877
Si Si2 0.885403 0.012155 0.307411
Si Si3 0.531179 0.468501 0.687109
Si Si4 0.229958 0.298267 0.803388
Si Si5 0.403403 0.795026 0.380166
Si Si6 0.857912 0.799958 0.851709
Si Si7 0.775261 0.158441 0.967089
Si Si8 0.657698 0.364206 0.049346
O O1 0.753998 0.395487 0.591521
O O2 0.000000 0.500000 0.500000
O O3 0.067522 0.454535 0.722985
O O4 0.907608 0.824334 0.470497
O O5 0.055039 0.147816 0.255914
O O6 0.830009 0.855534 0.252734
O O7 0.744533 0.204637 0.215349
O O8 0.393531 0.446045 0.750729
O O9 0.510401 0.716978 0.535654
O O10 0.485079 0.273166 0.663190
O O11 0.714867 0.369892 0.804015
O O12 0.258788 0.110664 0.969409
O O13 0.305493 0.032025 0.253887
O O14 0.788507 0.550683 0.961069
O O15 0.023567 0.837545 0.954047
O O16 0.643493 0.191599 0.015464
O O17 0.500000 0.500000 0.000000
#
# Coordination Sequence:
#
# PCOD9077094 Si02
#       8
#     2   2   2   2   2   2   2   2
#     4  10  14  32  54  79 109 142 191 213 273 342
#     4   9  16  30  56  80 108 143 187 224 268 334
#     4  11  22  32  52  87 124 141 182 232 287 330
#     4   9  16  32  53  79 113 147 175 221 286 334
#     4  11  21  33  56  85 114 156 183 223 279 345
#     4  10  19  37  58  78 109 153 195 220 277 337
#     4  10  21  38  54  82 116 151 183 233 283 327
#     4  10  22  36  59  82 106 148 199 238 271 326
#
# _framework density 26.944911000000001
#
# number of rings (size 3 to 8) (size 9 to 14) (size 15 to 20)
#    0.000    2.250    6.250    1.875    3.500    0.500 
#    0.000    0.625    0.000    0.000    0.000    7.000 
#    0.000    0.000    0.000    0.000    0.000    0.000 
#
# Total GULP energy -89277.303797 kJ/mol
# GULP energy per Si atom -5579.831487 kJ/mol
# Density = 2.688358 g / cm^3
# Si number density = 26.944911 Si / 1000 Ang^3
#
#
#
# Elastic Constant Matrix: (Units=GPa)
#
#
# Indices 1 2 3 4 5 6 
#
# 1 107.5985 0.2907 29.3647 -7.7550 6.8460 -1.8829
# 2 0.2907 41.3369 22.3385 -2.2792 -5.1181 1.6604
# 3 29.3647 22.3385 235.9094 -25.3067 49.0831 7.6008
# 4 -7.7550 -2.2792 -25.3067 33.3016 -0.7173 -2.2404
# 5 6.8460 -5.1181 49.0831 -0.7173 47.3676 -11.8469
# 6 -1.8829 1.6604 7.6008 -2.2404 -11.8469 30.6284
#
#
#
# Elastic Compliance Matrix: (Units=1/GPa)
#
#
# Indices 1 2 3 4 5 6 
#
# 1 0.009728 0.000629 -0.001178 0.001486 0.000162 0.001028
# 2 0.000629 0.027564 -0.004651 -0.001127 0.008407 0.002868
# 3 -0.001178 -0.004651 0.007354 0.004475 -0.009094 -0.004835
# 4 0.001486 -0.001127 0.004475 0.033583 -0.004528 -0.000253
# 5 0.000162 0.008407 -0.009094 -0.004528 0.035119 0.015064
# 6 0.001028 0.002868 -0.004835 -0.000253 0.015064 0.039565
#
#
# Mechanical properties :
#
#
# Convention : Reuss Voigt Hill
#
# Bulk Modulus (GPa) = 29.20017 54.31475 41.75746
# Shear Modulus (GPa) = 28.61585 44.44958 36.53272
#
# Velocity S-wave (km/s) = 3.26239 4.06599 3.68615
# Velocity P-wave (km/s) = 5.00514 6.49958 5.80069
#
# Compressibility (1/GPa) = 0.03424638
#
# Stress axis : x y z
#
# Youngs Moduli (GPa) = 102.79241 36.27939 135.98393
#
# Poissons Ratio (x) = -0.02281 0.16017
# Poissons Ratio (y) = -0.06464 0.63243
# Poissons Ratio (z) = 0.12108 0.16873
#
# Static dielectric constant tensor:
#      x y z
#    x 2.110460 -0.020630 -0.003260 
#    y -0.020630 2.249680 0.106980 
#    z -0.003260 0.106980 2.278950 
# 
# From -- ./inp_files/588876.got.cif
#   From: 2010.05.17/outbox.cif.g08.bks.cpg/sg2_295_cif.got.tgz:588876.got - 2010.06.03 11:33:40.
