data_PCOD9077165
_publ_section_title
;
Structure prediction by ZEFSAII (Michael W. Deem and Ramdas Pophale) SiO2 
 PCOD9077165
Probable space group: P -1
;
_chemical_formula_sum "Si O2"
_cell_formula_units_Z 15
_cell_length_a 7.591578
_cell_length_b 14.029555
_cell_length_c 14.654447
_cell_angle_alpha 150.381077
_cell_angle_beta 102.636931
_cell_angle_gamma 94.984161
_cell_volume 616.080583
_symmetry_space_group_name_H-M "P -1"
_symmetry_group_IT_number 2
_symmetry_cell_setting 'triclinic'
loop_
_space_group_symop_operation_xyz
x,y,z
-x,-y,-z
loop_
_atom_site_type_symbol
_atom_site_label
_atom_site_fract_x
_atom_site_fract_y
_atom_site_fract_z
Si Si1 0.315983 0.062680 0.730837
Si Si2 0.157854 0.146851 0.408085
Si Si3 0.719321 0.359446 0.156038
Si Si4 0.000000 0.500000 0.000000
Si Si5 0.177111 0.552582 0.261558
Si Si6 0.304088 0.034740 0.507432
Si Si7 0.107201 0.760676 0.771001
Si Si8 0.883848 0.836107 0.968856
O O1 0.316727 0.830087 0.526099
O O2 0.085261 0.975696 0.677366
O O3 0.328760 0.156350 0.707819
O O4 0.521146 0.240166 0.963716
O O5 0.244000 0.406577 0.604350
O O6 0.301610 0.153808 0.513579
O O7 0.109189 0.989391 0.182722
O O8 0.709983 0.202041 0.106174
O O9 0.943392 0.454306 0.203405
O O10 0.879435 0.509811 0.902204
O O11 0.915443 0.229828 0.736995
O O12 0.262277 0.407729 0.195632
O O13 0.500000 0.000000 0.500000
O O14 0.000000 0.500000 0.500000
O O15 0.186828 0.984161 0.901103
O O16 0.927989 0.762378 0.815471
#
# Coordination Sequence:
#
# PCOD9077165 Si02
#       8
#     2   2   2   1   2   2   2   2
#     4  10  23  39  60  94 129 174 214 261 319 381
#     4  11  22  40  63  91 131 168 210 267 321 381
#     4  10  21  40  64  88 129 166 215 266 318 380
#     4  10  18  34  56  88 122 164 202 260 310 366
#     4   9  19  37  61  88 128 167 212 262 316 375
#     4  11  23  37  61  93 129 172 220 258 313 384
#     4  10  20  38  69  97 120 168 217 267 332 385
#     4  10  20  38  66  94 125 165 216 264 326 386
#
# _framework density 24.347463999999999
#
# number of rings (size 3 to 8) (size 9 to 14) (size 15 to 20)
#    0.000    1.867    2.667    1.200    1.867    1.600 
#    0.000    1.333    0.000    0.000    0.000    0.000 
#    0.000    0.000    0.000    0.000    0.000    0.000 
#
# Total GULP energy -83591.428813 kJ/mol
# GULP energy per Si atom -5572.761921 kJ/mol
# Density = 2.429205 g / cm^3
# Si number density = 24.347464 Si / 1000 Ang^3
#
#
#
# Elastic Constant Matrix: (Units=GPa)
#
#
# Indices 1 2 3 4 5 6 
#
# 1 80.5785 18.9176 22.0589 -0.5912 -2.8050 -4.1659
# 2 18.9176 126.3090 8.4935 3.4648 -13.2473 -25.7219
# 3 22.0589 8.4935 107.1438 -10.8477 -31.2054 -3.4672
# 4 -0.5912 3.4648 -10.8477 40.6942 -7.0097 -10.9240
# 5 -2.8050 -13.2473 -31.2054 -7.0097 29.6729 1.8814
# 6 -4.1659 -25.7219 -3.4672 -10.9240 1.8814 28.2457
#
#
#
# Elastic Compliance Matrix: (Units=1/GPa)
#
#
# Indices 1 2 3 4 5 6 
#
# 1 0.013912 -0.002451 -0.004217 -0.001792 -0.004569 -0.001087
# 2 -0.002451 0.011066 0.002652 0.004040 0.007749 0.011087
# 3 -0.004217 0.002652 0.017194 0.009533 0.020725 0.006210
# 4 -0.001792 0.004040 0.009533 0.034445 0.018741 0.016658
# 5 -0.004569 0.007749 0.020725 0.018741 0.062188 0.012033
# 6 -0.001087 0.011087 0.006210 0.016658 0.012033 0.051743
#
#
# Mechanical properties :
#
#
# Convention : Reuss Voigt Hill
#
# Bulk Modulus (GPa) = 29.29221 45.88573 37.58897
# Shear Modulus (GPa) = 23.81414 37.35999 30.58707
#
# Velocity S-wave (km/s) = 3.13084 3.92146 3.54824
# Velocity P-wave (km/s) = 5.01264 6.27622 5.67968
#
# Compressibility (1/GPa) = 0.03413877
#
# Stress axis : x y z
#
# Youngs Moduli (GPa) = 71.88124 90.36967 58.16136
#
# Poissons Ratio (x) = 0.22153 0.24527
# Poissons Ratio (y) = 0.17621 -0.15426
# Poissons Ratio (z) = 0.30313 -0.23969
#
# Static dielectric constant tensor:
#      x y z
#    x 2.006880 0.013330 -0.021470 
#    y 0.013330 2.025100 0.021650 
#    z -0.021470 0.021650 1.903400 
# 
# From -- ./inp_files/505927.got.cif
#   From: 2010.05.17/outbox.cif.g08.bks.cpg/sg2_253_cif.got.tgz:505927.got - 2010.06.03 11:33:40.
