data_PCOD9077927
_publ_section_title
;
Structure prediction by ZEFSAII (Michael W. Deem and Ramdas Pophale) SiO2 
 PCOD9077927
Probable space group: P -1
;
_chemical_formula_sum "Si O2"
_cell_formula_units_Z 16
_cell_length_a 15.158457
_cell_length_b 7.667863
_cell_length_c 9.470717
_cell_angle_alpha 115.003348
_cell_angle_beta 55.999273
_cell_angle_gamma 141.570177
_cell_volume 566.981456
_symmetry_space_group_name_H-M "P -1"
_symmetry_group_IT_number 2
_symmetry_cell_setting 'triclinic'
loop_
_space_group_symop_operation_xyz
x,y,z
-x,-y,-z
loop_
_atom_site_type_symbol
_atom_site_label
_atom_site_fract_x
_atom_site_fract_y
_atom_site_fract_z
Si Si1 0.804633 0.067203 0.259742
Si Si2 0.743382 0.617256 0.359585
Si Si3 0.845646 0.495280 0.881814
Si Si4 0.060332 0.934871 0.305057
Si Si5 0.433967 0.909693 0.861739
Si Si6 0.668916 0.646419 0.014158
Si Si7 0.668433 0.816137 0.723362
Si Si8 0.277248 0.763019 0.377790
O O1 0.773913 0.226424 0.423352
O O2 0.984138 0.285882 0.136441
O O3 0.773499 0.850610 0.321881
O O4 0.703470 0.885979 0.153134
O O5 0.628267 0.322812 0.282939
O O6 0.674803 0.621672 0.565866
O O7 0.909397 0.728678 0.272419
O O8 0.852159 0.473489 0.698138
O O9 0.732258 0.222281 0.989521
O O10 0.754320 0.581529 0.999219
O O11 0.148132 0.894564 0.308060
O O12 0.000000 0.000000 0.500000
O O13 0.218743 0.196415 0.168801
O O14 0.580497 0.198255 0.748546
O O15 0.500000 0.000000 0.000000
O O16 0.482558 0.378164 0.105334
O O17 0.638382 0.947082 0.680671
#
# Coordination Sequence:
#
# PCOD9077927 Si02
#       8
#     2   2   2   2   2   2   2   2
#     4  11  20  33  56  88 114 140 187 240 289 333
#     4  10  18  35  56  83 118 145 186 234 282 332
#     4  11  20  32  53  88 115 149 175 233 292 341
#     4  10  22  37  55  84 113 152 195 236 272 327
#     4  10  19  32  53  84 115 145 177 227 292 337
#     4  12  20  34  60  86 111 142 195 240 281 329
#     4  10  21  35  56  84 116 155 190 225 271 342
#     4  10  21  35  53  86 120 148 178 227 297 340
#
# _framework density 28.219619000000002
#
# number of rings (size 3 to 8) (size 9 to 14) (size 15 to 20)
#    0.000    1.500    3.750    2.625    0.000    2.000 
#    0.000    0.000    0.000    6.750    0.000    5.250 
#    0.000    0.000    0.000    0.000    0.000    0.000 
#
# Total GULP energy -89171.449151 kJ/mol
# GULP energy per Si atom -5573.215572 kJ/mol
# Density = 2.815539 g / cm^3
# Si number density = 28.219619 Si / 1000 Ang^3
#
#
#
# Elastic Constant Matrix: (Units=GPa)
#
#
# Indices 1 2 3 4 5 6 
#
# 1 57.4616 26.7417 31.3898 -18.0212 -13.6025 16.3476
# 2 26.7417 90.2921 16.6814 -11.8373 -11.6867 21.1164
# 3 31.3898 16.6814 184.2407 3.0463 -14.1652 -0.2718
# 4 -18.0212 -11.8373 3.0463 60.8374 1.4477 -1.4069
# 5 -13.6025 -11.6867 -14.1652 1.4477 37.0534 -16.4984
# 6 16.3476 21.1164 -0.2718 -1.4069 -16.4984 33.8691
#
#
#
# Elastic Compliance Matrix: (Units=1/GPa)
#
#
# Indices 1 2 3 4 5 6 
#
# 1 0.026910 -0.003797 -0.004157 0.007166 0.002810 -0.008989
# 2 -0.003797 0.014140 -0.000703 0.001507 -0.000441 -0.007141
# 3 -0.004157 -0.000703 0.006414 -0.001663 0.002362 0.003578
# 4 0.007166 0.001507 -0.001663 0.018851 0.000151 -0.003555
# 5 0.002810 -0.000441 0.002362 0.000151 0.036148 0.016552
# 6 -0.008989 -0.007141 0.003578 -0.003555 0.016552 0.046261
#
#
# Mechanical properties :
#
#
# Convention : Reuss Voigt Hill
#
# Bulk Modulus (GPa) = 33.16545 53.51336 43.33940
# Shear Modulus (GPa) = 28.39510 43.49741 35.94625
#
# Velocity S-wave (km/s) = 3.17554 3.93031 3.57291
# Velocity P-wave (km/s) = 5.02230 6.29292 5.69317
#
# Compressibility (1/GPa) = 0.03015186
#
# Stress axis : x y z
#
# Youngs Moduli (GPa) = 37.16026 70.72093 155.91111
#
# Poissons Ratio (x) = 0.26851 0.64809
# Poissons Ratio (y) = 0.14109 0.10957
# Poissons Ratio (z) = 0.15447 0.04970
#
# Static dielectric constant tensor:
#      x y z
#    x 2.906670 -0.179020 -0.000300 
#    y -0.179020 2.290020 0.123290 
#    z -0.000300 0.123290 2.453940 
# 
# From -- ./inp_files/463905.got.cif
#   From: 2010.05.17/outbox.cif.g08.bks.cpg/sg2_232_cif.got.tgz:463905.got - 2010.06.03 11:33:40.
