data_PCOD9077223
_publ_section_title
;
Structure prediction by ZEFSAII (Michael W. Deem and Ramdas Pophale) SiO2 
 PCOD9077223
Probable space group: P -1
;
_chemical_formula_sum "Si O2"
_cell_formula_units_Z 14
_cell_length_a 5.500272
_cell_length_b 7.657885
_cell_length_c 15.168683
_cell_angle_alpha 79.570099
_cell_angle_beta 89.683075
_cell_angle_gamma 121.320688
_cell_volume 532.997511
_symmetry_space_group_name_H-M "P -1"
_symmetry_group_IT_number 2
_symmetry_cell_setting 'triclinic'
loop_
_space_group_symop_operation_xyz
x,y,z
-x,-y,-z
loop_
_atom_site_type_symbol
_atom_site_label
_atom_site_fract_x
_atom_site_fract_y
_atom_site_fract_z
Si Si1 0.591004 0.402755 0.882834
Si Si2 0.033403 0.010565 0.871052
Si Si3 0.985581 0.819500 0.328065
Si Si4 0.369020 0.674243 0.633522
Si Si5 0.586356 0.279269 0.579692
Si Si6 0.030850 0.314816 0.973494
Si Si7 0.857123 0.658115 0.682276
O O1 0.374854 0.167484 0.867285
O O2 0.352426 0.446956 0.919064
O O3 0.751697 0.537506 0.785163
O O4 0.810860 0.391619 0.951065
O O5 0.955777 0.040812 0.771115
O O6 0.902062 0.104918 0.929999
O O7 0.954165 0.784355 0.924562
O O8 0.805349 0.572564 0.315678
O O9 0.747195 0.821246 0.389217
O O10 0.249716 0.830883 0.376251
O O11 0.365565 0.684568 0.527382
O O12 0.691939 0.775795 0.655529
O O13 0.194670 0.767920 0.666705
O O14 0.743403 0.496516 0.614531
#
# Coordination Sequence:
#
# PCOD9077223 Si02
#       7
#     2   2   2   2   2   2   2
#     4  10  15  24  27  34  39  44  51  55  63  67
#     4   9  17  21  29  32  41  42  53  53  65  65
#     4  10  16  21  28  33  39  45  50  57  61  68
#     4  10  16  22  27  33  39  45  51  56  62  67
#     4  10  16  22  27  33  39  45  51  56  62  67
#     4   9  17  21  29  33  39  45  49  57  61  69
#     4  10  15  21  29  33  39  45  50  57  61  68
#
# _framework density 26.266539000000002
#
# number of rings (size 3 to 8) (size 9 to 14) (size 15 to 20)
#    0.857    1.429    2.857    7.286    0.000    0.000 
#    0.000    0.000    0.000    0.000    0.000    0.000 
#    0.000    0.000    0.000    0.000    0.000    0.000 
#
# Total GULP energy -78357.226076 kJ/mol
# GULP energy per Si atom -5596.944720 kJ/mol
# Density = 2.620676 g / cm^3
# Si number density = 26.266539 Si / 1000 Ang^3
#
#
#
# Elastic Constant Matrix: (Units=GPa)
#
#
# Indices 1 2 3 4 5 6 
#
# 1 255.8581 31.4544 68.9847 -5.2450 20.5796 -13.1625
# 2 31.4544 36.1897 10.0738 -20.8815 -3.6885 -0.8209
# 3 68.9847 10.0738 155.5276 16.0472 22.6043 13.8227
# 4 -5.2450 -20.8815 16.0472 22.9108 -10.8066 14.5555
# 5 20.5796 -3.6885 22.6043 -10.8066 41.6500 1.4511
# 6 -13.1625 -0.8209 13.8227 14.5555 1.4511 30.3566
#
#
#
# Elastic Compliance Matrix: (Units=1/GPa)
#
#
# Indices 1 2 3 4 5 6 
#
# 1 0.003770 0.007829 -0.004292 0.016364 0.005556 -0.004311
# 2 0.007829 -0.061466 0.016261 -0.127650 -0.053281 0.058081
# 3 -0.004292 0.016261 0.005148 0.023498 0.007400 -0.015386
# 4 0.016364 -0.127650 0.023498 -0.174244 -0.080152 0.080322
# 5 0.005556 -0.053281 0.007400 -0.080152 -0.009538 0.036486
# 6 -0.004311 0.058081 -0.015386 0.080322 0.036486 -0.000608
#
#
# Mechanical properties :
#
#
# Convention : Reuss Voigt Hill
#
# Bulk Modulus (GPa) = -77.20739 74.28900 -1.45919
# Shear Modulus (GPa) = -17.80297 41.45431 11.82567
#
# Velocity S-wave (km/s) = -2.60625 3.97699 2.12414
# Velocity P-wave (km/s) = 6.20599 7.03084 2.33649
#
# Compressibility (1/GPa) = -0.01295213
#
# Stress axis : x y z
#
# Youngs Moduli (GPa) = 265.25242 -16.26920 194.26638
#
# Poissons Ratio (x) = 0.12737 0.83380
# Poissons Ratio (y) = -2.07658 -3.15905
# Poissons Ratio (z) = 1.13848 0.26456
#
# Static dielectric constant tensor:
#      x y z
#    x 2.048740 -0.010720 -0.006180 
#    y -0.010720 2.228020 0.008110 
#    z -0.006180 0.008110 1.949910 
# 
# From -- ./inp_files/98795.got.cif
#   From: 2010.05.17/outbox.cif.g08.bks.cpg/sg2_50_cif.got.tgz:98795.got - 2010.06.03 11:33:40.
