data_PCOD9077412
_publ_section_title
;
Structure prediction by ZEFSAII (Michael W. Deem and Ramdas Pophale) SiO2 
 PCOD9077412
Probable space group: P -1
;
_chemical_formula_sum "Si O2"
_cell_formula_units_Z 12
_cell_length_a 8.555036
_cell_length_b 7.960930
_cell_length_c 7.481956
_cell_angle_alpha 87.073147
_cell_angle_beta 98.492551
_cell_angle_gamma 110.798595
_cell_volume 471.136427
_symmetry_space_group_name_H-M "P -1"
_symmetry_group_IT_number 2
_symmetry_cell_setting 'triclinic'
loop_
_space_group_symop_operation_xyz
x,y,z
-x,-y,-z
loop_
_atom_site_type_symbol
_atom_site_label
_atom_site_fract_x
_atom_site_fract_y
_atom_site_fract_z
Si Si1 0.640846 0.942739 0.316594
Si Si2 0.797435 0.944351 0.987380
Si Si3 0.541915 0.769095 0.671342
Si Si4 0.051692 0.679735 0.114409
Si Si5 0.773426 0.548895 0.303365
Si Si6 0.926122 0.263456 0.476603
O O1 0.669252 0.871630 0.134405
O O2 0.541326 0.082166 0.293064
O O3 0.829149 0.064581 0.407473
O O4 0.560090 0.794039 0.460421
O O5 0.812291 0.156678 0.972863
O O6 0.715607 0.834532 0.803481
O O7 0.000000 0.000000 0.000000
O O8 0.420032 0.569234 0.712296
O O9 0.859648 0.668477 0.139146
O O10 0.126750 0.710322 0.328723
O O11 0.000000 0.500000 0.000000
O O12 0.871402 0.674320 0.478250
O O13 0.862974 0.396533 0.341950
#
# Coordination Sequence:
#
# PCOD9077412 Si02
#       6
#     2   2   2   2   2   2
#     4  10  20  37  64  86 117 160 204 256 292 348
#     4  12  26  40  58  90 130 166 195 240 312 371
#     4  10  19  39  59  93 119 151 209 255 296 350
#     4  10  18  34  59  87 117 157 204 247 285 356
#     4   8  16  30  56  84 113 141 190 258 294 330
#     4   8  15  32  54  90 112 142 199 248 299 338
#
# _framework density 25.470327000000001
#
# number of rings (size 3 to 8) (size 9 to 14) (size 15 to 20)
#    1.000    1.333    1.667    2.500    0.000    0.667 
#    0.000    0.833    0.000    2.000    0.000    0.000 
#    0.000    0.000    0.000    0.000    0.000    0.000 
#
# Total GULP energy -66826.002982 kJ/mol
# GULP energy per Si atom -5568.833582 kJ/mol
# Density = 2.541236 g / cm^3
# Si number density = 25.470327 Si / 1000 Ang^3
#
#
#
# Elastic Constant Matrix: (Units=GPa)
#
#
# Indices 1 2 3 4 5 6 
#
# 1 63.3867 10.7809 20.8456 -15.9963 5.0600 4.5674
# 2 10.7809 75.4455 -15.8259 17.5030 -2.1349 50.0107
# 3 20.8456 -15.8259 93.3299 -6.6023 -25.4211 15.8126
# 4 -15.9963 17.5030 -6.6023 23.0499 26.8201 -9.7644
# 5 5.0600 -2.1349 -25.4211 26.8201 26.5932 16.7457
# 6 4.5674 50.0107 15.8126 -9.7644 16.7457 39.8865
#
#
#
# Elastic Compliance Matrix: (Units=1/GPa)
#
#
# Indices 1 2 3 4 5 6 
#
# 1 0.015116 0.004091 -0.000137 -0.001249 0.004160 -0.008859
# 2 0.004091 0.008917 -0.002671 0.013542 -0.015894 -0.000602
# 3 -0.000137 -0.002671 0.009511 0.009981 -0.003325 0.003434
# 4 -0.001249 0.013542 0.009981 0.014222 0.010092 -0.021548
# 5 0.004160 -0.015894 -0.003325 0.010092 0.010256 0.018935
# 6 -0.008859 -0.000602 0.003434 -0.021548 0.018935 0.012255
#
#
# Mechanical properties :
#
#
# Convention : Reuss Voigt Hill
#
# Bulk Modulus (GPa) = 27.69175 29.30704 28.49940
# Shear Modulus (GPa) = 62.69783 32.33001 47.51392
#
# Velocity S-wave (km/s) = 4.96684 3.56662 4.32378
# Velocity P-wave (km/s) = 6.61728 5.33782 6.01169
#
# Compressibility (1/GPa) = 0.03611183
#
# Stress axis : x y z
#
# Youngs Moduli (GPa) = 66.15433 112.14181 105.14186
#
# Poissons Ratio (x) = -0.45882 0.01437
# Poissons Ratio (y) = -0.27067 0.28084
# Poissons Ratio (z) = 0.00904 0.29954
#
# Static dielectric constant tensor:
#      x y z
#    x 2.182820 -0.100320 0.095570 
#    y -0.100320 2.127190 -0.153270 
#    z 0.095570 -0.153270 2.156570 
# 
# From -- ./inp_files/177978.got.cif
#   From: 2010.05.17/outbox.cif.g08.bks.cpg/sg2_89_cif.got.tgz:177978.got - 2010.06.03 11:33:40.
