data_PCOD9077283
_publ_section_title
;
Structure prediction by ZEFSAII (Michael W. Deem and Ramdas Pophale) SiO2 
 PCOD9077283
Probable space group: P -1
;
_chemical_formula_sum "Si O2"
_cell_formula_units_Z 16
_cell_length_a 17.137240
_cell_length_b 12.177525
_cell_length_c 9.734514
_cell_angle_alpha 119.257028
_cell_angle_beta 124.162648
_cell_angle_gamma 24.714934
_cell_volume 701.467752
_symmetry_space_group_name_H-M "P -1"
_symmetry_group_IT_number 2
_symmetry_cell_setting 'triclinic'
loop_
_space_group_symop_operation_xyz
x,y,z
-x,-y,-z
loop_
_atom_site_type_symbol
_atom_site_label
_atom_site_fract_x
_atom_site_fract_y
_atom_site_fract_z
Si Si1 0.160706 0.993857 0.506114
Si Si2 0.467659 0.467353 0.092102
Si Si3 0.848437 0.849330 0.156956
Si Si4 0.778032 0.660500 0.942927
Si Si5 0.807457 0.361972 0.231596
Si Si6 0.476852 0.834894 0.680656
Si Si7 0.537623 0.920980 0.333036
Si Si8 0.331854 0.570784 0.575253
O O1 0.050499 0.188470 0.645404
O O2 0.030470 0.146548 0.334775
O O3 0.350709 0.861838 0.609451
O O4 0.215567 0.790521 0.484633
O O5 0.483729 0.554635 0.277948
O O6 0.652048 0.155491 0.105889
O O7 0.500000 0.500000 0.000000
O O8 0.263738 0.633505 0.967132
O O9 0.008510 0.643364 0.069176
O O10 0.798025 0.767053 0.110580
O O11 0.625360 0.727597 0.871110
O O12 0.670640 0.838136 0.806432
O O13 0.657524 0.653628 0.271923
O O14 0.776388 0.322683 0.321233
O O15 0.609001 0.627172 0.558705
O O16 0.354490 0.091878 0.649276
O O17 0.500000 0.000000 0.500000
#
# Coordination Sequence:
#
# PCOD9077283 Si02
#       8
#     2   2   2   2   2   2   2   2
#     4  11  23  34  56  82 115 146 182 226 271 335
#     4   9  19  32  55  83 108 138 181 234 269 312
#     4  10  18  37  56  84 107 142 188 224 273 319
#     4   9  20  34  59  80 108 143 184 229 263 332
#     4  11  19  37  57  83 108 143 186 228 277 320
#     4  10  21  36  53  85 109 148 181 224 281 321
#     4  10  18  34  58  79 108 142 175 229 269 328
#     4  10  20  37  58  76 108 150 189 224 267 325
#
# _framework density 22.809318000000001
#
# number of rings (size 3 to 8) (size 9 to 14) (size 15 to 20)
#    0.750    1.250    2.500    2.250    0.000    3.000 
#    0.000    0.625    0.000    7.500    0.000    0.000 
#    0.000    0.000    0.000    0.000    0.000    0.000 
#
# Total GULP energy -89181.631691 kJ/mol
# GULP energy per Si atom -5573.851981 kJ/mol
# Density = 2.275740 g / cm^3
# Si number density = 22.809318 Si / 1000 Ang^3
#
#
#
# Elastic Constant Matrix: (Units=GPa)
#
#
# Indices 1 2 3 4 5 6 
#
# 1 69.6451 19.9086 -10.7277 -10.3253 12.7063 5.8872
# 2 19.9086 51.7489 35.8644 -14.4745 15.5375 5.1061
# 3 -10.7277 35.8644 95.4865 -11.7876 22.2183 12.0006
# 4 -10.3253 -14.4745 -11.7876 30.3421 2.4336 4.9094
# 5 12.7063 15.5375 22.2183 2.4336 32.3081 -0.5266
# 6 5.8872 5.1061 12.0006 4.9094 -0.5266 24.2402
#
#
#
# Elastic Compliance Matrix: (Units=1/GPa)
#
#
# Indices 1 2 3 4 5 6 
#
# 1 0.024811 -0.009071 0.013064 0.012618 -0.015550 -0.013476
# 2 -0.009071 0.035809 -0.011394 0.010417 -0.006635 -0.001953
# 3 0.013064 -0.011394 0.023580 0.012004 -0.017027 -0.015248
# 4 0.012618 0.010417 0.012004 0.052297 -0.022530 -0.022283
# 5 -0.015550 -0.006635 -0.017027 -0.022530 0.053980 0.019339
# 6 -0.013476 -0.001953 -0.015248 -0.022283 0.019339 0.057420
#
#
# Mechanical properties :
#
#
# Convention : Reuss Voigt Hill
#
# Bulk Modulus (GPa) = 14.40964 34.10791 24.25877
# Shear Modulus (GPa) = 17.49291 28.83374 23.16333
#
# Velocity S-wave (km/s) = 2.77234 3.55931 3.19018
# Velocity P-wave (km/s) = 4.07172 5.64602 4.92222
#
# Compressibility (1/GPa) = 0.06939799
#
# Stress axis : x y z
#
# Youngs Moduli (GPa) = 40.30509 27.92614 42.40899
#
# Poissons Ratio (x) = 0.25332 -0.55403
# Poissons Ratio (y) = 0.36562 0.48319
# Poissons Ratio (z) = -0.52655 0.31818
#
# Static dielectric constant tensor:
#      x y z
#    x 1.972420 -0.048290 0.054340 
#    y -0.048290 1.830140 -0.001640 
#    z 0.054340 -0.001640 1.901990 
# 
# From -- ./inp_files/464743.got.cif
#   From: 2010.05.17/outbox.cif.g08.bks.cpg/sg2_233_cif.got.tgz:464743.got - 2010.06.03 11:33:40.
