data_PCOD9077569
_publ_section_title
;
Structure prediction by ZEFSAII (Michael W. Deem and Ramdas Pophale) SiO2 
 PCOD9077569
Probable space group: P -1
;
_chemical_formula_sum "Si O2"
_cell_formula_units_Z 16
_cell_length_a 12.068594
_cell_length_b 14.400689
_cell_length_c 8.666893
_cell_angle_alpha 61.808048
_cell_angle_beta 84.191359
_cell_angle_gamma 36.585575
_cell_volume 671.258517
_symmetry_space_group_name_H-M "P -1"
_symmetry_group_IT_number 2
_symmetry_cell_setting 'triclinic'
loop_
_space_group_symop_operation_xyz
x,y,z
-x,-y,-z
loop_
_atom_site_type_symbol
_atom_site_label
_atom_site_fract_x
_atom_site_fract_y
_atom_site_fract_z
Si Si1 0.806699 0.717446 0.766679
Si Si2 0.573057 0.427893 0.722793
Si Si3 0.749459 0.503329 0.683260
Si Si4 0.216834 0.640589 0.794030
Si Si5 0.378068 0.860020 0.019689
Si Si6 0.875078 0.842055 0.889197
Si Si7 0.140396 0.533146 0.647582
Si Si8 0.491452 0.782775 0.751258
O O1 0.767376 0.853795 0.768207
O O2 0.603260 0.806136 0.715393
O O3 0.922271 0.653097 0.639329
O O4 0.000000 0.500000 0.000000
O O5 0.500000 0.500000 0.500000
O O6 0.743841 0.381044 0.766602
O O7 0.376587 0.600351 0.741480
O O8 0.641001 0.250958 0.870126
O O9 0.811431 0.498128 0.513902
O O10 0.515317 0.729681 0.609850
O O11 0.938194 0.378767 0.874895
O O12 0.133547 0.651951 0.641108
O O13 0.010129 0.821989 0.791738
O O14 0.367539 0.430173 0.025722
O O15 0.630234 0.696191 0.131585
O O16 0.261558 0.004203 0.070027
O O17 0.309437 0.939827 0.789446
#
# Coordination Sequence:
#
# PCOD9077569 Si02
#       8
#     2   2   2   2   2   2   2   2
#     4  11  16  38  57  79 105 153 179 215 261 331
#     4  10  18  34  61  77 104 143 183 217 263 319
#     4  11  19  34  57  84 101 141 183 226 256 316
#     4   8  16  33  52  76 103 143 176 211 256 331
#     4  10  20  37  52  82 110 145 172 223 268 324
#     4  10  22  33  55  81 115 134 180 224 271 307
#     4   9  18  32  59  77 106 137 191 212 258 322
#     4   9  19  33  55  79 108 140 187 214 257 324
#
# _framework density 23.835825
#
# number of rings (size 3 to 8) (size 9 to 14) (size 15 to 20)
#    0.000    2.500    7.500    0.000    0.000    6.000 
#    0.000    3.125    0.000    1.500    0.000    0.000 
#    0.000    0.000    0.000    0.000    0.000    0.000 
#
# Total GULP energy -89118.009387 kJ/mol
# GULP energy per Si atom -5569.875587 kJ/mol
# Density = 2.378157 g / cm^3
# Si number density = 23.835825 Si / 1000 Ang^3
#
#
#
# Elastic Constant Matrix: (Units=GPa)
#
#
# Indices 1 2 3 4 5 6 
#
# 1 88.2706 18.8831 22.0967 7.9549 -15.8655 3.0283
# 2 18.8831 135.8103 41.2141 54.6419 -11.8617 2.1519
# 3 22.0967 41.2141 94.8966 40.9230 -12.1293 -7.9995
# 4 7.9549 54.6419 40.9230 59.6717 -8.0248 -3.1806
# 5 -15.8655 -11.8617 -12.1293 -8.0248 33.2168 8.6521
# 6 3.0283 2.1519 -7.9995 -3.1806 8.6521 24.6085
#
#
#
# Elastic Compliance Matrix: (Units=1/GPa)
#
#
# Indices 1 2 3 4 5 6 
#
# 1 0.013498 -0.001070 -0.003048 0.001914 0.006623 -0.004639
# 2 -0.001070 0.012109 -0.000494 -0.010517 0.001904 -0.003116
# 3 -0.003048 -0.000494 0.016188 -0.009915 0.000812 0.004114
# 4 0.001914 -0.010517 -0.009915 0.033166 0.001206 0.001324
# 5 0.006623 0.001904 0.000812 0.001206 0.038179 -0.013985
# 6 -0.004639 -0.003116 0.004114 0.001324 -0.013985 0.047905
#
#
# Mechanical properties :
#
#
# Convention : Reuss Voigt Hill
#
# Bulk Modulus (GPa) = 30.70248 53.70727 42.20488
# Shear Modulus (GPa) = 27.60507 39.28498 33.44502
#
# Velocity S-wave (km/s) = 3.40683 4.06414 3.74992
# Velocity P-wave (km/s) = 5.32767 6.67863 6.04103
#
# Compressibility (1/GPa) = 0.03257066
#
# Stress axis : x y z
#
# Youngs Moduli (GPa) = 74.08635 82.58385 61.77286
#
# Poissons Ratio (x) = 0.08835 0.18831
# Poissons Ratio (y) = 0.07926 0.03051
# Poissons Ratio (z) = 0.22584 0.04079
#
# Static dielectric constant tensor:
#      x y z
#    x 1.896630 -0.023430 0.024210 
#    y -0.023430 2.082930 -0.031460 
#    z 0.024210 -0.031460 1.979200 
# 
# From -- ./inp_files/269971.got.cif
#   From: 2010.05.17/outbox.cif.g08.bks.cpg/sg2_135_cif.got.tgz:269971.got - 2010.06.03 11:33:40.
