data_PCOD9077468
_publ_section_title
;
Structure prediction by ZEFSAII (Michael W. Deem and Ramdas Pophale) SiO2 
 PCOD9077468
Probable space group: P -1
;
_chemical_formula_sum "Si O2"
_cell_formula_units_Z 16
_cell_length_a 9.165948
_cell_length_b 8.847281
_cell_length_c 11.170138
_cell_angle_alpha 113.622462
_cell_angle_beta 101.088604
_cell_angle_gamma 118.437184
_cell_volume 641.978325
_symmetry_space_group_name_H-M "P -1"
_symmetry_group_IT_number 2
_symmetry_cell_setting 'triclinic'
loop_
_space_group_symop_operation_xyz
x,y,z
-x,-y,-z
loop_
_atom_site_type_symbol
_atom_site_label
_atom_site_fract_x
_atom_site_fract_y
_atom_site_fract_z
Si Si1 0.976674 0.402747 0.151646
Si Si2 0.623640 0.618908 0.437550
Si Si3 0.264736 0.250655 0.010370
Si Si4 0.880436 0.560712 0.563863
Si Si5 0.395971 0.687896 0.859951
Si Si6 0.399038 0.690754 0.250599
Si Si7 0.514355 0.110037 0.304011
Si Si8 0.865969 0.016183 0.853290
O O1 0.804617 0.411070 0.145012
O O2 0.186175 0.610541 0.221950
O O3 0.910297 0.221289 0.989797
O O4 0.200342 0.155918 0.107023
O O5 0.500000 0.500000 0.500000
O O6 0.831931 0.704705 0.543351
O O7 0.610449 0.473498 0.281816
O O8 0.534132 0.713606 0.384874
O O9 0.069739 0.108751 0.863155
O O10 0.430470 0.237112 0.003020
O O11 0.346373 0.491041 0.102541
O O12 0.682873 0.325194 0.460244
O O13 0.000000 0.500000 0.500000
O O14 0.983274 0.658849 0.735749
O O15 0.452356 0.864136 0.826747
O O16 0.501687 0.915779 0.282319
O O17 0.315802 0.069699 0.281942
#
# Coordination Sequence:
#
# PCOD9077468 Si02
#       8
#     2   2   2   2   2   2   2   2
#     4  11  20  35  63  91 116 156 206 242 294 353
#     4  10  18  34  60  82 110 155 201 232 284 351
#     4   8  17  35  57  83 116 151 201 241 285 342
#     4  11  21  40  62  88 118 158 195 250 299 355
#     4   9  19  36  59  84 117 155 198 249 286 349
#     4  10  21  35  60  90 120 156 196 251 301 349
#     4  10  21  37  59  88 124 155 196 245 305 352
#     4   9  19  36  63  89 112 161 209 244 281 361
#
# _framework density 24.92296
#
# number of rings (size 3 to 8) (size 9 to 14) (size 15 to 20)
#    0.000    2.250    3.750    0.750    0.000    4.500 
#    0.000    0.625    0.000   33.000    0.000    0.000 
#    0.000    0.000    0.000    0.000    0.000    0.000 
#
# Total GULP energy -89285.825493 kJ/mol
# GULP energy per Si atom -5580.364093 kJ/mol
# Density = 2.486623 g / cm^3
# Si number density = 24.922960 Si / 1000 Ang^3
#
#
#
# Elastic Constant Matrix: (Units=GPa)
#
#
# Indices 1 2 3 4 5 6 
#
# 1 206.8239 72.6333 55.8622 7.2696 32.4079 14.7488
# 2 72.6333 78.3994 20.2751 2.7282 9.7146 -23.8868
# 3 55.8622 20.2751 100.2194 17.8279 30.3269 6.4622
# 4 7.2696 2.7282 17.8279 20.1857 8.6981 0.2048
# 5 32.4079 9.7146 30.3269 8.6981 45.1495 4.8578
# 6 14.7488 -23.8868 6.4622 0.2048 4.8578 40.5181
#
#
#
# Elastic Compliance Matrix: (Units=1/GPa)
#
#
# Indices 1 2 3 4 5 6 
#
# 1 0.011039 -0.012624 -0.002259 0.001009 -0.002724 -0.010779
# 2 -0.012624 0.031854 -0.001175 0.000915 0.000290 0.023522
# 3 -0.002259 -0.001175 0.015210 -0.009728 -0.006308 -0.001491
# 4 0.001009 0.000915 -0.009728 0.060311 -0.006239 0.002167
# 5 -0.002724 0.000290 -0.006308 -0.006239 0.029627 -0.001352
# 6 -0.010779 0.023522 -0.001491 0.002167 -0.001352 0.042860
#
#
# Mechanical properties :
#
#
# Convention : Reuss Voigt Hill
#
# Bulk Modulus (GPa) = 38.48079 75.88710 57.18395
# Shear Modulus (GPa) = 21.58160 36.94879 29.26519
#
# Velocity S-wave (km/s) = 2.94587 3.85453 3.43042
# Velocity P-wave (km/s) = 5.20041 7.09398 6.21968
#
# Compressibility (1/GPa) = 0.02598699
#
# Stress axis : x y z
#
# Youngs Moduli (GPa) = 90.59047 31.39348 65.74419
#
# Poissons Ratio (x) = 0.39632 0.14852
# Poissons Ratio (y) = 1.14363 0.07723
# Poissons Ratio (z) = 0.20465 0.03688
#
# Static dielectric constant tensor:
#      x y z
#    x 2.107190 0.015850 0.041370 
#    y 0.015850 1.993850 -0.020050 
#    z 0.041370 -0.020050 2.114030 
# 
# From -- ./inp_files/502018.got.cif
#   From: 2010.05.17/outbox.cif.g08.bks.cpg/sg2_252_cif.got.tgz:502018.got - 2010.06.03 11:33:40.
