data_PCOD9077153
_publ_section_title
;
Structure prediction by ZEFSAII (Michael W. Deem and Ramdas Pophale) SiO2 
 PCOD9077153
Probable space group: P -1
;
_chemical_formula_sum "Si O2"
_cell_formula_units_Z 16
_cell_length_a 11.005944
_cell_length_b 6.878674
_cell_length_c 20.678308
_cell_angle_alpha 44.062374
_cell_angle_beta 40.202225
_cell_angle_gamma 68.773833
_cell_volume 639.018212
_symmetry_space_group_name_H-M "P -1"
_symmetry_group_IT_number 2
_symmetry_cell_setting 'triclinic'
loop_
_space_group_symop_operation_xyz
x,y,z
-x,-y,-z
loop_
_atom_site_type_symbol
_atom_site_label
_atom_site_fract_x
_atom_site_fract_y
_atom_site_fract_z
Si Si1 0.716201 0.371118 0.781020
Si Si2 0.038640 0.023418 0.255607
Si Si3 0.269382 0.480021 0.594985
Si Si4 0.267980 0.975826 0.029142
Si Si5 0.603151 0.363303 0.043343
Si Si6 0.169094 0.358254 0.459991
Si Si7 0.897922 0.930165 0.129128
Si Si8 0.445717 0.886819 0.314612
O O1 0.792183 0.124288 0.776117
O O2 0.798564 0.340229 0.826135
O O3 0.785363 0.635300 0.636067
O O4 0.468979 0.225242 0.921597
O O5 0.868666 0.813003 0.323519
O O6 0.928040 0.959921 0.385286
O O7 0.172088 0.369078 0.097513
O O8 0.500000 0.500000 0.500000
O O9 0.181647 0.407009 0.721549
O O10 0.307894 0.771036 0.463193
O O11 0.347348 0.897941 0.949077
O O12 0.098220 0.101875 0.051959
O O13 0.500000 0.500000 0.000000
O O14 0.443091 0.179327 0.208413
O O15 0.358105 0.594426 0.370727
O O16 0.000000 0.500000 0.500000
O O17 0.691051 0.987081 0.203847
O O18 0.000000 0.000000 0.000000
#
# Coordination Sequence:
#
# PCOD9077153 Si02
#       8
#     2   2   2   2   2   2   2   2
#     4  10  18  34  56  86 112 151 202 239 281 343
#     4  10  19  33  59  85 116 146 192 246 289 345
#     4   9  20  37  60  86 110 153 207 243 275 346
#     4  11  21  33  57  86 118 151 196 244 288 345
#     4  12  21  36  55  90 124 153 184 243 308 346
#     4   9  16  32  56  83 108 152 197 237 278 342
#     4  11  19  35  61  86 109 148 205 239 283 338
#     4  10  20  36  59  87 114 156 197 242 284 352
#
# _framework density 25.038409000000001
#
# number of rings (size 3 to 8) (size 9 to 14) (size 15 to 20)
#    0.000    1.750    5.000    0.750    0.000    0.000 
#    0.000    3.125    0.000    6.750    0.000    0.000 
#    0.000    0.000    0.000    0.000    0.000    0.000 
#
# Total GULP energy -89108.347408 kJ/mol
# GULP energy per Si atom -5569.271713 kJ/mol
# Density = 2.498142 g / cm^3
# Si number density = 25.038409 Si / 1000 Ang^3
#
#
#
# Elastic Constant Matrix: (Units=GPa)
#
#
# Indices 1 2 3 4 5 6 
#
# 1 136.5208 4.0523 55.8670 8.4315 2.1151 -6.0805
# 2 4.0523 25.8211 17.4132 -0.6472 7.2052 7.4168
# 3 55.8670 17.4132 192.3427 11.6444 57.5894 22.5714
# 4 8.4315 -0.6472 11.6444 39.7134 8.5782 5.6363
# 5 2.1151 7.2052 57.5894 8.5782 83.0680 13.8063
# 6 -6.0805 7.4168 22.5714 5.6363 13.8063 20.4272
#
#
#
# Elastic Compliance Matrix: (Units=1/GPa)
#
#
# Indices 1 2 3 4 5 6 
#
# 1 0.009315 -0.001445 -0.003719 -0.002234 0.001536 0.006985
# 2 -0.001445 0.044898 -0.001974 0.003874 -0.000330 -0.015396
# 3 -0.003719 -0.001974 0.008628 0.000195 -0.004594 -0.006873
# 4 -0.002234 0.003874 0.000195 0.027269 -0.001802 -0.008593
# 5 0.001536 -0.000330 -0.004594 -0.001802 0.016196 -0.004796
# 6 0.006985 -0.015396 -0.006873 -0.008593 -0.004796 0.069831
#
#
# Mechanical properties :
#
#
# Convention : Reuss Voigt Hill
#
# Bulk Modulus (GPa) = 20.59100 56.59441 38.59271
# Shear Modulus (GPa) = 24.20116 47.13186 35.66651
#
# Velocity S-wave (km/s) = 3.11233 4.34335 3.77831
# Velocity P-wave (km/s) = 4.59968 6.91412 5.87206
#
# Compressibility (1/GPa) = 0.04856491
#
# Stress axis : x y z
#
# Youngs Moduli (GPa) = 107.35328 22.27290 115.89926
#
# Poissons Ratio (x) = 0.03218 0.43106
# Poissons Ratio (y) = 0.15510 0.22878
# Poissons Ratio (z) = 0.39928 0.04396
#
# Static dielectric constant tensor:
#      x y z
#    x 2.074450 0.027400 0.080170 
#    y 0.027400 2.050150 0.040380 
#    z 0.080170 0.040380 2.112280 
# 
# From -- ./inp_files/557654.got.cif
#   From: 2010.05.17/outbox.cif.g08.bks.cpg/sg2_279_cif.got.tgz:557654.got - 2010.06.03 11:33:40.
