data_PCOD9077308
_publ_section_title
;
Structure prediction by ZEFSAII (Michael W. Deem and Ramdas Pophale) SiO2 
 PCOD9077308
Probable space group: P -1
;
_chemical_formula_sum "Si O2"
_cell_formula_units_Z 16
_cell_length_a 14.220152
_cell_length_b 12.380135
_cell_length_c 20.624149
_cell_angle_alpha 26.646101
_cell_angle_beta 31.528257
_cell_angle_gamma 29.696415
_cell_volume 758.057115
_symmetry_space_group_name_H-M "P -1"
_symmetry_group_IT_number 2
_symmetry_cell_setting 'triclinic'
loop_
_space_group_symop_operation_xyz
x,y,z
-x,-y,-z
loop_
_atom_site_type_symbol
_atom_site_label
_atom_site_fract_x
_atom_site_fract_y
_atom_site_fract_z
Si Si1 0.319873 0.153700 0.257000
Si Si2 0.155858 0.058377 0.113392
Si Si3 0.912784 0.696816 0.210159
Si Si4 0.005636 0.630823 0.839350
Si Si5 0.419627 0.327616 0.980902
Si Si6 0.740821 0.348695 0.443904
Si Si7 0.048055 0.908977 0.128021
Si Si8 0.548084 0.619110 0.841821
O O1 0.458236 0.130464 0.126456
O O2 0.431898 0.126966 0.274591
O O3 0.142037 0.459905 0.196441
O O4 0.219116 0.958963 0.407517
O O5 0.143227 0.348695 0.945986
O O6 0.386379 0.825080 0.097283
O O7 0.021921 0.010481 0.162369
O O8 0.058128 0.115299 0.211143
O O9 0.791115 0.523990 0.372247
O O10 0.887297 0.898954 0.057019
O O11 0.891109 0.863977 0.198649
O O12 0.133201 0.642181 0.697451
O O13 0.793587 0.631083 0.944048
O O14 0.414602 0.595993 0.873352
O O15 0.500000 0.500000 0.500000
O O16 0.232726 0.608506 0.186278
O O17 0.500000 0.500000 0.000000
#
# Coordination Sequence:
#
# PCOD9077308 Si02
#       8
#     2   2   2   2   2   2   2   2
#     4  10  19  34  53  81 116 142 173 227 277 333
#     4  10  20  36  56  82 111 139 183 231 275 322
#     4  10  19  33  56  83 107 143 179 227 282 318
#     4  11  22  36  54  82 110 148 182 224 275 326
#     4  10  18  34  58  84 107 137 184 226 281 320
#     4  12  24  36  51  80 116 149 183 219 277 334
#     4   9  17  33  56  82 109 132 182 235 275 320
#     4   8  17  28  52  81 110 137 168 228 278 314
#
# _framework density 21.106587999999999
#
# number of rings (size 3 to 8) (size 9 to 14) (size 15 to 20)
#    0.000    2.000    2.500    1.500    3.500    0.000 
#    0.000    0.000    0.000    7.500    0.000    0.000 
#    0.000    0.000    0.000    0.000    0.000    0.000 
#
# Total GULP energy -89137.877317 kJ/mol
# GULP energy per Si atom -5571.117332 kJ/mol
# Density = 2.105855 g / cm^3
# Si number density = 21.106588 Si / 1000 Ang^3
#
#
#
# Elastic Constant Matrix: (Units=GPa)
#
#
# Indices 1 2 3 4 5 6 
#
# 1 94.0811 31.6686 18.5457 4.6797 -35.7495 17.5945
# 2 31.6686 114.0363 18.3484 0.5485 -7.7633 18.4434
# 3 18.5457 18.3484 59.8626 -11.5665 -28.2446 3.4098
# 4 4.6797 0.5485 -11.5665 30.7152 2.1265 -7.7122
# 5 -35.7495 -7.7633 -28.2446 2.1265 35.7392 -5.6371
# 6 17.5945 18.4434 3.4098 -7.7122 -5.6371 37.8642
#
#
#
# Elastic Compliance Matrix: (Units=1/GPa)
#
#
# Indices 1 2 3 4 5 6 
#
# 1 0.021492 -0.004295 0.005705 -0.004151 0.024435 -0.005616
# 2 -0.004295 0.011095 -0.005426 -0.002219 -0.006732 -0.004374
# 3 0.005705 -0.005426 0.032710 0.010368 0.030342 0.003675
# 4 -0.004151 -0.002219 0.010368 0.039588 0.002870 0.010567
# 5 0.024435 -0.006732 0.030342 0.002870 0.074915 0.000930
# 6 -0.005616 -0.004374 0.003675 0.010567 0.000930 0.033110
#
#
# Mechanical properties :
#
#
# Convention : Reuss Voigt Hill
#
# Bulk Modulus (GPa) = 17.46257 45.01169 31.23713
# Shear Modulus (GPa) = 20.83070 34.15821 27.49445
#
# Velocity S-wave (km/s) = 3.14495 4.02726 3.61314
# Velocity P-wave (km/s) = 4.63455 6.55723 5.67787
#
# Compressibility (1/GPa) = 0.05726535
#
# Stress axis : x y z
#
# Youngs Moduli (GPa) = 46.52912 90.13351 30.57128
#
# Poissons Ratio (x) = 0.38708 -0.17440
# Poissons Ratio (y) = 0.19982 0.16588
# Poissons Ratio (z) = -0.26544 0.48907
#
# Static dielectric constant tensor:
#      x y z
#    x 1.894520 -0.031320 -0.058800 
#    y -0.031320 1.866260 -0.048740 
#    z -0.058800 -0.048740 1.803570 
# 
# From -- ./inp_files/611920.got.cif
#   From: 2010.05.17/outbox.cif.g08.bks.cpg/sg2_306_cif.got.tgz:611920.got - 2010.06.03 11:33:40.
