data_PCOD9077360
_publ_section_title
;
Structure prediction by ZEFSAII (Michael W. Deem and Ramdas Pophale) SiO2 
 PCOD9077360
Probable space group: P -1
;
_chemical_formula_sum "Si O2"
_cell_formula_units_Z 16
_cell_length_a 11.734988
_cell_length_b 9.083008
_cell_length_c 12.834830
_cell_angle_alpha 65.354179
_cell_angle_beta 113.409617
_cell_angle_gamma 141.839465
_cell_volume 762.380081
_symmetry_space_group_name_H-M "P -1"
_symmetry_group_IT_number 2
_symmetry_cell_setting 'triclinic'
loop_
_space_group_symop_operation_xyz
x,y,z
-x,-y,-z
loop_
_atom_site_type_symbol
_atom_site_label
_atom_site_fract_x
_atom_site_fract_y
_atom_site_fract_z
Si Si1 0.322357 0.660657 0.161249
Si Si2 0.033975 0.315434 0.850575
Si Si3 0.344228 0.467639 0.029052
Si Si4 0.091910 0.049048 0.629412
Si Si5 0.693555 0.996239 0.977484
Si Si6 0.110354 0.738431 0.813200
Si Si7 0.812881 0.918033 0.735158
Si Si8 0.500964 0.491892 0.626449
O O1 0.328268 0.609633 0.058913
O O2 0.422224 0.610792 0.275661
O O3 0.104635 0.459788 0.169667
O O4 0.389978 0.912575 0.121047
O O5 0.128111 0.580437 0.816801
O O6 0.195663 0.342716 0.920408
O O7 0.883580 0.153276 0.936654
O O8 0.919951 0.173514 0.746172
O O9 0.272989 0.261538 0.143774
O O10 0.556533 0.708884 0.000189
O O11 0.292604 0.321955 0.637985
O O12 0.133602 0.899371 0.689561
O O13 0.000000 0.000000 0.500000
O O14 0.960395 0.963157 0.704641
O O15 0.756856 0.089935 0.091992
O O16 0.637782 0.760456 0.642592
O O17 0.500000 0.500000 0.500000
#
# Coordination Sequence:
#
# PCOD9077360 Si02
#       8
#     2   2   2   2   2   2   2   2
#     4  10  18  34  58  92 124 149 206 254 286 349
#     4  11  23  37  58  89 138 159 191 249 305 364
#     4  11  20  34  58  88 127 163 204 240 295 362
#     4  12  23  42  70  87 111 156 214 260 303 358
#     4  11  21  35  61  93 125 167 203 241 296 362
#     4  11  19  38  63  93 120 165 205 246 298 360
#     4  11  24  41  58  93 124 159 201 254 308 360
#     4  11  22  40  67  89 112 157 211 260 297 355
#
# _framework density 20.986906000000001
#
# number of rings (size 3 to 8) (size 9 to 14) (size 15 to 20)
#    0.000    1.000    6.250    3.000    1.750    1.500 
#    0.000    0.625    0.000    3.750    0.000    0.000 
#    0.000    0.000    0.000    0.000    0.000    0.000 
#
# Total GULP energy -89307.032490 kJ/mol
# GULP energy per Si atom -5581.689531 kJ/mol
# Density = 2.093914 g / cm^3
# Si number density = 20.986906 Si / 1000 Ang^3
#
#
#
# Elastic Constant Matrix: (Units=GPa)
#
#
# Indices 1 2 3 4 5 6 
#
# 1 40.0655 9.6797 11.4136 3.7566 0.8659 13.9500
# 2 9.6797 123.8472 38.1694 21.7751 -1.6014 3.8787
# 3 11.4136 38.1694 106.9743 19.6024 5.2246 -12.8333
# 4 3.7566 21.7751 19.6024 32.3241 3.8164 0.8954
# 5 0.8659 -1.6014 5.2246 3.8164 21.8271 0.2310
# 6 13.9500 3.8787 -12.8333 0.8954 0.2310 35.7340
#
#
#
# Elastic Compliance Matrix: (Units=1/GPa)
#
#
# Indices 1 2 3 4 5 6 
#
# 1 0.031295 -0.000529 -0.004823 0.000027 0.000016 -0.013892
# 2 -0.000529 0.010002 -0.002902 -0.005146 0.002368 -0.001808
# 3 -0.004823 -0.002902 0.012786 -0.005165 -0.002252 0.006934
# 4 0.000027 -0.005146 -0.005165 0.038280 -0.005812 -0.002228
# 5 0.000016 0.002368 -0.002252 -0.005812 0.047556 -0.001234
# 6 -0.013892 -0.001808 0.006934 -0.002228 -0.001234 0.036158
#
#
# Mechanical properties :
#
#
# Convention : Reuss Voigt Hill
#
# Bulk Modulus (GPa) = 26.61261 43.26803 34.94032
# Shear Modulus (GPa) = 24.37713 32.08534 28.23124
#
# Velocity S-wave (km/s) = 3.41183 3.91426 3.67165
# Velocity P-wave (km/s) = 5.31309 6.41015 5.88723
#
# Compressibility (1/GPa) = 0.03757617
#
# Stress axis : x y z
#
# Youngs Moduli (GPa) = 31.95415 99.97744 78.20914
#
# Poissons Ratio (x) = 0.05290 0.37716
# Poissons Ratio (y) = 0.01691 0.22696
# Poissons Ratio (z) = 0.15410 0.29013
#
# Static dielectric constant tensor:
#      x y z
#    x 1.843700 0.035730 0.015150 
#    y 0.035730 1.847000 -0.027140 
#    z 0.015150 -0.027140 1.730420 
# 
# From -- ./inp_files/515232.got.cif
#   From: 2010.05.17/outbox.cif.g08.bks.cpg/sg2_258_cif.got.tgz:515232.got - 2010.06.03 11:33:40.
