data_PCOD9077239
_publ_section_title
;
Structure prediction by ZEFSAII (Michael W. Deem and Ramdas Pophale) SiO2 
 PCOD9077239
Probable space group: P -1
;
_chemical_formula_sum "Si O2"
_cell_formula_units_Z 16
_cell_length_a 14.133059
_cell_length_b 9.388666
_cell_length_c 20.210018
_cell_angle_alpha 137.317010
_cell_angle_beta 24.941537
_cell_angle_gamma 141.050098
_cell_volume 706.344391
_symmetry_space_group_name_H-M "P -1"
_symmetry_group_IT_number 2
_symmetry_cell_setting 'triclinic'
loop_
_space_group_symop_operation_xyz
x,y,z
-x,-y,-z
loop_
_atom_site_type_symbol
_atom_site_label
_atom_site_fract_x
_atom_site_fract_y
_atom_site_fract_z
Si Si1 0.683302 0.525788 0.745706
Si Si2 0.954003 0.566875 0.979855
Si Si3 0.830240 0.229485 0.633632
Si Si4 0.552795 0.782307 0.811477
Si Si5 0.361997 0.709524 0.094577
Si Si6 0.774097 0.909536 0.163158
Si Si7 0.291408 0.267589 0.445161
Si Si8 0.177789 0.612578 0.715774
O O1 0.875910 0.436577 0.625190
O O2 0.729224 0.692224 0.710012
O O3 0.463056 0.288191 0.784035
O O4 0.580904 0.651945 0.907887
O O5 0.712531 0.354142 0.036516
O O6 0.874193 0.781553 0.109530
O O7 0.000000 0.500000 0.000000
O O8 0.154977 0.612455 0.810326
O O9 0.627073 0.250392 0.819814
O O10 0.047269 0.246964 0.552088
O O11 0.743306 0.967627 0.575855
O O12 0.538837 0.711428 0.718896
O O13 0.630401 0.050816 0.856978
O O14 0.104633 0.509058 0.170682
O O15 0.722531 0.131346 0.287782
O O16 0.000000 0.000000 0.000000
O O17 0.321647 0.469129 0.545087
#
# Coordination Sequence:
#
# PCOD9077239 Si02
#       8
#     2   2   2   2   2   2   2   2
#     4  11  19  33  56  85 112 141 191 229 280 316
#     4  10  21  38  57  84 112 142 184 232 277 319
#     4   9  20  35  54  81 112 150 184 228 266 337
#     4  10  21  37  58  83 117 146 174 235 281 325
#     4  10  18  34  57  85 114 141 184 229 281 324
#     4   9  18  35  55  78 110 145 182 228 267 323
#     4   9  20  39  54  77 116 150 183 219 280 331
#     4  10  19  38  60  78 109 153 184 224 272 331
#
# _framework density 22.651838999999999
#
# number of rings (size 3 to 8) (size 9 to 14) (size 15 to 20)
#    0.000    2.250    3.750    1.500    0.000    4.500 
#    4.500    6.250    0.000    0.000    0.000    0.000 
#    0.000    0.000    0.000    0.000    0.000    0.000 
#
# Total GULP energy -89255.383765 kJ/mol
# GULP energy per Si atom -5578.461485 kJ/mol
# Density = 2.260028 g / cm^3
# Si number density = 22.651839 Si / 1000 Ang^3
#
#
#
# Elastic Constant Matrix: (Units=GPa)
#
#
# Indices 1 2 3 4 5 6 
#
# 1 86.3254 37.6076 31.0378 35.7095 -4.3798 -37.1322
# 2 37.6076 128.3300 34.1477 43.1005 0.8804 -25.3098
# 3 31.0378 34.1477 95.8306 35.8429 11.4779 -3.0235
# 4 35.7095 43.1005 35.8429 43.2892 3.3056 -6.4609
# 5 -4.3798 0.8804 11.4779 3.3056 30.5554 5.1368
# 6 -37.1322 -25.3098 -3.0235 -6.4609 5.1368 38.5742
#
#
#
# Elastic Compliance Matrix: (Units=1/GPa)
#
#
# Indices 1 2 3 4 5 6 
#
# 1 0.037036 0.006752 -0.002338 -0.030484 0.003520 0.034324
# 2 0.006752 0.014401 -0.000325 -0.017747 0.000427 0.012894
# 3 -0.002338 -0.000325 0.015867 -0.010887 -0.004702 -0.002418
# 4 -0.030484 -0.017747 -0.010887 0.070687 -0.002426 -0.029680
# 5 0.003520 0.000427 -0.004702 -0.002426 0.035558 -0.001841
# 6 0.034324 0.012894 -0.002418 -0.029680 -0.001841 0.062509
#
#
# Mechanical properties :
#
#
# Convention : Reuss Voigt Hill
#
# Bulk Modulus (GPa) = 13.24824 57.34136 35.29480
# Shear Modulus (GPa) = 19.75971 36.32995 28.04483
#
# Velocity S-wave (km/s) = 2.95671 4.00914 3.52246
# Velocity P-wave (km/s) = 4.18540 6.84106 5.67088
#
# Compressibility (1/GPa) = 0.07548171
#
# Stress axis : x y z
#
# Youngs Moduli (GPa) = 27.00073 69.44181 63.02328
#
# Poissons Ratio (x) = -0.46889 0.14737
# Poissons Ratio (y) = -0.18232 0.02048
# Poissons Ratio (z) = 0.06314 0.02257
#
# Static dielectric constant tensor:
#      x y z
#    x 1.921800 0.001830 -0.018510 
#    y 0.001830 1.848840 -0.028380 
#    z -0.018510 -0.028380 1.923880 
# 
# From -- ./inp_files/305721.got.cif
#   From: 2010.05.17/outbox.cif.g08.bks.cpg/sg2_153_cif.got.tgz:305721.got - 2010.06.03 11:33:40.
