data_PCOD9077872
_publ_section_title
;
Structure prediction by ZEFSAII (Michael W. Deem and Ramdas Pophale) SiO2 
 PCOD9077872
Probable space group: P -1
;
_chemical_formula_sum "Si O2"
_cell_formula_units_Z 16
_cell_length_a 7.408599
_cell_length_b 7.751782
_cell_length_c 13.657877
_cell_angle_alpha 55.754809
_cell_angle_beta 75.844570
_cell_angle_gamma 61.321719
_cell_volume 568.498249
_symmetry_space_group_name_H-M "P -1"
_symmetry_group_IT_number 2
_symmetry_cell_setting 'triclinic'
loop_
_space_group_symop_operation_xyz
x,y,z
-x,-y,-z
loop_
_atom_site_type_symbol
_atom_site_label
_atom_site_fract_x
_atom_site_fract_y
_atom_site_fract_z
Si Si1 0.488460 0.228798 0.340835
Si Si2 0.168042 0.739780 0.407006
Si Si3 0.275869 0.254789 0.564972
Si Si4 0.547903 0.149330 0.057464
Si Si5 0.826013 0.381065 0.038614
Si Si6 0.084978 0.762828 0.699927
Si Si7 0.280178 0.732391 0.182202
Si Si8 0.904467 0.708394 0.158308
O O1 0.338115 0.243082 0.445144
O O2 0.697838 0.231487 0.354856
O O3 0.383397 0.464547 0.220790
O O4 0.558312 0.996022 0.343569
O O5 0.276439 0.493075 0.524633
O O6 0.295024 0.738753 0.293943
O O7 0.950484 0.737347 0.401665
O O8 0.094600 0.990478 0.383668
O O9 0.678624 0.265984 0.058737
O O10 0.668816 0.880375 0.153547
O O11 0.614848 0.146569 0.935726
O O12 0.685261 0.659435 0.964368
O O13 0.899424 0.283565 0.169222
O O14 0.007485 0.317244 0.955668
O O15 0.057240 0.545743 0.730997
O O16 0.043429 0.811926 0.161783
#
# Coordination Sequence:
#
# PCOD9077872 Si02
#       8
#     2   2   2   2   2   2   2   2
#     4   9  17  32  56  77 105 130 179 220 263 319
#     4   9  17  31  58  78 102 132 180 218 263 322
#     4   8  16  31  54  82  95 130 177 225 260 311
#     4  10  20  36  55  77 110 146 186 218 252 306
#     4  10  20  36  55  77 107 150 185 217 251 308
#     4  11  20  34  52  81 110 140 173 221 268 313
#     4  10  18  35  55  78 101 145 182 216 254 315
#     4  11  23  35  51  81 116 143 175 222 267 305
#
# _framework density 28.144324999999998
#
# number of rings (size 3 to 8) (size 9 to 14) (size 15 to 20)
#    0.000    2.250    1.250    3.375    0.000    0.500 
#    4.500    0.000    0.000   28.500    0.000    0.000 
#    0.000    0.000    0.000    0.000    0.000    0.000 
#
# Total GULP energy -89612.263888 kJ/mol
# GULP energy per Si atom -5600.766493 kJ/mol
# Density = 2.808027 g / cm^3
# Si number density = 28.144325 Si / 1000 Ang^3
#
#
#
# Elastic Constant Matrix: (Units=GPa)
#
#
# Indices 1 2 3 4 5 6 
#
# 1 100.8384 23.2512 9.0899 2.9716 -10.5008 6.0150
# 2 23.2512 167.0252 76.0493 -36.2413 2.0124 -38.3952
# 3 9.0899 76.0493 98.2936 -2.2160 -22.6834 -11.2277
# 4 2.9716 -36.2413 -2.2160 86.7867 -12.0099 3.0140
# 5 -10.5008 2.0124 -22.6834 -12.0099 34.4676 -6.1342
# 6 6.0150 -38.3952 -11.2277 3.0140 -6.1342 30.4407
#
#
#
# Elastic Compliance Matrix: (Units=1/GPa)
#
#
# Indices 1 2 3 4 5 6 
#
# 1 0.011564 -0.004622 0.002672 -0.001499 0.003928 -0.006189
# 2 -0.004622 0.017313 -0.012218 0.005738 -0.005512 0.016565
# 3 0.002672 -0.012218 0.022116 -0.002476 0.014394 -0.004636
# 4 -0.001499 0.005738 -0.002476 0.014196 0.003582 0.005936
# 5 0.003928 -0.005512 0.014394 0.003582 0.042274 0.005745
# 6 -0.006189 0.016565 -0.004636 0.005936 0.005745 0.053827
#
#
# Mechanical properties :
#
#
# Convention : Reuss Voigt Hill
#
# Bulk Modulus (GPa) = 44.13590 64.77089 54.45340
# Shear Modulus (GPa) = 25.35771 47.52345 36.44058
#
# Velocity S-wave (km/s) = 3.00490 4.11367 3.60220
# Velocity P-wave (km/s) = 5.26833 6.75476 6.05732
#
# Compressibility (1/GPa) = 0.02265729
#
# Stress axis : x y z
#
# Youngs Moduli (GPa) = 86.47495 57.76046 45.21609
#
# Poissons Ratio (x) = 0.26696 -0.12082
# Poissons Ratio (y) = 0.39967 0.55245
# Poissons Ratio (z) = -0.23107 0.70572
#
# Static dielectric constant tensor:
#      x y z
#    x 2.123710 0.012410 0.003450 
#    y 0.012410 2.224480 -0.060980 
#    z 0.003450 -0.060980 2.149970 
# 
# From -- ./inp_files/555925.got.cif
#   From: 2010.05.17/outbox.cif.g08.bks.cpg/sg2_278_cif.got.tgz:555925.got - 2010.06.03 11:33:40.
