data_PCOD9077529
_publ_section_title
;
Structure prediction by ZEFSAII (Michael W. Deem and Ramdas Pophale) SiO2 
 PCOD9077529
Probable space group: P -1
;
_chemical_formula_sum "Si O2"
_cell_formula_units_Z 16
_cell_length_a 14.514263
_cell_length_b 30.578595
_cell_length_c 9.112926
_cell_angle_alpha 36.884264
_cell_angle_beta 49.055110
_cell_angle_gamma 20.383018
_cell_volume 754.312071
_symmetry_space_group_name_H-M "P -1"
_symmetry_group_IT_number 2
_symmetry_cell_setting 'triclinic'
loop_
_space_group_symop_operation_xyz
x,y,z
-x,-y,-z
loop_
_atom_site_type_symbol
_atom_site_label
_atom_site_fract_x
_atom_site_fract_y
_atom_site_fract_z
Si Si1 0.875473 0.222980 0.258555
Si Si2 0.334900 0.312117 0.341816
Si Si3 0.817596 0.387169 0.109113
Si Si4 0.480764 0.936663 0.277816
Si Si5 0.699624 0.898439 0.418079
Si Si6 0.113648 0.380110 0.822221
Si Si7 0.884370 0.060476 0.287532
Si Si8 0.318482 0.928071 0.090441
O O1 0.881693 0.282709 0.216847
O O2 0.971734 0.087001 0.551976
O O3 0.533963 0.408204 0.066692
O O4 0.135199 0.101566 0.198126
O O5 0.308501 0.241900 0.519158
O O6 0.519094 0.204250 0.592586
O O7 0.040471 0.515270 0.145175
O O8 0.536194 0.238568 0.203145
O O9 0.964264 0.290963 0.370425
O O10 0.989052 0.368517 0.934202
O O11 0.584596 0.897854 0.436839
O O12 0.500000 0.000000 0.000000
O O13 0.500000 0.000000 0.500000
O O14 0.673310 0.989860 0.118259
O O15 0.468855 0.194505 0.944212
O O16 0.000000 0.500000 0.500000
O O17 0.992393 0.072063 0.053962
O O18 0.000000 0.000000 0.500000
#
# Coordination Sequence:
#
# PCOD9077529 Si02
#       8
#     2   2   2   2   2   2   2   2
#     4  10  21  37  62  88 117 159 206 249 300 362
#     4   9  19  34  61  87 117 158 204 255 301 365
#     4  11  22  38  60  88 124 158 203 254 306 359
#     4  11  21  39  64  91 120 159 212 248 301 376
#     4  12  22  39  63  92 126 162 200 259 315 360
#     4  10  19  33  58  92 119 155 211 256 298 361
#     4   9  18  35  58  87 119 158 205 254 306 364
#     4  10  18  34  60  89 118 157 208 250 304 364
#
# _framework density 21.211379999999998
#
# number of rings (size 3 to 8) (size 9 to 14) (size 15 to 20)
#    0.000    1.750    3.750    2.250    1.750    0.000 
#    0.000    1.875    0.000    0.000    0.000    0.000 
#    0.000    0.000    0.000    0.000    0.000    0.000 
#
# Total GULP energy -89118.901575 kJ/mol
# GULP energy per Si atom -5569.931348 kJ/mol
# Density = 2.116310 g / cm^3
# Si number density = 21.211380 Si / 1000 Ang^3
#
#
#
# Elastic Constant Matrix: (Units=GPa)
#
#
# Indices 1 2 3 4 5 6 
#
# 1 78.1269 52.7308 17.8150 1.1067 -23.7224 5.3097
# 2 52.7308 116.6318 36.4920 -4.5670 -15.4901 -4.7113
# 3 17.8150 36.4920 34.9970 4.5965 -16.2848 -9.1292
# 4 1.1067 -4.5670 4.5965 20.8981 -7.6588 -11.2282
# 5 -23.7224 -15.4901 -16.2848 -7.6588 35.1907 -0.3751
# 6 5.3097 -4.7113 -9.1292 -11.2282 -0.3751 33.1399
#
#
#
# Elastic Compliance Matrix: (Units=1/GPa)
#
#
# Indices 1 2 3 4 5 6 
#
# 1 0.022832 -0.010143 0.003621 -0.002375 0.012034 -0.004771
# 2 -0.010143 0.017979 -0.016219 0.007454 -0.004783 0.002185
# 3 0.003621 -0.016219 0.057141 -0.001692 0.021510 0.012525
# 4 -0.002375 0.007454 -0.001692 0.069120 0.016202 0.024576
# 5 0.012034 -0.004783 0.021510 0.016202 0.048003 0.009350
# 6 -0.004771 0.002185 0.012525 0.024576 0.009350 0.043133
#
#
# Mechanical properties :
#
#
# Convention : Reuss Voigt Hill
#
# Bulk Modulus (GPa) = 19.05843 49.31459 34.18651
# Shear Modulus (GPa) = 15.56755 26.02695 20.79725
#
# Velocity S-wave (km/s) = 2.71204 3.50670 3.13465
# Velocity P-wave (km/s) = 4.33721 6.30043 5.40865
#
# Compressibility (1/GPa) = 0.05247021
#
# Stress axis : x y z
#
# Youngs Moduli (GPa) = 43.79831 55.61939 17.50058
#
# Poissons Ratio (x) = 0.56415 -0.06337
# Poissons Ratio (y) = 0.44425 0.28384
# Poissons Ratio (z) = -0.15860 0.90210
#
# Static dielectric constant tensor:
#      x y z
#    x 1.843870 -0.017290 0.003990 
#    y -0.017290 1.835590 -0.023440 
#    z 0.003990 -0.023440 1.781720 
# 
# From -- ./inp_files/320054.got.cif
#   From: 2010.05.17/outbox.cif.g08.bks.cpg/sg2_161_cif.got.tgz:320054.got - 2010.06.03 11:33:40.
