data_PCOD9077083
_publ_section_title
;
Structure prediction by ZEFSAII (Michael W. Deem and Ramdas Pophale) SiO2 
 PCOD9077083
Probable space group: P -1
;
_chemical_formula_sum "Si O2"
_cell_formula_units_Z 14
_cell_length_a 9.510446
_cell_length_b 11.200180
_cell_length_c 20.900757
_cell_angle_alpha 24.569552
_cell_angle_beta 141.862014
_cell_angle_gamma 137.836952
_cell_volume 568.751007
_symmetry_space_group_name_H-M "P -1"
_symmetry_group_IT_number 2
_symmetry_cell_setting 'triclinic'
loop_
_space_group_symop_operation_xyz
x,y,z
-x,-y,-z
loop_
_atom_site_type_symbol
_atom_site_label
_atom_site_fract_x
_atom_site_fract_y
_atom_site_fract_z
Si Si1 0.510460 0.836530 0.384425
Si Si2 0.667575 0.031257 0.617156
Si Si3 0.906928 0.588505 0.856187
Si Si4 0.338391 0.691138 0.887831
Si Si5 0.831147 0.398407 0.733748
Si Si6 0.265931 0.192540 0.936141
Si Si7 0.596242 0.503656 0.280785
O O1 0.361206 0.999234 0.302521
O O2 0.695251 0.670326 0.571751
O O3 0.313699 0.673369 0.348932
O O4 0.657455 0.028197 0.291481
O O5 0.679668 0.371232 0.440286
O O6 0.456260 0.797734 0.632089
O O7 0.864955 0.915856 0.700745
O O8 0.083973 0.567592 0.873363
O O9 0.660754 0.418740 0.837865
O O10 0.000000 0.500000 0.000000
O O11 0.500000 0.500000 0.000000
O O12 0.472789 0.742116 0.978159
O O13 0.096491 0.404978 0.805292
O O14 0.798184 0.124886 0.903008
O O15 0.260941 0.261959 0.825256
#
# Coordination Sequence:
#
# PCOD9077083 Si02
#       7
#     2   2   2   2   2   2   2
#     4  10  20  39  58  83 113 146 199 232 276 335
#     4   9  20  36  57  85 117 143 181 233 290 345
#     4  10  18  34  55  87 115 144 174 223 295 340
#     4  11  21  34  61  93 110 145 185 232 295 341
#     4   9  22  36  61  78 112 156 195 237 273 314
#     4  10  19  39  56  80 115 151 189 238 276 330
#     4   9  19  35  58  83 116 146 179 231 296 338
#
# _framework density 24.615341000000001
#
# number of rings (size 3 to 8) (size 9 to 14) (size 15 to 20)
#    0.857    1.429    1.429    1.714    2.000    1.143 
#    0.000    5.000    0.000    0.000    0.000    0.000 
#    0.000    0.000    0.000    0.000    0.000    0.000 
#
# Total GULP energy -77974.289992 kJ/mol
# GULP energy per Si atom -5569.592142 kJ/mol
# Density = 2.455932 g / cm^3
# Si number density = 24.615341 Si / 1000 Ang^3
#
#
#
# Elastic Constant Matrix: (Units=GPa)
#
#
# Indices 1 2 3 4 5 6 
#
# 1 150.5514 -1.2081 38.1957 -3.7031 1.9001 1.5071
# 2 -1.2081 17.6852 -8.5974 2.2473 5.9666 -1.6296
# 3 38.1957 -8.5974 129.6424 -5.1642 0.8589 7.1653
# 4 -3.7031 2.2473 -5.1642 16.2567 -2.3792 1.0014
# 5 1.9001 5.9666 0.8589 -2.3792 33.7056 2.9942
# 6 1.5071 -1.6296 7.1653 1.0014 2.9942 27.8232
#
#
#
# Elastic Compliance Matrix: (Units=1/GPa)
#
#
# Indices 1 2 3 4 5 6 
#
# 1 0.007203 -0.000599 -0.002126 0.001015 -0.000184 0.000106
# 2 -0.000599 0.064296 0.003880 -0.009906 -0.012546 0.004506
# 3 -0.002126 0.003880 0.008780 0.001815 -0.000491 -0.001931
# 4 0.001015 -0.009906 0.001815 0.064912 0.006601 -0.004149
# 5 -0.000184 -0.012546 -0.000491 0.006601 0.032766 -0.004362
# 6 0.000106 0.004506 -0.001931 -0.004149 -0.004362 0.037315
#
#
# Mechanical properties :
#
#
# Convention : Reuss Voigt Hill
#
# Bulk Modulus (GPa) = 12.10817 39.40660 25.75739
# Shear Modulus (GPa) = 20.79069 33.52302 27.15686
#
# Velocity S-wave (km/s) = 2.90939 3.69436 3.32512
# Velocity P-wave (km/s) = 4.02688 5.85162 5.02281
#
# Compressibility (1/GPa) = 0.08258883
#
# Stress axis : x y z
#
# Youngs Moduli (GPa) = 138.82974 15.55297 113.90150
#
# Poissons Ratio (x) = 0.00931 0.24217
# Poissons Ratio (y) = 0.08313 -0.44192
# Poissons Ratio (z) = 0.29517 -0.06034
#
# Static dielectric constant tensor:
#      x y z
#    x 2.007070 -0.091890 0.126860 
#    y -0.091890 2.097350 -0.059900 
#    z 0.126860 -0.059900 2.136600 
# 
# From -- ./inp_files/558297.got.cif
#   From: 2010.05.17/outbox.cif.g08.bks.cpg/sg2_280_cif.got.tgz:558297.got - 2010.06.03 11:33:40.
