data_PCOD9077596
_publ_section_title
;
Structure prediction by ZEFSAII (Michael W. Deem and Ramdas Pophale) SiO2 
 PCOD9077596
Probable space group: P -1
;
_chemical_formula_sum "Si O2"
_cell_formula_units_Z 14
_cell_length_a 8.221444
_cell_length_b 10.960236
_cell_length_c 9.742411
_cell_angle_alpha 79.513093
_cell_angle_beta 113.971205
_cell_angle_gamma 61.277735
_cell_volume 620.627332
_symmetry_space_group_name_H-M "P -1"
_symmetry_group_IT_number 2
_symmetry_cell_setting 'triclinic'
loop_
_space_group_symop_operation_xyz
x,y,z
-x,-y,-z
loop_
_atom_site_type_symbol
_atom_site_label
_atom_site_fract_x
_atom_site_fract_y
_atom_site_fract_z
Si Si1 0.211616 0.685870 0.795959
Si Si2 0.649323 0.861269 0.783449
Si Si3 0.496533 0.487255 0.311224
Si Si4 0.835298 0.577314 0.061063
Si Si5 0.906509 0.169429 0.992776
Si Si6 0.240364 0.190169 0.490987
Si Si7 0.197318 0.483945 0.415202
O O1 0.427152 0.596535 0.791156
O O2 0.200277 0.547567 0.874866
O O3 0.197173 0.785367 0.897959
O O4 0.982748 0.796351 0.606089
O O5 0.682894 0.820382 0.640161
O O6 0.873546 0.837691 0.914102
O O7 0.430549 0.040888 0.673335
O O8 0.636113 0.748474 0.900226
O O9 0.397654 0.421899 0.385305
O O10 0.721681 0.452982 0.457650
O O11 0.294337 0.676085 0.192620
O O12 0.967849 0.589890 0.227407
O O13 0.000000 0.500000 0.000000
O O14 0.000000 0.000000 0.000000
O O15 0.199476 0.344626 0.503410
#
# Coordination Sequence:
#
# PCOD9077596 Si02
#       7
#     2   2   2   2   2   2   2
#     4  10  22  38  64  94 120 159 206 256 298 351
#     4  10  18  34  61  87 119 157 207 241 301 363
#     4  11  22  37  61  93 124 160 207 248 304 363
#     4  11  17  36  63  92 115 158 210 249 291 366
#     4  11  21  36  61  90 124 158 199 244 306 365
#     4   9  19  34  60  89 115 160 200 252 300 358
#     4  10  20  36  61  87 117 165 206 245 296 368
#
# _framework density 22.557818999999999
#
# number of rings (size 3 to 8) (size 9 to 14) (size 15 to 20)
#    0.000    1.714    5.714    1.286    0.000    2.286 
#    0.000    0.000    9.429   12.000    0.000    0.000 
#    0.000    0.000    0.000    0.000    0.000    0.000 
#
# Total GULP energy -78176.437314 kJ/mol
# GULP energy per Si atom -5584.031237 kJ/mol
# Density = 2.250648 g / cm^3
# Si number density = 22.557819 Si / 1000 Ang^3
#
#
#
# Elastic Constant Matrix: (Units=GPa)
#
#
# Indices 1 2 3 4 5 6 
#
# 1 38.5563 22.6760 21.6914 10.8120 0.5181 3.9962
# 2 22.6760 110.7739 50.5435 0.4695 -3.4283 5.7988
# 3 21.6914 50.5435 124.7178 -15.8121 21.6249 1.9188
# 4 10.8120 0.4695 -15.8121 43.7748 -0.6527 6.3175
# 5 0.5181 -3.4283 21.6249 -0.6527 26.8768 7.6358
# 6 3.9962 5.7988 1.9188 6.3175 7.6358 27.5130
#
#
#
# Elastic Compliance Matrix: (Units=1/GPa)
#
#
# Indices 1 2 3 4 5 6 
#
# 1 0.035123 -0.003805 -0.006688 -0.010588 0.004733 -0.002716
# 2 -0.003805 0.012932 -0.005912 -0.000691 0.007511 -0.003687
# 3 -0.006688 -0.005912 0.014613 0.006304 -0.013200 0.003414
# 4 -0.010588 -0.000691 0.006304 0.028338 -0.003010 -0.004428
# 5 0.004733 0.007511 -0.013200 -0.003010 0.052986 -0.015364
# 6 -0.002716 -0.003687 0.003414 -0.004428 -0.015364 0.042561
#
#
# Mechanical properties :
#
#
# Convention : Reuss Voigt Hill
#
# Bulk Modulus (GPa) = 33.49193 51.54108 42.51650
# Shear Modulus (GPa) = 21.80400 31.57540 26.68970
#
# Velocity S-wave (km/s) = 3.11236 3.74539 3.44345
# Velocity P-wave (km/s) = 5.27211 6.44996 5.89055
#
# Compressibility (1/GPa) = 0.02985794
#
# Stress axis : x y z
#
# Youngs Moduli (GPa) = 28.47110 77.32597 68.43324
#
# Poissons Ratio (x) = 0.29421 0.45769
# Poissons Ratio (y) = 0.10833 0.40460
# Poissons Ratio (z) = 0.19042 0.45718
#
# Static dielectric constant tensor:
#      x y z
#    x 1.867480 -0.029140 0.018860 
#    y -0.029140 1.869760 0.012230 
#    z 0.018860 0.012230 1.884030 
# 
# From -- ./inp_files/178028.got.cif
#   From: 2010.05.17/outbox.cif.g08.bks.cpg/sg2_90_cif.got.tgz:178028.got - 2010.06.03 11:33:40.
