data_PCOD9077997
_publ_section_title
;
Structure prediction by ZEFSAII (Michael W. Deem and Ramdas Pophale) SiO2 
 PCOD9077997
Probable space group: P -1
;
_chemical_formula_sum "Si O2"
_cell_formula_units_Z 16
_cell_length_a 20.734413
_cell_length_b 15.365750
_cell_length_c 11.419677
_cell_angle_alpha 53.707379
_cell_angle_beta 148.051301
_cell_angle_gamma 148.368295
_cell_volume 891.006158
_symmetry_space_group_name_H-M "P -1"
_symmetry_group_IT_number 2
_symmetry_cell_setting 'triclinic'
loop_
_space_group_symop_operation_xyz
x,y,z
-x,-y,-z
loop_
_atom_site_type_symbol
_atom_site_label
_atom_site_fract_x
_atom_site_fract_y
_atom_site_fract_z
Si Si1 0.655800 0.021356 0.774531
Si Si2 0.120302 0.628020 0.901137
Si Si3 0.260580 0.993937 0.333873
Si Si4 0.517405 0.389310 0.472414
Si Si5 0.515530 0.061042 0.184716
Si Si6 0.234016 0.383692 0.083430
Si Si7 0.877610 0.554253 0.765354
Si Si8 0.192004 0.588333 0.795824
O O1 0.544106 0.912086 0.812908
O O2 0.500000 0.000000 0.500000
O O3 0.684997 0.963955 0.754825
O O4 0.891874 0.237141 0.999424
O O5 0.120840 0.555532 0.846008
O O6 0.911593 0.537556 0.698787
O O7 0.179564 0.592389 0.128395
O O8 0.299385 0.846633 0.984151
O O9 0.334854 0.931132 0.550063
O O10 0.383068 0.181138 0.434676
O O11 0.009262 0.821818 0.100694
O O12 0.359960 0.375733 0.227421
O O13 0.645908 0.499788 0.703129
O O14 0.693452 0.504432 0.550185
O O15 0.610171 0.199671 0.115601
O O16 0.230731 0.490133 0.917300
O O17 0.000000 0.500000 0.500000
#
# Coordination Sequence:
#
# PCOD9077997 Si02
#       8
#     2   2   2   2   2   2   2   2
#     4   9  19  30  53  84 116 142 179 238 286 329
#     4  10  20  33  55  85 110 143 189 231 285 335
#     4  11  18  36  58  86 113 143 191 235 286 326
#     4  11  22  36  60  84 113 151 187 241 281 328
#     4  10  20  33  55  83 115 148 176 231 288 338
#     4  11  23  39  54  85 117 150 193 229 281 337
#     4  10  18  35  57  83 115 139 187 244 284 321
#     4  12  22  35  55  80 121 152 179 228 285 343
#
# _framework density 17.957227
#
# number of rings (size 3 to 8) (size 9 to 14) (size 15 to 20)
#    0.000    1.500    5.000    0.750    3.500    0.000 
#    0.000    0.000    0.000    6.000    0.000    0.000 
#    0.000    0.000    0.000    0.000    0.000    0.000 
#
# Total GULP energy -89208.595144 kJ/mol
# GULP energy per Si atom -5575.537197 kJ/mol
# Density = 1.791636 g / cm^3
# Si number density = 17.957227 Si / 1000 Ang^3
#
#
#
# Elastic Constant Matrix: (Units=GPa)
#
#
# Indices 1 2 3 4 5 6 
#
# 1 97.1638 35.1294 32.2328 -3.4444 37.8409 1.8418
# 2 35.1294 76.2378 33.6060 8.5398 18.3452 2.8484
# 3 32.2328 33.6060 74.3310 1.8628 35.5869 -1.6083
# 4 -3.4444 8.5398 1.8628 26.0391 -3.1225 -0.9379
# 5 37.8409 18.3452 35.5869 -3.1225 32.2843 -0.1641
# 6 1.8418 2.8484 -1.6083 -0.9379 -0.1641 20.7067
#
#
#
# Elastic Compliance Matrix: (Units=1/GPa)
#
#
# Indices 1 2 3 4 5 6 
#
# 1 0.022068 -0.006313 0.008245 0.000621 -0.031311 -0.000674
# 2 -0.006313 0.019265 -0.008252 -0.006076 0.004946 -0.002966
# 3 0.008245 -0.008252 0.034536 -0.003785 -0.043397 0.002569
# 4 0.000621 -0.006076 -0.003785 0.042156 0.010988 0.002483
# 5 -0.031311 0.004946 -0.043397 0.010988 0.113764 0.000133
# 6 -0.000674 -0.002966 0.002569 0.002483 0.000133 0.049074
#
#
# Mechanical properties :
#
#
# Convention : Reuss Voigt Hill
#
# Bulk Modulus (GPa) = 15.81572 49.96323 32.88947
# Shear Modulus (GPa) = 15.89417 25.59032 20.74225
#
# Velocity S-wave (km/s) = 2.97831 3.77911 3.40235
# Velocity P-wave (km/s) = 4.54463 6.85026 5.81291
#
# Compressibility (1/GPa) = 0.06322824
#
# Stress axis : x y z
#
# Youngs Moduli (GPa) = 45.31421 51.90838 28.95501
#
# Poissons Ratio (x) = 0.32770 -0.23873
# Poissons Ratio (y) = 0.28607 0.23894
# Poissons Ratio (z) = -0.37361 0.42836
#
# Static dielectric constant tensor:
#      x y z
#    x 1.676440 0.001800 -0.002740 
#    y 0.001800 1.634490 0.024920 
#    z -0.002740 0.024920 1.649380 
# 
# From -- ./inp_files/252358.got.cif
#   From: 2010.05.17/outbox.cif.g08.bks.cpg/sg2_127_cif.got.tgz:252358.got - 2010.06.03 11:33:40.
