data_PCOD9077078
_publ_section_title
;
Structure prediction by ZEFSAII (Michael W. Deem and Ramdas Pophale) SiO2 
 PCOD9077078
Probable space group: P -1
;
_chemical_formula_sum "Si O2"
_cell_formula_units_Z 14
_cell_length_a 20.272405
_cell_length_b 12.299612
_cell_length_c 9.216656
_cell_angle_alpha 85.772611
_cell_angle_beta 106.452109
_cell_angle_gamma 27.996272
_cell_volume 718.824762
_symmetry_space_group_name_H-M "P -1"
_symmetry_group_IT_number 2
_symmetry_cell_setting 'triclinic'
loop_
_space_group_symop_operation_xyz
x,y,z
-x,-y,-z
loop_
_atom_site_type_symbol
_atom_site_label
_atom_site_fract_x
_atom_site_fract_y
_atom_site_fract_z
Si Si1 0.978571 0.185224 0.246733
Si Si2 0.837124 0.322151 0.586435
Si Si3 0.232276 0.426629 0.200034
Si Si4 0.682649 0.841401 0.475063
Si Si5 0.560643 0.783285 0.092036
Si Si6 0.752282 0.899899 0.294385
Si Si7 0.062737 0.161384 0.600794
O O1 0.757209 0.468396 0.138861
O O2 0.043829 0.169094 0.417181
O O3 0.935732 0.308670 0.056740
O O4 0.130304 0.854900 0.359593
O O5 0.800159 0.435613 0.706176
O O6 0.652138 0.622104 0.324737
O O7 0.046748 0.066455 0.673821
O O8 0.235604 0.306113 0.297581
O O9 0.460287 0.113108 0.307318
O O10 0.662146 0.993315 0.384131
O O11 0.851699 0.530395 0.504503
O O12 0.500000 0.000000 0.000000
O O13 0.369964 0.989928 0.909775
O O14 0.000000 0.500000 0.500000
O O15 0.753688 0.025730 0.244826
#
# Coordination Sequence:
#
# PCOD9077078 Si02
#       7
#     2   2   2   2   2   2   2
#     4  11  21  35  58  84 111 148 188 227 270 328
#     4  10  22  38  54  85 113 146 189 225 272 330
#     4  10  19  33  58  79 115 141 186 224 278 323
#     4   9  18  33  53  86 105 139 181 231 273 321
#     4  11  20  34  61  85 107 142 189 234 269 320
#     4  10  18  34  55  85 115 136 178 237 284 317
#     4   9  19  34  57  79 115 137 185 230 275 320
#
# _framework density 19.476236
#
# number of rings (size 3 to 8) (size 9 to 14) (size 15 to 20)
#    0.000    2.000    1.429    6.429    2.000    0.000 
#    0.000    3.571    6.286    0.857    0.000    0.000 
#    0.000    0.000    0.000    0.000    0.000    0.000 
#
# Total GULP energy -77942.869294 kJ/mol
# GULP energy per Si atom -5567.347807 kJ/mol
# Density = 1.943191 g / cm^3
# Si number density = 19.476236 Si / 1000 Ang^3
#
#
#
# Elastic Constant Matrix: (Units=GPa)
#
#
# Indices 1 2 3 4 5 6 
#
# 1 111.1775 13.2964 35.5159 8.2211 6.6686 5.3618
# 2 13.2964 51.2441 22.9866 12.6322 -7.3124 -1.0653
# 3 35.5159 22.9866 59.6725 18.4747 -3.0697 6.1661
# 4 8.2211 12.6322 18.4747 25.3184 -0.4082 -6.7521
# 5 6.6686 -7.3124 -3.0697 -0.4082 37.3817 3.0907
# 6 5.3618 -1.0653 6.1661 -6.7521 3.0907 17.5955
#
#
#
# Elastic Compliance Matrix: (Units=1/GPa)
#
#
# Indices 1 2 3 4 5 6 
#
# 1 0.011419 -0.000526 -0.007382 0.001982 -0.002751 0.000319
# 2 -0.000526 0.025172 -0.007089 -0.006947 0.004298 0.000748
# 3 -0.007382 -0.007089 0.033451 -0.023662 0.004047 -0.019693
# 4 0.001982 -0.006947 -0.023662 0.068735 -0.005770 0.034658
# 5 -0.002751 0.004298 0.004047 -0.005770 0.028982 -0.007625
# 6 0.000319 0.000748 -0.019693 0.034658 -0.007625 0.078321
#
#
# Mechanical properties :
#
#
# Convention : Reuss Voigt Hill
#
# Bulk Modulus (GPa) = 24.96943 40.63243 32.80093
# Shear Modulus (GPa) = 17.27571 26.07878 21.67724
#
# Velocity S-wave (km/s) = 2.98151 3.66321 3.33980
# Velocity P-wave (km/s) = 4.96999 6.22897 5.63475
#
# Compressibility (1/GPa) = 0.04004897
#
# Stress axis : x y z
#
# Youngs Moduli (GPa) = 87.57596 39.72634 29.89422
#
# Poissons Ratio (x) = 0.02090 0.22067
# Poissons Ratio (y) = 0.04607 0.21192
# Poissons Ratio (z) = 0.64644 0.28162
#
# Static dielectric constant tensor:
#      x y z
#    x 1.764130 0.037440 -0.043040 
#    y 0.037440 1.728800 -0.017270 
#    z -0.043040 -0.017270 1.729910 
# 
# From -- ./inp_files/344654.got.cif
#   From: 2010.05.17/outbox.cif.g08.bks.cpg/sg2_173_cif.got.tgz:344654.got - 2010.06.03 11:33:40.
