data_PCOD9077081
_publ_section_title
;
Structure prediction by ZEFSAII (Michael W. Deem and Ramdas Pophale) SiO2 
 PCOD9077081
Probable space group: P -1
;
_chemical_formula_sum "Si O2"
_cell_formula_units_Z 16
_cell_length_a 6.205116
_cell_length_b 13.968741
_cell_length_c 17.795514
_cell_angle_alpha 32.791779
_cell_angle_beta 121.644179
_cell_angle_gamma 112.155841
_cell_volume 704.316248
_symmetry_space_group_name_H-M "P -1"
_symmetry_group_IT_number 2
_symmetry_cell_setting 'triclinic'
loop_
_space_group_symop_operation_xyz
x,y,z
-x,-y,-z
loop_
_atom_site_type_symbol
_atom_site_label
_atom_site_fract_x
_atom_site_fract_y
_atom_site_fract_z
Si Si1 0.860789 0.292924 0.436055
Si Si2 0.914033 0.422729 0.795357
Si Si3 0.801033 0.340905 0.100919
Si Si4 0.815812 0.098045 0.702268
Si Si5 0.321530 0.025973 0.638280
Si Si6 0.150715 0.295682 0.069179
Si Si7 0.791800 0.043769 0.004273
Si Si8 0.689835 0.737119 0.656022
O O1 0.841962 0.254872 0.546089
O O2 0.588733 0.286901 0.350366
O O3 0.962671 0.477701 0.314679
O O4 0.050224 0.125413 0.549848
O O5 0.765497 0.259256 0.857846
O O6 0.755555 0.582417 0.707642
O O7 0.132232 0.338571 0.949357
O O8 0.864251 0.333478 0.029318
O O9 0.075336 0.282074 0.231492
O O10 0.646190 0.184766 0.200584
O O11 0.720699 0.545742 0.973937
O O12 0.525192 0.118282 0.664614
O O13 0.796932 0.915854 0.771123
O O14 0.036549 0.048696 0.834640
O O15 0.332241 0.081370 0.516365
O O16 0.500000 0.000000 0.000000
O O17 0.000000 0.000000 0.000000
#
# Coordination Sequence:
#
# PCOD9077081 Si02
#       8
#     2   2   2   2   2   2   2   2
#     4  10  20  39  63  86 123 177 211 260 318 390
#     4   9  21  42  64  90 127 167 209 256 337 391
#     4  10  18  34  55  85 128 165 228 270 307 367
#     4  10  22  42  64  90 124 168 209 261 338 395
#     4  10  20  35  59  85 124 172 217 263 318 374
#     4   9  19  37  52  86 121 169 209 262 319 373
#     4  11  27  47  75 107 131 161 208 272 335 407
#     4   9  20  36  58  88 124 174 215 269 313 374
#
# _framework density 22.717068999999999
#
# number of rings (size 3 to 8) (size 9 to 14) (size 15 to 20)
#    0.000    2.250    1.250    0.375    3.500    1.000 
#   18.000    1.250    0.000    0.000    0.000    0.000 
#    0.000    0.000    0.000    0.000    0.000    0.000 
#
# Total GULP energy -89108.654758 kJ/mol
# GULP energy per Si atom -5569.290922 kJ/mol
# Density = 2.266536 g / cm^3
# Si number density = 22.717069 Si / 1000 Ang^3
#
#
#
# Elastic Constant Matrix: (Units=GPa)
#
#
# Indices 1 2 3 4 5 6 
#
# 1 103.1145 41.8126 38.5956 4.3130 -10.4628 31.7223
# 2 41.8126 58.4641 38.4850 1.6944 -16.2968 17.3449
# 3 38.5956 38.4850 153.5543 0.4941 -31.7512 15.9953
# 4 4.3130 1.6944 0.4941 34.1192 15.8314 6.8661
# 5 -10.4628 -16.2968 -31.7512 15.8314 51.0764 -6.4389
# 6 31.7223 17.3449 15.9953 6.8661 -6.4389 29.2593
#
#
#
# Elastic Compliance Matrix: (Units=1/GPa)
#
#
# Indices 1 2 3 4 5 6 
#
# 1 0.017676 -0.008112 -0.001380 0.002232 -0.002363 -0.014645
# 2 -0.008112 0.027942 -0.003447 -0.001822 0.005130 -0.004329
# 3 -0.001380 -0.003447 0.008662 -0.002003 0.004661 0.000300
# 4 0.002232 -0.001822 -0.002003 0.038603 -0.014921 -0.012587
# 5 -0.002363 0.005130 0.004661 -0.014921 0.029121 0.006883
# 6 -0.014645 -0.004329 0.000300 -0.012587 0.006883 0.056925
#
#
# Mechanical properties :
#
#
# Convention : Reuss Voigt Hill
#
# Bulk Modulus (GPa) = 35.20808 61.43550 48.32179
# Shear Modulus (GPa) = 23.33471 35.97365 29.65418
#
# Velocity S-wave (km/s) = 3.20845 3.98370 3.61691
# Velocity P-wave (km/s) = 5.40904 6.94711 6.22576
#
# Compressibility (1/GPa) = 0.02840257
#
# Stress axis : x y z
#
# Youngs Moduli (GPa) = 56.57393 35.78884 115.44660
#
# Poissons Ratio (x) = 0.29031 0.15933
# Poissons Ratio (y) = 0.45892 0.39789
# Poissons Ratio (z) = 0.07808 0.12335
#
# Static dielectric constant tensor:
#      x y z
#    x 2.078740 0.006290 0.005290 
#    y 0.006290 1.840910 0.012360 
#    z 0.005290 0.012360 1.872800 
# 
# From -- ./inp_files/550050.got.cif
#   From: 2010.05.17/outbox.cif.g08.bks.cpg/sg2_276_cif.got.tgz:550050.got - 2010.06.03 11:33:40.
