data_PCOD9077379
_publ_section_title
;
Structure prediction by ZEFSAII (Michael W. Deem and Ramdas Pophale) SiO2 
 PCOD9077379
Probable space group: P -1
;
_chemical_formula_sum "Si O2"
_cell_formula_units_Z 14
_cell_length_a 7.944914
_cell_length_b 11.106742
_cell_length_c 13.655224
_cell_angle_alpha 149.386254
_cell_angle_beta 98.114579
_cell_angle_gamma 84.936960
_cell_volume 606.161687
_symmetry_space_group_name_H-M "P -1"
_symmetry_group_IT_number 2
_symmetry_cell_setting 'triclinic'
loop_
_space_group_symop_operation_xyz
x,y,z
-x,-y,-z
loop_
_atom_site_type_symbol
_atom_site_label
_atom_site_fract_x
_atom_site_fract_y
_atom_site_fract_z
Si Si1 0.251323 0.263359 0.835556
Si Si2 0.675637 0.468387 0.617648
Si Si3 0.898842 0.566225 0.876340
Si Si4 0.961870 0.651654 0.433363
Si Si5 0.635795 0.232483 0.867732
Si Si6 0.685744 0.760388 0.632840
Si Si7 0.798208 0.055677 0.577884
O O1 0.440865 0.267676 0.899897
O O2 0.240055 0.061005 0.611504
O O3 0.118717 0.259895 0.912602
O O4 0.256975 0.516922 0.956912
O O5 0.721173 0.553537 0.790563
O O6 0.678669 0.681826 0.689576
O O7 0.495755 0.324551 0.490271
O O8 0.839141 0.318420 0.499565
O O9 0.901737 0.305263 0.741953
O O10 0.030564 0.566776 0.796623
O O11 0.834390 0.629460 0.497974
O O12 0.895689 0.869594 0.519280
O O13 0.644285 0.122738 0.681687
O O14 0.709367 0.039540 0.809719
#
# Coordination Sequence:
#
# PCOD9077379 Si02
#       7
#     2   2   2   2   2   2   2
#     4  10  19  33  55  86 119 149 186 233 284 339
#     4   9  20  34  59  88 110 148 195 231 281 336
#     4   9  20  35  53  87 120 144 189 234 276 340
#     4   9  20  34  57  88 115 144 192 237 273 340
#     4   9  20  33  55  90 111 146 199 233 274 341
#     4  10  18  37  61  84 110 153 192 231 287 331
#     4  10  18  34  59  81 116 155 182 231 290 332
#
# _framework density 23.096146000000001
#
# number of rings (size 3 to 8) (size 9 to 14) (size 15 to 20)
#    0.857    1.714    0.000    2.143    0.000    6.286 
#    0.000    0.714    0.000    4.286    0.000    0.000 
#    0.000    0.000    0.000    0.000    0.000    0.000 
#
# Total GULP energy -78114.043079 kJ/mol
# GULP energy per Si atom -5579.574506 kJ/mol
# Density = 2.304358 g / cm^3
# Si number density = 23.096146 Si / 1000 Ang^3
#
#
#
# Elastic Constant Matrix: (Units=GPa)
#
#
# Indices 1 2 3 4 5 6 
#
# 1 108.2409 0.4403 28.7076 -6.0271 -14.9279 3.0118
# 2 0.4403 70.1593 22.6341 1.4817 4.1076 -3.2877
# 3 28.7076 22.6341 109.4174 -10.7545 -5.4415 5.4148
# 4 -6.0271 1.4817 -10.7545 24.8210 -2.6045 4.0270
# 5 -14.9279 4.1076 -5.4415 -2.6045 28.2751 -7.6434
# 6 3.0118 -3.2877 5.4148 4.0270 -7.6434 30.4061
#
#
#
# Elastic Compliance Matrix: (Units=1/GPa)
#
#
# Indices 1 2 3 4 5 6 
#
# 1 0.010739 0.000386 -0.002454 0.002010 0.005468 0.000523
# 2 0.000386 0.015834 -0.003922 -0.003168 -0.002562 0.002148
# 3 -0.002454 -0.003922 0.011280 0.005068 0.001221 -0.002554
# 4 0.002010 -0.003168 0.005068 0.044674 0.004959 -0.006114
# 5 0.005468 -0.002562 0.001221 0.004959 0.041693 0.008788
# 6 0.000523 0.002148 -0.002554 -0.006114 0.008788 0.036542
#
#
# Mechanical properties :
#
#
# Convention : Reuss Voigt Hill
#
# Bulk Modulus (GPa) = 38.64926 43.48683 41.06804
# Shear Modulus (GPa) = 27.56862 32.43616 30.00239
#
# Velocity S-wave (km/s) = 3.45867 3.75159 3.60810
# Velocity P-wave (km/s) = 5.72016 6.13477 5.93109
#
# Compressibility (1/GPa) = 0.02587372
#
# Stress axis : x y z
#
# Youngs Moduli (GPa) = 93.11491 63.15675 88.65523
#
# Poissons Ratio (x) = -0.02439 0.21755
# Poissons Ratio (y) = -0.03596 0.34768
# Poissons Ratio (z) = 0.22850 0.24768
#
# Static dielectric constant tensor:
#      x y z
#    x 1.943350 -0.021560 0.007550 
#    y -0.021560 1.849010 0.008840 
#    z 0.007550 0.008840 1.877140 
# 
# From -- ./inp_files/498635.got.cif
#   From: 2010.05.17/outbox.cif.g08.bks.cpg/sg2_250_cif.got.tgz:498635.got - 2010.06.03 11:33:40.
