data_PCOD9077415
_publ_section_title
;
Structure prediction by ZEFSAII (Michael W. Deem and Ramdas Pophale) SiO2 
 PCOD9077415
Probable space group: P -1
;
_chemical_formula_sum "Si O2"
_cell_formula_units_Z 16
_cell_length_a 12.441937
_cell_length_b 12.110614
_cell_length_c 18.056748
_cell_angle_alpha 150.223665
_cell_angle_beta 50.070907
_cell_angle_gamma 108.755244
_cell_volume 814.115389
_symmetry_space_group_name_H-M "P -1"
_symmetry_group_IT_number 2
_symmetry_cell_setting 'triclinic'
loop_
_space_group_symop_operation_xyz
x,y,z
-x,-y,-z
loop_
_atom_site_type_symbol
_atom_site_label
_atom_site_fract_x
_atom_site_fract_y
_atom_site_fract_z
Si Si1 0.736199 0.676654 0.890768
Si Si2 0.237869 0.586916 0.016563
Si Si3 0.660983 0.820655 0.385311
Si Si4 0.641678 0.939043 0.241608
Si Si5 0.564036 0.198245 0.004187
Si Si6 0.263968 0.686020 0.514728
Si Si7 0.849475 0.108041 0.481021
Si Si8 0.086152 0.445246 0.510288
O O1 0.578095 0.823325 0.985553
O O2 0.759373 0.391411 0.733070
O O3 0.926948 0.564527 0.708372
O O4 0.678558 0.873475 0.101268
O O5 0.217975 0.480534 0.883744
O O6 0.283914 0.354166 0.920582
O O7 0.388133 0.627462 0.963061
O O8 0.050457 0.883439 0.287567
O O9 0.500000 0.000000 0.500000
O O10 0.565773 0.844625 0.516890
O O11 0.755575 0.961496 0.437290
O O12 0.725634 0.078298 0.320016
O O13 0.459207 0.395315 0.237050
O O14 0.749185 0.888159 0.751563
O O15 0.165471 0.795832 0.542137
O O16 0.168101 0.611555 0.568993
O O17 0.000000 0.500000 0.500000
#
# Coordination Sequence:
#
# PCOD9077415 Si02
#       8
#     2   2   2   2   2   2   2   2
#     4  11  25  41  61  93 128 161 206 253 309 366
#     4  11  20  36  66  92 126 159 209 253 302 369
#     4  10  18  34  59  87 121 161 201 246 299 364
#     4  11  23  40  58  92 130 166 196 249 316 368
#     4  11  22  42  69  94 116 161 211 255 303 364
#     4  11  21  39  67  89 122 163 209 258 301 358
#     4  11  20  37  62  97 121 161 213 253 299 365
#     4  12  23  43  70  92 117 159 216 260 298 358
#
# _framework density 19.653234000000001
#
# number of rings (size 3 to 8) (size 9 to 14) (size 15 to 20)
#    0.000    1.000    7.500    3.000    0.000    3.000 
#    2.250    0.625    0.000    0.000    0.000    0.000 
#    0.000    0.000    0.000    0.000    0.000    0.000 
#
# Total GULP energy -89283.577487 kJ/mol
# GULP energy per Si atom -5580.223593 kJ/mol
# Density = 1.960850 g / cm^3
# Si number density = 19.653234 Si / 1000 Ang^3
#
#
#
# Elastic Constant Matrix: (Units=GPa)
#
#
# Indices 1 2 3 4 5 6 
#
# 1 60.7749 33.3633 30.0795 -8.6597 6.1615 14.4734
# 2 33.3633 87.3812 20.6558 -2.5596 2.0777 29.1018
# 3 30.0795 20.6558 70.9826 -7.4416 -4.5556 -12.2918
# 4 -8.6597 -2.5596 -7.4416 29.6640 -1.3730 0.2087
# 5 6.1615 2.0777 -4.5556 -1.3730 34.6181 -6.1905
# 6 14.4734 29.1018 -12.2918 0.2087 -6.1905 31.6815
#
#
#
# Elastic Compliance Matrix: (Units=1/GPa)
#
#
# Indices 1 2 3 4 5 6 
#
# 1 0.034053 0.001054 -0.019750 0.004649 -0.013336 -0.026824
# 2 0.001054 0.024204 -0.013288 -0.001133 -0.008721 -0.029567
# 3 -0.019750 -0.013288 0.034029 0.002081 0.015572 0.037461
# 4 0.004649 -0.001133 0.002081 0.035535 0.000863 -0.000341
# 5 -0.013336 -0.008721 0.015572 0.000863 0.038825 0.027726
# 6 -0.026824 -0.029567 0.037461 -0.000341 0.027726 0.090932
#
#
# Mechanical properties :
#
#
# Convention : Reuss Voigt Hill
#
# Bulk Modulus (GPa) = 35.31579 43.03731 39.17655
# Shear Modulus (GPa) = 15.10633 28.19539 21.65086
#
# Velocity S-wave (km/s) = 2.77545 3.79178 3.32270
# Velocity P-wave (km/s) = 5.31783 6.41217 5.89047
#
# Compressibility (1/GPa) = 0.02831595
#
# Stress axis : x y z
#
# Youngs Moduli (GPa) = 29.36558 41.31498 29.38685
#
# Poissons Ratio (x) = -0.04353 0.58040
# Poissons Ratio (y) = -0.03094 0.39050
# Poissons Ratio (z) = 0.57998 0.54901
#
# Static dielectric constant tensor:
#      x y z
#    x 1.689860 0.012910 -0.013290 
#    y 0.012910 1.722380 0.002920 
#    z -0.013290 0.002920 1.726940 
# 
# From -- ./inp_files/522498.got.cif
#   From: 2010.05.17/outbox.cif.g08.bks.cpg/sg2_262_cif.got.tgz:522498.got - 2010.06.03 11:33:40.
