data_PCOD9077892
_publ_section_title
;
Structure prediction by ZEFSAII (Michael W. Deem and Ramdas Pophale) SiO2 
 PCOD9077892
Probable space group: P -1
;
_chemical_formula_sum "Si O2"
_cell_formula_units_Z 14
_cell_length_a 11.888386
_cell_length_b 9.542416
_cell_length_c 7.873385
_cell_angle_alpha 132.719235
_cell_angle_beta 109.726222
_cell_angle_gamma 72.336188
_cell_volume 614.114256
_symmetry_space_group_name_H-M "P -1"
_symmetry_group_IT_number 2
_symmetry_cell_setting 'triclinic'
loop_
_space_group_symop_operation_xyz
x,y,z
-x,-y,-z
loop_
_atom_site_type_symbol
_atom_site_label
_atom_site_fract_x
_atom_site_fract_y
_atom_site_fract_z
Si Si1 0.610570 0.699962 0.005882
Si Si2 0.393246 0.573032 0.637658
Si Si3 0.950118 0.810635 0.248857
Si Si4 0.387808 0.223171 0.539401
Si Si5 0.670152 0.161658 0.705258
Si Si6 0.825286 0.467344 0.001489
Si Si7 0.723801 0.042192 0.257343
O O1 0.643650 0.723269 0.238629
O O2 0.619571 0.899736 0.080674
O O3 0.477871 0.641912 0.886606
O O4 0.718817 0.542132 0.872407
O O5 0.500000 0.500000 0.500000
O O6 0.336809 0.386542 0.519275
O O7 0.309239 0.757276 0.685562
O O8 0.060041 0.676355 0.113631
O O9 0.842721 0.907022 0.153437
O O10 0.887010 0.665709 0.224214
O O11 0.000000 0.000000 0.500000
O O12 0.533459 0.213826 0.609023
O O13 0.343930 0.015075 0.321320
O O14 0.744500 0.328227 0.952400
O O15 0.736144 0.088913 0.503538
#
# Coordination Sequence:
#
# PCOD9077892 Si02
#       7
#     2   2   2   2   2   2   2
#     4  10  21  36  55  85 115 156 191 230 288 359
#     4  12  21  34  53  85 122 152 185 239 296 345
#     4  10  20  34  57  87 113 148 197 250 288 324
#     4  10  21  34  56  84 120 158 188 225 288 358
#     4  10  18  35  55  83 115 152 196 229 279 351
#     4  10  19  34  58  85 112 146 200 245 277 331
#     4  10  20  35  55  83 120 148 189 244 292 335
#
# _framework density 22.797062
#
# number of rings (size 3 to 8) (size 9 to 14) (size 15 to 20)
#    0.000    1.714    4.286    0.857    0.000    0.000 
#    0.000    0.000    0.000    1.714    0.000    0.000 
#    0.000    0.000    0.000    0.000    0.000    0.000 
#
# Total GULP energy -77949.542482 kJ/mol
# GULP energy per Si atom -5567.824463 kJ/mol
# Density = 2.274517 g / cm^3
# Si number density = 22.797062 Si / 1000 Ang^3
#
#
#
# Elastic Constant Matrix: (Units=GPa)
#
#
# Indices 1 2 3 4 5 6 
#
# 1 123.8954 53.5423 24.8808 25.2770 16.7455 -5.0468
# 2 53.5423 187.8450 37.7425 59.5035 7.5853 10.1353
# 3 24.8808 37.7425 62.4584 41.2580 13.7412 11.3599
# 4 25.2770 59.5035 41.2580 44.9532 13.3461 7.7294
# 5 16.7455 7.5853 13.7412 13.3461 36.7211 24.0287
# 6 -5.0468 10.1353 11.3599 7.7294 24.0287 41.7407
#
#
#
# Elastic Compliance Matrix: (Units=1/GPa)
#
#
# Indices 1 2 3 4 5 6 
#
# 1 0.011347 -0.003598 -0.004087 0.003562 -0.009566 0.008205
# 2 -0.003598 0.012013 0.009070 -0.023638 0.008504 -0.006339
# 3 -0.004087 0.009070 0.048506 -0.055014 0.008936 -0.010855
# 4 0.003562 -0.023638 -0.055014 0.106828 -0.025464 0.016019
# 5 -0.009566 0.008504 0.008936 -0.025464 0.058338 -0.034521
# 6 0.008205 -0.006339 -0.010855 0.016019 -0.034521 0.046349
#
#
# Mechanical properties :
#
#
# Convention : Reuss Voigt Hill
#
# Bulk Modulus (GPa) = 13.39814 67.39223 40.39519
# Shear Modulus (GPa) = 16.36712 41.88522 29.12617
#
# Velocity S-wave (km/s) = 2.68236 4.29103 3.57827
# Velocity P-wave (km/s) = 3.93489 7.36048 5.90169
#
# Compressibility (1/GPa) = 0.07463722
#
# Stress axis : x y z
#
# Youngs Moduli (GPa) = 88.12642 83.24312 20.61588
#
# Poissons Ratio (x) = 0.29952 0.08426
# Poissons Ratio (y) = 0.31709 -0.18699
# Poissons Ratio (z) = 0.36018 -0.75505
#
# Static dielectric constant tensor:
#      x y z
#    x 1.970940 -0.025390 -0.053530 
#    y -0.025390 1.892590 0.040000 
#    z -0.053530 0.040000 2.078710 
# 
# From -- ./inp_files/213444.got.cif
#   From: 2010.05.17/outbox.cif.g08.bks.cpg/sg2_107_cif.got.tgz:213444.got - 2010.06.03 11:33:40.
