data_PCOD9077046
_publ_section_title
;
Structure prediction by ZEFSAII (Michael W. Deem and Ramdas Pophale) SiO2 
 PCOD9077046
Probable space group: P -1
;
_chemical_formula_sum "Si O2"
_cell_formula_units_Z 14
_cell_length_a 9.691505
_cell_length_b 9.978148
_cell_length_c 13.882189
_cell_angle_alpha 141.581384
_cell_angle_beta 49.243798
_cell_angle_gamma 135.887405
_cell_volume 567.865406
_symmetry_space_group_name_H-M "P -1"
_symmetry_group_IT_number 2
_symmetry_cell_setting 'triclinic'
loop_
_space_group_symop_operation_xyz
x,y,z
-x,-y,-z
loop_
_atom_site_type_symbol
_atom_site_label
_atom_site_fract_x
_atom_site_fract_y
_atom_site_fract_z
Si Si1 0.695799 0.389633 0.700995
Si Si2 0.232477 0.929571 0.253121
Si Si3 0.810535 0.827112 0.400935
Si Si4 0.022280 0.232447 0.063808
Si Si5 0.393699 0.525623 0.962914
Si Si6 0.577364 0.154974 0.441937
Si Si7 0.347221 0.688758 0.724776
O O1 0.875348 0.541321 0.779141
O O2 0.577959 0.553495 0.826554
O O3 0.744377 0.294461 0.525023
O O4 0.520988 0.134584 0.678559
O O5 0.013825 0.871083 0.276361
O O6 0.177832 0.973546 0.413140
O O7 0.421782 0.167935 0.265655
O O8 0.320326 0.733469 0.101106
O O9 0.619167 0.805437 0.415752
O O10 0.742567 0.583369 0.355100
O O11 0.809465 0.212275 0.113080
O O12 0.179665 0.293713 0.939354
O O13 0.000000 0.000000 0.000000
O O14 0.500000 0.500000 0.000000
O O15 0.641846 0.263828 0.368389
#
# Coordination Sequence:
#
# PCOD9077046 Si02
#       7
#     2   2   2   2   2   2   2
#     4  10  22  38  59  84 118 160 191 236 296 346
#     4  10  19  33  56  85 113 147 192 245 286 329
#     4  10  20  35  59  88 114 150 199 241 287 339
#     4  11  20  33  59  87 116 146 195 249 285 341
#     4  10  18  34  55  79 110 150 193 237 280 336
#     4  10  21  39  58  84 121 154 194 238 290 352
#     4  11  20  34  60  90 114 147 197 243 288 339
#
# _framework density 24.653728999999998
#
# number of rings (size 3 to 8) (size 9 to 14) (size 15 to 20)
#    0.000    1.714    1.429    7.714    2.000    0.571 
#    0.000    0.714    0.000    4.286    0.000    0.000 
#    0.000    0.000    0.000    0.000    0.000    0.000 
#
# Total GULP energy -78021.665122 kJ/mol
# GULP energy per Si atom -5572.976080 kJ/mol
# Density = 2.459762 g / cm^3
# Si number density = 24.653729 Si / 1000 Ang^3
#
#
#
# Elastic Constant Matrix: (Units=GPa)
#
#
# Indices 1 2 3 4 5 6 
#
# 1 47.8662 20.2200 20.5924 -4.4036 -6.0460 16.1872
# 2 20.2200 115.4974 26.0015 10.8697 -13.6389 24.6692
# 3 20.5924 26.0015 60.9277 17.0043 -33.4479 4.3153
# 4 -4.4036 10.8697 17.0043 39.5691 9.8668 -16.4002
# 5 -6.0460 -13.6389 -33.4479 9.8668 52.3731 -7.1309
# 6 16.1872 24.6692 4.3153 -16.4002 -7.1309 31.1635
#
#
#
# Elastic Compliance Matrix: (Units=1/GPa)
#
#
# Indices 1 2 3 4 5 6 
#
# 1 0.033219 -0.001971 -0.020714 0.012685 -0.013557 -0.009253
# 2 -0.001971 0.013593 0.002207 -0.012577 0.004978 -0.015522
# 3 -0.020714 0.002207 0.058936 -0.044045 0.042401 -0.012626
# 4 0.012685 -0.012577 -0.044045 0.075412 -0.038659 0.040306
# 5 -0.013557 0.004978 0.042401 -0.038659 0.051650 -0.011297
# 6 -0.009253 -0.015522 -0.012626 0.040306 -0.011297 0.069557
#
#
# Mechanical properties :
#
#
# Convention : Reuss Voigt Hill
#
# Bulk Modulus (GPa) = 15.43359 39.76880 27.60120
# Shear Modulus (GPa) = 13.70166 35.11963 24.41065
#
# Velocity S-wave (km/s) = 2.36002 3.77837 3.15006
# Velocity P-wave (km/s) = 3.70135 5.93302 4.94473
#
# Compressibility (1/GPa) = 0.06479375
#
# Stress axis : x y z
#
# Youngs Moduli (GPa) = 30.10325 73.56681 16.96760
#
# Poissons Ratio (x) = 0.14499 0.35146
# Poissons Ratio (y) = 0.05933 -0.03745
# Poissons Ratio (z) = 0.62355 -0.16238
#
# Static dielectric constant tensor:
#      x y z
#    x 2.051970 0.050510 0.049770 
#    y 0.050510 1.974210 -0.024030 
#    z 0.049770 -0.024030 2.112730 
# 
# From -- ./inp_files/472380.got.cif
#   From: 2010.05.17/outbox.cif.g08.bks.cpg/sg2_237_cif.got.tgz:472380.got - 2010.06.03 11:33:40.
