data_PCOD9077014
_publ_section_title
;
Structure prediction by ZEFSAII (Michael W. Deem and Ramdas Pophale) SiO2 
 PCOD9077014
Probable space group: P -1
;
_chemical_formula_sum "Si O2"
_cell_formula_units_Z 16
_cell_length_a 9.312515
_cell_length_b 10.923961
_cell_length_c 16.461855
_cell_angle_alpha 144.543637
_cell_angle_beta 50.306376
_cell_angle_gamma 121.937600
_cell_volume 747.350620
_symmetry_space_group_name_H-M "P -1"
_symmetry_group_IT_number 2
_symmetry_cell_setting 'triclinic'
loop_
_space_group_symop_operation_xyz
x,y,z
-x,-y,-z
loop_
_atom_site_type_symbol
_atom_site_label
_atom_site_fract_x
_atom_site_fract_y
_atom_site_fract_z
Si Si1 0.849052 0.874283 0.537624
Si Si2 0.438182 0.761783 0.599251
Si Si3 0.812033 0.785512 0.742663
Si Si4 0.260275 0.473509 0.824095
Si Si5 0.087325 0.827134 0.174525
Si Si6 0.384200 0.802357 0.466088
Si Si7 0.962707 0.433904 0.596644
Si Si8 0.437003 0.694044 0.742012
O O1 0.646932 0.855196 0.561464
O O2 0.923820 0.641035 0.406305
O O3 0.832708 0.017614 0.701470
O O4 0.000000 0.000000 0.500000
O O5 0.327389 0.831834 0.597134
O O6 0.385062 0.807255 0.736628
O O7 0.460301 0.512648 0.441445
O O8 0.871623 0.660930 0.735762
O O9 0.593051 0.801855 0.804170
O O10 0.896850 0.627053 0.559236
O O11 0.911561 0.012354 0.815658
O O12 0.467363 0.383424 0.698717
O O13 0.264332 0.611248 0.814190
O O14 0.107565 0.283036 0.785518
O O15 0.216570 0.633340 0.998920
O O16 0.204944 0.738009 0.444598
O O17 0.500000 0.000000 0.500000
#
# Coordination Sequence:
#
# PCOD9077014 Si02
#       8
#     2   2   2   2   2   2   2   2
#     4  11  20  35  58  88 115 149 190 238 290 338
#     4  10  19  32  52  84 118 142 184 236 285 334
#     4  10  18  34  54  83 114 146 183 234 290 330
#     4  10  21  37  55  81 114 153 196 235 283 350
#     4  10  21  37  55  81 114 153 196 235 283 350
#     4  11  20  35  58  88 115 149 190 238 290 338
#     4  10  19  32  52  84 118 142 184 236 285 334
#     4  10  18  34  54  83 114 146 183 234 290 330
#
# _framework density 21.408961999999999
#
# number of rings (size 3 to 8) (size 9 to 14) (size 15 to 20)
#    0.000    1.750    5.000    3.750    0.000    0.500 
#    0.000    0.000    0.000    4.500    0.000   14.000 
#    0.000    0.000    0.000    0.000    0.000    0.000 
#
# Total GULP energy -89093.026186 kJ/mol
# GULP energy per Si atom -5568.314137 kJ/mol
# Density = 2.136023 g / cm^3
# Si number density = 21.408962 Si / 1000 Ang^3
#
#
#
# Elastic Constant Matrix: (Units=GPa)
#
#
# Indices 1 2 3 4 5 6 
#
# 1 43.5950 11.6918 25.6201 0.1762 -0.8436 15.4977
# 2 11.6918 120.6763 4.8135 -3.5021 -0.0360 6.3021
# 3 25.6201 4.8135 51.8436 2.5157 3.1217 2.2004
# 4 0.1762 -3.5021 2.5157 16.5583 -4.3983 -1.1844
# 5 -0.8436 -0.0360 3.1217 -4.3983 2.6236 -2.8557
# 6 15.4977 6.3021 2.2004 -1.1844 -2.8557 37.5042
#
#
#
# Elastic Compliance Matrix: (Units=1/GPa)
#
#
# Indices 1 2 3 4 5 6 
#
# 1 0.043708 -0.002044 -0.026032 0.020304 0.067727 -0.010392
# 2 -0.002044 0.008594 -0.000237 0.003189 0.004974 -0.000106
# 3 -0.026032 -0.000237 0.042150 -0.041054 -0.130518 -0.002910
# 4 0.020304 0.003189 -0.041054 0.164415 0.359392 0.026040
# 5 0.067727 0.004974 -0.130518 0.359392 1.254034 0.085671
# 6 -0.010392 -0.000106 -0.002910 0.026040 0.085671 0.038492
#
#
# Mechanical properties :
#
#
# Convention : Reuss Voigt Hill
#
# Bulk Modulus (GPa) = 26.43800 33.37396 29.90598
# Shear Modulus (GPa) = 3.08522 22.93652 13.01087
#
# Velocity S-wave (km/s) = 1.20176 3.27670 2.46789
# Velocity P-wave (km/s) = 3.78173 5.47159 4.70318
#
# Compressibility (1/GPa) = 0.03782434
#
# Stress axis : x y z
#
# Youngs Moduli (GPa) = 22.87887 116.36396 23.72464
#
# Poissons Ratio (x) = 0.23787 0.61761
# Poissons Ratio (y) = 0.04677 0.00563
# Poissons Ratio (z) = 0.59559 0.02763
#
# Static dielectric constant tensor:
#      x y z
#    x 1.874870 -0.059500 -0.004500 
#    y -0.059500 1.905750 -0.003350 
#    z -0.004500 -0.003350 1.774440 
# 
# From -- ./inp_files/559275.got.cif
#   From: 2010.05.17/outbox.cif.g08.bks.cpg/sg2_280_cif.got.tgz:559275.got - 2010.06.03 11:33:40.
