data_PCOD9077389
_publ_section_title
;
Structure prediction by ZEFSAII (Michael W. Deem and Ramdas Pophale) SiO2 
 PCOD9077389
Probable space group: P -1
;
_chemical_formula_sum "Si O2"
_cell_formula_units_Z 16
_cell_length_a 19.492660
_cell_length_b 29.581240
_cell_length_c 14.684520
_cell_angle_alpha 166.124406
_cell_angle_beta 154.750599
_cell_angle_gamma 18.917896
_cell_volume 647.708142
_symmetry_space_group_name_H-M "P -1"
_symmetry_group_IT_number 2
_symmetry_cell_setting 'triclinic'
loop_
_space_group_symop_operation_xyz
x,y,z
-x,-y,-z
loop_
_atom_site_type_symbol
_atom_site_label
_atom_site_fract_x
_atom_site_fract_y
_atom_site_fract_z
Si Si1 0.371913 0.497478 0.074317
Si Si2 0.078589 0.122582 0.777275
Si Si3 0.330536 0.707305 0.124036
Si Si4 0.315530 0.038954 0.232642
Si Si5 0.201473 0.473905 0.179156
Si Si6 0.860753 0.452652 0.548746
Si Si7 0.580356 0.077264 0.066524
Si Si8 0.300890 0.626030 0.439776
O O1 0.391000 0.713817 0.504775
O O2 0.379455 0.461272 0.120760
O O3 0.546306 0.291662 0.809920
O O4 0.141820 0.603938 0.972879
O O5 0.173688 0.969331 0.498945
O O6 0.265116 0.084747 0.980881
O O7 0.000000 0.000000 0.500000
O O8 0.500000 0.500000 0.000000
O O9 0.198149 0.641444 0.789220
O O10 0.569907 0.815278 0.128892
O O11 0.335606 0.079144 0.230692
O O12 0.232794 0.887205 0.842290
O O13 0.115399 0.299197 0.549222
O O14 0.203040 0.571965 0.473359
O O15 0.145353 0.646032 0.361991
O O16 0.000000 0.500000 0.000000
O O17 0.674825 0.754020 0.900571
O O18 0.500000 0.500000 0.500000
#
# Coordination Sequence:
#
# PCOD9077389 Si02
#       8
#     2   2   2   2   2   2   2   2
#     4   9  17  25  39  66 100 135 163 192 246 305
#     4  10  15  23  38  65 108 138 158 188 251 306
#     4  11  16  23  42  73 110 135 156 200 251 304
#     4   9  18  31  53  77 105 129 164 214 262 306
#     4  10  22  38  54  72  99 137 179 216 254 304
#     4  10  18  30  48  75 104 130 173 205 256 305
#     4   8  15  25  40  69 107 135 153 194 248 305
#     4   9  17  34  52  71 103 134 166 216 267 298
#
# _framework density 24.702483999999998
#
# number of rings (size 3 to 8) (size 9 to 14) (size 15 to 20)
#    0.000    2.500    3.750    4.500    0.000    1.000 
#    0.000    2.500    0.000    0.000    0.000    4.375 
#    0.000    0.125    0.000    0.000    0.000    0.000 
#
# Total GULP energy -89216.652687 kJ/mol
# GULP energy per Si atom -5576.040793 kJ/mol
# Density = 2.464626 g / cm^3
# Si number density = 24.702484 Si / 1000 Ang^3
#
#
#
# Elastic Constant Matrix: (Units=GPa)
#
#
# Indices 1 2 3 4 5 6 
#
# 1 132.6202 57.2936 33.1377 -3.3512 -24.4053 -5.4901
# 2 57.2936 142.6978 29.0589 19.5247 -11.9404 -14.4605
# 3 33.1377 29.0589 58.5406 9.0043 -10.3295 -3.3464
# 4 -3.3512 19.5247 9.0043 24.5440 -2.2818 -14.7169
# 5 -24.4053 -11.9404 -10.3295 -2.2818 31.8385 -2.1590
# 6 -5.4901 -14.4605 -3.3464 -14.7169 -2.1590 44.0122
#
#
#
# Elastic Compliance Matrix: (Units=1/GPa)
#
#
# Indices 1 2 3 4 5 6 
#
# 1 0.012313 -0.004333 -0.004837 0.009536 0.007151 0.003284
# 2 -0.004333 0.010099 -0.001404 -0.008231 -0.000587 -0.000110
# 3 -0.004837 -0.001404 0.022124 -0.008786 0.002164 -0.002215
# 4 0.009536 -0.008231 -0.008786 0.064293 0.007314 0.019674
# 5 0.007151 -0.000587 0.002164 0.007314 0.038248 0.005186
# 6 0.003284 -0.000110 -0.002215 0.019674 0.005186 0.029759
#
#
# Mechanical properties :
#
#
# Convention : Reuss Voigt Hill
#
# Bulk Modulus (GPa) = 42.75531 63.64877 53.20204
# Shear Modulus (GPa) = 24.29768 34.37018 29.33393
#
# Velocity S-wave (km/s) = 3.13966 3.73415 3.44973
# Velocity P-wave (km/s) = 5.52168 6.66437 6.11976
#
# Compressibility (1/GPa) = 0.02338891
#
# Stress axis : x y z
#
# Youngs Moduli (GPa) = 81.21174 99.01667 45.19990
#
# Poissons Ratio (x) = 0.42900 0.21863
# Poissons Ratio (y) = 0.35186 0.06348
# Poissons Ratio (z) = 0.39281 0.13906
#
# Static dielectric constant tensor:
#      x y z
#    x 2.106650 0.016320 0.078590 
#    y 0.016320 1.954480 -0.082040 
#    z 0.078590 -0.082040 2.044820 
# 
# From -- ./inp_files/539473.got.cif
#   From: 2010.05.17/outbox.cif.g08.bks.cpg/sg2_270_cif.got.tgz:539473.got - 2010.06.03 11:33:40.
