data_PCOD9077978
_publ_section_title
;
Structure prediction by ZEFSAII (Michael W. Deem and Ramdas Pophale) SiO2 
 PCOD9077978
Probable space group: P -1
;
_chemical_formula_sum "Si O2"
_cell_formula_units_Z 14
_cell_length_a 6.948506
_cell_length_b 11.900124
_cell_length_c 10.610599
_cell_angle_alpha 39.864677
_cell_angle_beta 89.660423
_cell_angle_gamma 102.839148
_cell_volume 525.993923
_symmetry_space_group_name_H-M "P -1"
_symmetry_group_IT_number 2
_symmetry_cell_setting 'triclinic'
loop_
_space_group_symop_operation_xyz
x,y,z
-x,-y,-z
loop_
_atom_site_type_symbol
_atom_site_label
_atom_site_fract_x
_atom_site_fract_y
_atom_site_fract_z
Si Si1 0.214438 0.560441 0.127231
Si Si2 0.329920 0.132564 0.293812
Si Si3 0.837956 0.833675 0.299933
Si Si4 0.961834 0.221350 0.245449
Si Si5 0.738473 0.172634 0.618295
Si Si6 0.513261 0.378878 0.315893
Si Si7 0.121093 0.775254 0.160751
O O1 0.446044 0.558560 0.140183
O O2 0.145117 0.611941 0.217437
O O3 0.078453 0.365550 0.230541
O O4 0.172375 0.702218 0.909186
O O5 0.476845 0.278048 0.266630
O O6 0.157688 0.211874 0.175534
O O7 0.189541 0.968834 0.530646
O O8 0.403023 0.015494 0.290869
O O9 0.647801 0.728908 0.479776
O O10 0.040288 0.851608 0.364268
O O11 0.895783 0.734805 0.261001
O O12 0.834894 0.032760 0.082033
O O13 0.714669 0.349970 0.394662
O O14 0.718066 0.186708 0.756171
#
# Coordination Sequence:
#
# PCOD9077978 Si02
#       7
#     2   2   2   2   2   2   2
#     4  10  19  34  54  85 112 143 179 224 274 330
#     4  10  18  35  57  80 107 143 188 229 260 321
#     4   9  20  39  56  82 105 145 187 224 265 322
#     4   9  19  33  61  81 106 146 184 223 276 314
#     4  10  20  35  56  84 110 142 182 227 270 317
#     4  11  22  34  58  82 111 146 183 220 275 323
#     4   9  20  37  59  78 114 140 183 230 267 321
#
# _framework density 26.616275000000002
#
# number of rings (size 3 to 8) (size 9 to 14) (size 15 to 20)
#    0.857    1.429    0.000    4.714    0.000    1.714 
#    0.000    0.714    0.000    3.429    0.000    0.000 
#    0.000    0.000    0.000    0.000    0.000    0.000 
#
# Total GULP energy -78248.115014 kJ/mol
# GULP energy per Si atom -5589.151072 kJ/mol
# Density = 2.655570 g / cm^3
# Si number density = 26.616275 Si / 1000 Ang^3
#
#
#
# Elastic Constant Matrix: (Units=GPa)
#
#
# Indices 1 2 3 4 5 6 
#
# 1 110.6579 42.9846 38.2768 2.3078 28.4199 -11.8305
# 2 42.9846 187.0722 11.9260 -3.1981 12.0854 -28.1525
# 3 38.2768 11.9260 89.3473 16.1935 50.8943 5.9486
# 4 2.3078 -3.1981 16.1935 31.6946 -4.5515 4.6132
# 5 28.4199 12.0854 50.8943 -4.5515 61.8970 9.1517
# 6 -11.8305 -28.1525 5.9486 4.6132 9.1517 32.1078
#
#
#
# Elastic Compliance Matrix: (Units=1/GPa)
#
#
# Indices 1 2 3 4 5 6 
#
# 1 0.012193 -0.001693 -0.003420 -0.000437 -0.003170 0.004608
# 2 -0.001693 0.006677 0.000745 -0.000719 -0.002046 0.005779
# 3 -0.003420 0.000745 0.030373 -0.019421 -0.025545 0.003838
# 4 -0.000437 -0.000719 -0.019421 0.045896 0.021136 -0.009812
# 5 -0.003170 -0.002046 -0.025545 0.021136 0.042550 -0.013394
# 6 0.004608 0.005779 0.003838 -0.009812 -0.013394 0.042426
#
#
# Mechanical properties :
#
#
# Convention : Reuss Voigt Hill
#
# Bulk Modulus (GPa) = 24.68624 63.71691 44.20157
# Shear Modulus (GPa) = 24.70928 44.73254 34.72091
#
# Velocity S-wave (km/s) = 3.05019 4.10402 3.61570
# Velocity P-wave (km/s) = 4.65832 6.81530 5.83730
#
# Compressibility (1/GPa) = 0.04050840
#
# Stress axis : x y z
#
# Youngs Moduli (GPa) = 82.01308 149.77748 32.92361
#
# Poissons Ratio (x) = 0.25356 0.11259
# Poissons Ratio (y) = 0.13884 -0.02454
# Poissons Ratio (z) = 0.28046 -0.11162
#
# Static dielectric constant tensor:
#      x y z
#    x 2.128850 -0.009040 -0.031130 
#    y -0.009040 2.065530 -0.024740 
#    z -0.031130 -0.024740 2.119340 
# 
# From -- ./inp_files/386530.got.cif
#   From: 2010.05.17/outbox.cif.g08.bks.cpg/sg2_194_cif.got.tgz:386530.got - 2010.06.03 11:33:40.
