data_PCOD9077183
_publ_section_title
;
Structure prediction by ZEFSAII (Michael W. Deem and Ramdas Pophale) SiO2 
 PCOD9077183
Probable space group: P -1
;
_chemical_formula_sum "Si O2"
_cell_formula_units_Z 16
_cell_length_a 15.758038
_cell_length_b 12.495722
_cell_length_c 18.331044
_cell_angle_alpha 159.788745
_cell_angle_beta 38.113174
_cell_angle_gamma 144.000752
_cell_volume 726.178617
_symmetry_space_group_name_H-M "P -1"
_symmetry_group_IT_number 2
_symmetry_cell_setting 'triclinic'
loop_
_space_group_symop_operation_xyz
x,y,z
-x,-y,-z
loop_
_atom_site_type_symbol
_atom_site_label
_atom_site_fract_x
_atom_site_fract_y
_atom_site_fract_z
Si Si1 0.571168 0.651763 0.866692
Si Si2 0.896444 0.752532 0.651239
Si Si3 0.174889 0.115188 0.947469
Si Si4 0.220122 0.445768 0.539493
Si Si5 0.348376 0.743589 0.327110
Si Si6 0.139794 0.940082 0.706202
Si Si7 0.635381 0.388870 0.313580
Si Si8 0.462093 0.449988 0.658239
O O1 0.734468 0.701159 0.757011
O O2 0.545637 0.376155 0.769369
O O3 0.464269 0.555881 0.808625
O O4 0.583909 0.001237 0.113381
O O5 0.898725 0.788691 0.585392
O O6 0.922174 0.406994 0.429955
O O7 0.013661 0.004611 0.784897
O O8 0.253509 0.434075 0.146515
O O9 0.224297 0.812086 0.747949
O O10 0.204493 0.182707 0.884214
O O11 0.000000 0.000000 0.000000
O O12 0.225989 0.437170 0.617603
O O13 0.371522 0.395396 0.381812
O O14 0.249389 0.874002 0.531905
O O15 0.428352 0.059911 0.427965
O O16 0.500000 0.500000 0.500000
O O17 0.645800 0.451129 0.259559
#
# Coordination Sequence:
#
# PCOD9077183 Si02
#       8
#     2   2   2   2   2   2   2   2
#     4  10  18  34  57  79 106 149 189 223 282 331
#     4   8  15  30  54  78 105 137 179 239 265 324
#     4  11  20  33  59  86 111 147 188 236 281 328
#     4   9  18  34  53  82 108 142 190 226 274 335
#     4  11  21  36  56  87 118 150 178 237 290 330
#     4   9  18  32  50  85 116 136 184 228 286 331
#     4  10  20  36  52  81 111 150 194 226 264 342
#     4  10  22  36  54  80 120 149 182 230 284 335
#
# _framework density 22.033145999999999
#
# number of rings (size 3 to 8) (size 9 to 14) (size 15 to 20)
#    0.000    2.250    1.250    4.500    0.000    0.500 
#    4.500    0.000    0.000    3.750    0.000    0.000 
#    0.000    0.000    0.000    0.000    0.000    0.000 
#
# Total GULP energy -89209.760970 kJ/mol
# GULP energy per Si atom -5575.610061 kJ/mol
# Density = 2.198300 g / cm^3
# Si number density = 22.033146 Si / 1000 Ang^3
#
#
#
# Elastic Constant Matrix: (Units=GPa)
#
#
# Indices 1 2 3 4 5 6 
#
# 1 192.3724 28.7213 14.4258 -11.4756 26.9731 -28.5973
# 2 28.7213 15.1376 -2.4221 -2.4812 9.5276 -3.9226
# 3 14.4258 -2.4221 38.2088 -10.9128 17.0601 -3.1792
# 4 -11.4756 -2.4812 -10.9128 15.5619 -12.7524 -4.1689
# 5 26.9731 9.5276 17.0601 -12.7524 33.0518 -3.8934
# 6 -28.5973 -3.9226 -3.1792 -4.1689 -3.8934 20.1445
#
#
#
# Elastic Compliance Matrix: (Units=1/GPa)
#
#
# Indices 1 2 3 4 5 6 
#
# 1 0.009778 -0.015889 -0.002367 0.008567 0.002623 0.012694
# 2 -0.015889 0.125883 0.031005 -0.004160 -0.041161 -0.001966
# 3 -0.002367 0.031005 0.045098 0.019826 -0.021487 0.009745
# 4 0.008567 -0.004160 0.019826 0.129447 0.039683 0.048940
# 5 0.002623 -0.041161 -0.021487 0.039683 0.067992 0.013671
# 6 0.012694 -0.001966 0.009745 0.048940 0.013671 0.081587
#
#
# Mechanical properties :
#
#
# Convention : Reuss Voigt Hill
#
# Bulk Modulus (GPa) = 4.84827 36.35210 20.60018
# Shear Modulus (GPa) = 9.93958 27.41788 18.67873
#
# Velocity S-wave (km/s) = 2.12626 3.53142 2.91478
# Velocity P-wave (km/s) = 2.86936 5.75869 4.54949
#
# Compressibility (1/GPa) = 0.20625932
#
# Stress axis : x y z
#
# Youngs Moduli (GPa) = 102.26784 7.94389 22.17383
#
# Poissons Ratio (x) = 0.12622 0.05248
# Poissons Ratio (y) = 1.62488 -0.68751
# Poissons Ratio (z) = 0.24206 -0.24630
#
# Static dielectric constant tensor:
#      x y z
#    x 1.916380 -0.044930 0.048950 
#    y -0.044930 1.845110 -0.029880 
#    z 0.048950 -0.029880 1.819510 
# 
# From -- ./inp_files/208742.got.cif
#   From: 2010.05.17/outbox.cif.g08.bks.cpg/sg2_105_cif.got.tgz:208742.got - 2010.06.03 11:33:40.
