data_PCOD9077432
_publ_section_title
;
Structure prediction by ZEFSAII (Michael W. Deem and Ramdas Pophale) SiO2 
 PCOD9077432
Probable space group: P -1
;
_chemical_formula_sum "Si O2"
_cell_formula_units_Z 16
_cell_length_a 10.445827
_cell_length_b 8.516997
_cell_length_c 10.745754
_cell_angle_alpha 115.274353
_cell_angle_beta 68.931315
_cell_angle_gamma 101.987039
_cell_volume 805.044207
_symmetry_space_group_name_H-M "P -1"
_symmetry_group_IT_number 2
_symmetry_cell_setting 'triclinic'
loop_
_space_group_symop_operation_xyz
x,y,z
-x,-y,-z
loop_
_atom_site_type_symbol
_atom_site_label
_atom_site_fract_x
_atom_site_fract_y
_atom_site_fract_z
Si Si1 0.482902 0.905375 0.341956
Si Si2 0.167425 0.827927 0.382229
Si Si3 0.194313 0.575451 0.869996
Si Si4 0.056976 0.107792 0.352000
Si Si5 0.994020 0.266672 0.823494
Si Si6 0.583529 0.156795 0.166506
Si Si7 0.376058 0.396222 0.936730
Si Si8 0.686248 0.826835 0.883980
O O1 0.452372 0.226748 0.163716
O O2 0.500000 0.000000 0.500000
O O3 0.325712 0.831413 0.357284
O O4 0.524309 0.043159 0.264316
O O5 0.062150 0.781596 0.515012
O O6 0.118936 0.719252 0.241407
O O7 0.135035 0.023901 0.414248
O O8 0.572400 0.741622 0.228042
O O9 0.069397 0.678909 0.004929
O O10 0.123693 0.394204 0.785579
O O11 0.299625 0.693723 0.790209
O O12 0.177442 0.183838 0.248262
O O13 0.982877 0.937596 0.253660
O O14 0.715119 0.475129 0.060906
O O15 0.658555 0.024871 0.002597
O O16 0.300920 0.283796 0.033614
O O17 0.500000 0.500000 0.000000
#
# Coordination Sequence:
#
# PCOD9077432 Si02
#       8
#     2   2   2   2   2   2   2   2
#     4  11  24  39  61  89 121 154 193 247 297 346
#     4   9  18  35  58  79 110 156 197 227 285 348
#     4  11  20  35  58  89 117 149 193 245 293 338
#     4   9  17  33  61  80 103 150 204 228 265 349
#     4   9  19  34  58  82 117 154 194 232 286 356
#     4  10  18  35  60  83 118 151 198 237 285 360
#     4  11  23  36  60  92 123 148 188 253 301 337
#     4  10  18  34  59  90 110 153 201 239 286 343
#
# _framework density 19.874684999999999
#
# number of rings (size 3 to 8) (size 9 to 14) (size 15 to 20)
#    0.750    1.250    3.750    0.750    3.500    0.000 
#    0.000    5.000    0.000    2.250    0.000    0.000 
#    0.000    0.000    0.000    0.000    0.000    0.000 
#
# Total GULP energy -89145.510729 kJ/mol
# GULP energy per Si atom -5571.594421 kJ/mol
# Density = 1.982945 g / cm^3
# Si number density = 19.874685 Si / 1000 Ang^3
#
#
#
# Elastic Constant Matrix: (Units=GPa)
#
#
# Indices 1 2 3 4 5 6 
#
# 1 40.2051 12.3318 11.5179 -9.1284 -3.7889 22.4436
# 2 12.3318 42.0176 10.7955 -7.5875 -11.6411 23.7997
# 3 11.5179 10.7955 88.1224 -13.6365 -19.8166 9.5497
# 4 -9.1284 -7.5875 -13.6365 23.4478 14.4003 -1.7424
# 5 -3.7889 -11.6411 -19.8166 14.4003 29.4401 -0.9247
# 6 22.4436 23.7997 9.5497 -1.7424 -0.9247 38.2598
#
#
#
# Elastic Compliance Matrix: (Units=1/GPa)
#
#
# Indices 1 2 3 4 5 6 
#
# 1 0.042446 0.005942 -0.001132 0.017069 -0.002165 -0.027588
# 2 0.005942 0.044557 0.001519 0.005710 0.015641 -0.030944
# 3 -0.001132 0.001519 0.014005 0.002769 0.008419 -0.003447
# 4 0.017069 0.005710 0.002769 0.068928 -0.027767 -0.011788
# 5 -0.002165 0.015641 0.008419 -0.027767 0.058796 -0.010405
# 6 -0.027588 -0.030944 -0.003447 -0.011788 -0.010405 0.061642
#
#
# Mechanical properties :
#
#
# Convention : Reuss Voigt Hill
#
# Bulk Modulus (GPa) = 8.79758 26.62616 17.71187
# Shear Modulus (GPa) = 15.84270 27.27619 21.55944
#
# Velocity S-wave (km/s) = 2.82641 3.70862 3.29716
# Velocity P-wave (km/s) = 3.88428 5.63601 4.84005
#
# Compressibility (1/GPa) = 0.11366756
#
# Stress axis : x y z
#
# Youngs Moduli (GPa) = 23.55941 22.44315 71.40285
#
# Poissons Ratio (x) = -0.13336 0.08079
# Poissons Ratio (y) = -0.14000 -0.10847
# Poissons Ratio (z) = 0.02666 -0.03409
#
# Static dielectric constant tensor:
#      x y z
#    x 1.708130 0.010280 -0.018340 
#    y 0.010280 1.726600 0.004140 
#    z -0.018340 0.004140 1.725700 
# 
# From -- ./inp_files/388024.got.cif
#   From: 2010.05.17/outbox.cif.g08.bks.cpg/sg2_195_cif.got.tgz:388024.got - 2010.06.03 11:33:40.
