data_PCOD9077493
_publ_section_title
;
Structure prediction by ZEFSAII (Michael W. Deem and Ramdas Pophale) SiO2 
 PCOD9077493
Probable space group: P -1
;
_chemical_formula_sum "Si O2"
_cell_formula_units_Z 14
_cell_length_a 8.713081
_cell_length_b 10.566721
_cell_length_c 16.299690
_cell_angle_alpha 33.002765
_cell_angle_beta 123.155078
_cell_angle_gamma 123.548695
_cell_volume 669.625660
_symmetry_space_group_name_H-M "P -1"
_symmetry_group_IT_number 2
_symmetry_cell_setting 'triclinic'
loop_
_space_group_symop_operation_xyz
x,y,z
-x,-y,-z
loop_
_atom_site_type_symbol
_atom_site_label
_atom_site_fract_x
_atom_site_fract_y
_atom_site_fract_z
Si Si1 0.841313 0.948205 0.052291
Si Si2 0.172839 0.204141 0.697729
Si Si3 0.093467 0.273627 0.176499
Si Si4 0.908838 0.485674 0.792464
Si Si5 0.508393 0.027455 0.145430
Si Si6 0.300591 0.517791 0.964087
Si Si7 0.299155 0.575508 0.404221
O O1 0.828121 0.209321 0.940990
O O2 0.634328 0.845326 0.014118
O O3 0.884834 0.796665 0.223857
O O4 0.000000 0.000000 0.000000
O O5 0.376515 0.127270 0.791444
O O6 0.028187 0.988541 0.729260
O O7 0.197762 0.450416 0.522666
O O8 0.145775 0.338836 0.250477
O O9 0.250741 0.318312 0.128399
O O10 0.000000 0.500000 0.000000
O O11 0.828551 0.516856 0.662317
O O12 0.132053 0.501440 0.858802
O O13 0.664448 0.219473 0.130546
O O14 0.367017 0.857663 0.258515
O O15 0.500000 0.500000 0.000000
O O16 0.500000 0.500000 0.500000
#
# Coordination Sequence:
#
# PCOD9077493 Si02
#       7
#     2   2   2   2   2   2   2
#     4  11  21  34  59  86 115 150 193 241 289 336
#     4  11  19  38  59  86 113 151 197 234 286 344
#     4  10  18  34  60  86 109 149 194 248 282 330
#     4  10  19  39  58  84 117 148 194 233 292 337
#     4  10  20  36  56  87 116 147 192 243 284 336
#     4  11  20  34  61  88 115 148 194 244 285 336
#     4   9  22  37  58  87 117 153 191 236 286 345
#
# _framework density 20.907201000000001
#
# number of rings (size 3 to 8) (size 9 to 14) (size 15 to 20)
#    0.000    1.714    5.714    1.286    0.000    2.857 
#    0.000    2.857    0.000    2.571    0.000    0.000 
#    0.000    0.000    0.000    0.000    0.000    0.000 
#
# Total GULP energy -78009.142514 kJ/mol
# GULP energy per Si atom -5572.081608 kJ/mol
# Density = 2.085962 g / cm^3
# Si number density = 20.907201 Si / 1000 Ang^3
#
#
#
# Elastic Constant Matrix: (Units=GPa)
#
#
# Indices 1 2 3 4 5 6 
#
# 1 80.4608 7.4061 26.6980 4.5642 -16.8146 21.3795
# 2 7.4061 95.0316 36.3433 8.7050 -9.0201 23.3261
# 3 26.6980 36.3433 116.1438 11.0637 -31.0421 10.9409
# 4 4.5642 8.7050 11.0637 35.9984 11.4420 1.6951
# 5 -16.8146 -9.0201 -31.0421 11.4420 38.9793 -2.7917
# 6 21.3795 23.3261 10.9409 1.6951 -2.7917 25.6067
#
#
#
# Elastic Compliance Matrix: (Units=1/GPa)
#
#
# Indices 1 2 3 4 5 6 
#
# 1 0.019579 0.004981 -0.001519 -0.005030 0.008506 -0.018974
# 2 0.004981 0.016230 -0.003489 -0.003637 0.002984 -0.016886
# 3 -0.001519 -0.003489 0.013762 -0.006873 0.011535 0.000279
# 4 -0.005030 -0.003637 -0.006873 0.037159 -0.018968 0.005922
# 5 0.008506 0.002984 0.011535 -0.018968 0.044147 -0.008680
# 6 -0.018974 -0.016886 0.000279 0.005922 -0.008680 0.068819
#
#
# Mechanical properties :
#
#
# Convention : Reuss Voigt Hill
#
# Bulk Modulus (GPa) = 20.19527 48.05901 34.12714
# Shear Modulus (GPa) = 23.12073 34.86278 28.99175
#
# Velocity S-wave (km/s) = 3.32908 4.08793 3.72787
# Velocity P-wave (km/s) = 4.94545 6.73189 5.90660
#
# Compressibility (1/GPa) = 0.04951654
#
# Stress axis : x y z
#
# Youngs Moduli (GPa) = 51.07606 61.61364 72.66237
#
# Poissons Ratio (x) = -0.30687 0.11038
# Poissons Ratio (y) = -0.25439 0.25350
# Poissons Ratio (z) = 0.07759 0.21496
#
# Static dielectric constant tensor:
#      x y z
#    x 1.930030 -0.071920 -0.035830 
#    y -0.071920 1.803750 0.030340 
#    z -0.035830 0.030340 1.803220 
# 
# From -- ./inp_files/220896.got.cif
#   From: 2010.05.17/outbox.cif.g08.bks.cpg/sg2_111_cif.got.tgz:220896.got - 2010.06.03 11:33:40.
