data_PCOD9077112
_publ_section_title
;
Structure prediction by ZEFSAII (Michael W. Deem and Ramdas Pophale) SiO2 
 PCOD9077112
Probable space group: P -1
;
_chemical_formula_sum "Si O2"
_cell_formula_units_Z 16
_cell_length_a 7.780869
_cell_length_b 11.703275
_cell_length_c 12.326169
_cell_angle_alpha 114.660136
_cell_angle_beta 49.478101
_cell_angle_gamma 126.529406
_cell_volume 684.761588
_symmetry_space_group_name_H-M "P -1"
_symmetry_group_IT_number 2
_symmetry_cell_setting 'triclinic'
loop_
_space_group_symop_operation_xyz
x,y,z
-x,-y,-z
loop_
_atom_site_type_symbol
_atom_site_label
_atom_site_fract_x
_atom_site_fract_y
_atom_site_fract_z
Si Si1 0.460455 0.926233 0.636005
Si Si2 0.979285 0.495118 0.648069
Si Si3 0.512899 0.679883 0.590771
Si Si4 0.095887 0.229421 0.888136
Si Si5 0.603282 0.212840 0.621653
Si Si6 0.927398 0.930578 0.883702
Si Si7 0.277202 0.358146 0.085350
Si Si8 0.840321 0.594557 0.276879
O O1 0.516883 0.830938 0.661450
O O2 0.498506 0.866369 0.481904
O O3 0.172730 0.908459 0.742700
O O4 0.632993 0.095860 0.636315
O O5 0.858693 0.361367 0.566687
O O6 0.837712 0.588982 0.749860
O O7 0.281013 0.592743 0.565939
O O8 0.940669 0.424356 0.757318
O O9 0.752392 0.680322 0.432456
O O10 0.401969 0.566858 0.690327
O O11 0.383765 0.245458 0.772470
O O12 0.084022 0.327034 0.836349
O O13 0.078484 0.286071 0.037096
O O14 0.918027 0.059795 0.874657
O O15 0.690864 0.774137 0.932410
O O16 0.000000 0.000000 0.000000
O O17 0.500000 0.500000 0.000000
#
# Coordination Sequence:
#
# PCOD9077112 Si02
#       8
#     2   2   2   2   2   2   2   2
#     4  10  18  34  56  80 104 141 186 215 272 330
#     4  10  20  36  53  80 112 141 177 228 269 314
#     4   9  18  35  56  75 112 140 179 216 268 329
#     4  10  19  34  58  77 110 144 179 219 265 323
#     4  10  20  32  56  83 106 137 180 233 268 312
#     4   9  19  34  53  81 105 141 174 221 269 320
#     4  11  20  34  55  85 108 136 183 229 268 308
#     4   9  19  36  56  77 110 146 176 216 273 325
#
# _framework density 23.365798000000002
#
# number of rings (size 3 to 8) (size 9 to 14) (size 15 to 20)
#    0.750    1.500    3.750    0.000    0.000    1.000 
#    2.250    0.625    2.750    0.750    0.000    0.000 
#    0.000    0.000    0.000    0.000    0.000    0.000 
#
# Total GULP energy -89102.743593 kJ/mol
# GULP energy per Si atom -5568.921475 kJ/mol
# Density = 2.331262 g / cm^3
# Si number density = 23.365798 Si / 1000 Ang^3
#
#
#
# Elastic Constant Matrix: (Units=GPa)
#
#
# Indices 1 2 3 4 5 6 
#
# 1 26.2096 19.9595 -3.8083 1.8953 8.3949 -19.0133
# 2 19.9595 157.3837 2.5907 6.5323 5.1898 -21.8325
# 3 -3.8083 2.5907 61.3335 4.7397 3.5710 3.0895
# 4 1.8953 6.5323 4.7397 31.0423 -7.3806 1.6311
# 5 8.3949 5.1898 3.5710 -7.3806 23.0769 -11.2730
# 6 -19.0133 -21.8325 3.0895 1.6311 -11.2730 40.9344
#
#
#
# Elastic Compliance Matrix: (Units=1/GPa)
#
#
# Indices 1 2 3 4 5 6 
#
# 1 0.064344 -0.004119 0.004448 -0.008375 -0.014238 0.023767
# 2 -0.004119 0.007218 -0.000626 -0.001123 0.000698 0.002221
# 3 0.004448 -0.000626 0.017332 -0.004159 -0.006010 -0.001065
# 4 -0.008375 -0.001123 -0.004159 0.037274 0.015135 -0.001492
# 5 -0.014238 0.000698 -0.006010 0.015135 0.058933 0.009839
# 6 0.023767 0.002221 -0.001065 -0.001492 0.009839 0.039503
#
#
# Mechanical properties :
#
#
# Convention : Reuss Voigt Hill
#
# Bulk Modulus (GPa) = 11.32509 31.37895 21.35202
# Shear Modulus (GPa) = 19.63619 34.08972 26.86296
#
# Velocity S-wave (km/s) = 2.90208 3.82377 3.39436
# Velocity P-wave (km/s) = 4.01084 5.74052 4.95179
#
# Compressibility (1/GPa) = 0.08829954
#
# Stress axis : x y z
#
# Youngs Moduli (GPa) = 15.54136 138.53736 57.69688
#
# Poissons Ratio (x) = 0.57069 -0.25665
# Poissons Ratio (y) = 0.06402 0.03614
# Poissons Ratio (z) = -0.06913 0.08678
#
# Static dielectric constant tensor:
#      x y z
#    x 1.934010 -0.079850 0.059290 
#    y -0.079850 2.022050 -0.075810 
#    z 0.059290 -0.075810 1.933730 
# 
# From -- ./inp_files/395720.got.cif
#   From: 2010.05.17/outbox.cif.g08.bks.cpg/sg2_198_cif.got.tgz:395720.got - 2010.06.03 11:33:40.
