data_PCOD9077646
_publ_section_title
;
Structure prediction by ZEFSAII (Michael W. Deem and Ramdas Pophale) SiO2 
 PCOD9077646
Probable space group: P -1
;
_chemical_formula_sum "Si O2"
_cell_formula_units_Z 16
_cell_length_a 13.448940
_cell_length_b 12.007674
_cell_length_c 8.407817
_cell_angle_alpha 145.668135
_cell_angle_beta 82.562930
_cell_angle_gamma 111.873905
_cell_volume 668.169248
_symmetry_space_group_name_H-M "P -1"
_symmetry_group_IT_number 2
_symmetry_cell_setting 'triclinic'
loop_
_space_group_symop_operation_xyz
x,y,z
-x,-y,-z
loop_
_atom_site_type_symbol
_atom_site_label
_atom_site_fract_x
_atom_site_fract_y
_atom_site_fract_z
Si Si1 0.691135 0.071430 0.671771
Si Si2 0.654755 0.193466 0.313435
Si Si3 0.772785 0.959869 0.818627
Si Si4 0.019481 0.341549 0.183607
Si Si5 0.842392 0.280376 0.613272
Si Si6 0.786785 0.792729 0.941667
Si Si7 0.431761 0.720918 0.864785
Si Si8 0.438578 0.344029 0.979093
O O1 0.707602 0.911143 0.607914
O O2 0.807941 0.219049 0.729014
O O3 0.654792 0.237259 0.959808
O O4 0.595944 0.904901 0.373252
O O5 0.732396 0.286389 0.561463
O O6 0.541827 0.967392 0.113153
O O7 0.730480 0.121286 0.102315
O O8 0.616907 0.332483 0.367051
O O9 0.751274 0.778095 0.745070
O O10 0.905997 0.105194 0.925016
O O11 0.053657 0.486187 0.185012
O O12 0.124282 0.299745 0.163321
O O13 0.000000 0.500000 0.500000
O O14 0.847659 0.063546 0.283189
O O15 0.683734 0.695394 0.976180
O O16 0.479418 0.588027 0.803862
O O17 0.500000 0.500000 0.000000
#
# Coordination Sequence:
#
# PCOD9077646 Si02
#       8
#     2   2   2   2   2   2   2   2
#     4  10  22  38  62  88 125 163 201 250 315 363
#     4   9  17  33  60  86 116 152 210 243 293 363
#     4  10  20  41  60  91 122 160 204 257 307 361
#     4  12  23  38  71  93 112 164 216 252 309 364
#     4  10  21  40  61  92 124 160 204 252 309 364
#     4  10  22  42  64  88 127 159 204 260 300 366
#     4  10  18  34  62  83 114 166 199 242 297 363
#     4  11  23  40  58  90 128 164 200 248 310 367
#
# _framework density 23.946028999999999
#
# number of rings (size 3 to 8) (size 9 to 14) (size 15 to 20)
#    0.000    1.750    6.250    0.750    1.750    0.500 
#    2.250    3.125    0.000    0.000    0.000    0.000 
#    0.000    0.000    0.000    0.000    0.000    0.000 
#
# Total GULP energy -89351.800511 kJ/mol
# GULP energy per Si atom -5584.487532 kJ/mol
# Density = 2.389153 g / cm^3
# Si number density = 23.946029 Si / 1000 Ang^3
#
#
#
# Elastic Constant Matrix: (Units=GPa)
#
#
# Indices 1 2 3 4 5 6 
#
# 1 -160.8178 159.1554 85.8873 -105.2270 -46.0236 -110.0722
# 2 159.1554 153.6701 -9.9233 51.7045 5.8861 42.8469
# 3 85.8873 -9.9233 24.7150 24.1879 -2.7120 15.9093
# 4 -105.2270 51.7045 24.1879 -9.1778 -13.2290 -35.3676
# 5 -46.0236 5.8861 -2.7120 -13.2290 28.8695 -6.7268
# 6 -110.0722 42.8469 15.9093 -35.3676 -6.7268 9.3512
#
#
#
# Elastic Compliance Matrix: (Units=1/GPa)
#
#
# Indices 1 2 3 4 5 6 
#
# 1 0.002560 0.000906 0.000974 -0.007350 -0.000226 -0.003634
# 2 0.000906 0.004573 -0.003196 0.001355 0.001077 0.001049
# 3 0.000974 -0.003196 0.027312 0.005417 0.008751 0.006429
# 4 -0.007350 0.001355 0.005417 0.025425 -0.001415 -0.006791
# 5 -0.000226 0.001077 0.008751 -0.001415 0.033331 -0.003866
# 6 -0.003634 0.001049 0.006429 -0.006791 -0.003866 0.019951
#
#
# Mechanical properties :
#
#
# Convention : Reuss Voigt Hill
#
# Bulk Modulus (GPa) = 31.43195 54.20068 42.81632
# Shear Modulus (GPa) = 39.56053 -8.69490 15.43282
#
# Velocity S-wave (km/s) = 4.06898 -1.90760 2.54142
# Velocity P-wave (km/s) = 5.93549 4.22277 5.15082
#
# Compressibility (1/GPa) = 0.03181476
#
# Stress axis : x y z
#
# Youngs Moduli (GPa) = 390.59677 218.67594 36.61346
#
# Poissons Ratio (x) = -0.19816 -0.03567
# Poissons Ratio (y) = -0.35395 0.11701
# Poissons Ratio (z) = -0.38056 0.69886
#
# Static dielectric constant tensor:
#      x y z
#    x 1.949760 -0.008970 0.038630 
#    y -0.008970 1.981770 0.043380 
#    z 0.038630 0.043380 1.938790 
# 
# From -- ./inp_files/305982.got.cif
#   From: 2010.05.17/outbox.cif.g08.bks.cpg/sg2_153_cif.got.tgz:305982.got - 2010.06.03 11:33:40.
