data_PCOD9077584
_publ_section_title
;
Structure prediction by ZEFSAII (Michael W. Deem and Ramdas Pophale) SiO2 
 PCOD9077584
Probable space group: P -1
;
_chemical_formula_sum "Si O2"
_cell_formula_units_Z 14
_cell_length_a 11.371199
_cell_length_b 8.472669
_cell_length_c 11.964993
_cell_angle_alpha 112.044326
_cell_angle_beta 35.834801
_cell_angle_gamma 104.871129
_cell_volume 623.130928
_symmetry_space_group_name_H-M "P -1"
_symmetry_group_IT_number 2
_symmetry_cell_setting 'triclinic'
loop_
_space_group_symop_operation_xyz
x,y,z
-x,-y,-z
loop_
_atom_site_type_symbol
_atom_site_label
_atom_site_fract_x
_atom_site_fract_y
_atom_site_fract_z
Si Si1 0.524922 0.701329 0.025085
Si Si2 0.825339 0.663276 0.602762
Si Si3 0.079326 0.261350 0.966616
Si Si4 0.914618 0.945034 0.876909
Si Si5 0.573673 0.193487 0.111280
Si Si6 0.203638 0.722978 0.439090
Si Si7 0.311873 0.515991 0.732388
O O1 0.417365 0.767522 0.238606
O O2 0.500000 0.500000 0.000000
O O3 0.749913 0.697989 0.799367
O O4 0.403783 0.782011 0.032269
O O5 0.670362 0.786252 0.682436
O O6 0.787965 0.464908 0.558679
O O7 0.055872 0.697832 0.439573
O O8 0.890599 0.406070 0.153825
O O9 0.130265 0.193893 0.032552
O O10 0.259372 0.341603 0.784746
O O11 0.002860 0.103671 0.915139
O O12 0.707166 0.026192 0.002342
O O13 0.092206 0.867357 0.639361
O O14 0.647796 0.351036 0.165055
O O15 0.500000 0.500000 0.500000
#
# Coordination Sequence:
#
# PCOD9077584 Si02
#       7
#     2   2   2   2   2   2   2
#     4   8  17  34  53  82 119 149 205 245 276 346
#     4   8  19  35  53  84 118 155 207 245 277 362
#     4   9  22  43  59  89 127 154 199 257 306 356
#     4  10  21  39  62  89 131 162 189 253 320 355
#     4   9  20  39  57  88 128 150 198 263 295 347
#     4  10  18  34  61  84 116 170 201 236 299 361
#     4  10  21  40  70  90 108 162 213 248 295 370
#
# _framework density 22.467188
#
# number of rings (size 3 to 8) (size 9 to 14) (size 15 to 20)
#    0.857    2.000    0.000    0.000    2.000    4.571 
#    5.143    9.286    0.000    0.000    0.000    0.000 
#    0.000    0.000    0.000    0.000    0.000    0.000 
#
# Total GULP energy -78060.131796 kJ/mol
# GULP energy per Si atom -5575.723700 kJ/mol
# Density = 2.241605 g / cm^3
# Si number density = 22.467188 Si / 1000 Ang^3
#
#
#
# Elastic Constant Matrix: (Units=GPa)
#
#
# Indices 1 2 3 4 5 6 
#
# 1 65.8624 17.3508 23.7167 8.2803 -10.2365 -25.5044
# 2 17.3508 72.2978 34.3396 -3.6163 -2.9272 -18.4361
# 3 23.7167 34.3396 121.3404 -6.7191 -9.8961 -15.1055
# 4 8.2803 -3.6163 -6.7191 41.1188 -1.5338 -8.2208
# 5 -10.2365 -2.9272 -9.8961 -1.5338 21.7701 1.4089
# 6 -25.5044 -18.4361 -15.1055 -8.2208 1.4089 31.5348
#
#
#
# Elastic Compliance Matrix: (Units=1/GPa)
#
#
# Indices 1 2 3 4 5 6 
#
# 1 0.024512 -0.000071 -0.001810 -0.001254 0.009430 0.018168
# 2 -0.000071 0.018232 -0.003772 0.002920 0.000291 0.009542
# 3 -0.001810 -0.003772 0.010263 0.002167 0.003352 0.001662
# 4 -0.001254 0.002920 0.002167 0.026997 0.002129 0.008674
# 5 0.009430 0.000291 0.003352 0.002129 0.051586 0.007653
# 6 0.018168 0.009542 0.001662 0.008674 0.007653 0.054699
#
#
# Mechanical properties :
#
#
# Convention : Reuss Voigt Hill
#
# Bulk Modulus (GPa) = 23.98059 45.59051 34.78555
# Shear Modulus (GPa) = 23.64124 31.15764 27.39944
#
# Velocity S-wave (km/s) = 3.24737 3.72803 3.49597
# Velocity P-wave (km/s) = 4.97567 6.23434 5.64023
#
# Compressibility (1/GPa) = 0.04170039
#
# Stress axis : x y z
#
# Youngs Moduli (GPa) = 40.79613 54.84955 97.43859
#
# Poissons Ratio (x) = 0.00391 0.17632
# Poissons Ratio (y) = 0.00291 0.36757
# Poissons Ratio (z) = 0.07382 0.20691
#
# Static dielectric constant tensor:
#      x y z
#    x 1.883410 0.054870 -0.022320 
#    y 0.054870 1.874290 0.015340 
#    z -0.022320 0.015340 1.816350 
# 
# From -- ./inp_files/528889.got.cif
#   From: 2010.05.17/outbox.cif.g08.bks.cpg/sg2_265_cif.got.tgz:528889.got - 2010.06.03 11:33:40.
