data_PCOD9077144
_publ_section_title
;
Structure prediction by ZEFSAII (Michael W. Deem and Ramdas Pophale) SiO2 
 PCOD9077144
Probable space group: P -1
;
_chemical_formula_sum "Si O2"
_cell_formula_units_Z 16
_cell_length_a 22.927018
_cell_length_b 9.021135
_cell_length_c 11.321091
_cell_angle_alpha 127.189454
_cell_angle_beta 47.583216
_cell_angle_gamma 154.895887
_cell_volume 733.250586
_symmetry_space_group_name_H-M "P -1"
_symmetry_group_IT_number 2
_symmetry_cell_setting 'triclinic'
loop_
_space_group_symop_operation_xyz
x,y,z
-x,-y,-z
loop_
_atom_site_type_symbol
_atom_site_label
_atom_site_fract_x
_atom_site_fract_y
_atom_site_fract_z
Si Si1 0.840916 0.766623 0.777186
Si Si2 0.021282 0.146943 0.162496
Si Si3 0.494924 0.015632 0.654634
Si Si4 0.752473 0.826004 0.734780
Si Si5 0.308657 0.888759 0.012328
Si Si6 0.444881 0.675904 0.932218
Si Si7 0.841348 0.103518 0.483046
Si Si8 0.634892 0.003159 0.619954
O O1 0.967441 0.954641 0.784020
O O2 0.874914 0.950861 0.701076
O O3 0.747218 0.394838 0.693187
O O4 0.725348 0.658380 0.960874
O O5 0.180563 0.563678 0.120998
O O6 0.887521 0.020172 0.303041
O O7 0.000000 0.000000 0.000000
O O8 0.614822 0.410434 0.719852
O O9 0.550125 0.927768 0.589414
O O10 0.500000 0.000000 0.500000
O O11 0.348658 0.814592 0.821627
O O12 0.734657 0.987941 0.903949
O O13 0.773589 0.913440 0.610336
O O14 0.455233 0.206497 0.044124
O O15 0.499475 0.694748 0.746699
O O16 0.500000 0.000000 0.000000
O O17 0.740896 0.037549 0.508725
O O18 0.000000 0.500000 0.500000
#
# Coordination Sequence:
#
# PCOD9077144 Si02
#       8
#     2   2   2   2   2   2   2   2
#     4  10  19  37  62  96 119 163 211 258 314 368
#     4  12  26  43  62  89 131 174 208 254 315 377
#     4  11  25  41  62  99 135 157 195 272 341 362
#     4  11  23  38  67  98 118 161 215 264 306 367
#     4  12  20  41  68  91 125 165 213 256 306 382
#     4  10  14  32  67  91 111 153 216 257 298 364
#     4  12  22  42  66  89 122 165 223 255 290 385
#     4  10  18  38  65  89 119 169 208 254 306 377
#
# _framework density 21.820641999999999
#
# number of rings (size 3 to 8) (size 9 to 14) (size 15 to 20)
#    0.000    1.000   10.000    0.375    1.750    0.500 
#    2.250    1.250    0.000    0.000    0.000    0.000 
#    0.000    0.000    0.000    0.000    0.000    0.000 
#
# Total GULP energy -89185.159051 kJ/mol
# GULP energy per Si atom -5574.072441 kJ/mol
# Density = 2.177098 g / cm^3
# Si number density = 21.820642 Si / 1000 Ang^3
#
#
#
# Elastic Constant Matrix: (Units=GPa)
#
#
# Indices 1 2 3 4 5 6 
#
# 1 178.2710 9.2952 95.8052 5.8512 -11.8313 -22.7932
# 2 9.2952 24.8025 -0.6130 -1.3917 -6.2373 -11.3598
# 3 95.8052 -0.6130 135.7682 -2.3237 -14.9060 -4.5474
# 4 5.8512 -1.3917 -2.3237 21.4130 1.7857 2.8407
# 5 -11.8313 -6.2373 -14.9060 1.7857 41.1559 0.1829
# 6 -22.7932 -11.3598 -4.5474 2.8407 0.1829 19.0573
#
#
#
# Elastic Compliance Matrix: (Units=1/GPa)
#
#
# Indices 1 2 3 4 5 6 
#
# 1 0.011804 0.001813 -0.007834 -0.005927 0.001025 0.014202
# 2 0.001813 0.059560 0.001324 -0.002385 0.009960 0.038247
# 3 -0.007834 0.001324 0.013043 0.004245 0.002516 -0.006126
# 4 -0.005927 -0.002385 0.004245 0.050845 -0.002667 -0.015051
# 5 0.001025 0.009960 0.002516 -0.002667 0.027094 0.007900
# 6 0.014202 0.038247 -0.006126 -0.015051 0.007900 0.092964
#
#
# Mechanical properties :
#
#
# Convention : Reuss Voigt Hill
#
# Bulk Modulus (GPa) = 13.33136 60.86850 37.09993
# Shear Modulus (GPa) = 17.25863 31.94886 24.60375
#
# Velocity S-wave (km/s) = 2.81540 3.83058 3.36154
# Velocity P-wave (km/s) = 4.08551 6.89347 5.66619
#
# Compressibility (1/GPa) = 0.07501111
#
# Stress axis : x y z
#
# Youngs Moduli (GPa) = 84.71989 16.78970 76.66675
#
# Poissons Ratio (x) = -0.03043 0.60063
# Poissons Ratio (y) = -0.15356 -0.10148
# Poissons Ratio (z) = 0.66372 -0.02222
#
# Static dielectric constant tensor:
#      x y z
#    x 1.900200 -0.017950 -0.029150 
#    y -0.017950 1.953000 -0.002300 
#    z -0.029150 -0.002300 1.876030 
# 
# From -- ./inp_files/333460.got.cif
#   From: 2010.05.17/outbox.cif.g08.bks.cpg/sg2_167_cif.got.tgz:333460.got - 2010.06.03 11:33:40.
