data_PCOD9077941
_publ_section_title
;
Structure prediction by ZEFSAII (Michael W. Deem and Ramdas Pophale) SiO2 
 PCOD9077941
Probable space group: P -1
;
_chemical_formula_sum "Si O2"
_cell_formula_units_Z 16
_cell_length_a 10.216397
_cell_length_b 7.800987
_cell_length_c 14.863969
_cell_angle_alpha 57.834488
_cell_angle_beta 61.678983
_cell_angle_gamma 105.516135
_cell_volume 632.233406
_symmetry_space_group_name_H-M "P -1"
_symmetry_group_IT_number 2
_symmetry_cell_setting 'triclinic'
loop_
_space_group_symop_operation_xyz
x,y,z
-x,-y,-z
loop_
_atom_site_type_symbol
_atom_site_label
_atom_site_fract_x
_atom_site_fract_y
_atom_site_fract_z
Si Si1 0.568814 0.774315 0.991425
Si Si2 0.618494 0.746285 0.704632
Si Si3 0.930735 0.073193 0.654330
Si Si4 0.790665 0.892872 0.216141
Si Si5 0.384182 0.575332 0.364001
Si Si6 0.348769 0.838600 0.800132
Si Si7 0.918335 0.178211 0.897479
Si Si8 0.127803 0.445731 0.146641
O O1 0.743643 0.972606 0.804883
O O2 0.691008 0.959287 0.988531
O O3 0.515655 0.487535 0.106095
O O4 0.346599 0.650428 0.073353
O O5 0.840746 0.011884 0.600005
O O6 0.637538 0.581989 0.674223
O O7 0.482080 0.811053 0.704883
O O8 0.959905 0.861151 0.724778
O O9 0.146198 0.382136 0.519771
O O10 0.552523 0.601043 0.357467
O O11 0.761805 0.070765 0.234143
O O12 0.937539 0.841962 0.198183
O O13 0.882935 0.066401 0.042343
O O14 0.494832 0.896800 0.255064
O O15 0.190950 0.563794 0.990860
O O16 0.997611 0.482533 0.793158
#
# Coordination Sequence:
#
# PCOD9077941 Si02
#       8
#     2   2   2   2   2   2   2   2
#     4  11  19  34  58  87 115 147 188 236 288 337
#     4  11  18  38  59  82 117 157 187 230 282 345
#     4  11  22  35  53  87 124 142 183 241 288 343
#     4   8  19  37  55  82 114 144 201 242 259 337
#     4  10  22  38  56  83 122 150 187 237 284 330
#     4   9  18  37  60  79 113 150 193 230 274 335
#     4  10  18  35  61  81 108 157 191 234 285 327
#     4  10  18  35  56  86 114 143 191 235 279 344
#
# _framework density 25.307106999999998
#
# number of rings (size 3 to 8) (size 9 to 14) (size 15 to 20)
#    0.750    1.250    3.750    1.500    0.000    1.500 
#    2.250    3.125    0.000    0.000    0.000    0.000 
#    0.000    0.000    0.000    0.000    0.000    0.000 
#
# Total GULP energy -89225.797116 kJ/mol
# GULP energy per Si atom -5576.612320 kJ/mol
# Density = 2.524951 g / cm^3
# Si number density = 25.307107 Si / 1000 Ang^3
#
#
#
# Elastic Constant Matrix: (Units=GPa)
#
#
# Indices 1 2 3 4 5 6 
#
# 1 43.4957 18.4229 12.3312 -0.9082 -9.4548 -6.9932
# 2 18.4229 61.0226 1.0729 0.8122 -1.4854 -22.5153
# 3 12.3312 1.0729 59.7673 -17.0901 -29.7807 2.7452
# 4 -0.9082 0.8122 -17.0901 33.3572 9.0358 -8.4679
# 5 -9.4548 -1.4854 -29.7807 9.0358 26.6382 0.0577
# 6 -6.9932 -22.5153 2.7452 -8.4679 0.0577 32.8662
#
#
#
# Elastic Compliance Matrix: (Units=1/GPa)
#
#
# Indices 1 2 3 4 5 6 
#
# 1 0.028955 -0.008510 -0.002763 -0.002491 0.007559 -0.000093
# 2 -0.008510 0.024825 0.000511 0.004238 -0.002537 0.016250
# 3 -0.002763 0.000511 0.040530 0.009164 0.041253 -0.001334
# 4 -0.002491 0.004238 0.009164 0.038351 -0.003437 0.011495
# 5 0.007559 -0.002537 0.041253 -0.003437 0.087377 -0.004615
# 6 -0.000093 0.016250 -0.001334 0.011495 -0.004615 0.044620
#
#
# Mechanical properties :
#
#
# Convention : Reuss Voigt Hill
#
# Bulk Modulus (GPa) = 13.73889 25.32664 19.53276
# Shear Modulus (GPa) = 16.10603 27.40289 21.75446
#
# Velocity S-wave (km/s) = 2.52548 3.29418 2.93511
# Velocity P-wave (km/s) = 3.73426 4.94958 4.38423
#
# Compressibility (1/GPa) = 0.07278607
#
# Stress axis : x y z
#
# Youngs Moduli (GPa) = 34.53670 40.28195 24.67338
#
# Poissons Ratio (x) = 0.34281 0.06817
# Poissons Ratio (y) = 0.29392 -0.01262
# Poissons Ratio (z) = 0.09542 -0.02060
#
# Static dielectric constant tensor:
#      x y z
#    x 2.095730 0.044800 0.026500 
#    y 0.044800 2.053090 0.049340 
#    z 0.026500 0.049340 2.008000 
# 
# From -- ./inp_files/349166.got.cif
#   From: 2010.05.17/outbox.cif.g08.bks.cpg/sg2_175_cif.got.tgz:349166.got - 2010.06.03 11:33:40.
