data_PCOD9077460
_publ_section_title
;
Structure prediction by ZEFSAII (Michael W. Deem and Ramdas Pophale) SiO2 
 PCOD9077460
Probable space group: P -1
;
_chemical_formula_sum "Si O2"
_cell_formula_units_Z 16
_cell_length_a 16.721448
_cell_length_b 8.323964
_cell_length_c 5.324681
_cell_angle_alpha 105.695096
_cell_angle_beta 69.590967
_cell_angle_gamma 85.095325
_cell_volume 655.296980
_symmetry_space_group_name_H-M "P -1"
_symmetry_group_IT_number 2
_symmetry_cell_setting 'triclinic'
loop_
_space_group_symop_operation_xyz
x,y,z
-x,-y,-z
loop_
_atom_site_type_symbol
_atom_site_label
_atom_site_fract_x
_atom_site_fract_y
_atom_site_fract_z
Si Si1 0.807798 0.182445 0.302985
Si Si2 0.925232 0.979288 0.390081
Si Si3 0.439490 0.830306 0.253561
Si Si4 0.337726 0.555887 0.193870
Si Si5 0.187619 0.152438 0.140808
Si Si6 0.079729 0.363487 0.976647
Si Si7 0.384602 0.049809 0.905167
Si Si8 0.745484 0.512161 0.252945
O O1 0.735361 0.269750 0.613386
O O2 0.794660 0.314430 0.146589
O O3 0.897985 0.151147 0.335970
O O4 0.804188 0.993350 0.144197
O O5 0.950105 0.810397 0.130769
O O6 0.846796 0.937469 0.624888
O O7 0.000000 0.000000 0.500000
O O8 0.421777 0.641232 0.153926
O O9 0.541402 0.838167 0.156578
O O10 0.398403 0.919020 0.595896
O O11 0.402500 0.943079 0.098832
O O12 0.319641 0.457658 0.425461
O O13 0.311416 0.476126 0.931644
O O14 0.116890 0.321065 0.206568
O O15 0.287709 0.159953 0.065271
O O16 0.174231 0.389495 0.774931
O O17 0.000000 0.500000 0.000000
#
# Coordination Sequence:
#
# PCOD9077460 Si02
#       8
#     2   2   2   2   2   2   2   2
#     4   9  20  35  63  91 124 162 218 265 326 386
#     4  11  26  41  67  94 127 171 222 288 332 397
#     4  10  18  34  60 103 134 170 210 276 324 402
#     4  10  19  35  65  91 129 163 221 252 330 377
#     4  11  23  41  64  92 136 176 220 276 340 392
#     4  11  29  45  62  93 131 180 226 277 336 396
#     4  10  20  33  61  97 142 167 213 269 341 383
#     4  10  23  39  66  90 127 175 215 271 320 402
#
# _framework density 24.416412000000001
#
# number of rings (size 3 to 8) (size 9 to 14) (size 15 to 20)
#    0.750    1.000    1.250    3.000    8.750    1.500 
#    0.000    0.000    0.000    1.500    0.000    0.000 
#    0.000    0.000    0.000    0.000    0.000    0.000 
#
# Total GULP energy -89217.703182 kJ/mol
# GULP energy per Si atom -5576.106449 kJ/mol
# Density = 2.436084 g / cm^3
# Si number density = 24.416412 Si / 1000 Ang^3
#
#
#
# Elastic Constant Matrix: (Units=GPa)
#
#
# Indices 1 2 3 4 5 6 
#
# 1 128.7321 44.1716 66.0024 -3.1018 10.9956 17.4206
# 2 44.1716 74.0144 27.7756 -9.9182 3.4948 -1.2343
# 3 66.0024 27.7756 116.9678 -23.2100 18.0200 -2.4509
# 4 -3.1018 -9.9182 -23.2100 29.8229 0.4079 -1.4544
# 5 10.9956 3.4948 18.0200 0.4079 38.7100 -2.9808
# 6 17.4206 -1.2343 -2.4509 -1.4544 -2.9808 45.3777
#
#
#
# Elastic Compliance Matrix: (Units=1/GPa)
#
#
# Indices 1 2 3 4 5 6 
#
# 1 0.015403 -0.007092 -0.008688 -0.007849 -0.000134 -0.006836
# 2 -0.007092 0.018274 0.000957 0.006253 0.000121 0.003480
# 3 -0.008688 0.000957 0.016614 0.012626 -0.005153 0.004325
# 4 -0.007849 0.006253 0.012626 0.044925 -0.004299 0.005023
# 5 -0.000134 0.000121 -0.005153 -0.004299 0.028420 0.001506
# 6 -0.006836 0.003480 0.004325 0.005023 0.001506 0.025250
#
#
# Mechanical properties :
#
#
# Convention : Reuss Voigt Hill
#
# Bulk Modulus (GPa) = 48.43247 66.17927 57.30587
# Shear Modulus (GPa) = 26.96685 34.89978 30.93332
#
# Velocity S-wave (km/s) = 3.32694 3.78479 3.56322
# Velocity P-wave (km/s) = 5.88533 6.80167 6.36003
#
# Compressibility (1/GPa) = 0.02064730
#
# Stress axis : x y z
#
# Youngs Moduli (GPa) = 64.92197 54.72192 60.18950
#
# Poissons Ratio (x) = 0.38808 0.52290
# Poissons Ratio (y) = 0.46041 -0.05762
# Poissons Ratio (z) = 0.56402 -0.05239
#
# Static dielectric constant tensor:
#      x y z
#    x 1.995360 0.035980 0.009120 
#    y 0.035980 1.907750 -0.003320 
#    z 0.009120 -0.003320 2.005540 
# 
# From -- ./inp_files/104048.got.cif
#   From: 2010.05.17/outbox.cif.g08.bks.cpg/sg2_53_cif.got.tgz:104048.got - 2010.06.03 11:33:40.
