data_PCOD9077448
_publ_section_title
;
Structure prediction by ZEFSAII (Michael W. Deem and Ramdas Pophale) SiO2 
 PCOD9077448
Probable space group: P -1
;
_chemical_formula_sum "Si O2"
_cell_formula_units_Z 12
_cell_length_a 7.301739
_cell_length_b 8.759907
_cell_length_c 14.636956
_cell_angle_alpha 58.572383
_cell_angle_beta 120.900662
_cell_angle_gamma 82.620265
_cell_volume 576.437837
_symmetry_space_group_name_H-M "P -1"
_symmetry_group_IT_number 2
_symmetry_cell_setting 'triclinic'
loop_
_space_group_symop_operation_xyz
x,y,z
-x,-y,-z
loop_
_atom_site_type_symbol
_atom_site_label
_atom_site_fract_x
_atom_site_fract_y
_atom_site_fract_z
Si Si1 0.166167 0.749555 0.108584
Si Si2 0.290083 0.217594 0.259980
Si Si3 0.378886 0.872471 0.968598
Si Si4 0.844062 0.300573 0.671624
Si Si5 0.216678 0.403805 0.990963
Si Si6 0.573243 0.730352 0.516923
O O1 0.261453 0.680156 0.257660
O O2 0.974408 0.676648 0.055580
O O3 0.352692 0.729515 0.083114
O O4 0.000000 0.000000 0.000000
O O5 0.371014 0.260968 0.364909
O O6 0.980451 0.340512 0.146081
O O7 0.460959 0.964014 0.372886
O O8 0.321505 0.323180 0.144586
O O9 0.557076 0.712083 0.985872
O O10 0.106837 0.074605 0.803904
O O11 0.500000 0.000000 0.000000
O O12 0.817662 0.529047 0.592584
O O13 0.658068 0.299420 0.551363
#
# Coordination Sequence:
#
# PCOD9077448 Si02
#       6
#     2   2   2   2   2   2
#     4  10  18  34  59  92 117 148 190 254 302 329
#     4  10  21  38  63  86 121 168 195 238 302 361
#     4  11  20  34  63  96 119 146 205 257 297 343
#     4  10  20  37  63  90 118 158 200 249 300 347
#     4  11  21  39  62  93 117 154 206 248 295 353
#     4  10  20  38  64  83 123 168 195 235 305 365
#
# _framework density 20.817509000000001
#
# number of rings (size 3 to 8) (size 9 to 14) (size 15 to 20)
#    0.000    1.667    5.000    2.000    0.000    0.000 
#    0.000    9.167   14.667    0.000    0.000    0.000 
#    0.000    0.000    0.000    0.000    0.000    0.000 
#
# Total GULP energy -66813.727834 kJ/mol
# GULP energy per Si atom -5567.810653 kJ/mol
# Density = 2.077013 g / cm^3
# Si number density = 20.817509 Si / 1000 Ang^3
#
#
#
# Elastic Constant Matrix: (Units=GPa)
#
#
# Indices 1 2 3 4 5 6 
#
# 1 121.1255 9.2485 36.8063 -9.6492 2.1937 -29.1497
# 2 9.2485 60.5043 27.3939 -18.0155 -2.6077 -8.4764
# 3 36.8063 27.3939 154.5347 -8.9369 -0.1462 -9.9485
# 4 -9.6492 -18.0155 -8.9369 37.0815 -5.7992 10.4584
# 5 2.1937 -2.6077 -0.1462 -5.7992 15.5887 -1.3456
# 6 -29.1497 -8.4764 -9.9485 10.4584 -1.3456 32.7152
#
#
#
# Elastic Compliance Matrix: (Units=1/GPa)
#
#
# Indices 1 2 3 4 5 6 
#
# 1 0.011138 0.000515 -0.002147 -0.000141 -0.000741 0.009419
# 2 0.000515 0.021639 -0.003213 0.010482 0.007594 0.002050
# 3 -0.002147 -0.003213 0.007512 -0.000243 -0.000290 -0.000395
# 4 -0.000141 0.010482 -0.000243 0.036688 0.014676 -0.008609
# 5 -0.000741 0.007594 -0.000290 0.014676 0.070933 -0.000555
# 6 0.009419 0.002050 -0.000395 -0.008609 -0.000555 0.042100
#
#
# Mechanical properties :
#
#
# Convention : Reuss Voigt Hill
#
# Bulk Modulus (GPa) = 32.67997 53.67354 43.17676
# Shear Modulus (GPa) = 23.82087 34.59146 29.20616
#
# Velocity S-wave (km/s) = 3.38638 4.08076 3.74968
# Velocity P-wave (km/s) = 5.56978 6.93126 6.28748
#
# Compressibility (1/GPa) = 0.03059978
#
# Stress axis : x y z
#
# Youngs Moduli (GPa) = 89.78406 46.21183 133.11787
#
# Poissons Ratio (x) = -0.02380 0.28574
# Poissons Ratio (y) = -0.04624 0.42774
# Poissons Ratio (z) = 0.19272 0.14849
#
# Static dielectric constant tensor:
#      x y z
#    x 1.803670 0.024010 -0.026820 
#    y 0.024010 1.858600 -0.077420 
#    z -0.026820 -0.077420 1.830980 
# 
# From -- ./inp_files/555045.got.cif
#   From: 2010.05.17/outbox.cif.g08.bks.cpg/sg2_278_cif.got.tgz:555045.got - 2010.06.03 11:33:40.
