data_PCOD9077632
_publ_section_title
;
Structure prediction by ZEFSAII (Michael W. Deem and Ramdas Pophale) SiO2 
 PCOD9077632
Probable space group: P -1
;
_chemical_formula_sum "Si O2"
_cell_formula_units_Z 14
_cell_length_a 10.868888
_cell_length_b 10.488807
_cell_length_c 10.560923
_cell_angle_alpha 128.798670
_cell_angle_beta 45.744845
_cell_angle_gamma 129.784959
_cell_volume 626.207152
_symmetry_space_group_name_H-M "P -1"
_symmetry_group_IT_number 2
_symmetry_cell_setting 'triclinic'
loop_
_space_group_symop_operation_xyz
x,y,z
-x,-y,-z
loop_
_atom_site_type_symbol
_atom_site_label
_atom_site_fract_x
_atom_site_fract_y
_atom_site_fract_z
Si Si1 0.051639 0.355806 0.695603
Si Si2 0.980039 0.687317 0.602364
Si Si3 0.189583 0.978944 0.811830
Si Si4 0.640193 0.306119 0.035071
Si Si5 0.337124 0.757324 0.742878
Si Si6 0.388157 0.302331 0.994209
Si Si7 0.624988 0.633483 0.384265
O O1 0.041631 0.297318 0.521838
O O2 0.172284 0.565035 0.744201
O O3 0.171580 0.275589 0.647164
O O4 0.846935 0.320750 0.867095
O O5 0.797150 0.694364 0.804582
O O6 0.000000 0.500000 0.500000
O O7 0.148740 0.849072 0.641223
O O8 0.248675 0.885292 0.827258
O O9 0.337277 0.175274 0.829938
O O10 0.000000 0.000000 0.000000
O O11 0.588272 0.206164 0.144360
O O12 0.505389 0.238508 0.972020
O O13 0.637837 0.501763 0.185033
O O14 0.503056 0.751833 0.530338
O O15 0.500000 0.500000 0.000000
O O16 0.500000 0.500000 0.500000
#
# Coordination Sequence:
#
# PCOD9077632 Si02
#       7
#     2   2   2   2   2   2   2
#     4  10  18  34  61  94 125 164 205 248 319 381
#     4  11  20  38  67  87 125 168 207 254 315 379
#     4  10  24  40  63  94 125 168 215 257 314 376
#     4  10  20  34  61  96 124 165 206 259 313 375
#     4  10  18  36  64  92 125 159 215 260 307 374
#     4  11  24  42  61  93 127 165 215 262 317 371
#     4   8  16  31  57  92 119 155 205 253 306 368
#
# _framework density 22.356816999999999
#
# number of rings (size 3 to 8) (size 9 to 14) (size 15 to 20)
#    0.000    2.286    1.429    5.143    2.000    0.571 
#    0.000    2.857    0.000    4.286    0.000    0.000 
#    0.000    0.000    0.000    0.000    0.000    0.000 
#
# Total GULP energy -78170.689307 kJ/mol
# GULP energy per Si atom -5583.620665 kJ/mol
# Density = 2.230593 g / cm^3
# Si number density = 22.356817 Si / 1000 Ang^3
#
#
#
# Elastic Constant Matrix: (Units=GPa)
#
#
# Indices 1 2 3 4 5 6 
#
# 1 101.5728 24.8584 28.4212 12.9978 -16.7581 18.6355
# 2 24.8584 58.5264 20.4978 16.2629 5.9381 18.6301
# 3 28.4212 20.4978 95.4889 -5.6322 -13.1929 16.6260
# 4 12.9978 16.2629 -5.6322 31.7869 11.6350 2.4485
# 5 -16.7581 5.9381 -13.1929 11.6350 58.9590 8.8604
# 6 18.6355 18.6301 16.6260 2.4485 8.8604 34.4117
#
#
#
# Elastic Compliance Matrix: (Units=1/GPa)
#
#
# Indices 1 2 3 4 5 6 
#
# 1 0.013980 -0.001751 -0.002211 -0.006904 0.006011 -0.006612
# 2 -0.001751 0.025979 -0.003999 -0.012493 0.000004 -0.010297
# 3 -0.002211 -0.003999 0.013304 0.004731 0.002423 -0.004026
# 4 -0.006904 -0.012493 0.004731 0.044426 -0.009542 0.007512
# 5 0.006011 0.000004 0.002423 -0.009542 0.022529 -0.009550
# 6 -0.006612 -0.010297 -0.004026 0.007512 -0.009550 0.042084
#
#
# Mechanical properties :
#
#
# Convention : Reuss Voigt Hill
#
# Bulk Modulus (GPa) = 26.77957 44.79365 35.78661
# Shear Modulus (GPa) = 26.22310 37.15223 31.68767
#
# Velocity S-wave (km/s) = 3.42853 4.08092 3.76887
# Velocity P-wave (km/s) = 5.26093 6.50266 5.91447
#
# Compressibility (1/GPa) = 0.03734190
#
# Stress axis : x y z
#
# Youngs Moduli (GPa) = 71.52822 38.49251 75.16759
#
# Poissons Ratio (x) = 0.06739 0.16618
# Poissons Ratio (y) = 0.12522 0.30061
# Poissons Ratio (z) = 0.15814 0.15394
#
# Static dielectric constant tensor:
#      x y z
#    x 1.874780 -0.028440 0.000420 
#    y -0.028440 1.913200 0.018910 
#    z 0.000420 0.018910 1.863180 
# 
# From -- ./inp_files/307447.got.cif
#   From: 2010.05.17/outbox.cif.g08.bks.cpg/sg2_154_cif.got.tgz:307447.got - 2010.06.03 11:33:40.
