data_PCOD9077781
_publ_section_title
;
Structure prediction by ZEFSAII (Michael W. Deem and Ramdas Pophale) SiO2 
 PCOD9077781
Probable space group: P -1
;
_chemical_formula_sum "Si O2"
_cell_formula_units_Z 14
_cell_length_a 8.826754
_cell_length_b 9.802902
_cell_length_c 15.158311
_cell_angle_alpha 143.906464
_cell_angle_beta 103.966631
_cell_angle_gamma 66.193632
_cell_volume 698.128632
_symmetry_space_group_name_H-M "P -1"
_symmetry_group_IT_number 2
_symmetry_cell_setting 'triclinic'
loop_
_space_group_symop_operation_xyz
x,y,z
-x,-y,-z
loop_
_atom_site_type_symbol
_atom_site_label
_atom_site_fract_x
_atom_site_fract_y
_atom_site_fract_z
Si Si1 0.122964 0.075986 0.366521
Si Si2 0.898468 0.452615 0.878925
Si Si3 0.961988 0.482690 0.710838
Si Si4 0.097904 0.786684 0.772944
Si Si5 0.385106 0.447127 0.363905
Si Si6 0.355708 0.034017 0.925900
Si Si7 0.632935 0.679942 0.510148
O O1 0.303051 0.095864 0.379028
O O2 0.043220 0.258899 0.534438
O O3 0.008856 0.159972 0.305333
O O4 0.132185 0.802762 0.247789
O O5 0.005866 0.431594 0.792783
O O6 0.722821 0.687790 0.975420
O O7 0.000000 0.500000 0.000000
O O8 0.763900 0.537972 0.712803
O O9 0.992243 0.721909 0.800740
O O10 0.254501 0.527972 0.649214
O O11 0.189667 0.980027 0.902899
O O12 0.446617 0.676060 0.475121
O O13 0.316791 0.434792 0.445264
O O14 0.544859 0.189552 0.243766
O O15 0.500000 0.000000 0.000000
#
# Coordination Sequence:
#
# PCOD9077781 Si02
#       7
#     2   2   2   2   2   2   2
#     4  11  20  40  64  98 126 155 211 268 313 365
#     4  12  26  42  61  91 135 169 202 258 320 372
#     4  11  21  40  69  94 116 169 218 258 305 373
#     4  10  19  37  69  94 120 156 223 262 297 369
#     4  10  18  34  65  93 118 158 212 253 302 361
#     4  11  23  41  61  88 130 172 209 247 309 382
#     4   9  18  33  62  97 120 152 204 267 308 356
#
# _framework density 20.053611
#
# number of rings (size 3 to 8) (size 9 to 14) (size 15 to 20)
#    0.000    1.429    5.714    1.286    0.000    0.571 
#    2.571    1.429    3.143    0.000    0.000    0.000 
#    0.000    0.000    0.000    0.000    0.000    0.000 
#
# Total GULP energy -77979.825312 kJ/mol
# GULP energy per Si atom -5569.987522 kJ/mol
# Density = 2.000797 g / cm^3
# Si number density = 20.053611 Si / 1000 Ang^3
#
#
#
# Elastic Constant Matrix: (Units=GPa)
#
#
# Indices 1 2 3 4 5 6 
#
# 1 103.8672 54.0261 51.9327 2.9315 17.8038 18.6150
# 2 54.0261 92.1748 42.3045 -5.0305 7.5748 18.2316
# 3 51.9327 42.3045 83.3356 3.5812 4.0126 18.2335
# 4 2.9315 -5.0305 3.5812 42.6326 5.8434 4.9386
# 5 17.8038 7.5748 4.0126 5.8434 21.9540 6.4040
# 6 18.6150 18.2316 18.2335 4.9386 6.4040 31.5222
#
#
#
# Elastic Compliance Matrix: (Units=1/GPa)
#
#
# Indices 1 2 3 4 5 6 
#
# 1 0.019027 -0.006427 -0.007909 0.000267 -0.011658 -0.000617
# 2 -0.006427 0.017538 -0.004052 0.003336 0.000355 -0.004599
# 3 -0.007909 -0.004052 0.019971 -0.001830 0.006260 -0.005523
# 4 0.000267 0.003336 -0.001830 0.025326 -0.006715 -0.003632
# 5 -0.011658 0.000355 0.006260 -0.006715 0.057748 -0.007622
# 6 -0.000617 -0.004599 -0.005523 -0.003632 -0.007622 0.040060
#
#
# Mechanical properties :
#
#
# Convention : Reuss Voigt Hill
#
# Bulk Modulus (GPa) = 50.61036 63.98937 57.29987
# Shear Modulus (GPa) = 22.41806 27.96269 25.19037
#
# Velocity S-wave (km/s) = 3.34714 3.73821 3.54807
# Velocity P-wave (km/s) = 6.34272 7.11412 6.73947
#
# Compressibility (1/GPa) = 0.01975880
#
# Stress axis : x y z
#
# Youngs Moduli (GPa) = 52.55750 57.01747 50.07215
#
# Poissons Ratio (x) = 0.36647 0.39604
# Poissons Ratio (y) = 0.33781 0.20289
# Poissons Ratio (z) = 0.41570 0.23104
#
# Static dielectric constant tensor:
#      x y z
#    x 1.754830 0.019350 0.021510 
#    y 0.019350 1.723040 -0.019650 
#    z 0.021510 -0.019650 1.797040 
# 
# From -- ./inp_files/178036.got.cif
#   From: 2010.05.17/outbox.cif.g08.bks.cpg/sg2_90_cif.got.tgz:178036.got - 2010.06.03 11:33:40.
