data_PCOD9077313
_publ_section_title
;
Structure prediction by ZEFSAII (Michael W. Deem and Ramdas Pophale) SiO2 
 PCOD9077313
Probable space group: P -1
;
_chemical_formula_sum "Si O2"
_cell_formula_units_Z 14
_cell_length_a 15.153627
_cell_length_b 8.505859
_cell_length_c 12.797721
_cell_angle_alpha 52.636828
_cell_angle_beta 151.941972
_cell_angle_gamma 129.467881
_cell_volume 594.166039
_symmetry_space_group_name_H-M "P -1"
_symmetry_group_IT_number 2
_symmetry_cell_setting 'triclinic'
loop_
_space_group_symop_operation_xyz
x,y,z
-x,-y,-z
loop_
_atom_site_type_symbol
_atom_site_label
_atom_site_fract_x
_atom_site_fract_y
_atom_site_fract_z
Si Si1 0.320432 0.357853 0.931598
Si Si2 0.109834 0.238844 0.186249
Si Si3 0.930669 0.379641 0.145222
Si Si4 0.564263 0.358838 0.874845
Si Si5 0.151949 0.215706 0.600411
Si Si6 0.476760 0.273230 0.456821
Si Si7 0.268704 0.002707 0.163057
O O1 0.163148 0.267270 0.714419
O O2 0.500000 0.500000 0.000000
O O3 0.298012 0.501076 0.948061
O O4 0.371232 0.165152 0.117657
O O5 0.338455 0.260252 0.417190
O O6 0.023607 0.276277 0.191955
O O7 0.089920 0.409004 0.011384
O O8 0.960741 0.030292 0.075640
O O9 0.075215 0.387476 0.389544
O O10 0.712143 0.263822 0.002333
O O11 0.368294 0.225230 0.778467
O O12 0.498489 0.520323 0.665516
O O13 0.000000 0.000000 0.500000
O O14 0.346659 0.096167 0.317456
O O15 0.673090 0.209314 0.708010
#
# Coordination Sequence:
#
# PCOD9077313 Si02
#       7
#     2   2   2   2   2   2   2
#     4   9  20  39  59  82 116 153 192 234 281 342
#     4  10  20  36  56  85 115 145 190 240 289 343
#     4  10  22  37  57  82 116 155 189 236 293 341
#     4   9  20  40  60  84 117 151 191 239 289 343
#     4  11  22  38  59  85 116 154 198 237 280 343
#     4   9  19  34  59  87 112 147 187 236 294 345
#     4  10  18  34  58  84 113 146 188 239 289 337
#
# _framework density 23.562438
#
# number of rings (size 3 to 8) (size 9 to 14) (size 15 to 20)
#    0.000    2.286    0.000    2.143    0.000    3.429 
#    0.000   10.000    0.000    0.000    0.000    0.000 
#    0.000    0.000    0.000    0.000    0.000    0.000 
#
# Total GULP energy -78172.646567 kJ/mol
# GULP energy per Si atom -5583.760469 kJ/mol
# Density = 2.350881 g / cm^3
# Si number density = 23.562438 Si / 1000 Ang^3
#
#
#
# Elastic Constant Matrix: (Units=GPa)
#
#
# Indices 1 2 3 4 5 6 
#
# 1 133.6366 33.8680 49.1293 4.7180 7.3055 5.8060
# 2 33.8680 60.6670 17.0204 24.3380 -2.4410 4.0427
# 3 49.1293 17.0204 85.3086 14.3388 -6.6572 -5.7621
# 4 4.7180 24.3380 14.3388 36.8151 1.8259 -3.3422
# 5 7.3055 -2.4410 -6.6572 1.8259 39.4535 13.3446
# 6 5.8060 4.0427 -5.7621 -3.3422 13.3446 26.4046
#
#
#
# Elastic Compliance Matrix: (Units=1/GPa)
#
#
# Indices 1 2 3 4 5 6 
#
# 1 0.011806 -0.007321 -0.006689 0.006118 -0.004005 -0.000136
# 2 -0.007321 0.028996 0.001791 -0.020079 0.007316 -0.008678
# 3 -0.006689 0.001791 0.016809 -0.006874 0.003803 0.002073
# 4 0.006118 -0.020079 -0.006874 0.043717 -0.009055 0.010339
# 5 -0.004005 0.007316 0.003803 -0.009055 0.033519 -0.017496
# 6 -0.000136 -0.008678 0.002073 0.010339 -0.017496 0.049834
#
#
# Mechanical properties :
#
#
# Convention : Reuss Voigt Hill
#
# Bulk Modulus (GPa) = 30.14487 53.29418 41.71952
# Shear Modulus (GPa) = 22.70904 32.50759 27.60832
#
# Velocity S-wave (km/s) = 3.10785 3.71838 3.42674
# Velocity P-wave (km/s) = 5.06949 6.41112 5.77937
#
# Compressibility (1/GPa) = 0.03317314
#
# Stress axis : x y z
#
# Youngs Moduli (GPa) = 84.70179 34.48790 59.49205
#
# Poissons Ratio (x) = 0.25248 0.39792
# Poissons Ratio (y) = 0.62009 -0.10653
# Poissons Ratio (z) = 0.56654 -0.06175
#
# Static dielectric constant tensor:
#      x y z
#    x 1.937880 -0.041830 0.010410 
#    y -0.041830 1.944770 0.007500 
#    z 0.010410 0.007500 1.894060 
# 
# From -- ./inp_files/445705.got.cif
#   From: 2010.05.17/outbox.cif.g08.bks.cpg/sg2_223_cif.got.tgz:445705.got - 2010.06.03 11:33:40.
