data_PCOD9077420
_publ_section_title
;
Structure prediction by ZEFSAII (Michael W. Deem and Ramdas Pophale) SiO2 
 PCOD9077420
Probable space group: P -1
;
_chemical_formula_sum "Si O2"
_cell_formula_units_Z 16
_cell_length_a 9.745054
_cell_length_b 9.306063
_cell_length_c 9.250171
_cell_angle_alpha 63.209172
_cell_angle_beta 102.644574
_cell_angle_gamma 88.101025
_cell_volume 722.257348
_symmetry_space_group_name_H-M "P -1"
_symmetry_group_IT_number 2
_symmetry_cell_setting 'triclinic'
loop_
_space_group_symop_operation_xyz
x,y,z
-x,-y,-z
loop_
_atom_site_type_symbol
_atom_site_label
_atom_site_fract_x
_atom_site_fract_y
_atom_site_fract_z
Si Si1 0.897301 0.637766 0.073498
Si Si2 0.997942 0.133555 0.815689
Si Si3 0.895603 0.894884 0.721914
Si Si4 0.587876 0.631929 0.891369
Si Si5 0.194378 0.605214 0.472094
Si Si6 0.076746 0.351907 0.399054
Si Si7 0.507617 0.350473 0.459714
Si Si8 0.433545 0.006130 0.322703
O O1 0.886074 0.753894 0.162098
O O2 0.013769 0.485746 0.205581
O O3 0.947465 0.747295 0.909397
O O4 0.746112 0.595969 0.009564
O O5 0.851573 0.260837 0.723400
O O6 0.995576 0.030409 0.714657
O O7 0.000000 0.000000 0.000000
O O8 0.884820 0.817425 0.597595
O O9 0.737251 0.965095 0.709565
O O10 0.588712 0.625211 0.717766
O O11 0.533924 0.826708 0.820396
O O12 0.500000 0.500000 0.000000
O O13 0.198049 0.428301 0.479947
O O14 0.331513 0.647426 0.564370
O O15 0.057524 0.636724 0.529640
O O16 0.500000 0.500000 0.500000
O O17 0.510821 0.180444 0.624569
O O18 0.500000 0.000000 0.500000
#
# Coordination Sequence:
#
# PCOD9077420 Si02
#       8
#     2   2   2   2   2   2   2   2
#     4   9  19  35  56  85 121 156 199 243 304 377
#     4   9  18  35  56  82 116 155 191 252 303 361
#     4  10  18  34  59  88 118 156 203 244 307 367
#     4  10  21  40  66  88 122 166 205 264 319 361
#     4  10  21  37  56  84 126 158 201 253 307 362
#     4  10  21  34  57  90 123 158 197 251 311 370
#     4  11  23  40  65  90 122 170 218 255 307 374
#     4   9  20  37  59  90 122 163 210 257 301 375
#
# _framework density 22.152768999999999
#
# number of rings (size 3 to 8) (size 9 to 14) (size 15 to 20)
#    0.000    2.250    1.250    1.125    5.250    0.500 
#    0.000    0.625    0.000    0.000    0.000    0.000 
#    0.000    0.000    0.000    0.000    0.000    0.000 
#
# Total GULP energy -89085.102607 kJ/mol
# GULP energy per Si atom -5567.818913 kJ/mol
# Density = 2.210235 g / cm^3
# Si number density = 22.152769 Si / 1000 Ang^3
#
#
#
# Elastic Constant Matrix: (Units=GPa)
#
#
# Indices 1 2 3 4 5 6 
#
# 1 29.4143 22.4990 7.8562 5.0087 7.4420 19.7163
# 2 22.4990 184.6972 31.7956 10.3452 -9.8922 5.8717
# 3 7.8562 31.7956 65.8922 -8.0469 5.3935 4.0549
# 4 5.0087 10.3452 -8.0469 33.5821 9.8821 14.5819
# 5 7.4420 -9.8922 5.3935 9.8821 30.0557 7.0022
# 6 19.7163 5.8717 4.0549 14.5819 7.0022 29.4604
#
#
#
# Elastic Compliance Matrix: (Units=1/GPa)
#
#
# Indices 1 2 3 4 5 6 
#
# 1 0.083539 -0.011203 0.003717 0.024157 -0.018602 -0.061723
# 2 -0.011203 0.008086 -0.004596 -0.007698 0.006759 0.008722
# 3 0.003717 -0.004596 0.019456 0.011277 -0.007772 -0.007984
# 4 0.024157 -0.007698 0.011277 0.053437 -0.019241 -0.038062
# 5 -0.018602 0.006759 -0.007772 -0.019241 0.045276 0.010935
# 6 -0.061723 0.008722 -0.007984 -0.038062 0.010935 0.090852
#
#
# Mechanical properties :
#
#
# Convention : Reuss Voigt Hill
#
# Bulk Modulus (GPa) = 11.50539 44.92280 28.21409
# Shear Modulus (GPa) = 14.13292 33.14317 23.63805
#
# Velocity S-wave (km/s) = 2.52856 3.87217 3.27011
# Velocity P-wave (km/s) = 3.70537 6.34935 5.19827
#
# Compressibility (1/GPa) = 0.08691578
#
# Stress axis : x y z
#
# Youngs Moduli (GPa) = 11.97043 123.66861 51.39880
#
# Poissons Ratio (x) = 1.38551 -0.19105
# Poissons Ratio (y) = 0.13411 0.23624
# Poissons Ratio (z) = -0.04449 0.56841
#
# Static dielectric constant tensor:
#      x y z
#    x 1.891870 0.009310 0.015760 
#    y 0.009310 1.941950 0.015870 
#    z 0.015760 0.015870 1.922930 
# 
# From -- ./inp_files/202034.got.cif
#   From: 2010.05.17/outbox.cif.g08.bks.cpg/sg2_102_cif.got.tgz:202034.got - 2010.06.03 11:33:40.
