data_PCOD9077611
_publ_section_title
;
Structure prediction by ZEFSAII (Michael W. Deem and Ramdas Pophale) SiO2 
 PCOD9077611
Probable space group: P -1
;
_chemical_formula_sum "Si O2"
_cell_formula_units_Z 16
_cell_length_a 15.810675
_cell_length_b 8.881297
_cell_length_c 7.621137
_cell_angle_alpha 110.570004
_cell_angle_beta 58.113811
_cell_angle_gamma 132.897176
_cell_volume 665.610331
_symmetry_space_group_name_H-M "P -1"
_symmetry_group_IT_number 2
_symmetry_cell_setting 'triclinic'
loop_
_space_group_symop_operation_xyz
x,y,z
-x,-y,-z
loop_
_atom_site_type_symbol
_atom_site_label
_atom_site_fract_x
_atom_site_fract_y
_atom_site_fract_z
Si Si1 0.186820 0.744153 0.057000
Si Si2 0.584877 0.173263 0.333690
Si Si3 0.974487 0.165101 0.593471
Si Si4 0.651207 0.127661 0.721873
Si Si5 0.275176 0.362024 0.559103
Si Si6 0.077714 0.288023 0.021432
Si Si7 0.188129 0.971918 0.637392
Si Si8 0.226303 0.421964 0.273282
O O1 0.103322 0.820042 0.167040
O O2 0.281249 0.850441 0.162782
O O3 0.095979 0.499516 0.089653
O O4 0.284448 0.791612 0.820686
O O5 0.624912 0.395915 0.419137
O O6 0.500000 0.000000 0.500000
O O7 0.492866 0.073656 0.225054
O O8 0.891868 0.108118 0.487421
O O9 0.108040 0.383291 0.491714
O O10 0.000000 0.000000 0.500000
O O11 0.736430 0.118200 0.480394
O O12 0.667864 0.335988 0.768354
O O13 0.268243 0.336598 0.343297
O O14 0.293244 0.215994 0.586441
O O15 0.143699 0.290032 0.771541
O O16 0.164079 0.316332 0.108472
O O17 0.927829 0.103261 0.134640
#
# Coordination Sequence:
#
# PCOD9077611 Si02
#       8
#     2   2   2   2   2   2   2   2
#     4   9  20  37  60  89 114 153 204 242 296 362
#     4  11  22  39  57  84 117 158 209 253 281 342
#     4  10  18  34  61  90 119 152 185 244 311 360
#     4  10  20  38  62  82 113 160 201 246 294 344
#     4  11  21  37  60  86 122 158 200 247 298 357
#     4   9  20  36  58  91 121 151 197 244 303 373
#     4  10  20  36  59  89 120 154 191 241 310 362
#     4  10  19  36  61  85 119 158 190 248 301 357
#
# _framework density 24.038091000000001
#
# number of rings (size 3 to 8) (size 9 to 14) (size 15 to 20)
#    0.000    2.000    2.500    1.500    0.000    3.500 
#    2.250    1.875    0.000    8.250    0.000    0.000 
#    0.000    0.000    0.000    0.000    0.000    0.000 
#
# Total GULP energy -89233.622862 kJ/mol
# GULP energy per Si atom -5577.101429 kJ/mol
# Density = 2.398338 g / cm^3
# Si number density = 24.038091 Si / 1000 Ang^3
#
#
#
# Elastic Constant Matrix: (Units=GPa)
#
#
# Indices 1 2 3 4 5 6 
#
# 1 58.7430 17.6735 27.3284 0.4488 16.4353 -8.5571
# 2 17.6735 121.9406 28.1548 -17.2536 3.2379 10.8246
# 3 27.3284 28.1548 51.8884 -7.6963 17.6322 -12.3892
# 4 0.4488 -17.2536 -7.6963 32.7987 -1.0279 -0.8837
# 5 16.4353 3.2379 17.6322 -1.0279 42.4494 -3.8038
# 6 -8.5571 10.8246 -12.3892 -0.8837 -3.8038 22.6685
#
#
#
# Elastic Compliance Matrix: (Units=1/GPa)
#
#
# Indices 1 2 3 4 5 6 
#
# 1 0.024025 -0.002021 -0.009496 -0.003671 -0.004945 0.003871
# 2 -0.002021 0.011747 -0.007920 0.004150 0.002368 -0.010142
# 3 -0.009496 -0.007920 0.036987 0.004866 -0.009258 0.019048
# 4 -0.003671 0.004150 0.004866 0.033879 -0.000042 0.000606
# 5 -0.004945 0.002368 -0.009258 -0.000042 0.028847 -0.003218
# 6 0.003871 -0.010142 0.019048 0.000606 -0.003218 0.060312
#
#
# Mechanical properties :
#
#
# Convention : Reuss Voigt Hill
#
# Bulk Modulus (GPa) = 29.51328 42.09835 35.80582
# Shear Modulus (GPa) = 20.32797 30.21102 25.26949
#
# Velocity S-wave (km/s) = 2.91117 3.54898 3.24578
# Velocity P-wave (km/s) = 4.85842 5.86045 5.38280
#
# Compressibility (1/GPa) = 0.03388305
#
# Stress axis : x y z
#
# Youngs Moduli (GPa) = 41.62361 85.12918 27.03679
#
# Poissons Ratio (x) = 0.17206 0.25675
# Poissons Ratio (y) = 0.08413 0.21413
# Poissons Ratio (z) = 0.39527 0.67423
#
# Static dielectric constant tensor:
#      x y z
#    x 2.007260 -0.012210 0.054460 
#    y -0.012210 1.992310 0.016350 
#    z 0.054460 0.016350 1.987120 
# 
# From -- ./inp_files/200961.got.cif
#   From: 2010.05.17/outbox.cif.g08.bks.cpg/sg2_101_cif.got.tgz:200961.got - 2010.06.03 11:33:40.
