data_PCOD9077257
_publ_section_title
;
Structure prediction by ZEFSAII (Michael W. Deem and Ramdas Pophale) SiO2 
 PCOD9077257
Probable space group: P -1
;
_chemical_formula_sum "Si O2"
_cell_formula_units_Z 16
_cell_length_a 8.985402
_cell_length_b 15.903381
_cell_length_c 10.743131
_cell_angle_alpha 37.073301
_cell_angle_beta 127.081973
_cell_angle_gamma 114.783205
_cell_volume 732.167405
_symmetry_space_group_name_H-M "P -1"
_symmetry_group_IT_number 2
_symmetry_cell_setting 'triclinic'
loop_
_space_group_symop_operation_xyz
x,y,z
-x,-y,-z
loop_
_atom_site_type_symbol
_atom_site_label
_atom_site_fract_x
_atom_site_fract_y
_atom_site_fract_z
Si Si1 0.668833 0.629682 0.964784
Si Si2 0.221479 0.477455 0.130340
Si Si3 0.068847 0.906603 0.329833
Si Si4 0.642193 0.896333 0.779107
Si Si5 0.463690 0.214628 0.631283
Si Si6 0.270647 0.958852 0.846390
Si Si7 0.712884 0.326851 0.413554
Si Si8 0.713228 0.206931 0.177063
O O1 0.735821 0.581373 0.918241
O O2 0.736041 0.766707 0.895393
O O3 0.444352 0.671870 0.778160
O O4 0.718777 0.492486 0.237501
O O5 0.320302 0.354970 0.412959
O O6 0.292043 0.625783 0.018846
O O7 0.000000 0.500000 0.000000
O O8 0.098074 0.766006 0.427149
O O9 0.167867 0.858917 0.567659
O O10 0.195972 0.014020 0.202014
O O11 0.867339 0.980730 0.183275
O O12 0.499650 0.833685 0.875332
O O13 0.500000 0.000000 0.500000
O O14 0.620744 0.257288 0.565461
O O15 0.348465 0.093216 0.664021
O O16 0.561897 0.144835 0.884548
O O17 0.188459 0.866204 0.809198
#
# Coordination Sequence:
#
# PCOD9077257 Si02
#       8
#     2   2   2   2   2   2   2   2
#     4  10  18  34  57  88 118 144 192 248 299 343
#     4  11  23  37  65  93 118 152 202 252 302 352
#     4  11  21  35  60  93 117 153 201 251 298 341
#     4  10  19  32  57  89 117 152 187 244 304 345
#     4  10  24  42  60  84 119 170 195 239 305 358
#     4  11  25  40  57  85 129 161 199 242 294 367
#     4  10  18  36  61  82 116 153 199 244 290 353
#     4  11  21  38  59  92 119 156 198 250 301 348
#
# _framework density 21.852926
#
# number of rings (size 3 to 8) (size 9 to 14) (size 15 to 20)
#    0.000    1.500    3.750    3.375    7.000    1.000 
#    0.000    0.000    0.000    1.500    0.000    0.000 
#    0.000    0.000    0.000    0.000    0.000    0.000 
#
# Total GULP energy -89345.241188 kJ/mol
# GULP energy per Si atom -5584.077574 kJ/mol
# Density = 2.180319 g / cm^3
# Si number density = 21.852926 Si / 1000 Ang^3
#
#
#
# Elastic Constant Matrix: (Units=GPa)
#
#
# Indices 1 2 3 4 5 6 
#
# 1 82.4681 8.6437 38.4961 -12.8385 15.7695 -8.1511
# 2 8.6437 46.5106 33.1121 -33.4300 0.6506 -8.3278
# 3 38.4961 33.1121 127.9532 -35.8080 1.6483 4.0650
# 4 -12.8385 -33.4300 -35.8080 33.9096 0.7064 2.1946
# 5 15.7695 0.6506 1.6483 0.7064 30.8463 -7.7252
# 6 -8.1511 -8.3278 4.0650 2.1946 -7.7252 21.0568
#
#
#
# Elastic Compliance Matrix: (Units=1/GPa)
#
#
# Indices 1 2 3 4 5 6 
#
# 1 0.016993 0.008245 -0.004829 0.009140 -0.006996 0.007252
# 2 0.008245 0.089437 -0.002199 0.087060 -0.000535 0.029718
# 3 -0.004829 -0.002199 0.012817 0.009941 0.000041 -0.006234
# 4 0.009140 0.087060 0.009941 0.128016 -0.004718 0.020977
# 5 -0.006996 -0.000535 0.000041 -0.004718 0.039095 0.011907
# 6 0.007252 0.029718 -0.006234 0.020977 0.011907 0.065436
#
#
# Mechanical properties :
#
#
# Convention : Reuss Voigt Hill
#
# Bulk Modulus (GPa) = 8.21813 46.38173 27.29993
# Shear Modulus (GPa) = 12.82314 28.94122 20.88218
#
# Velocity S-wave (km/s) = 2.42501 3.64313 3.09460
# Velocity P-wave (km/s) = 3.40730 6.24236 5.02876
#
# Compressibility (1/GPa) = 0.12168213
#
# Stress axis : x y z
#
# Youngs Moduli (GPa) = 58.84671 11.18105 78.02353
#
# Poissons Ratio (x) = -0.09219 0.37676
# Poissons Ratio (y) = -0.48521 0.17157
# Poissons Ratio (z) = 0.28416 0.02459
#
# Static dielectric constant tensor:
#      x y z
#    x 1.871790 -0.003270 -0.002900 
#    y -0.003270 1.838980 0.000190 
#    z -0.002900 0.000190 1.807210 
# 
# From -- ./inp_files/259964.got.cif
#   From: 2010.05.17/outbox.cif.g08.bks.cpg/sg2_130_cif.got.tgz:259964.got - 2010.06.03 11:33:40.
