data_PCOD9077414
_publ_section_title
;
Structure prediction by ZEFSAII (Michael W. Deem and Ramdas Pophale) SiO2 
 PCOD9077414
Probable space group: P -1
;
_chemical_formula_sum "Si O2"
_cell_formula_units_Z 16
_cell_length_a 8.918103
_cell_length_b 9.755149
_cell_length_c 23.080963
_cell_angle_alpha 143.256604
_cell_angle_beta 44.985565
_cell_angle_gamma 121.194434
_cell_volume 843.514494
_symmetry_space_group_name_H-M "P -1"
_symmetry_group_IT_number 2
_symmetry_cell_setting 'triclinic'
loop_
_space_group_symop_operation_xyz
x,y,z
-x,-y,-z
loop_
_atom_site_type_symbol
_atom_site_label
_atom_site_fract_x
_atom_site_fract_y
_atom_site_fract_z
Si Si1 0.216959 0.505465 0.731663
Si Si2 0.069664 0.873217 0.806708
Si Si3 0.249069 0.989142 0.553960
Si Si4 0.108473 0.191259 0.001630
Si Si5 0.396136 0.260540 0.108090
Si Si6 0.548639 0.279824 0.952287
Si Si7 0.957942 0.904541 0.714357
Si Si8 0.333306 0.498353 0.326559
O O1 0.449454 0.508430 0.698187
O O2 0.221157 0.679310 0.734709
O O3 0.174862 0.246192 0.638064
O O4 0.032087 0.584147 0.857426
O O5 0.846524 0.776871 0.850431
O O6 0.067028 0.891010 0.743917
O O7 0.087231 0.120467 0.916344
O O8 0.229661 0.763831 0.444126
O O9 0.126180 0.938708 0.629732
O O10 0.500000 0.000000 0.500000
O O11 0.352404 0.146548 0.940577
O O12 0.000000 0.000000 0.000000
O O13 0.403404 0.407177 0.213140
O O14 0.507470 0.358347 0.056023
O O15 0.500000 0.000000 0.000000
O O16 0.771267 0.120109 0.834935
O O17 0.500000 0.500000 0.000000
O O18 0.832888 0.676187 0.665347
#
# Coordination Sequence:
#
# PCOD9077414 Si02
#       8
#     2   2   2   2   2   2   2   2
#     4  10  19  36  62  85 121 159 196 236 297 346
#     4  10  20  33  63  90 117 155 199 237 286 358
#     4  10  23  43  60  81 118 162 200 245 300 340
#     4  10  18  34  59  87 121 160 189 223 300 362
#     4  11  19  37  60  90 122 152 195 238 293 356
#     4  12  23  36  58  94 129 151 185 246 303 347
#     4  11  22  39  62  89 118 152 203 246 285 353
#     4  10  21  38  67  83 114 164 204 235 285 357
#
# _framework density 18.968257000000001
#
# number of rings (size 3 to 8) (size 9 to 14) (size 15 to 20)
#    0.000    1.500    5.000    3.375    0.000    0.000 
#    4.500    6.250    2.750    0.000    0.000    0.000 
#    0.000    0.000    0.000    0.000    0.000    0.000 
#
# Total GULP energy -89091.573911 kJ/mol
# GULP energy per Si atom -5568.223369 kJ/mol
# Density = 1.892508 g / cm^3
# Si number density = 18.968257 Si / 1000 Ang^3
#
#
#
# Elastic Constant Matrix: (Units=GPa)
#
#
# Indices 1 2 3 4 5 6 
#
# 1 89.1994 25.0110 36.4380 -1.1797 7.5499 -3.9469
# 2 25.0110 97.8639 53.6070 -3.2011 7.1136 -12.1549
# 3 36.4380 53.6070 114.0387 9.2582 7.5249 -6.1605
# 4 -1.1797 -3.2011 9.2582 33.3717 0.2255 -7.4219
# 5 7.5499 7.1136 7.5249 0.2255 20.6448 -1.8523
# 6 -3.9469 -12.1549 -6.1605 -7.4219 -1.8523 24.8894
#
#
#
# Elastic Compliance Matrix: (Units=1/GPa)
#
#
# Indices 1 2 3 4 5 6 
#
# 1 0.013314 -0.000998 -0.003659 0.001627 -0.003122 0.000971
# 2 -0.000998 0.015360 -0.006798 0.004889 -0.001877 0.006978
# 3 -0.003659 -0.006798 0.013514 -0.004999 -0.001384 -0.002149
# 4 0.001627 0.004889 -0.004999 0.034481 0.000216 0.011706
# 5 -0.003122 -0.001877 -0.001384 0.000216 0.050918 0.002099
# 6 0.000971 0.006978 -0.002149 0.011706 0.002099 0.046855
#
#
# Mechanical properties :
#
#
# Convention : Reuss Voigt Hill
#
# Bulk Modulus (GPa) = 51.86629 59.02378 55.44504
# Shear Modulus (GPa) = 24.53670 28.18423 26.36047
#
# Velocity S-wave (km/s) = 3.60052 3.85887 3.73193
# Velocity P-wave (km/s) = 6.68491 7.14417 6.91836
#
# Compressibility (1/GPa) = 0.01928035
#
# Stress axis : x y z
#
# Youngs Moduli (GPa) = 75.10923 65.10469 73.99467
#
# Poissons Ratio (x) = 0.06495 0.27073
# Poissons Ratio (y) = 0.07493 0.50298
# Poissons Ratio (z) = 0.27480 0.44255
#
# Static dielectric constant tensor:
#      x y z
#    x 1.689100 -0.072020 0.005950 
#    y -0.072020 1.707220 0.059490 
#    z 0.005950 0.059490 1.743720 
# 
# From -- ./inp_files/475422.got.cif
#   From: 2010.05.17/outbox.cif.g08.bks.cpg/sg2_238_cif.got.tgz:475422.got - 2010.06.03 11:33:40.
