data_PCOD9077364
_publ_section_title
;
Structure prediction by ZEFSAII (Michael W. Deem and Ramdas Pophale) SiO2 
 PCOD9077364
Probable space group: P -1
;
_chemical_formula_sum "Si O2"
_cell_formula_units_Z 12
_cell_length_a 5.493500
_cell_length_b 17.719875
_cell_length_c 9.377031
_cell_angle_alpha 147.643458
_cell_angle_beta 88.569586
_cell_angle_gamma 104.520834
_cell_volume 441.089695
_symmetry_space_group_name_H-M "P -1"
_symmetry_group_IT_number 2
_symmetry_cell_setting 'triclinic'
loop_
_space_group_symop_operation_xyz
x,y,z
-x,-y,-z
loop_
_atom_site_type_symbol
_atom_site_label
_atom_site_fract_x
_atom_site_fract_y
_atom_site_fract_z
Si Si1 0.056470 0.208765 0.737476
Si Si2 0.492647 0.125064 0.087311
Si Si3 0.192593 0.490652 0.609328
Si Si4 0.057375 0.175694 0.015514
Si Si5 0.763945 0.422909 0.727864
Si Si6 0.412996 0.739212 0.234047
O O1 0.273718 0.166272 0.589121
O O2 0.758926 0.162353 0.611527
O O3 0.041168 0.158032 0.818584
O O4 0.193862 0.401296 0.026732
O O5 0.211937 0.086231 0.948018
O O6 0.531136 0.279240 0.423427
O O7 0.761190 0.156200 0.039347
O O8 0.500000 0.000000 0.000000
O O9 0.268403 0.359571 0.334530
O O10 0.000000 0.500000 0.500000
O O11 0.016950 0.412775 0.629822
O O12 0.375207 0.656244 0.945660
O O13 0.714963 0.382701 0.829910
#
# Coordination Sequence:
#
# PCOD9077364 Si02
#       6
#     2   2   2   2   2   2
#     4  11  21  36  61  93 123 150 192 242 312 359
#     4  11  25  42  62  85 117 164 210 247 290 347
#     4  10  18  34  58  93 125 151 190 238 302 365
#     4  11  22  38  64  92 118 152 203 256 291 352
#     4  10  22  37  60  89 125 159 193 246 299 358
#     4  11  22  35  55  90 134 156 184 234 307 375
#
# _framework density 27.205351
#
# number of rings (size 3 to 8) (size 9 to 14) (size 15 to 20)
#    0.000    1.333    3.333    5.000    2.333    4.000 
#    0.000    0.000    0.000    6.000    0.000    0.000 
#    0.000    0.000    0.000    0.000    0.000    0.000 
#
# Total GULP energy -67048.709599 kJ/mol
# GULP energy per Si atom -5587.392467 kJ/mol
# Density = 2.714343 g / cm^3
# Si number density = 27.205351 Si / 1000 Ang^3
#
#
#
# Elastic Constant Matrix: (Units=GPa)
#
#
# Indices 1 2 3 4 5 6 
#
# 1 187.7585 55.2807 16.3868 -13.4472 0.4697 -23.3984
# 2 55.2807 149.3923 10.4421 -18.3051 0.1969 -10.1361
# 3 16.3868 10.4421 119.5035 -11.7020 -10.9355 -10.6932
# 4 -13.4472 -18.3051 -11.7020 36.4438 5.1254 -6.7876
# 5 0.4697 0.1969 -10.9355 5.1254 27.1705 1.3983
# 6 -23.3984 -10.1361 -10.6932 -6.7876 1.3983 59.1881
#
#
#
# Elastic Compliance Matrix: (Units=1/GPa)
#
#
# Indices 1 2 3 4 5 6 
#
# 1 0.006352 -0.001947 -0.000383 0.001775 -0.000705 0.002329
# 2 -0.001947 0.007920 -0.000060 0.003534 -0.000766 0.000999
# 3 -0.000383 -0.000060 0.009121 0.002642 0.003091 0.001716
# 4 0.001775 0.003534 0.002642 0.032532 -0.005420 0.005643
# 5 -0.000705 -0.000766 0.003091 -0.005420 0.039161 -0.001398
# 6 0.002329 0.000999 0.001716 0.005643 -0.001398 0.018977
#
#
# Mechanical properties :
#
#
# Convention : Reuss Voigt Hill
#
# Bulk Modulus (GPa) = 53.72518 68.98593 61.35555
# Shear Modulus (GPa) = 39.98496 49.53013 44.75754
#
# Velocity S-wave (km/s) = 3.83789 4.27148 4.06047
# Velocity P-wave (km/s) = 6.27934 7.05265 6.67720
#
# Compressibility (1/GPa) = 0.01861324
#
# Stress axis : x y z
#
# Youngs Moduli (GPa) = 157.43485 126.25683 109.63867
#
# Poissons Ratio (x) = 0.24584 0.04200
# Poissons Ratio (y) = 0.30655 0.00654
# Poissons Ratio (z) = 0.06031 0.00753
#
# Static dielectric constant tensor:
#      x y z
#    x 2.236700 -0.001060 0.083850 
#    y -0.001060 2.066170 0.036570 
#    z 0.083850 0.036570 2.270080 
# 
# From -- ./inp_files/24199.got.cif
#   From: 2010.05.17/outbox.cif.g08.bks.cpg/sg2_13_cif.got.tgz:24199.got - 2010.06.03 11:33:40.
