data_PCOD9077207
_publ_section_title
;
Structure prediction by ZEFSAII (Michael W. Deem and Ramdas Pophale) SiO2 
 PCOD9077207
Probable space group: P -1
;
_chemical_formula_sum "Si O2"
_cell_formula_units_Z 16
_cell_length_a 8.160973
_cell_length_b 12.599830
_cell_length_c 9.990501
_cell_angle_alpha 101.784458
_cell_angle_beta 105.289825
_cell_angle_gamma 110.664428
_cell_volume 875.434941
_symmetry_space_group_name_H-M "P -1"
_symmetry_group_IT_number 2
_symmetry_cell_setting 'triclinic'
loop_
_space_group_symop_operation_xyz
x,y,z
-x,-y,-z
loop_
_atom_site_type_symbol
_atom_site_label
_atom_site_fract_x
_atom_site_fract_y
_atom_site_fract_z
Si Si1 0.546136 0.609991 0.640414
Si Si2 0.502425 0.772256 0.475231
Si Si3 0.188757 0.814700 0.583379
Si Si4 0.848787 0.408191 0.341329
Si Si5 0.424092 0.561350 0.214996
Si Si6 0.201992 0.060034 0.630363
Si Si7 0.863944 0.514064 0.082506
Si Si8 0.153605 0.279919 0.725494
O O1 0.500000 0.500000 0.500000
O O2 0.618683 0.729360 0.595661
O O3 0.354622 0.604846 0.659375
O O4 0.649228 0.571151 0.769604
O O5 0.360937 0.811675 0.533356
O O6 0.386179 0.653015 0.328767
O O7 0.640818 0.872890 0.431418
O O8 0.149623 0.720359 0.670109
O O9 0.006798 0.763762 0.433713
O O10 0.231855 0.949661 0.669343
O O11 0.883178 0.457781 0.212235
O O12 0.000000 0.500000 0.500000
O O13 0.650479 0.621537 0.267864
O O14 0.339503 0.552737 0.047992
O O15 0.194405 0.166778 0.745506
O O16 0.000000 0.000000 0.500000
O O17 0.902927 0.650930 0.155590
O O18 0.000000 0.500000 0.000000
#
# Coordination Sequence:
#
# PCOD9077207 Si02
#       8
#     2   2   2   2   2   2   2   2
#     4   9  18  30  53  81 111 141 179 220 281 320
#     4   9  18  31  54  84 113 141 181 233 272 329
#     4  10  18  34  57  82 109 139 188 235 274 322
#     4  11  21  35  55  82 116 143 180 233 280 325
#     4  10  19  34  51  80 115 147 178 221 280 337
#     4   9  19  33  53  82 107 146 187 230 273 318
#     4  12  24  35  53  83 116 151 184 222 283 336
#     4  10  19  35  55  77 110 147 181 230 270 325
#
# _framework density 18.276629
#
# number of rings (size 3 to 8) (size 9 to 14) (size 15 to 20)
#    0.000    2.000    2.500    1.500    3.500    0.000 
#    0.000    0.000    0.000    3.750    3.250    0.000 
#    0.000    0.000    0.000    0.000    0.000    0.000 
#
# Total GULP energy -89167.524225 kJ/mol
# GULP energy per Si atom -5572.970264 kJ/mol
# Density = 1.823503 g / cm^3
# Si number density = 18.276629 Si / 1000 Ang^3
#
#
#
# Elastic Constant Matrix: (Units=GPa)
#
#
# Indices 1 2 3 4 5 6 
#
# 1 62.4350 34.1607 20.7118 -0.5609 -11.5229 -16.2226
# 2 34.1607 149.5107 44.3291 -12.5411 -5.2298 -31.6042
# 3 20.7118 44.3291 83.8620 -14.9720 -6.7896 -7.4028
# 4 -0.5609 -12.5411 -14.9720 22.3711 -4.4121 -2.4761
# 5 -11.5229 -5.2298 -6.7896 -4.4121 26.4729 6.8361
# 6 -16.2226 -31.6042 -7.4028 -2.4761 6.8361 33.7264
#
#
#
# Elastic Compliance Matrix: (Units=1/GPa)
#
#
# Indices 1 2 3 4 5 6 
#
# 1 0.021052 -0.002582 -0.003020 -0.001082 0.006226 0.005702
# 2 -0.002582 0.010355 -0.003503 0.004028 -0.001444 0.008281
# 3 -0.003020 -0.003503 0.016473 0.009666 0.004152 -0.001251
# 4 -0.001082 0.004028 0.009666 0.056246 0.010260 0.007425
# 5 0.006226 -0.001444 0.004152 0.010260 0.044447 -0.005702
# 6 0.005702 0.008281 -0.001251 0.007425 -0.005702 0.041579
#
#
# Mechanical properties :
#
#
# Convention : Reuss Voigt Hill
#
# Bulk Modulus (GPa) = 33.70381 54.91230 44.30805
# Shear Modulus (GPa) = 22.90931 29.62117 26.26524
#
# Velocity S-wave (km/s) = 3.54429 4.03018 3.79502
# Velocity P-wave (km/s) = 5.93551 7.19491 6.59534
#
# Compressibility (1/GPa) = 0.02967024
#
# Stress axis : x y z
#
# Youngs Moduli (GPa) = 47.50065 96.57444 60.70492
#
# Poissons Ratio (x) = 0.24938 0.18334
# Poissons Ratio (y) = 0.12266 0.21262
# Poissons Ratio (z) = 0.14346 0.33826
#
# Static dielectric constant tensor:
#      x y z
#    x 1.693270 -0.017810 0.013240 
#    y -0.017810 1.710040 -0.054110 
#    z 0.013240 -0.054110 1.664160 
# 
# From -- ./inp_files/179372.got.cif
#   From: 2010.05.17/outbox.cif.g08.bks.cpg/sg2_90_cif.got.tgz:179372.got - 2010.06.03 11:33:40.
