data_PCOD9077004
_publ_section_title
;
Structure prediction by ZEFSAII (Michael W. Deem and Ramdas Pophale) SiO2 
 PCOD9077004
Probable space group: P -1
;
_chemical_formula_sum "Si O2"
_cell_formula_units_Z 16
_cell_length_a 6.785807
_cell_length_b 8.617927
_cell_length_c 19.433637
_cell_angle_alpha 137.789472
_cell_angle_beta 55.727703
_cell_angle_gamma 114.502633
_cell_volume 630.966084
_symmetry_space_group_name_H-M "P -1"
_symmetry_group_IT_number 2
_symmetry_cell_setting 'triclinic'
loop_
_space_group_symop_operation_xyz
x,y,z
-x,-y,-z
loop_
_atom_site_type_symbol
_atom_site_label
_atom_site_fract_x
_atom_site_fract_y
_atom_site_fract_z
Si Si1 0.092277 0.171392 0.953473
Si Si2 0.137936 0.196142 0.578435
Si Si3 0.653817 0.379638 0.187990
Si Si4 0.814211 0.112486 0.729771
Si Si5 0.406944 0.928727 0.100605
Si Si6 0.879602 0.299093 0.259810
Si Si7 0.398501 0.438471 0.875118
Si Si8 0.499132 0.776010 0.588610
O O1 0.339125 0.122653 0.928686
O O2 0.185522 0.312563 0.915752
O O3 0.987774 0.920198 0.871423
O O4 0.910494 0.301563 0.081226
O O5 0.027414 0.446244 0.658681
O O6 0.407236 0.171772 0.489162
O O7 0.065702 0.159794 0.659912
O O8 0.000000 0.000000 0.500000
O O9 0.689905 0.380786 0.263431
O O10 0.594577 0.590239 0.217929
O O11 0.453582 0.185808 0.149660
O O12 0.792691 0.070319 0.800678
O O13 0.643972 0.334817 0.822198
O O14 0.682407 0.903728 0.646471
O O15 0.371786 0.709722 0.986949
O O16 0.753739 0.182895 0.312253
O O17 0.500000 0.500000 0.500000
#
# Coordination Sequence:
#
# PCOD9077004 Si02
#       8
#     2   2   2   2   2   2   2   2
#     4  10  20  35  54  80 108 146 186 213 251 317
#     4   9  20  31  57  87  97 127 185 239 258 307
#     4  11  22  34  52  83 114 146 176 208 266 325
#     4  10  18  34  54  81 106 136 182 214 270 309
#     4  10  20  35  54  78 111 149 177 218 253 315
#     4  10  18  34  58  79 107 140 176 223 264 309
#     4  11  22  34  52  81 119 144 170 216 264 323
#     4   9  16  33  55  81  98 127 182 235 262 300
#
# _framework density 25.357939999999999
#
# number of rings (size 3 to 8) (size 9 to 14) (size 15 to 20)
#    0.000    2.000    3.750    3.750    5.250    0.000 
#    0.000    0.000    0.000    7.500    0.000    0.000 
#    0.000    0.000    0.000    0.000    0.000    0.000 
#
# Total GULP energy -89307.705121 kJ/mol
# GULP energy per Si atom -5581.731570 kJ/mol
# Density = 2.530022 g / cm^3
# Si number density = 25.357940 Si / 1000 Ang^3
#
#
#
# Elastic Constant Matrix: (Units=GPa)
#
#
# Indices 1 2 3 4 5 6 
#
# 1 57.5830 17.1788 12.1593 -9.5002 3.9632 2.3042
# 2 17.1788 155.4484 39.7433 -39.4488 3.8933 3.2047
# 3 12.1593 39.7433 104.0978 -12.1518 14.1325 4.1146
# 4 -9.5002 -39.4488 -12.1518 67.5582 10.7646 5.7053
# 5 3.9632 3.8933 14.1325 10.7646 22.7674 4.2640
# 6 2.3042 3.2047 4.1146 5.7053 4.2640 24.2742
#
#
#
# Elastic Compliance Matrix: (Units=1/GPa)
#
#
# Indices 1 2 3 4 5 6 
#
# 1 0.018585 -0.001066 -0.000962 0.002475 -0.003354 -0.001453
# 2 -0.001066 0.008406 -0.002217 0.004778 -0.001867 -0.001428
# 3 -0.000962 -0.002217 0.011859 0.001979 -0.007609 -0.000755
# 4 0.002475 0.004778 0.001979 0.020450 -0.011395 -0.004006
# 5 -0.003354 -0.001867 -0.007609 -0.011395 0.055928 -0.005291
# 6 -0.001453 -0.001428 -0.000755 -0.004006 -0.005291 0.043521
#
#
# Mechanical properties :
#
#
# Convention : Reuss Voigt Hill
#
# Bulk Modulus (GPa) = 32.93828 50.58800 41.76314
# Shear Modulus (GPa) = 28.19125 39.45648 33.82387
#
# Velocity S-wave (km/s) = 3.33788 3.94887 3.65616
# Velocity P-wave (km/s) = 5.27947 6.38626 5.85906
#
# Compressibility (1/GPa) = 0.03035981
#
# Stress axis : x y z
#
# Youngs Moduli (GPa) = 53.80778 118.95640 84.32278
#
# Poissons Ratio (x) = 0.12677 0.08114
# Poissons Ratio (y) = 0.05734 0.18696
# Poissons Ratio (z) = 0.05178 0.26376
#
# Static dielectric constant tensor:
#      x y z
#    x 2.072820 0.013430 0.010310 
#    y 0.013430 2.040080 0.008910 
#    z 0.010310 0.008910 2.075540 
# 
# From -- ./inp_files/195848.got.cif
#   From: 2010.05.17/outbox.cif.g08.bks.cpg/sg2_98_cif.got.tgz:195848.got - 2010.06.03 11:33:40.
