data_PCOD9077582
_publ_section_title
;
Structure prediction by ZEFSAII (Michael W. Deem and Ramdas Pophale) SiO2 
 PCOD9077582
Probable space group: P -1
;
_chemical_formula_sum "Si O2"
_cell_formula_units_Z 16
_cell_length_a 19.989547
_cell_length_b 13.517587
_cell_length_c 12.679068
_cell_angle_alpha 39.117864
_cell_angle_beta 159.971649
_cell_angle_gamma 146.916820
_cell_volume 639.302393
_symmetry_space_group_name_H-M "P -1"
_symmetry_group_IT_number 2
_symmetry_cell_setting 'triclinic'
loop_
_space_group_symop_operation_xyz
x,y,z
-x,-y,-z
loop_
_atom_site_type_symbol
_atom_site_label
_atom_site_fract_x
_atom_site_fract_y
_atom_site_fract_z
Si Si1 0.105393 0.009019 0.835979
Si Si2 0.052612 0.318685 0.519088
Si Si3 0.425079 0.759623 0.044814
Si Si4 0.826283 0.284985 0.916496
Si Si5 0.625778 0.288405 0.398206
Si Si6 0.559676 0.905266 0.331157
Si Si7 0.902191 0.130921 0.827097
Si Si8 0.814172 0.565311 0.155109
O O1 0.366815 0.170161 0.080340
O O2 0.062742 0.840090 0.839950
O O3 0.070786 0.946051 0.958904
O O4 0.980398 0.120383 0.532893
O O5 0.236416 0.493154 0.583635
O O6 0.174816 0.343386 0.793288
O O7 0.824086 0.321749 0.202656
O O8 0.415363 0.611361 0.073320
O O9 0.451572 0.926062 0.876964
O O10 0.581282 0.808937 0.337640
O O11 0.660835 0.239523 0.608426
O O12 0.666582 0.219862 0.835182
O O13 0.000000 0.500000 0.000000
O O14 0.753564 0.223004 0.562595
O O15 0.764179 0.987402 0.649079
O O16 0.116703 0.293378 0.953476
O O17 0.000000 0.500000 0.500000
#
# Coordination Sequence:
#
# PCOD9077582 Si02
#       8
#     2   2   2   2   2   2   2   2
#     4  11  24  36  59  90 119 151 188 241 290 346
#     4  11  21  37  60  89 122 144 190 241 300 332
#     4  10  21  35  61  89 109 153 193 244 273 345
#     4  11  23  38  62  86 115 157 194 236 281 343
#     4  11  19  38  60  87 114 154 198 232 278 351
#     4  11  19  36  61  84 111 144 206 232 278 326
#     4  11  18  37  61  85 109 149 201 238 275 338
#     4  10  18  34  61  84 110 148 196 239 278 337
#
# _framework density 25.027280000000001
#
# number of rings (size 3 to 8) (size 9 to 14) (size 15 to 20)
#    0.000    1.250    7.500    1.875    1.750    0.500 
#    0.000    2.500    2.750    1.500    0.000    0.000 
#    0.000    0.000    0.000    0.000    0.000    0.000 
#
# Total GULP energy -89537.187928 kJ/mol
# GULP energy per Si atom -5596.074245 kJ/mol
# Density = 2.497032 g / cm^3
# Si number density = 25.027280 Si / 1000 Ang^3
#
#
#
# Elastic Constant Matrix: (Units=GPa)
#
#
# Indices 1 2 3 4 5 6 
#
# 1 82.7296 29.5285 9.7157 0.5036 -17.5818 14.6848
# 2 29.5285 143.2680 23.9087 -1.7854 8.1346 -0.6405
# 3 9.7157 23.9087 56.0868 9.4969 -1.6639 -5.4361
# 4 0.5036 -1.7854 9.4969 35.5864 -1.6816 -0.4981
# 5 -17.5818 8.1346 -1.6639 -1.6816 19.5999 2.8183
# 6 14.6848 -0.6405 -5.4361 -0.4981 2.8183 56.4949
#
#
#
# Elastic Compliance Matrix: (Units=1/GPa)
#
#
# Indices 1 2 3 4 5 6 
#
# 1 0.019445 -0.004951 -0.001382 0.000719 0.020342 -0.006252
# 2 -0.004951 0.009057 -0.003284 0.001015 -0.008609 0.001512
# 3 -0.001382 -0.003284 0.020659 -0.005576 0.001081 0.002207
# 4 0.000719 0.001015 -0.005576 0.029734 0.002383 -0.000569
# 5 0.020342 -0.008609 0.001081 0.002383 0.074427 -0.008973
# 6 -0.006252 0.001512 0.002207 -0.000569 -0.008973 0.019998
#
#
# Mechanical properties :
#
#
# Convention : Reuss Voigt Hill
#
# Bulk Modulus (GPa) = 33.41462 45.37669 39.39566
# Shear Modulus (GPa) = 24.68766 36.93167 30.80966
#
# Velocity S-wave (km/s) = 3.14416 3.84559 3.51243
# Velocity P-wave (km/s) = 5.15376 6.15535 5.67669
#
# Compressibility (1/GPa) = 0.02992702
#
# Stress axis : x y z
#
# Youngs Moduli (GPa) = 51.42579 110.41640 48.40520
#
# Poissons Ratio (x) = 0.54669 0.06690
# Poissons Ratio (y) = 0.25462 0.15895
# Poissons Ratio (z) = 0.07108 0.36258
#
# Static dielectric constant tensor:
#      x y z
#    x 1.963070 -0.044280 0.013340 
#    y -0.044280 2.003600 0.014160 
#    z 0.013340 0.014160 2.030530 
# 
# From -- ./inp_files/254114.got.cif
#   From: 2010.05.17/outbox.cif.g08.bks.cpg/sg2_128_cif.got.tgz:254114.got - 2010.06.03 11:33:40.
