data_PCOD9077290
_publ_section_title
;
Structure prediction by ZEFSAII (Michael W. Deem and Ramdas Pophale) SiO2 
 PCOD9077290
Probable space group: P -1
;
_chemical_formula_sum "Si O2"
_cell_formula_units_Z 16
_cell_length_a 14.079524
_cell_length_b 14.828133
_cell_length_c 8.855196
_cell_angle_alpha 28.225711
_cell_angle_beta 104.626661
_cell_angle_gamma 109.839477
_cell_volume 817.945919
_symmetry_space_group_name_H-M "P -1"
_symmetry_group_IT_number 2
_symmetry_cell_setting 'triclinic'
loop_
_space_group_symop_operation_xyz
x,y,z
-x,-y,-z
loop_
_atom_site_type_symbol
_atom_site_label
_atom_site_fract_x
_atom_site_fract_y
_atom_site_fract_z
Si Si1 0.230109 0.292980 0.071208
Si Si2 0.919384 0.104324 0.739363
Si Si3 0.699850 0.902549 0.882695
Si Si4 0.481651 0.021224 0.137064
Si Si5 0.966594 0.533401 0.269781
Si Si6 0.593471 0.415832 0.114606
Si Si7 0.914628 0.096578 0.387248
Si Si8 0.604277 0.152107 0.261906
O O1 0.284757 0.270645 0.966413
O O2 0.188518 0.068903 0.446035
O O3 0.131699 0.378080 0.889208
O O4 0.306988 0.433931 0.005259
O O5 0.802969 0.982729 0.899200
O O6 0.938096 0.325206 0.481029
O O7 0.927462 0.107880 0.555901
O O8 0.000000 0.000000 0.000000
O O9 0.601442 0.864199 0.007553
O O10 0.687402 0.072573 0.505522
O O11 0.430566 0.797278 0.500665
O O12 0.586762 0.118915 0.125644
O O13 0.500000 0.000000 0.000000
O O14 0.000000 0.500000 0.500000
O O15 0.058472 0.688233 0.992974
O O16 0.603113 0.362749 0.020514
O O17 0.500000 0.500000 0.000000
O O18 0.000000 0.000000 0.500000
O O19 0.500000 0.000000 0.500000
#
# Coordination Sequence:
#
# PCOD9077290 Si02
#       8
#     2   2   2   2   2   2   2   2
#     4  10  19  35  59  85 113 153 201 246 290 354
#     4  11  21  37  60  86 120 162 200 247 298 352
#     4   9  18  36  57  80 114 156 195 237 291 352
#     4  10  20  36  58  85 116 151 195 251 301 348
#     4  11  21  37  60  88 119 157 197 246 304 357
#     4  10  18  34  58  80 107 150 193 235 291 354
#     4   9  20  37  58  85 116 151 198 247 293 353
#     4   8  16  32  54  79 106 146 189 231 285 346
#
# _framework density 19.561195999999999
#
# number of rings (size 3 to 8) (size 9 to 14) (size 15 to 20)
#    0.000    2.500    0.000    6.375    0.000    0.000 
#    0.000   16.250    0.000    7.500    0.000    0.000 
#    0.000    0.000    0.000    0.000    0.000    0.000 
#
# Total GULP energy -89096.980691 kJ/mol
# GULP energy per Si atom -5568.561293 kJ/mol
# Density = 1.951667 g / cm^3
# Si number density = 19.561196 Si / 1000 Ang^3
#
#
#
# Elastic Constant Matrix: (Units=GPa)
#
#
# Indices 1 2 3 4 5 6 
#
# 1 87.9240 44.8669 26.5027 0.8356 16.5297 2.4633
# 2 44.8669 178.8782 46.7083 -11.9921 -5.6920 4.3292
# 3 26.5027 46.7083 53.4496 -1.2461 5.0149 2.2164
# 4 0.8356 -11.9921 -1.2461 34.9858 -4.1466 3.5964
# 5 16.5297 -5.6920 5.0149 -4.1466 28.4858 0.9793
# 6 2.4633 4.3292 2.2164 3.5964 0.9793 44.1250
#
#
#
# Elastic Compliance Matrix: (Units=1/GPa)
#
#
# Indices 1 2 3 4 5 6 
#
# 1 0.016298 -0.003514 -0.004158 -0.002920 -0.009856 0.000101
# 2 -0.003514 0.008472 -0.006050 0.003479 0.005329 -0.000733
# 3 -0.004158 -0.006050 0.026378 -0.001435 -0.003638 -0.000302
# 4 -0.002920 0.003479 -0.001435 0.030939 0.007242 -0.002789
# 5 -0.009856 0.005329 -0.003638 0.007242 0.043630 -0.001348
# 6 0.000101 -0.000733 -0.000302 -0.002789 -0.001348 0.023002
#
#
# Mechanical properties :
#
#
# Convention : Reuss Voigt Hill
#
# Bulk Modulus (GPa) = 42.18557 61.82310 52.00434
# Shear Modulus (GPa) = 27.16461 34.99760 31.08110
#
# Velocity S-wave (km/s) = 3.73057 4.23440 3.99045
# Velocity P-wave (km/s) = 6.33790 7.45523 6.91916
#
# Compressibility (1/GPa) = 0.02370479
#
# Stress axis : x y z
#
# Youngs Moduli (GPa) = 61.35803 118.03610 37.91065
#
# Poissons Ratio (x) = 0.41478 0.15763
# Poissons Ratio (y) = 0.21561 0.22934
# Poissons Ratio (z) = 0.25512 0.71406
#
# Static dielectric constant tensor:
#      x y z
#    x 1.741060 -0.015570 0.021970 
#    y -0.015570 1.729090 0.006330 
#    z 0.021970 0.006330 1.713250 
# 
# From -- ./inp_files/312268.got.cif
#   From: 2010.05.17/outbox.cif.g08.bks.cpg/sg2_157_cif.got.tgz:312268.got - 2010.06.03 11:33:40.
