data_PCOD9077773
_publ_section_title
;
Structure prediction by ZEFSAII (Michael W. Deem and Ramdas Pophale) SiO2 
 PCOD9077773
Probable space group: P -1
;
_chemical_formula_sum "Si O2"
_cell_formula_units_Z 16
_cell_length_a 10.047456
_cell_length_b 17.750531
_cell_length_c 11.940302
_cell_angle_alpha 146.249973
_cell_angle_beta 48.563984
_cell_angle_gamma 150.025883
_cell_volume 577.820953
_symmetry_space_group_name_H-M "P -1"
_symmetry_group_IT_number 2
_symmetry_cell_setting 'triclinic'
loop_
_space_group_symop_operation_xyz
x,y,z
-x,-y,-z
loop_
_atom_site_type_symbol
_atom_site_label
_atom_site_fract_x
_atom_site_fract_y
_atom_site_fract_z
Si Si1 0.057085 0.763705 0.278064
Si Si2 0.391841 0.816879 0.577927
Si Si3 0.139352 0.083746 0.753365
Si Si4 0.710024 0.242886 0.186757
Si Si5 0.278729 0.461657 0.167525
Si Si6 0.377562 0.701922 0.090390
Si Si7 0.183867 0.408712 0.425759
Si Si8 0.743220 0.841034 0.861267
O O1 0.179524 0.716392 0.232703
O O2 0.321890 0.941955 0.273855
O O3 0.015350 0.890157 0.507155
O O4 0.792886 0.536722 0.095540
O O5 0.269145 0.720037 0.646776
O O6 0.456305 0.703422 0.357315
O O7 0.143573 0.753742 0.580408
O O8 0.368340 0.144390 0.778060
O O9 0.277147 0.309726 0.929442
O O10 0.876729 0.977524 0.843437
O O11 0.674512 0.376718 0.333157
O O12 0.005095 0.361632 0.138282
O O13 0.500000 0.000000 0.000000
O O14 0.252315 0.425769 0.275224
O O15 0.499816 0.765800 0.975082
O O16 0.280530 0.334070 0.345413
O O17 0.000000 0.000000 0.000000
#
# Coordination Sequence:
#
# PCOD9077773 Si02
#       8
#     2   2   2   2   2   2   2   2
#     4  11  24  41  57  86 124 159 190 236 294 358
#     4   9  19  37  59  79 119 158 183 237 300 338
#     4  11  22  39  64  88 116 154 199 240 291 346
#     4   9  19  34  56  90 115 145 196 247 283 340
#     4   9  18  35  59  86 112 146 198 242 282 345
#     4  10  23  41  59  85 123 153 198 240 288 348
#     4   9  16  34  60  84 112 147 194 241 285 336
#     4  10  18  34  65  87 110 152 193 246 289 329
#
# _framework density 27.690238999999998
#
# number of rings (size 3 to 8) (size 9 to 14) (size 15 to 20)
#    0.000    2.250    2.500    3.375    1.750    2.000 
#    9.000    0.625    0.000    0.000    0.000    0.000 
#    0.000    0.000    0.000    0.000    0.000    0.000 
#
# Total GULP energy -89359.991143 kJ/mol
# GULP energy per Si atom -5584.999446 kJ/mol
# Density = 2.762721 g / cm^3
# Si number density = 27.690239 Si / 1000 Ang^3
#
#
#
# Elastic Constant Matrix: (Units=GPa)
#
#
# Indices 1 2 3 4 5 6 
#
# 1 35.4518 3.3435 35.6411 -4.3887 -16.9532 -4.7148
# 2 3.3435 52.0473 23.3783 17.7319 8.2375 1.9632
# 3 35.6411 23.3783 196.0588 17.0351 -37.4148 -1.0940
# 4 -4.3887 17.7319 17.0351 65.2973 3.1510 -1.4146
# 5 -16.9532 8.2375 -37.4148 3.1510 52.3893 4.3181
# 6 -4.7148 1.9632 -1.0940 -1.4146 4.3181 29.7102
#
#
#
# Elastic Compliance Matrix: (Units=1/GPa)
#
#
# Indices 1 2 3 4 5 6 
#
# 1 0.039454 -0.003203 -0.005522 0.004660 0.008615 0.005239
# 2 -0.003203 0.023756 -0.003004 -0.005604 -0.006455 -0.001517
# 3 -0.005522 -0.003004 0.007399 -0.001710 0.004163 -0.001092
# 4 0.004660 -0.005604 -0.001710 0.017639 -0.000049 0.001894
# 5 0.008615 -0.006455 0.004163 -0.000049 0.026018 -0.001837
# 6 0.005239 -0.001517 -0.001092 0.001894 -0.001837 0.034907
#
#
# Mechanical properties :
#
#
# Convention : Reuss Voigt Hill
#
# Bulk Modulus (GPa) = 21.20768 45.36484 33.28626
# Shear Modulus (GPa) = 26.54637 44.22570 35.38604
#
# Velocity S-wave (km/s) = 3.09963 4.00078 3.57869
# Velocity P-wave (km/s) = 4.52613 6.14493 5.39657
#
# Compressibility (1/GPa) = 0.04715272
#
# Stress axis : x y z
#
# Youngs Moduli (GPa) = 25.34577 42.09377 135.14584
#
# Poissons Ratio (x) = 0.13482 0.74627
# Poissons Ratio (y) = 0.08118 0.40596
# Poissons Ratio (z) = 0.13996 0.12644
#
# Static dielectric constant tensor:
#      x y z
#    x 2.275070 0.024990 -0.048180 
#    y 0.024990 2.269790 -0.085880 
#    z -0.048180 -0.085880 2.328650 
# 
# From -- ./inp_files/283464.got.cif
#   From: 2010.05.17/outbox.cif.g08.bks.cpg/sg2_142_cif.got.tgz:283464.got - 2010.06.03 11:33:40.
