data_PCOD9077697
_publ_section_title
;
Structure prediction by ZEFSAII (Michael W. Deem and Ramdas Pophale) SiO2 
 PCOD9077697
Probable space group: P -1
;
_chemical_formula_sum "Si O2"
_cell_formula_units_Z 16
_cell_length_a 8.713421
_cell_length_b 11.816991
_cell_length_c 17.731828
_cell_angle_alpha 149.949943
_cell_angle_beta 47.499732
_cell_angle_gamma 120.868427
_cell_volume 661.229295
_symmetry_space_group_name_H-M "P -1"
_symmetry_group_IT_number 2
_symmetry_cell_setting 'triclinic'
loop_
_space_group_symop_operation_xyz
x,y,z
-x,-y,-z
loop_
_atom_site_type_symbol
_atom_site_label
_atom_site_fract_x
_atom_site_fract_y
_atom_site_fract_z
Si Si1 0.427436 0.763534 0.703352
Si Si2 0.598600 0.413584 0.821786
Si Si3 0.163602 0.674825 0.050703
Si Si4 0.130391 0.165653 0.377878
Si Si5 0.959225 0.738743 0.370884
Si Si6 0.496469 0.932701 0.617664
Si Si7 0.274631 0.654472 0.434403
Si Si8 0.393200 0.784473 0.886594
O O1 0.500000 0.500000 0.500000
O O2 0.622690 0.862220 0.731789
O O3 0.390878 0.892106 0.709709
O O4 0.285368 0.794201 0.844201
O O5 0.378034 0.588111 0.978914
O O6 0.678583 0.363037 0.680174
O O7 0.812129 0.435552 0.811538
O O8 0.535032 0.188698 0.748834
O O9 0.235613 0.737578 0.979053
O O10 0.000000 0.500000 0.000000
O O11 0.064286 0.918258 0.261984
O O12 0.101751 0.290236 0.539010
O O13 0.976339 0.313174 0.455205
O O14 0.725482 0.761263 0.425133
O O15 0.000000 0.000000 0.500000
O O16 0.343294 0.880195 0.573743
O O17 0.416731 0.439388 0.303855
O O18 0.500000 0.000000 0.000000
#
# Coordination Sequence:
#
# PCOD9077697 Si02
#       8
#     2   2   2   2   2   2   2   2
#     4  11  22  42  66  97 130 180 231 278 339 401
#     4   9  19  36  60  94 130 173 224 274 340 399
#     4  11  23  40  66 100 136 175 229 284 339 392
#     4  10  21  39  64  94 132 176 228 276 332 405
#     4   8  17  33  56  86 123 165 210 271 325 389
#     4  10  18  34  62  96 130 164 226 283 329 397
#     4  10  20  36  67  97 125 176 231 276 328 409
#     4  11  23  44  68  95 135 182 225 279 340 407
#
# _framework density 24.197354000000001
#
# number of rings (size 3 to 8) (size 9 to 14) (size 15 to 20)
#    0.000    2.000    2.500    1.125    0.000    5.500 
#    0.000    5.625    0.000   12.750    0.000    0.000 
#    0.000    0.000    0.000    0.000    0.000    0.000 
#
# Total GULP energy -89147.825091 kJ/mol
# GULP energy per Si atom -5571.739068 kJ/mol
# Density = 2.414228 g / cm^3
# Si number density = 24.197354 Si / 1000 Ang^3
#
#
#
# Elastic Constant Matrix: (Units=GPa)
#
#
# Indices 1 2 3 4 5 6 
#
# 1 97.0812 9.7586 20.1971 -10.3524 -13.1482 3.1177
# 2 9.7586 96.7223 14.3917 5.1124 5.9742 -4.4346
# 3 20.1971 14.3917 55.0746 -0.8684 3.6947 -1.4828
# 4 -10.3524 5.1124 -0.8684 30.0848 -4.1566 6.3989
# 5 -13.1482 5.9742 3.6947 -4.1566 36.0676 4.0593
# 6 3.1177 -4.4346 -1.4828 6.3989 4.0593 32.2035
#
#
#
# Elastic Compliance Matrix: (Units=1/GPa)
#
#
# Indices 1 2 3 4 5 6 
#
# 1 0.013190 -0.001533 -0.004890 0.006404 0.006733 -0.003834
# 2 -0.001533 0.011304 -0.002180 -0.003480 -0.002909 0.002663
# 3 -0.004890 -0.002180 0.020813 -0.001678 -0.003968 0.001965
# 4 0.006404 -0.003480 -0.001678 0.039343 0.008753 -0.010097
# 5 0.006733 -0.002909 -0.003968 0.008753 0.032878 -0.007119
# 6 -0.003834 0.002663 0.001965 -0.010097 -0.007119 0.034785
#
#
# Mechanical properties :
#
#
# Convention : Reuss Voigt Hill
#
# Bulk Modulus (GPa) = 35.58710 37.50810 36.54760
# Shear Modulus (GPa) = 27.95084 33.30655 30.62869
#
# Velocity S-wave (km/s) = 3.40239 3.71408 3.56165
# Velocity P-wave (km/s) = 5.49308 5.82470 5.66132
#
# Compressibility (1/GPa) = 0.02810007
#
# Stress axis : x y z
#
# Youngs Moduli (GPa) = 75.81437 88.46786 48.04735
#
# Poissons Ratio (x) = 0.13565 0.23497
# Poissons Ratio (y) = 0.11625 0.10472
# Poissons Ratio (z) = 0.37076 0.19282
#
# Static dielectric constant tensor:
#      x y z
#    x 1.989120 0.015490 -0.054420 
#    y 0.015490 2.046740 -0.094030 
#    z -0.054420 -0.094030 2.012220 
# 
# From -- ./inp_files/560119.got.cif
#   From: 2010.05.17/outbox.cif.g08.bks.cpg/sg2_281_cif.got.tgz:560119.got - 2010.06.03 11:33:40.
