data_PCOD9077216
_publ_section_title
;
Structure prediction by ZEFSAII (Michael W. Deem and Ramdas Pophale) SiO2 
 PCOD9077216
Probable space group: P -1
;
_chemical_formula_sum "Si O2"
_cell_formula_units_Z 16
_cell_length_a 10.720761
_cell_length_b 7.739154
_cell_length_c 12.008064
_cell_angle_alpha 133.502601
_cell_angle_beta 87.438576
_cell_angle_gamma 75.198300
_cell_volume 663.226999
_symmetry_space_group_name_H-M "P -1"
_symmetry_group_IT_number 2
_symmetry_cell_setting 'triclinic'
loop_
_space_group_symop_operation_xyz
x,y,z
-x,-y,-z
loop_
_atom_site_type_symbol
_atom_site_label
_atom_site_fract_x
_atom_site_fract_y
_atom_site_fract_z
Si Si1 0.152404 0.801071 0.033776
Si Si2 0.468329 0.053468 0.190258
Si Si3 0.685892 0.529104 0.920646
Si Si4 0.278984 0.804035 0.809406
Si Si5 0.469103 0.225692 0.512319
Si Si6 0.072831 0.949530 0.676926
Si Si7 0.974194 0.510353 0.873924
Si Si8 0.294380 0.592270 0.366197
O O1 0.268169 0.589643 0.011487
O O2 0.216855 0.896930 0.974189
O O3 0.059123 0.678977 0.914031
O O4 0.062229 0.997866 0.220641
O O5 0.595095 0.121937 0.182847
O O6 0.443226 0.113311 0.347515
O O7 0.347564 0.280961 0.234553
O O8 0.533538 0.748202 0.027441
O O9 0.697337 0.338660 0.732848
O O10 0.812710 0.607178 0.914592
O O11 0.341651 0.489179 0.664958
O O12 0.177913 0.914038 0.758568
O O13 0.598944 0.308489 0.533741
O O14 0.500000 0.000000 0.500000
O O15 0.149842 0.714010 0.486862
O O16 0.041513 0.202867 0.712077
O O17 0.000000 0.500000 0.000000
#
# Coordination Sequence:
#
# PCOD9077216 Si02
#       8
#     2   2   2   2   2   2   2   2
#     4  10  21  34  60  90 115 157 198 236 282 344
#     4  11  20  40  60  86 114 157 196 233 291 355
#     4  10  21  38  59  86 121 155 192 242 290 343
#     4  11  19  35  60  88 115 146 202 242 280 337
#     4  11  23  37  62  88 112 153 196 245 285 346
#     4  10  18  34  57  83 119 146 195 236 289 337
#     4   8  18  33  56  84 110 153 196 228 277 338
#     4  11  22  37  60  91 118 154 190 239 304 339
#
# _framework density 24.124471
#
# number of rings (size 3 to 8) (size 9 to 14) (size 15 to 20)
#    0.000    2.000    2.500    4.500    1.750    2.000 
#    0.000    6.875    0.000    1.500    0.000    0.000 
#    0.000    0.000    0.000    0.000    0.000    0.000 
#
# Total GULP energy -89253.532792 kJ/mol
# GULP energy per Si atom -5578.345800 kJ/mol
# Density = 2.406956 g / cm^3
# Si number density = 24.124471 Si / 1000 Ang^3
#
#
#
# Elastic Constant Matrix: (Units=GPa)
#
#
# Indices 1 2 3 4 5 6 
#
# 1 42.5853 30.1232 14.8521 5.4091 -9.8712 -3.9983
# 2 30.1232 110.1219 36.7374 1.7421 -14.7883 -11.9244
# 3 14.8521 36.7374 105.1288 5.0124 -23.8700 -14.0305
# 4 5.4091 1.7421 5.0124 42.0469 -14.9682 -9.3862
# 5 -9.8712 -14.7883 -23.8700 -14.9682 27.8252 -3.0491
# 6 -3.9983 -11.9244 -14.0305 -9.3862 -3.0491 30.0034
#
#
#
# Elastic Compliance Matrix: (Units=1/GPa)
#
#
# Indices 1 2 3 4 5 6 
#
# 1 0.030402 -0.007242 -0.000014 -0.000912 0.006604 0.001552
# 2 -0.007242 0.012833 -0.001803 0.003549 0.005153 0.004926
# 3 -0.000014 -0.001803 0.014841 0.006278 0.016223 0.009834
# 4 -0.000912 0.003549 0.006278 0.037672 0.029294 0.018987
# 5 0.006604 0.005153 0.016223 0.029294 0.073672 0.027166
# 6 0.001552 0.004926 0.009834 0.018987 0.027166 0.048793
#
#
# Mechanical properties :
#
#
# Convention : Reuss Voigt Hill
#
# Bulk Modulus (GPa) = 25.02701 46.80681 35.91691
# Shear Modulus (GPa) = 20.02795 31.71664 25.87230
#
# Velocity S-wave (km/s) = 2.88443 3.62982 3.27838
# Velocity P-wave (km/s) = 4.63572 6.08374 5.40841
#
# Compressibility (1/GPa) = 0.03995684
#
# Stress axis : x y z
#
# Youngs Moduli (GPa) = 32.89207 77.92584 67.38187
#
# Poissons Ratio (x) = 0.56437 0.00096
# Poissons Ratio (y) = 0.23822 0.12149
# Poissons Ratio (z) = 0.00047 0.14050
#
# Static dielectric constant tensor:
#      x y z
#    x 2.067920 0.084990 0.082360 
#    y 0.084990 2.035440 0.125260 
#    z 0.082360 0.125260 2.007130 
# 
# From -- ./inp_files/446411.got.cif
#   From: 2010.05.17/outbox.cif.g08.bks.cpg/sg2_224_cif.got.tgz:446411.got - 2010.06.03 11:33:40.
