data_PCOD9077977
_publ_section_title
;
Structure prediction by ZEFSAII (Michael W. Deem and Ramdas Pophale) SiO2 
 PCOD9077977
Probable space group: P -1
;
_chemical_formula_sum "Si O2"
_cell_formula_units_Z 16
_cell_length_a 8.169146
_cell_length_b 14.135910
_cell_length_c 13.961013
_cell_angle_alpha 31.329581
_cell_angle_beta 88.321764
_cell_angle_gamma 70.814552
_cell_volume 680.084948
_symmetry_space_group_name_H-M "P -1"
_symmetry_group_IT_number 2
_symmetry_cell_setting 'triclinic'
loop_
_space_group_symop_operation_xyz
x,y,z
-x,-y,-z
loop_
_atom_site_type_symbol
_atom_site_label
_atom_site_fract_x
_atom_site_fract_y
_atom_site_fract_z
Si Si1 0.191858 0.386214 0.991139
Si Si2 0.274167 0.518564 0.693963
Si Si3 0.613907 0.529381 0.593696
Si Si4 0.949850 0.259672 0.978379
Si Si5 0.208240 0.933761 0.097551
Si Si6 0.849442 0.875081 0.643137
Si Si7 0.923589 0.980966 0.362763
Si Si8 0.232863 0.301636 0.696412
O O1 0.330466 0.386138 0.907890
O O2 0.032044 0.366773 0.950676
O O3 0.061651 0.630528 0.831175
O O4 0.276508 0.191611 0.237261
O O5 0.419811 0.589395 0.602668
O O6 0.272330 0.377404 0.730020
O O7 0.046902 0.740945 0.517492
O O8 0.796985 0.424039 0.757614
O O9 0.620796 0.708689 0.377274
O O10 0.663353 0.329746 0.693188
O O11 0.143267 0.045487 0.106538
O O12 0.844891 0.172174 0.120046
O O13 0.269226 0.066301 0.917820
O O14 0.000000 0.000000 0.000000
O O15 0.906966 0.009606 0.591106
O O16 0.783556 0.990428 0.440524
O O17 0.000000 0.500000 0.500000
#
# Coordination Sequence:
#
# PCOD9077977 Si02
#       8
#     2   2   2   2   2   2   2   2
#     4   9  16  33  58  80 109 139 187 230 278 338
#     4  11  22  36  55  85 116 148 181 236 286 326
#     4  11  24  38  53  85 121 152 186 234 282 323
#     4  10  18  35  57  80 106 151 194 227 265 333
#     4  10  20  36  57  79 111 154 193 231 263 324
#     4   8  16  31  56  85 101 136 187 236 274 327
#     4   9  18  32  59  82 107 139 188 233 276 338
#     4  12  21  38  59  81 113 156 197 230 267 323
#
# _framework density 23.526471000000001
#
# number of rings (size 3 to 8) (size 9 to 14) (size 15 to 20)
#    0.000    2.000    3.750    1.125    1.750    0.500 
#    4.500    0.000    0.000   28.500    0.000    0.000 
#    0.000    0.000    0.000    0.000    0.000    0.000 
#
# Total GULP energy -89404.055825 kJ/mol
# GULP energy per Si atom -5587.753489 kJ/mol
# Density = 2.347292 g / cm^3
# Si number density = 23.526471 Si / 1000 Ang^3
#
#
#
# Elastic Constant Matrix: (Units=GPa)
#
#
# Indices 1 2 3 4 5 6 
#
# 1 67.1280 24.3588 31.3140 6.0756 -18.0279 -12.6946
# 2 24.3588 96.3317 39.4605 23.7668 -12.6687 -1.6636
# 3 31.3140 39.4605 145.3817 37.6543 -39.8961 -9.5932
# 4 6.0756 23.7668 37.6543 49.4757 -16.2314 -23.1908
# 5 -18.0279 -12.6687 -39.8961 -16.2314 39.1786 5.1045
# 6 -12.6946 -1.6636 -9.5932 -23.1908 5.1045 19.4171
#
#
#
# Elastic Compliance Matrix: (Units=1/GPa)
#
#
# Indices 1 2 3 4 5 6 
#
# 1 0.035876 -0.014042 -0.006914 0.044005 0.014348 0.067622
# 2 -0.014042 0.019201 0.001054 -0.029123 -0.006005 -0.040219
# 3 -0.006914 0.001054 0.012645 -0.016482 0.005732 -0.019375
# 4 0.044005 -0.029123 -0.016482 0.124778 0.024813 0.160637
# 5 0.014348 -0.006005 0.005732 0.024813 0.042367 0.030195
# 6 0.067622 -0.040219 -0.019375 0.160637 0.030195 0.266612
#
#
# Mechanical properties :
#
#
# Convention : Reuss Voigt Hill
#
# Bulk Modulus (GPa) = 35.81876 55.45643 45.63760
# Shear Modulus (GPa) = 9.08121 35.86150 22.47135
#
# Velocity S-wave (km/s) = 1.96682 3.90847 3.09391
# Velocity P-wave (km/s) = 4.51838 6.63259 5.67481
#
# Compressibility (1/GPa) = 0.02791833
#
# Stress axis : x y z
#
# Youngs Moduli (GPa) = 27.87382 52.08156 79.08307
#
# Poissons Ratio (x) = 0.73132 0.54679
# Poissons Ratio (y) = 0.39140 -0.08337
# Poissons Ratio (z) = 0.19272 -0.05491
#
# Static dielectric constant tensor:
#      x y z
#    x 1.845830 0.024270 -0.051740 
#    y 0.024270 1.786700 0.151550 
#    z -0.051740 0.151550 1.865590 
# 
# From -- ./inp_files/207226.got.cif
#   From: 2010.05.17/outbox.cif.g08.bks.cpg/sg2_104_cif.got.tgz:207226.got - 2010.06.03 11:33:40.
