data_PCOD9077979
_publ_section_title
;
Structure prediction by ZEFSAII (Michael W. Deem and Ramdas Pophale) SiO2 
 PCOD9077979
Probable space group: P -1
;
_chemical_formula_sum "Si O2"
_cell_formula_units_Z 16
_cell_length_a 15.225646
_cell_length_b 20.721992
_cell_length_c 7.047234
_cell_angle_alpha 94.354383
_cell_angle_beta 94.684093
_cell_angle_gamma 159.332288
_cell_volume 704.997596
_symmetry_space_group_name_H-M "P -1"
_symmetry_group_IT_number 2
_symmetry_cell_setting 'triclinic'
loop_
_space_group_symop_operation_xyz
x,y,z
-x,-y,-z
loop_
_atom_site_type_symbol
_atom_site_label
_atom_site_fract_x
_atom_site_fract_y
_atom_site_fract_z
Si Si1 0.682325 0.393161 0.828348
Si Si2 0.875702 0.259979 0.263274
Si Si3 0.589169 0.664976 0.355145
Si Si4 0.191494 0.454056 0.750457
Si Si5 0.723577 0.957154 0.596417
Si Si6 0.681948 0.054788 0.836521
Si Si7 0.067009 0.025485 0.224253
Si Si8 0.371243 0.436638 0.766992
O O1 0.618142 0.420721 0.737581
O O2 0.464173 0.192208 0.651264
O O3 0.981262 0.590768 0.828819
O O4 0.675721 0.398850 0.055135
O O5 0.589811 0.090554 0.250318
O O6 0.074392 0.389675 0.508730
O O7 0.793407 0.140262 0.091992
O O8 0.484269 0.519127 0.322438
O O9 0.795681 0.818758 0.248766
O O10 0.781106 0.812787 0.599647
O O11 0.379747 0.520286 0.776649
O O12 0.925909 0.249995 0.786581
O O13 0.619671 0.941459 0.711544
O O14 0.743274 0.905494 0.711215
O O15 0.038730 0.193059 0.642575
O O16 0.000000 0.000000 0.000000
O O17 0.500000 0.500000 0.000000
#
# Coordination Sequence:
#
# PCOD9077979 Si02
#       8
#     2   2   2   2   2   2   2   2
#     4  10  20  36  53  81 118 145 181 227 283 329
#     4  10  21  37  60  85 105 148 188 229 282 333
#     4   9  18  33  50  74 112 143 174 218 269 314
#     4  10  20  36  60  82 111 145 191 228 273 334
#     4   9  20  36  56  80 112 148 180 229 284 324
#     4   9  20  40  60  79 114 141 185 239 279 322
#     4   9  18  32  53  78 105 143 182 214 264 326
#     4  10  18  35  57  80 108 152 185 222 274 322
#
# _framework density 22.695112999999999
#
# number of rings (size 3 to 8) (size 9 to 14) (size 15 to 20)
#    0.000    2.500    1.250    1.125    0.000    3.500 
#    0.000    3.750    0.000    0.000    0.000    0.000 
#    0.000    0.000    0.000    0.000    0.000    0.000 
#
# Total GULP energy -89186.863942 kJ/mol
# GULP energy per Si atom -5574.178996 kJ/mol
# Density = 2.264346 g / cm^3
# Si number density = 22.695113 Si / 1000 Ang^3
#
#
#
# Elastic Constant Matrix: (Units=GPa)
#
#
# Indices 1 2 3 4 5 6 
#
# 1 58.8894 6.7970 47.6724 2.2491 -33.2672 9.7071
# 2 6.7970 67.1424 17.7542 -0.9695 -7.4507 12.2031
# 3 47.6724 17.7542 196.5021 7.9395 -19.2584 -16.3748
# 4 2.2491 -0.9695 7.9395 40.2637 -6.3956 -2.2096
# 5 -33.2672 -7.4507 -19.2584 -6.3956 37.4372 2.6324
# 6 9.7071 12.2031 -16.3748 -2.2096 2.6324 18.4086
#
#
#
# Elastic Compliance Matrix: (Units=1/GPa)
#
#
# Indices 1 2 3 4 5 6 
#
# 1 0.124501 0.032759 -0.033724 0.010866 0.110937 -0.131925
# 2 0.032759 0.027383 -0.011516 0.003563 0.032755 -0.049926
# 3 -0.033724 -0.011516 0.015256 -0.003514 -0.028005 0.042570
# 4 0.010866 0.003563 -0.003514 0.026654 0.013813 -0.009993
# 5 0.110937 0.032755 -0.028005 0.013813 0.128329 -0.121815
# 6 -0.131925 -0.049926 0.042570 -0.009993 -0.121815 0.211071
#
#
# Mechanical properties :
#
#
# Convention : Reuss Voigt Hill
#
# Bulk Modulus (GPa) = 7.03351 51.88679 29.46015
# Shear Modulus (GPa) = 8.25699 35.90924 22.08312
#
# Velocity S-wave (km/s) = 1.90948 3.98206 3.12273
# Velocity P-wave (km/s) = 2.82265 6.63736 5.10009
#
# Compressibility (1/GPa) = 0.14217653
#
# Stress axis : x y z
#
# Youngs Moduli (GPa) = 8.03207 36.51951 65.54848
#
# Poissons Ratio (x) = -1.19633 2.21058
# Poissons Ratio (y) = -0.26312 0.75483
# Poissons Ratio (z) = 0.27088 0.42055
#
# Static dielectric constant tensor:
#      x y z
#    x 1.934460 -0.000830 -0.083610 
#    y -0.000830 1.901590 0.025980 
#    z -0.083610 0.025980 1.917690 
# 
# From -- ./inp_files/113166.got.cif
#   From: 2010.05.17/outbox.cif.g08.bks.cpg/sg2_57_cif.got.tgz:113166.got - 2010.06.03 11:33:40.
