data_PCOD9077643
_publ_section_title
;
Structure prediction by ZEFSAII (Michael W. Deem and Ramdas Pophale) SiO2 
 PCOD9077643
Probable space group: P -1
;
_chemical_formula_sum "Si O2"
_cell_formula_units_Z 14
_cell_length_a 9.661606
_cell_length_b 20.645992
_cell_length_c 9.208364
_cell_angle_alpha 38.181286
_cell_angle_beta 134.140407
_cell_angle_gamma 142.161106
_cell_volume 682.528584
_symmetry_space_group_name_H-M "P -1"
_symmetry_group_IT_number 2
_symmetry_cell_setting 'triclinic'
loop_
_space_group_symop_operation_xyz
x,y,z
-x,-y,-z
loop_
_atom_site_type_symbol
_atom_site_label
_atom_site_fract_x
_atom_site_fract_y
_atom_site_fract_z
Si Si1 0.909491 0.366974 0.590044
Si Si2 0.871615 0.140243 0.580947
Si Si3 0.896446 0.501382 0.076938
Si Si4 0.803760 0.716500 0.189864
Si Si5 0.348334 0.710393 0.196944
Si Si6 0.432155 0.144193 0.182629
Si Si7 0.328002 0.382175 0.425064
O O1 0.843076 0.388952 0.342463
O O2 0.706286 0.265681 0.724217
O O3 0.000000 0.500000 0.500000
O O4 0.101430 0.333925 0.771884
O O5 0.661871 0.159642 0.385400
O O6 0.974055 0.166990 0.771111
O O7 0.089575 0.246618 0.460975
O O8 0.771521 0.000452 0.701992
O O9 0.104011 0.625554 0.087241
O O10 0.689492 0.517920 0.856378
O O11 0.000000 0.500000 0.000000
O O12 0.696306 0.615325 0.421743
O O13 0.636773 0.765261 0.957188
O O14 0.461253 0.629352 0.436788
O O15 0.513442 0.818859 0.013719
#
# Coordination Sequence:
#
# PCOD9077643 Si02
#       7
#     2   2   2   2   2   2   2
#     4  10  22  38  53  79 118 147 183 228 281 317
#     4   9  18  33  61  87 106 136 189 231 268 323
#     4  11  19  37  56  76 108 148 188 232 263 322
#     4   9  18  35  54  81 108 145 182 225 263 337
#     4  10  21  35  54  83 111 144 177 234 278 326
#     4  10  18  34  62  83 108 142 184 229 277 321
#     4   9  19  33  58  82 106 140 190 223 267 333
#
# _framework density 20.511962
#
# number of rings (size 3 to 8) (size 9 to 14) (size 15 to 20)
#    0.857    1.429    2.857    0.429    0.000    1.143 
#    2.571    3.571    0.000    1.714    0.000    0.000 
#    0.000    0.000    0.000    0.000    0.000    0.000 
#
# Total GULP energy -78036.024730 kJ/mol
# GULP energy per Si atom -5574.001766 kJ/mol
# Density = 2.046528 g / cm^3
# Si number density = 20.511962 Si / 1000 Ang^3
#
#
#
# Elastic Constant Matrix: (Units=GPa)
#
#
# Indices 1 2 3 4 5 6 
#
# 1 124.7957 2.9299 41.2763 -6.1112 13.5096 -9.4285
# 2 2.9299 54.8538 10.5527 -9.5460 6.5729 -1.9687
# 3 41.2763 10.5527 106.2739 2.6339 22.7640 -3.6751
# 4 -6.1112 -9.5460 2.6339 27.5120 2.6436 1.8557
# 5 13.5096 6.5729 22.7640 2.6436 40.9396 3.0020
# 6 -9.4285 -1.9687 -3.6751 1.8557 3.0020 15.4049
#
#
#
# Elastic Compliance Matrix: (Units=1/GPa)
#
#
# Indices 1 2 3 4 5 6 
#
# 1 0.009877 0.001043 -0.003361 0.002714 -0.002134 0.005466
# 2 0.001043 0.020331 -0.001825 0.007605 -0.003270 0.002523
# 3 -0.003361 -0.001825 0.012165 -0.002158 -0.005363 0.001917
# 4 0.002714 0.007605 -0.002158 0.040259 -0.003364 -0.002076
# 5 -0.002134 -0.003270 -0.005363 -0.003364 0.029466 -0.008340
# 6 0.005466 0.002523 0.001917 -0.002076 -0.008340 0.070915
#
#
# Mechanical properties :
#
#
# Convention : Reuss Voigt Hill
#
# Bulk Modulus (GPa) = 29.33572 43.93791 36.63682
# Shear Modulus (GPa) = 24.67166 32.18227 28.42697
#
# Velocity S-wave (km/s) = 3.47189 3.96530 3.72677
# Velocity P-wave (km/s) = 5.51406 6.51398 6.03477
#
# Compressibility (1/GPa) = 0.03408813
#
# Stress axis : x y z
#
# Youngs Moduli (GPa) = 101.24424 49.18489 82.20423
#
# Poissons Ratio (x) = -0.05131 0.27628
# Poissons Ratio (y) = -0.10562 0.15001
# Poissons Ratio (z) = 0.34028 0.08976
#
# Static dielectric constant tensor:
#      x y z
#    x 1.741480 0.007240 -0.019790 
#    y 0.007240 1.813200 0.020720 
#    z -0.019790 0.020720 1.798490 
# 
# From -- ./inp_files/219234.got.cif
#   From: 2010.05.17/outbox.cif.g08.bks.cpg/sg2_110_cif.got.tgz:219234.got - 2010.06.03 11:33:40.
