data_PCOD9077047
_publ_section_title
;
Structure prediction by ZEFSAII (Michael W. Deem and Ramdas Pophale) SiO2 
 PCOD9077047
Probable space group: P -1
;
_chemical_formula_sum "Si O2"
_cell_formula_units_Z 16
_cell_length_a 10.983225
_cell_length_b 10.812098
_cell_length_c 13.374084
_cell_angle_alpha 67.296441
_cell_angle_beta 78.849935
_cell_angle_gamma 133.368790
_cell_volume 777.381689
_symmetry_space_group_name_H-M "P -1"
_symmetry_group_IT_number 2
_symmetry_cell_setting 'triclinic'
loop_
_space_group_symop_operation_xyz
x,y,z
-x,-y,-z
loop_
_atom_site_type_symbol
_atom_site_label
_atom_site_fract_x
_atom_site_fract_y
_atom_site_fract_z
Si Si1 0.864759 0.003531 0.815590
Si Si2 0.626354 0.342315 0.022077
Si Si3 0.980438 0.552910 0.378015
Si Si4 0.534018 0.904422 0.382866
Si Si5 0.842326 0.418191 0.141563
Si Si6 0.150181 0.928319 0.990374
Si Si7 0.452021 0.887364 0.164439
Si Si8 0.927153 0.079943 0.229028
O O1 0.590402 0.758227 0.924218
O O2 0.909443 0.034408 0.918286
O O3 0.947333 0.225148 0.697521
O O4 0.990161 0.995875 0.743478
O O5 0.659042 0.341766 0.135217
O O6 0.568952 0.140573 0.051662
O O7 0.863993 0.630213 0.864075
O O8 0.000000 0.500000 0.500000
O O9 0.184779 0.662370 0.253207
O O10 0.715719 0.312463 0.462287
O O11 0.710174 0.182772 0.293068
O O12 0.486675 0.886984 0.277273
O O13 0.686066 0.908416 0.368070
O O14 0.000000 0.500000 0.000000
O O15 0.995937 0.654655 0.108431
O O16 0.409165 0.109065 0.905978
O O17 0.109694 0.937638 0.880234
#
# Coordination Sequence:
#
# PCOD9077047 Si02
#       8
#     2   2   2   2   2   2   2   2
#     4  11  22  30  46  77 105 130 164 202 246 293
#     4   9  16  29  48  72  96 122 163 206 238 283
#     4   9  19  32  47  70  99 129 167 209 243 285
#     4   9  15  29  52  68  91 130 169 196 232 291
#     4  10  14  31  55  73  92 128 165 203 252 292
#     4  10  18  31  51  76 104 127 154 207 260 288
#     4   8  14  29  49  73  95 121 157 207 251 284
#     4  10  18  32  50  71 102 134 163 198 244 298
#
# _framework density 20.581911000000002
#
# number of rings (size 3 to 8) (size 9 to 14) (size 15 to 20)
#    0.000    2.500    5.000    1.500    0.000    2.500 
#    0.000    0.625    0.000    0.000    0.000    0.000 
#    0.000   36.000    0.000    0.000    0.000    0.000 
#
# Total GULP energy -89145.401338 kJ/mol
# GULP energy per Si atom -5571.587584 kJ/mol
# Density = 2.053507 g / cm^3
# Si number density = 20.581911 Si / 1000 Ang^3
#
#
#
# Elastic Constant Matrix: (Units=GPa)
#
#
# Indices 1 2 3 4 5 6 
#
# 1 109.9437 19.8787 38.9711 -18.9944 -28.3476 -4.9911
# 2 19.8787 32.0794 17.1806 0.9381 -17.5517 1.0751
# 3 38.9711 17.1806 77.5436 -17.4105 -26.6027 -2.4118
# 4 -18.9944 0.9381 -17.4105 22.6443 13.4974 1.1130
# 5 -28.3476 -17.5517 -26.6027 13.4974 35.7345 1.9810
# 6 -4.9911 1.0751 -2.4118 1.1130 1.9810 27.7317
#
#
#
# Elastic Compliance Matrix: (Units=1/GPa)
#
#
# Indices 1 2 3 4 5 6 
#
# 1 0.013123 -0.005386 -0.002711 0.007345 0.002871 0.001835
# 2 -0.005386 0.054627 -0.005933 -0.028499 0.029158 -0.004542
# 3 -0.002711 -0.005933 0.019813 0.009579 0.006031 0.000650
# 4 0.007345 -0.028499 0.009579 0.076724 -0.030149 0.002334
# 5 0.002871 0.029158 0.006031 -0.030149 0.060638 -0.003211
# 6 0.001835 -0.004542 0.000650 0.002334 -0.003211 0.036758
#
#
# Mechanical properties :
#
#
# Convention : Reuss Voigt Hill
#
# Bulk Modulus (GPa) = 16.80603 41.29195 29.04899
# Shear Modulus (GPa) = 16.15108 26.79117 21.47112
#
# Velocity S-wave (km/s) = 2.80433 3.61180 3.23337
# Velocity P-wave (km/s) = 4.32074 6.12367 5.29944
#
# Compressibility (1/GPa) = 0.05950246
#
# Stress axis : x y z
#
# Youngs Moduli (GPa) = 76.20434 18.30606 50.47222
#
# Poissons Ratio (x) = 0.09859 0.13682
# Poissons Ratio (y) = 0.41041 0.29948
# Poissons Ratio (z) = 0.20657 0.10862
#
# Static dielectric constant tensor:
#      x y z
#    x 1.766080 0.023640 -0.014580 
#    y 0.023640 1.769670 0.003780 
#    z -0.014580 0.003780 1.769830 
# 
# From -- ./inp_files/567994.got.cif
#   From: 2010.05.17/outbox.cif.g08.bks.cpg/sg2_284_cif.got.tgz:567994.got - 2010.06.03 11:33:40.
