data_PCOD9077237
_publ_section_title
;
Structure prediction by ZEFSAII (Michael W. Deem and Ramdas Pophale) SiO2 
 PCOD9077237
Probable space group: P -1
;
_chemical_formula_sum "Si O2"
_cell_formula_units_Z 16
_cell_length_a 11.347744
_cell_length_b 16.796184
_cell_length_c 9.772568
_cell_angle_alpha 143.995587
_cell_angle_beta 110.443730
_cell_angle_gamma 47.715543
_cell_volume 724.065259
_symmetry_space_group_name_H-M "P -1"
_symmetry_group_IT_number 2
_symmetry_cell_setting 'triclinic'
loop_
_space_group_symop_operation_xyz
x,y,z
-x,-y,-z
loop_
_atom_site_type_symbol
_atom_site_label
_atom_site_fract_x
_atom_site_fract_y
_atom_site_fract_z
Si Si1 0.626571 0.566712 0.801806
Si Si2 0.692293 0.820015 0.669685
Si Si3 0.766810 0.215888 0.050816
Si Si4 0.203493 0.883349 0.378322
Si Si5 0.065353 0.129585 0.169714
Si Si6 0.507548 0.134829 0.606259
Si Si7 0.389530 0.277554 0.250551
Si Si8 0.684859 0.229714 0.429953
O O1 0.429268 0.668290 0.816345
O O2 0.691428 0.616462 0.778955
O O3 0.725894 0.351642 0.571657
O O4 0.587612 0.680383 0.081029
O O5 0.864566 0.775312 0.639962
O O6 0.605349 0.799551 0.485688
O O7 0.728298 0.704653 0.658387
O O8 0.541385 0.049395 0.958496
O O9 0.864405 0.268023 0.229919
O O10 0.764315 0.223879 0.897508
O O11 0.883437 0.002037 0.862112
O O12 0.291551 0.962791 0.480825
O O13 0.308116 0.775261 0.410526
O O14 0.000000 0.000000 0.500000
O O15 0.175116 0.978543 0.875808
O O16 0.500000 0.000000 0.500000
O O17 0.494836 0.319630 0.426233
#
# Coordination Sequence:
#
# PCOD9077237 Si02
#       8
#     2   2   2   2   2   2   2   2
#     4  11  22  36  59  90 115 154 192 243 297 344
#     4  10  18  34  57  85 113 149 197 240 279 342
#     4  10  20  35  55  89 117 146 197 239 291 335
#     4  11  22  37  59  90 117 157 195 245 297 346
#     4  10  20  36  60  90 112 151 193 245 290 343
#     4  11  21  37  57  90 120 152 197 246 288 351
#     4  10  19  33  55  86 114 145 193 240 280 338
#     4  11  21  37  57  88 120 150 192 242 298 351
#
# _framework density 22.097456000000001
#
# number of rings (size 3 to 8) (size 9 to 14) (size 15 to 20)
#    0.000    1.500    6.250    1.125    0.000    2.000 
#    0.000    0.000    0.000    1.500    9.750    0.000 
#    0.000    0.000    0.000    0.000    0.000    0.000 
#
# Total GULP energy -89293.946223 kJ/mol
# GULP energy per Si atom -5580.871639 kJ/mol
# Density = 2.204716 g / cm^3
# Si number density = 22.097456 Si / 1000 Ang^3
#
#
#
# Elastic Constant Matrix: (Units=GPa)
#
#
# Indices 1 2 3 4 5 6 
#
# 1 120.4324 27.7074 26.6174 -10.6133 14.1963 4.8209
# 2 27.7074 84.9986 32.5644 -32.4828 -2.6538 16.1688
# 3 26.6174 32.5644 83.8074 -18.5271 10.2572 1.1769
# 4 -10.6133 -32.4828 -18.5271 31.2832 -1.7961 2.3083
# 5 14.1963 -2.6538 10.2572 -1.7961 30.5123 -6.1241
# 6 4.8209 16.1688 1.1769 2.3083 -6.1241 43.9079
#
#
#
# Elastic Compliance Matrix: (Units=1/GPa)
#
#
# Indices 1 2 3 4 5 6 
#
# 1 0.009806 -0.002980 -0.001615 -0.000941 -0.004436 -0.000505
# 2 -0.002980 0.025372 -0.004038 0.023902 0.004442 -0.009545
# 3 -0.001615 -0.004038 0.015470 0.004134 -0.004475 0.000408
# 4 -0.000941 0.023902 0.004134 0.059905 0.002318 -0.011635
# 5 -0.004436 0.004442 -0.004475 0.002318 0.037689 0.004106
# 6 -0.000505 -0.009545 0.000408 -0.011635 0.004106 0.027519
#
#
# Mechanical properties :
#
#
# Convention : Reuss Voigt Hill
#
# Bulk Modulus (GPa) = 29.95543 51.44630 40.70086
# Shear Modulus (GPa) = 24.49157 34.63063 29.56110
#
# Velocity S-wave (km/s) = 3.33279 3.96305 3.66151
# Velocity P-wave (km/s) = 5.32874 6.65381 6.02779
#
# Compressibility (1/GPa) = 0.03338293
#
# Stress axis : x y z
#
# Youngs Moduli (GPa) = 101.97843 39.41411 64.64211
#
# Poissons Ratio (x) = 0.11745 0.10437
# Poissons Ratio (y) = 0.30388 0.26101
# Poissons Ratio (z) = 0.16465 0.15915
#
# Static dielectric constant tensor:
#      x y z
#    x 1.867980 0.011300 -0.011960 
#    y 0.011300 1.825040 0.038500 
#    z -0.011960 0.038500 1.825110 
# 
# From -- ./inp_files/274713.got.cif
#   From: 2010.05.17/outbox.cif.g08.bks.cpg/sg2_138_cif.got.tgz:274713.got - 2010.06.03 11:33:40.
