data_PCOD9077588
_publ_section_title
;
Structure prediction by ZEFSAII (Michael W. Deem and Ramdas Pophale) SiO2 
 PCOD9077588
Probable space group: P -1
;
_chemical_formula_sum "Si O2"
_cell_formula_units_Z 16
_cell_length_a 8.882456
_cell_length_b 8.013309
_cell_length_c 17.907381
_cell_angle_alpha 44.357838
_cell_angle_beta 117.041787
_cell_angle_gamma 130.749404
_cell_volume 674.917303
_symmetry_space_group_name_H-M "P -1"
_symmetry_group_IT_number 2
_symmetry_cell_setting 'triclinic'
loop_
_space_group_symop_operation_xyz
x,y,z
-x,-y,-z
loop_
_atom_site_type_symbol
_atom_site_label
_atom_site_fract_x
_atom_site_fract_y
_atom_site_fract_z
Si Si1 0.524085 0.611384 0.846259
Si Si2 0.521896 0.405492 0.658834
Si Si3 0.710306 0.191936 0.189090
Si Si4 0.149736 0.012342 0.307523
Si Si5 0.749672 0.562786 0.284057
Si Si6 0.762535 0.304662 0.002856
Si Si7 0.685309 0.016123 0.494287
Si Si8 0.159892 0.570847 0.176125
O O1 0.448610 0.719171 0.860809
O O2 0.328836 0.393559 0.825177
O O3 0.656622 0.481205 0.934547
O O4 0.652927 0.871953 0.734727
O O5 0.410867 0.459906 0.684580
O O6 0.697046 0.362255 0.742796
O O7 0.622859 0.711086 0.544709
O O8 0.357289 0.098331 0.689873
O O9 0.928867 0.458558 0.172649
O O10 0.706170 0.117999 0.123901
O O11 0.162558 0.909612 0.425813
O O12 0.962711 0.796407 0.286763
O O13 0.139903 0.286160 0.232108
O O14 0.755455 0.278096 0.372223
O O15 0.735329 0.213421 0.938769
O O16 0.000000 0.500000 0.000000
O O17 0.500000 0.000000 0.500000
#
# Coordination Sequence:
#
# PCOD9077588 Si02
#       8
#     2   2   2   2   2   2   2   2
#     4  11  22  38  54  90 122 145 188 246 287 342
#     4  10  19  35  58  85 111 151 196 234 280 342
#     4  11  22  35  59  82 120 155 184 236 306 329
#     4  10  18  34  61  85 113 151 198 231 280 338
#     4  11  19  35  62  85 113 155 196 239 283 332
#     4   9  19  38  62  83 110 154 196 236 282 344
#     4   9  17  34  59  90 113 144 201 246 264 330
#     4   9  18  36  56  84 111 146 198 239 266 347
#
# _framework density 23.706609
#
# number of rings (size 3 to 8) (size 9 to 14) (size 15 to 20)
#    0.000    2.000    6.250    0.750    0.000    1.500 
#    0.000    0.625    0.000    9.750    0.000    0.000 
#    0.000    0.000    0.000    0.000    0.000    0.000 
#
# Total GULP energy -89208.790482 kJ/mol
# GULP energy per Si atom -5575.549405 kJ/mol
# Density = 2.365265 g / cm^3
# Si number density = 23.706609 Si / 1000 Ang^3
#
#
#
# Elastic Constant Matrix: (Units=GPa)
#
#
# Indices 1 2 3 4 5 6 
#
# 1 89.7805 21.4575 27.0214 0.5669 10.6160 10.3180
# 2 21.4575 81.2271 20.0378 -4.2764 4.0416 19.3336
# 3 27.0214 20.0378 94.0307 -0.9303 13.6500 3.8033
# 4 0.5669 -4.2764 -0.9303 25.1719 3.0987 6.6469
# 5 10.6160 4.0416 13.6500 3.0987 22.4298 4.2862
# 6 10.3180 19.3336 3.8033 6.6469 4.2862 23.6810
#
#
#
# Elastic Compliance Matrix: (Units=1/GPa)
#
#
# Indices 1 2 3 4 5 6 
#
# 1 0.013211 -0.001799 -0.002732 0.000639 -0.003713 -0.003356
# 2 -0.001799 0.017316 -0.002690 0.006692 0.001317 -0.015038
# 3 -0.002732 -0.002690 0.012846 0.000240 -0.006539 0.002440
# 4 0.000639 0.006692 0.000240 0.046152 -0.004610 -0.017900
# 5 -0.003713 0.001317 -0.006539 -0.004610 0.051966 -0.006519
# 6 -0.003356 -0.015038 0.002440 -0.017900 -0.006519 0.061780
#
#
# Mechanical properties :
#
#
# Convention : Reuss Voigt Hill
#
# Bulk Modulus (GPa) = 34.56392 44.67462 39.61927
# Shear Modulus (GPa) = 21.99186 27.35799 24.67493
#
# Velocity S-wave (km/s) = 3.04907 3.40078 3.22971
# Velocity P-wave (km/s) = 5.19685 5.85714 5.53685
#
# Compressibility (1/GPa) = 0.02893190
#
# Stress axis : x y z
#
# Youngs Moduli (GPa) = 75.69351 57.75012 77.84440
#
# Poissons Ratio (x) = 0.10388 0.21268
# Poissons Ratio (y) = 0.13615 0.20939
# Poissons Ratio (z) = 0.20680 0.15534
#
# Static dielectric constant tensor:
#      x y z
#    x 1.889920 0.040020 -0.041430 
#    y 0.040020 1.948910 0.010800 
#    z -0.041430 0.010800 2.014530 
# 
# From -- ./inp_files/206673.got.cif
#   From: 2010.05.17/outbox.cif.g08.bks.cpg/sg2_104_cif.got.tgz:206673.got - 2010.06.03 11:33:40.
