data_PCOD9077151
_publ_section_title
;
Structure prediction by ZEFSAII (Michael W. Deem and Ramdas Pophale) SiO2 
 PCOD9077151
Probable space group: P -1
;
_chemical_formula_sum "Si O2"
_cell_formula_units_Z 14
_cell_length_a 7.981593
_cell_length_b 11.352571
_cell_length_c 11.079496
_cell_angle_alpha 109.620367
_cell_angle_beta 124.456404
_cell_angle_gamma 100.602510
_cell_volume 683.393678
_symmetry_space_group_name_H-M "P -1"
_symmetry_group_IT_number 2
_symmetry_cell_setting 'triclinic'
loop_
_space_group_symop_operation_xyz
x,y,z
-x,-y,-z
loop_
_atom_site_type_symbol
_atom_site_label
_atom_site_fract_x
_atom_site_fract_y
_atom_site_fract_z
Si Si1 0.448697 0.720056 0.104543
Si Si2 0.350414 0.018498 0.550459
Si Si3 0.754447 0.751906 0.837471
Si Si4 0.417735 0.869172 0.751794
Si Si5 0.089927 0.156155 0.817724
Si Si6 0.175710 0.440792 0.020322
Si Si7 0.827163 0.174309 0.117250
O O1 0.658161 0.788986 0.118063
O O2 0.523964 0.826166 0.285542
O O3 0.379346 0.563897 0.068983
O O4 0.232050 0.721087 0.950929
O O5 0.325118 0.910663 0.610349
O O6 0.101656 0.975188 0.377398
O O7 0.500000 0.000000 0.500000
O O8 0.523144 0.763703 0.732859
O O9 0.914502 0.789386 0.798906
O O10 0.902393 0.865770 0.043684
O O11 0.726986 0.608315 0.841712
O O12 0.231339 0.816733 0.764982
O O13 0.635695 0.017927 0.938320
O O14 0.046544 0.292755 0.842287
O O15 0.000000 0.500000 0.000000
#
# Coordination Sequence:
#
# PCOD9077151 Si02
#       7
#     2   2   2   2   2   2   2
#     4  11  19  37  60  91 117 154 199 247 285 352
#     4  11  23  40  58  87 123 154 191 247 304 348
#     4  10  20  35  61  88 113 153 205 235 294 338
#     4  10  21  35  56  84 121 151 193 243 297 348
#     4  10  21  35  59  91 116 152 196 243 296 345
#     4  10  19  34  62  88 113 156 201 242 285 344
#     4  10  18  34  56  85 117 150 196 246 285 341
#
# _framework density 20.485997000000001
#
# number of rings (size 3 to 8) (size 9 to 14) (size 15 to 20)
#    0.857    0.857    2.857    3.857    0.000    0.000 
#    2.571    0.000    0.000    6.857    0.000    0.000 
#    0.000    0.000    0.000    0.000    0.000    0.000 
#
# Total GULP energy -78112.899599 kJ/mol
# GULP energy per Si atom -5579.492828 kJ/mol
# Density = 2.043937 g / cm^3
# Si number density = 20.485997 Si / 1000 Ang^3
#
#
#
# Elastic Constant Matrix: (Units=GPa)
#
#
# Indices 1 2 3 4 5 6 
#
# 1 122.9852 17.2636 5.1321 -7.9133 -11.8702 16.7152
# 2 17.2636 87.6756 2.1588 -9.4439 -3.0272 4.3990
# 3 5.1321 2.1588 39.1437 -7.5276 -8.3932 5.4502
# 4 -7.9133 -9.4439 -7.5276 12.6212 -2.2220 0.3908
# 5 -11.8702 -3.0272 -8.3932 -2.2220 21.8855 -2.7812
# 6 16.7152 4.3990 5.4502 0.3908 -2.7812 34.9981
#
#
#
# Elastic Compliance Matrix: (Units=1/GPa)
#
#
# Indices 1 2 3 4 5 6 
#
# 1 0.009917 -0.000647 0.002389 0.008441 0.006477 -0.004606
# 2 -0.000647 0.012889 0.002493 0.011362 0.003343 -0.001560
# 3 0.002389 0.002493 0.034807 0.027300 0.017020 -0.005827
# 4 0.008441 0.011362 0.027300 0.114354 0.027107 -0.008834
# 5 0.006477 0.003343 0.017020 0.027107 0.058718 -0.001801
# 6 -0.004606 -0.001560 -0.005827 -0.008834 -0.001801 0.031832
#
#
# Mechanical properties :
#
#
# Convention : Reuss Voigt Hill
#
# Bulk Modulus (GPa) = 15.13267 33.21260 24.17264
# Shear Modulus (GPa) = 18.11097 28.91762 23.51429
#
# Velocity S-wave (km/s) = 2.97655 3.76118 3.39163
# Velocity P-wave (km/s) = 4.38361 5.92532 5.21179
#
# Compressibility (1/GPa) = 0.06608219
#
# Stress axis : x y z
#
# Youngs Moduli (GPa) = 100.84161 77.58309 28.72979
#
# Poissons Ratio (x) = 0.05023 -0.06863
# Poissons Ratio (y) = 0.06529 -0.07163
# Poissons Ratio (z) = -0.24090 -0.19343
#
# Static dielectric constant tensor:
#      x y z
#    x 1.784710 -0.012550 0.007280 
#    y -0.012550 1.760990 -0.000530 
#    z 0.007280 -0.000530 1.701790 
# 
# From -- ./inp_files/387902.got.cif
#   From: 2010.05.17/outbox.cif.g08.bks.cpg/sg2_194_cif.got.tgz:387902.got - 2010.06.03 11:33:40.
