data_PCOD9077370
_publ_section_title
;
Structure prediction by ZEFSAII (Michael W. Deem and Ramdas Pophale) SiO2 
 PCOD9077370
Probable space group: P -1
;
_chemical_formula_sum "Si O2"
_cell_formula_units_Z 14
_cell_length_a 17.884985
_cell_length_b 21.142872
_cell_length_c 13.831331
_cell_angle_alpha 153.505263
_cell_angle_beta 32.788482
_cell_angle_gamma 160.993154
_cell_volume 759.354420
_symmetry_space_group_name_H-M "P -1"
_symmetry_group_IT_number 2
_symmetry_cell_setting 'triclinic'
loop_
_space_group_symop_operation_xyz
x,y,z
-x,-y,-z
loop_
_atom_site_type_symbol
_atom_site_label
_atom_site_fract_x
_atom_site_fract_y
_atom_site_fract_z
Si Si1 0.672114 0.502575 0.888406
Si Si2 0.623548 0.775945 0.351469
Si Si3 0.128857 0.554357 0.076615
Si Si4 0.975659 0.700456 0.338410
Si Si5 0.452795 0.804496 0.244548
Si Si6 0.217976 0.540679 0.596359
Si Si7 0.958632 0.119196 0.159973
O O1 0.467414 0.281154 0.737420
O O2 0.714787 0.416182 0.801277
O O3 0.876758 0.714751 0.883782
O O4 0.599043 0.587783 0.137004
O O5 0.454297 0.723586 0.533424
O O6 0.879279 0.039399 0.450041
O O7 0.337552 0.713872 0.141206
O O8 0.140659 0.705812 0.203743
O O9 0.897058 0.400973 0.179604
O O10 0.098827 0.399492 0.824820
O O11 0.772852 0.523209 0.394955
O O12 0.500000 0.000000 0.500000
O O13 0.696094 0.923850 0.147512
O O14 0.035379 0.299860 0.402570
O O15 0.000000 0.000000 0.000000
#
# Coordination Sequence:
#
# PCOD9077370 Si02
#       7
#     2   2   2   2   2   2   2
#     4  10  22  34  54  90 111 141 193 232 277 350
#     4  10  18  34  59  79 106 148 186 232 278 329
#     4   9  20  36  53  83 113 145 191 233 272 344
#     4   9  18  37  54  79 112 147 192 233 275 323
#     4  12  21  38  57  83 120 150 179 239 292 323
#     4   9  17  33  53  83 104 142 189 227 268 334
#     4  11  21  36  61  85 114 150 186 230 289 337
#
# _framework density 18.436713000000001
#
# number of rings (size 3 to 8) (size 9 to 14) (size 15 to 20)
#    0.857    1.143    1.429    5.143    0.000    1.143 
#    2.571    0.714    0.000    6.000    0.000    0.000 
#    0.000    0.000    0.000    0.000    0.000    0.000 
#
# Total GULP energy -77999.304541 kJ/mol
# GULP energy per Si atom -5571.378896 kJ/mol
# Density = 1.839475 g / cm^3
# Si number density = 18.436713 Si / 1000 Ang^3
#
#
#
# Elastic Constant Matrix: (Units=GPa)
#
#
# Indices 1 2 3 4 5 6 
#
# 1 101.4971 22.4913 35.1998 6.3206 12.4220 3.6971
# 2 22.4913 55.0483 3.3362 -6.4871 1.1781 -1.3676
# 3 35.1998 3.3362 51.7788 2.2023 17.5283 -1.6741
# 4 6.3206 -6.4871 2.2023 22.7855 -2.5351 -3.0995
# 5 12.4220 1.1781 17.5283 -2.5351 23.4378 -1.6292
# 6 3.6971 -1.3676 -1.6741 -3.0995 -1.6292 15.3958
#
#
#
# Elastic Compliance Matrix: (Units=1/GPa)
#
#
# Indices 1 2 3 4 5 6 
#
# 1 0.015461 -0.006635 -0.009337 -0.006432 -0.002049 -0.006829
# 2 -0.006635 0.021890 0.002182 0.008889 0.002148 0.005792
# 3 -0.009337 0.002182 0.032183 -0.001540 -0.019146 0.003599
# 4 -0.006432 0.008889 -0.001540 0.051388 0.010620 0.013636
# 5 -0.002049 0.002148 -0.019146 0.010620 0.059601 0.007046
# 6 -0.006829 0.005792 0.003599 0.013636 0.007046 0.070989
#
#
# Mechanical properties :
#
#
# Convention : Reuss Voigt Hill
#
# Bulk Modulus (GPa) = 23.83548 36.70877 30.27213
# Shear Modulus (GPa) = 17.06047 22.14360 19.60204
#
# Velocity S-wave (km/s) = 3.04526 3.46939 3.26422
# Velocity P-wave (km/s) = 5.03201 6.00023 5.53733
#
# Compressibility (1/GPa) = 0.04195426
#
# Stress axis : x y z
#
# Youngs Moduli (GPa) = 64.67977 45.68336 31.07257
#
# Poissons Ratio (x) = 0.30310 0.29011
# Poissons Ratio (y) = 0.42914 -0.06780
# Poissons Ratio (z) = 0.60389 -0.09968
#
# Static dielectric constant tensor:
#      x y z
#    x 1.631480 -0.008470 -0.009200 
#    y -0.008470 1.667060 -0.022230 
#    z -0.009200 -0.022230 1.645220 
# 
# From -- ./inp_files/539209.got.cif
#   From: 2010.05.17/outbox.cif.g08.bks.cpg/sg2_270_cif.got.tgz:539209.got - 2010.06.03 11:33:40.
