data_PCOD9077007
_publ_section_title
;
Structure prediction by ZEFSAII (Michael W. Deem and Ramdas Pophale) SiO2 
 PCOD9077007
Probable space group: P -1
;
_chemical_formula_sum "Si O2"
_cell_formula_units_Z 16
_cell_length_a 24.177696
_cell_length_b 5.666885
_cell_length_c 21.920909
_cell_angle_alpha 111.949981
_cell_angle_beta 11.319977
_cell_angle_gamma 111.368402
_cell_volume 546.764022
_symmetry_space_group_name_H-M "P -1"
_symmetry_group_IT_number 2
_symmetry_cell_setting 'triclinic'
loop_
_space_group_symop_operation_xyz
x,y,z
-x,-y,-z
loop_
_atom_site_type_symbol
_atom_site_label
_atom_site_fract_x
_atom_site_fract_y
_atom_site_fract_z
Si Si1 0.088572 0.883428 0.458364
Si Si2 0.844526 0.014446 0.000799
Si Si3 0.314630 0.253862 0.735758
Si Si4 0.417476 0.502659 0.004375
Si Si5 0.528848 0.320311 0.674332
Si Si6 0.760157 0.268018 0.911541
Si Si7 0.267284 0.879025 0.439288
Si Si8 0.183437 0.465614 0.732576
O O1 0.379349 0.725131 0.117598
O O2 0.839002 0.688929 0.724803
O O3 0.000000 0.000000 0.500000
O O4 0.050286 0.109428 0.571178
O O5 0.987572 0.020399 0.778892
O O6 0.983116 0.231911 0.911217
O O7 0.833748 0.788280 0.041788
O O8 0.524277 0.965542 0.320985
O O9 0.500000 0.000000 0.500000
O O10 0.542052 0.479272 0.518223
O O11 0.058214 0.314206 0.972957
O O12 0.339481 0.635773 0.037730
O O13 0.696855 0.330265 0.673561
O O14 0.681461 0.478682 0.474162
O O15 0.677302 0.275472 0.573140
O O16 0.250286 0.485351 0.010536
O O17 0.519524 0.076071 0.175994
#
# Coordination Sequence:
#
# PCOD9077007 Si02
#       8
#     2   2   2   2   2   2   2   2
#     4   8  13  24  44  77 113 157 207 256 319 378
#     4  11  24  38  64  91 128 166 210 264 319 384
#     4  11  26  46  69  99 132 169 215 265 318 386
#     4   8  15  25  46  78 114 153 208 259 314 381
#     4  10  21  36  56  88 122 160 212 262 318 381
#     4   9  16  29  51  78 115 159 208 262 321 377
#     4  10  18  34  54  81 118 158 207 259 322 376
#     4  11  24  42  69  96 131 171 213 264 323 383
#
# _framework density 29.263081
#
# number of rings (size 3 to 8) (size 9 to 14) (size 15 to 20)
#    0.000    2.250    2.500    0.375    1.750    1.000 
#    0.000    0.000    0.000    0.750    0.000   78.750 
#    0.000    0.000    0.000    0.000    0.000    0.000 
#
# Total GULP energy -89418.774225 kJ/mol
# GULP energy per Si atom -5588.673389 kJ/mol
# Density = 2.919648 g / cm^3
# Si number density = 29.263081 Si / 1000 Ang^3
#
#
#
# Elastic Constant Matrix: (Units=GPa)
#
#
# Indices 1 2 3 4 5 6 
#
# 1 99.8276 20.9305 47.1474 -19.7348 15.6848 7.5300
# 2 20.9305 126.2543 50.3223 -21.4059 2.3920 30.9494
# 3 47.1474 50.3223 118.0026 -6.5801 3.3257 4.6053
# 4 -19.7348 -21.4059 -6.5801 47.7446 -8.0733 7.2918
# 5 15.6848 2.3920 3.3257 -8.0733 65.3674 -2.2884
# 6 7.5300 30.9494 4.6053 7.2918 -2.2884 45.4638
#
#
#
# Elastic Compliance Matrix: (Units=1/GPa)
#
#
# Indices 1 2 3 4 5 6 
#
# 1 0.014452 0.002286 -0.006144 0.006396 -0.002606 -0.004485
# 2 0.002286 0.013819 -0.005954 0.007893 -0.000143 -0.010456
# 3 -0.006144 -0.005954 0.013055 -0.003968 0.000693 0.004420
# 4 0.006396 0.007893 -0.003968 0.028444 0.001523 -0.010516
# 5 -0.002606 -0.000143 0.000693 0.001523 0.016117 0.001025
# 6 -0.004485 -0.010456 0.004420 -0.010516 0.001025 0.031146
#
#
# Mechanical properties :
#
#
# Convention : Reuss Voigt Hill
#
# Bulk Modulus (GPa) = 46.07991 64.54279 55.31135
# Shear Modulus (GPa) = 34.74859 46.76079 40.75469
#
# Velocity S-wave (km/s) = 3.44969 4.00177 3.73594
# Velocity P-wave (km/s) = 5.62566 6.59213 6.12798
#
# Compressibility (1/GPa) = 0.02170143
#
# Stress axis : x y z
#
# Youngs Moduli (GPa) = 69.19574 72.36622 76.59853
#
# Poissons Ratio (x) = -0.16544 0.47062
# Poissons Ratio (y) = -0.15819 0.45608
# Poissons Ratio (z) = 0.42513 0.43088
#
# Static dielectric constant tensor:
#      x y z
#    x 2.339920 0.100330 0.096780 
#    y 0.100330 2.576570 0.302090 
#    z 0.096780 0.302090 2.498170 
# 
# From -- ./inp_files/603228.got.cif
#   From: 2010.05.17/outbox.cif.g08.bks.cpg/sg2_302_cif.got.tgz:603228.got - 2010.06.03 11:33:40.
