data_PCOD9077115
_publ_section_title
;
Structure prediction by ZEFSAII (Michael W. Deem and Ramdas Pophale) SiO2 
 PCOD9077115
Probable space group: P -1
;
_chemical_formula_sum "Si O2"
_cell_formula_units_Z 16
_cell_length_a 8.129215
_cell_length_b 14.774351
_cell_length_c 13.276147
_cell_angle_alpha 136.166494
_cell_angle_beta 133.054922
_cell_angle_gamma 79.117245
_cell_volume 645.491900
_symmetry_space_group_name_H-M "P -1"
_symmetry_group_IT_number 2
_symmetry_cell_setting 'triclinic'
loop_
_space_group_symop_operation_xyz
x,y,z
-x,-y,-z
loop_
_atom_site_type_symbol
_atom_site_label
_atom_site_fract_x
_atom_site_fract_y
_atom_site_fract_z
Si Si1 0.371262 0.252332 0.445436
Si Si2 0.715469 0.058215 0.765596
Si Si3 0.925780 0.326068 0.362880
Si Si4 0.791822 0.506396 0.201599
Si Si5 0.543077 0.857203 0.133037
Si Si6 0.078230 0.187567 0.844476
Si Si7 0.720701 0.500711 0.949181
Si Si8 0.684370 0.691101 0.745699
O O1 0.643700 0.373802 0.726576
O O2 0.399845 0.246135 0.332318
O O3 0.984146 0.225233 0.062400
O O4 0.240892 0.076926 0.296641
O O5 0.456004 0.028282 0.692625
O O6 0.786706 0.097617 0.709649
O O7 0.649107 0.178698 0.073401
O O8 0.826367 0.689180 0.574583
O O9 0.000000 0.500000 0.500000
O O10 0.935874 0.353704 0.509135
O O11 0.615722 0.322243 0.024953
O O12 0.575994 0.550658 0.169025
O O13 0.863739 0.503076 0.113387
O O14 0.843981 0.915612 0.265408
O O15 0.133477 0.327936 0.907901
O O16 0.304783 0.268247 0.098602
O O17 0.500000 0.500000 0.500000
#
# Coordination Sequence:
#
# PCOD9077115 Si02
#       8
#     2   2   2   2   2   2   2   2
#     4  11  18  34  54  79 113 150 178 226 282 326
#     4  10  22  34  55  83 115 146 181 223 280 334
#     4   9  17  28  53  81 106 139 183 224 276 326
#     4   8  17  29  53  82 104 141 192 226 270 330
#     4  10  18  34  56  80 114 142 179 229 278 325
#     4   9  20  34  56  81 109 145 184 227 276 322
#     4   9  16  33  55  78 108 144 188 230 272 323
#     4  10  19  32  52  81 111 143 182 223 272 325
#
# _framework density 24.787296000000001
#
# number of rings (size 3 to 8) (size 9 to 14) (size 15 to 20)
#    0.750    1.750    2.500    1.125    0.000    0.000 
#    0.000    3.750    0.000   15.000    0.000    0.000 
#    0.000    0.000    0.000    0.000    0.000    0.000 
#
# Total GULP energy -89261.675280 kJ/mol
# GULP energy per Si atom -5578.854705 kJ/mol
# Density = 2.473088 g / cm^3
# Si number density = 24.787296 Si / 1000 Ang^3
#
#
#
# Elastic Constant Matrix: (Units=GPa)
#
#
# Indices 1 2 3 4 5 6 
#
# 1 129.3389 12.2673 34.0346 -5.4503 -11.8932 1.8459
# 2 12.2673 42.1483 19.4035 -18.6014 -3.3512 17.6097
# 3 34.0346 19.4035 85.4337 -26.4224 -6.5238 4.0683
# 4 -5.4503 -18.6014 -26.4224 41.8493 9.2062 -15.4989
# 5 -11.8932 -3.3512 -6.5238 9.2062 20.3322 6.3007
# 6 1.8459 17.6097 4.0683 -15.4989 6.3007 29.7458
#
#
#
# Elastic Compliance Matrix: (Units=1/GPa)
#
#
# Indices 1 2 3 4 5 6 
#
# 1 0.009470 -0.000805 -0.004344 -0.004784 0.007279 -0.003551
# 2 -0.000805 0.037779 -0.005585 0.002914 0.009474 -0.022040
# 3 -0.004344 -0.005585 0.017812 0.013117 -0.006590 0.009371
# 4 -0.004784 0.002914 0.013117 0.050313 -0.029984 0.029344
# 5 0.007279 0.009474 -0.006590 -0.029984 0.078026 -0.037310
# 6 -0.003551 -0.022040 0.009371 0.029344 -0.037310 0.068797
#
#
# Mechanical properties :
#
#
# Convention : Reuss Voigt Hill
#
# Bulk Modulus (GPa) = 22.94025 43.14797 33.04411
# Shear Modulus (GPa) = 16.76748 31.13317 23.95033
#
# Velocity S-wave (km/s) = 2.60370 3.54787 3.11180
# Velocity P-wave (km/s) = 4.27948 5.85049 5.12553
#
# Compressibility (1/GPa) = 0.04359151
#
# Stress axis : x y z
#
# Youngs Moduli (GPa) = 105.60163 26.46954 56.14332
#
# Poissons Ratio (x) = 0.02131 0.24390
# Poissons Ratio (y) = 0.08500 0.31358
# Poissons Ratio (z) = 0.45875 0.14784
#
# Static dielectric constant tensor:
#      x y z
#    x 2.018800 -0.019800 0.003640 
#    y -0.019800 1.967800 -0.094680 
#    z 0.003640 -0.094680 1.999300 
# 
# From -- ./inp_files/397825.got.cif
#   From: 2010.05.17/outbox.cif.g08.bks.cpg/sg2_199_cif.got.tgz:397825.got - 2010.06.03 11:33:40.
