data_PCOD9077326
_publ_section_title
;
Structure prediction by ZEFSAII (Michael W. Deem and Ramdas Pophale) SiO2 
 PCOD9077326
Probable space group: P -1
;
_chemical_formula_sum "Si O2"
_cell_formula_units_Z 15
_cell_length_a 6.909169
_cell_length_b 11.270013
_cell_length_c 13.751202
_cell_angle_alpha 38.491847
_cell_angle_beta 102.280299
_cell_angle_gamma 96.627550
_cell_volume 648.894377
_symmetry_space_group_name_H-M "P -1"
_symmetry_group_IT_number 2
_symmetry_cell_setting 'triclinic'
loop_
_space_group_symop_operation_xyz
x,y,z
-x,-y,-z
loop_
_atom_site_type_symbol
_atom_site_label
_atom_site_fract_x
_atom_site_fract_y
_atom_site_fract_z
Si Si1 0.440199 0.701342 0.913435
Si Si2 0.159101 0.141579 0.192484
Si Si3 0.773180 0.231916 0.959335
Si Si4 0.500000 0.500000 0.500000
Si Si5 0.122908 0.731075 0.405406
Si Si6 0.729140 0.805325 0.192655
Si Si7 0.954690 0.536075 0.260617
Si Si8 0.941680 0.205839 0.312253
O O1 0.630871 0.817100 0.852338
O O2 0.369839 0.679284 0.029897
O O3 0.258755 0.803268 0.766201
O O4 0.500000 0.500000 0.000000
O O5 0.984915 0.196673 0.061313
O O6 0.105937 0.244279 0.223151
O O7 0.159849 0.916562 0.352970
O O8 0.690952 0.036355 0.038717
O O9 0.834690 0.376835 0.790990
O O10 0.326223 0.643348 0.437314
O O11 0.589264 0.685220 0.322751
O O12 0.030915 0.586462 0.561499
O O13 0.951257 0.789518 0.273334
O O14 0.777664 0.698877 0.163012
O O15 0.917889 0.385686 0.267570
O O16 0.000000 0.000000 0.500000
#
# Coordination Sequence:
#
# PCOD9077326 Si02
#       8
#     2   2   2   1   2   2   2   2
#     4  11  23  41  66  94 128 173 216 262 325 386
#     4  10  21  42  63  87 126 167 208 262 320 380
#     4  10  22  40  65  90 127 168 212 264 321 384
#     4  10  18  34  58  86 114 154 204 250 306 374
#     4  10  21  39  60  88 121 161 207 262 320 375
#     4  10  22  40  62  89 124 166 210 261 324 380
#     4  11  20  38  62  90 124 163 212 261 314 380
#     4  11  23  41  63  97 130 167 216 267 322 377
#
# _framework density 23.116240999999999
#
# number of rings (size 3 to 8) (size 9 to 14) (size 15 to 20)
#    0.000    1.600    1.333    4.400    0.000    2.667 
#    2.400   13.333    0.000   14.400    0.000    0.000 
#    0.000    0.000    0.000    0.000    0.000    0.000 
#
# Total GULP energy -83612.107987 kJ/mol
# GULP energy per Si atom -5574.140532 kJ/mol
# Density = 2.306363 g / cm^3
# Si number density = 23.116241 Si / 1000 Ang^3
#
#
#
# Elastic Constant Matrix: (Units=GPa)
#
#
# Indices 1 2 3 4 5 6 
#
# 1 130.8853 51.0748 39.3864 8.4074 -32.0930 -23.4338
# 2 51.0748 143.7043 41.7220 -9.7391 -21.6251 -27.5377
# 3 39.3864 41.7220 63.5392 -11.9566 -30.7321 -18.4960
# 4 8.4074 -9.7391 -11.9566 36.8754 3.9707 -6.5355
# 5 -32.0930 -21.6251 -30.7321 3.9707 43.8081 8.2583
# 6 -23.4338 -27.5377 -18.4960 -6.5355 8.2583 40.4793
#
#
#
# Elastic Compliance Matrix: (Units=1/GPa)
#
#
# Indices 1 2 3 4 5 6 
#
# 1 0.011382 -0.002261 -0.003641 -0.004590 0.004768 0.001674
# 2 -0.002261 0.009695 -0.003323 0.002783 -0.000259 0.004270
# 3 -0.003641 -0.003323 0.032312 0.010300 0.015759 0.008844
# 4 -0.004590 0.002783 0.010300 0.033848 0.000412 0.009324
# 5 0.004768 -0.000259 0.015759 0.000412 0.036767 0.002351
# 6 0.001674 0.004270 0.008844 0.009324 0.002351 0.033645
#
#
# Mechanical properties :
#
#
# Convention : Reuss Voigt Hill
#
# Bulk Modulus (GPa) = 28.62105 66.94389 47.78247
# Shear Modulus (GPa) = 26.63198 37.96226 32.29712
#
# Velocity S-wave (km/s) = 3.39793 4.05684 3.74192
# Velocity P-wave (km/s) = 5.27283 7.13908 6.27572
#
# Compressibility (1/GPa) = 0.03493932
#
# Stress axis : x y z
#
# Youngs Moduli (GPa) = 87.85926 103.14489 30.94830
#
# Poissons Ratio (x) = 0.23321 0.11268
# Poissons Ratio (y) = 0.19865 0.10284
# Poissons Ratio (z) = 0.31988 0.34275
#
# Static dielectric constant tensor:
#      x y z
#    x 1.910820 0.051090 -0.003800 
#    y 0.051090 1.925900 -0.021420 
#    z -0.003800 -0.021420 1.996950 
# 
# From -- ./inp_files/481948.got.cif
#   From: 2010.05.17/outbox.cif.g08.bks.cpg/sg2_241_cif.got.tgz:481948.got - 2010.06.03 11:33:40.
