data_PCOD9077980
_publ_section_title
;
Structure prediction by ZEFSAII (Michael W. Deem and Ramdas Pophale) SiO2 
 PCOD9077980
Probable space group: P -1
;
_chemical_formula_sum "Si O2"
_cell_formula_units_Z 16
_cell_length_a 16.731159
_cell_length_b 22.498551
_cell_length_c 5.300580
_cell_angle_alpha 94.990924
_cell_angle_beta 91.008347
_cell_angle_gamma 20.367329
_cell_volume 679.926360
_symmetry_space_group_name_H-M "P -1"
_symmetry_group_IT_number 2
_symmetry_cell_setting 'triclinic'
loop_
_space_group_symop_operation_xyz
x,y,z
-x,-y,-z
loop_
_atom_site_type_symbol
_atom_site_label
_atom_site_fract_x
_atom_site_fract_y
_atom_site_fract_z
Si Si1 0.701666 0.009669 0.750557
Si Si2 0.869584 0.115727 0.784995
Si Si3 0.153385 0.022364 0.750189
Si Si4 0.923826 0.400481 0.654291
Si Si5 0.212519 0.404661 0.896917
Si Si6 0.757019 0.753212 0.767333
Si Si7 0.523685 0.675292 0.411349
Si Si8 0.260961 0.114832 0.928836
O O1 0.787063 0.991241 0.982157
O O2 0.417301 0.212551 0.821666
O O3 0.772593 0.895089 0.812163
O O4 0.806488 0.961863 0.480018
O O5 0.611104 0.270379 0.780007
O O6 0.000000 0.000000 0.500000
O O7 0.906420 0.161137 0.798135
O O8 0.000000 0.000000 0.000000
O O9 0.337713 0.840028 0.636701
O O10 0.820933 0.532945 0.829911
O O11 0.721091 0.508317 0.533240
O O12 0.125591 0.289692 0.457661
O O13 0.032249 0.277012 0.807813
O O14 0.327965 0.375883 0.724048
O O15 0.959816 0.567025 0.814501
O O16 0.491810 0.922683 0.747215
O O17 0.711212 0.833458 0.016091
#
# Coordination Sequence:
#
# PCOD9077980 Si02
#       8
#     2   2   2   2   2   2   2   2
#     4  11  22  37  58  83 120 155 184 231 299 345
#     4  10  19  31  56  89 119 148 188 234 283 330
#     4  10  20  36  54  85 122 147 184 236 287 340
#     4  10  18  35  57  80 110 146 192 242 280 336
#     4   9  18  34  54  83 114 144 183 242 289 335
#     4   9  20  38  56  81 107 145 200 249 275 331
#     4   9  18  31  57  82 114 147 188 231 285 332
#     4  10  22  36  57  80 110 151 198 235 288 344
#
# _framework density 23.531957999999999
#
# number of rings (size 3 to 8) (size 9 to 14) (size 15 to 20)
#    0.000    2.250    1.250    2.625    3.500    0.500 
#    0.000    0.625    0.000    1.500    0.000    0.000 
#    0.000    0.000    0.000    0.000    0.000    0.000 
#
# Total GULP energy -89252.377870 kJ/mol
# GULP energy per Si atom -5578.273617 kJ/mol
# Density = 2.347840 g / cm^3
# Si number density = 23.531958 Si / 1000 Ang^3
#
#
#
# Elastic Constant Matrix: (Units=GPa)
#
#
# Indices 1 2 3 4 5 6 
#
# 1 87.2803 30.3083 26.0311 -16.3121 6.3912 -8.3436
# 2 30.3083 93.9324 39.5390 -47.8844 -3.1477 -1.6441
# 3 26.0311 39.5390 107.5266 -22.8969 -1.0214 -2.3650
# 4 -16.3121 -47.8844 -22.8969 45.5731 8.0129 2.5536
# 5 6.3912 -3.1477 -1.0214 8.0129 32.7658 -3.8148
# 6 -8.3436 -1.6441 -2.3650 2.5536 -3.8148 33.0342
#
#
#
# Elastic Compliance Matrix: (Units=1/GPa)
#
#
# Indices 1 2 3 4 5 6 
#
# 1 0.013808 -0.003191 -0.001926 0.000991 -0.002980 0.002770
# 2 -0.003191 0.025562 -0.003448 0.024681 -0.003306 -0.002070
# 3 -0.001926 -0.003448 0.011326 0.001363 0.000071 0.000056
# 4 0.000991 0.024681 0.001363 0.050992 -0.010669 -0.003598
# 5 -0.002980 -0.003306 0.000071 -0.010669 0.033839 0.003820
# 6 0.002770 -0.002070 0.000056 -0.003598 0.003820 0.031592
#
#
# Mechanical properties :
#
#
# Convention : Reuss Voigt Hill
#
# Bulk Modulus (GPa) = 29.79242 53.38846 41.59044
# Shear Modulus (GPa) = 25.58369 35.13202 30.35785
#
# Velocity S-wave (km/s) = 3.30083 3.86806 3.59565
# Velocity P-wave (km/s) = 5.21682 6.53346 5.91191
#
# Compressibility (1/GPa) = 0.03356558
#
# Stress axis : x y z
#
# Youngs Moduli (GPa) = 72.42210 39.12118 88.29046
#
# Poissons Ratio (x) = 0.12484 0.17003
# Poissons Ratio (y) = 0.23110 0.30445
# Poissons Ratio (z) = 0.13947 0.13490
#
# Static dielectric constant tensor:
#      x y z
#    x 1.972720 -0.040480 0.038650 
#    y -0.040480 2.067620 -0.003810 
#    z 0.038650 -0.003810 2.048190 
# 
# From -- ./inp_files/44674.got.cif
#   From: 2010.05.17/outbox.cif.g08.bks.cpg/sg2_23_cif.got.tgz:44674.got - 2010.06.03 11:33:40.
