data_PCOD9077409
_publ_section_title
;
Structure prediction by ZEFSAII (Michael W. Deem and Ramdas Pophale) SiO2 
 PCOD9077409
Probable space group: P -1
;
_chemical_formula_sum "Si O2"
_cell_formula_units_Z 16
_cell_length_a 17.814812
_cell_length_b 12.192735
_cell_length_c 11.716159
_cell_angle_alpha 130.271889
_cell_angle_beta 150.594254
_cell_angle_gamma 38.453898
_cell_volume 771.694142
_symmetry_space_group_name_H-M "P -1"
_symmetry_group_IT_number 2
_symmetry_cell_setting 'triclinic'
loop_
_space_group_symop_operation_xyz
x,y,z
-x,-y,-z
loop_
_atom_site_type_symbol
_atom_site_label
_atom_site_fract_x
_atom_site_fract_y
_atom_site_fract_z
Si Si1 0.664651 0.318150 0.657267
Si Si2 0.209294 0.330958 0.912869
Si Si3 0.136903 0.135053 0.852713
Si Si4 0.619424 0.565479 0.954320
Si Si5 0.143949 0.044774 0.264589
Si Si6 0.766984 0.250590 0.304692
Si Si7 0.928009 0.334439 0.369705
Si Si8 0.023226 0.267438 0.036951
O O1 0.500000 0.500000 0.500000
O O2 0.685837 0.389280 0.853283
O O3 0.668975 0.147019 0.577831
O O4 0.853435 0.244593 0.785490
O O5 0.252149 0.179536 0.954520
O O6 0.067312 0.344828 0.641189
O O7 0.089400 0.522799 0.946369
O O8 0.382175 0.308507 0.058437
O O9 0.926941 0.233237 0.586075
O O10 0.207729 0.933216 0.805593
O O11 0.130554 0.202122 0.016252
O O12 0.430580 0.629643 0.812091
O O13 0.783355 0.509814 0.223688
O O14 0.147778 0.151949 0.234138
O O15 0.052984 0.173171 0.338963
O O16 0.000000 0.000000 0.000000
O O17 0.798384 0.308266 0.263259
#
# Coordination Sequence:
#
# PCOD9077409 Si02
#       8
#     2   2   2   2   2   2   2   2
#     4  10  20  33  55  89 119 147 188 246 297 341
#     4  10  22  36  60  85 115 159 195 238 291 351
#     4  10  21  38  59  86 118 154 199 239 290 353
#     4  11  21  36  58  86 119 150 194 242 295 347
#     4  10  18  34  59  87 111 152 193 240 288 344
#     4  10  22  36  58  89 117 152 193 247 295 337
#     4  11  20  38  61  86 117 149 203 240 287 352
#     4  10  19  36  60  82 113 155 203 233 282 357
#
# _framework density 20.733602000000001
#
# number of rings (size 3 to 8) (size 9 to 14) (size 15 to 20)
#    0.000    1.750    3.750    3.375    0.000    2.500 
#    0.000    1.250    0.000    0.750    0.000    0.000 
#    0.000    0.000    0.000    0.000    0.000    0.000 
#
# Total GULP energy -89219.748398 kJ/mol
# GULP energy per Si atom -5576.234275 kJ/mol
# Density = 2.068641 g / cm^3
# Si number density = 20.733602 Si / 1000 Ang^3
#
#
#
# Elastic Constant Matrix: (Units=GPa)
#
#
# Indices 1 2 3 4 5 6 
#
# 1 149.5359 32.5014 9.8086 5.2793 -3.5864 17.6200
# 2 32.5014 38.7475 0.9468 -0.8775 3.4336 20.5591
# 3 9.8086 0.9468 18.9041 7.2885 -5.4901 0.9489
# 4 5.2793 -0.8775 7.2885 31.3730 -1.9454 -4.5081
# 5 -3.5864 3.4336 -5.4901 -1.9454 25.3239 4.9525
# 6 17.6200 20.5591 0.9489 -4.5081 4.9525 33.6188
#
#
#
# Elastic Compliance Matrix: (Units=1/GPa)
#
#
# Indices 1 2 3 4 5 6 
#
# 1 0.008542 -0.007007 -0.003314 -0.000834 0.001460 -0.000426
# 2 -0.007007 0.044134 0.002674 -0.001682 -0.001963 -0.023329
# 3 -0.003314 0.002674 0.064036 -0.014231 0.013040 -0.005535
# 4 -0.000834 -0.001682 -0.014231 0.036176 -0.001555 0.006947
# 5 0.001460 -0.001963 0.013040 -0.001555 0.043963 -0.006618
# 6 -0.000426 -0.023329 -0.005535 0.006947 -0.006618 0.046298
#
#
# Mechanical properties :
#
#
# Convention : Reuss Voigt Hill
#
# Bulk Modulus (GPa) = 9.86007 32.63346 21.24677
# Shear Modulus (GPa) = 17.10873 28.99186 23.05029
#
# Velocity S-wave (km/s) = 2.87569 3.74345 3.33789
# Velocity P-wave (km/s) = 3.97392 5.87010 5.01249
#
# Compressibility (1/GPa) = 0.10141913
#
# Stress axis : x y z
#
# Youngs Moduli (GPa) = 117.06471 22.65820 15.61625
#
# Poissons Ratio (x) = 0.15876 0.05176
# Poissons Ratio (y) = 0.82024 -0.04176
# Poissons Ratio (z) = 0.38798 -0.06060
#
# Static dielectric constant tensor:
#      x y z
#    x 1.756100 0.049110 -0.007100 
#    y 0.049110 1.757750 -0.024550 
#    z -0.007100 -0.024550 1.763550 
# 
# From -- ./inp_files/262673.got.cif
#   From: 2010.05.17/outbox.cif.g08.bks.cpg/sg2_132_cif.got.tgz:262673.got - 2010.06.03 11:33:40.
