data_PCOD9077938
_publ_section_title
;
Structure prediction by ZEFSAII (Michael W. Deem and Ramdas Pophale) SiO2 
 PCOD9077938
Probable space group: P -1
;
_chemical_formula_sum "Si O2"
_cell_formula_units_Z 16
_cell_length_a 11.293980
_cell_length_b 17.138142
_cell_length_c 11.011143
_cell_angle_alpha 137.759819
_cell_angle_beta 108.001014
_cell_angle_gamma 42.201310
_cell_volume 816.046962
_symmetry_space_group_name_H-M "P -1"
_symmetry_group_IT_number 2
_symmetry_cell_setting 'triclinic'
loop_
_space_group_symop_operation_xyz
x,y,z
-x,-y,-z
loop_
_atom_site_type_symbol
_atom_site_label
_atom_site_fract_x
_atom_site_fract_y
_atom_site_fract_z
Si Si1 0.418844 0.179340 0.522809
Si Si2 0.022212 0.672916 0.732719
Si Si3 0.220440 0.794502 0.281635
Si Si4 0.785236 0.650609 0.764368
Si Si5 0.635646 0.006034 0.842676
Si Si6 0.330580 0.506832 0.824980
Si Si7 0.960224 0.620608 0.233132
Si Si8 0.245751 0.004906 0.398626
O O1 0.318750 0.377621 0.691403
O O2 0.279220 0.223460 0.630961
O O3 0.636906 0.039875 0.493448
O O4 0.408704 0.098174 0.315242
O O5 0.154008 0.481528 0.476570
O O6 0.186342 0.632244 0.806293
O O7 0.873054 0.710716 0.820644
O O8 0.860439 0.853717 0.798433
O O9 0.420851 0.653954 0.273244
O O10 0.247796 0.865522 0.261096
O O11 0.230069 0.658034 0.074228
O O12 0.000000 0.000000 0.500000
O O13 0.908354 0.517840 0.769756
O O14 0.546201 0.821719 0.925693
O O15 0.643951 0.055033 0.766191
O O16 0.963036 0.759389 0.388248
O O17 0.000000 0.500000 0.000000
#
# Coordination Sequence:
#
# PCOD9077938 Si02
#       8
#     2   2   2   2   2   2   2   2
#     4  10  18  35  56  85 126 150 191 241 290 358
#     4  11  21  38  58  88 129 158 198 238 286 371
#     4  10  24  43  65  85 111 153 211 257 299 347
#     4  11  21  35  57  92 128 165 192 228 295 366
#     4  11  21  37  56  93 126 159 192 235 304 356
#     4  10  22  41  61  84 114 156 199 254 295 343
#     4  11  19  31  55  91 122 155 189 234 300 354
#     4  10  21  37  56  86 126 152 198 255 291 352
#
# _framework density 19.606715000000001
#
# number of rings (size 3 to 8) (size 9 to 14) (size 15 to 20)
#    0.000    1.500    3.750    4.125    1.750    3.000 
#    2.250    0.625    0.000    1.500    0.000    0.000 
#    0.000    0.000    0.000    0.000    0.000    0.000 
#
# Total GULP energy -89086.628035 kJ/mol
# GULP energy per Si atom -5567.914252 kJ/mol
# Density = 1.956209 g / cm^3
# Si number density = 19.606715 Si / 1000 Ang^3
#
#
#
# Elastic Constant Matrix: (Units=GPa)
#
#
# Indices 1 2 3 4 5 6 
#
# 1 29.2761 18.9877 18.4844 -2.0840 -6.5032 -2.9152
# 2 18.9877 105.8871 22.0821 -4.3087 -3.3784 -12.1749
# 3 18.4844 22.0821 84.4326 2.6856 -23.5424 -7.1243
# 4 -2.0840 -4.3087 2.6856 23.8793 -0.8606 4.9781
# 5 -6.5032 -3.3784 -23.5424 -0.8606 26.5691 5.2404
# 6 -2.9152 -12.1749 -7.1243 4.9781 5.2404 23.6817
#
#
#
# Elastic Compliance Matrix: (Units=1/GPa)
#
#
# Indices 1 2 3 4 5 6 
#
# 1 0.043704 -0.006270 -0.007051 0.003981 0.004119 -0.001713
# 2 -0.006270 0.011503 -0.002021 0.000604 -0.002836 0.005035
# 3 -0.007051 -0.002021 0.017871 -0.002718 0.013559 0.001040
# 4 0.003981 0.000604 -0.002718 0.044773 0.002042 -0.009881
# 5 0.004119 -0.002836 0.013559 0.002042 0.052108 -0.008832
# 6 -0.001713 0.005035 0.001040 -0.009881 -0.008832 0.048948
#
#
# Mechanical properties :
#
#
# Convention : Reuss Voigt Hill
#
# Bulk Modulus (GPa) = 23.58828 37.63383 30.61105
# Shear Modulus (GPa) = 18.95946 25.49547 22.22747
#
# Velocity S-wave (km/s) = 3.11302 3.60994 3.37065
# Velocity P-wave (km/s) = 4.99780 6.05075 5.54931
#
# Compressibility (1/GPa) = 0.04239393
#
# Stress axis : x y z
#
# Youngs Moduli (GPa) = 22.88142 86.93550 55.95743
#
# Poissons Ratio (x) = 0.54510 0.39453
# Poissons Ratio (y) = 0.14347 0.11309
# Poissons Ratio (z) = 0.16133 0.17569
#
# Static dielectric constant tensor:
#      x y z
#    x 1.753560 0.011700 0.021440 
#    y 0.011700 1.741050 0.045480 
#    z 0.021440 0.045480 1.729690 
# 
# From -- ./inp_files/423408.got.cif
#   From: 2010.05.17/outbox.cif.g08.bks.cpg/sg2_212_cif.got.tgz:423408.got - 2010.06.03 11:33:40.
