data_PCOD9077472
_publ_section_title
;
Structure prediction by ZEFSAII (Michael W. Deem and Ramdas Pophale) SiO2 
 PCOD9077472
Probable space group: P -1
;
_chemical_formula_sum "Si O2"
_cell_formula_units_Z 16
_cell_length_a 10.921920
_cell_length_b 20.727414
_cell_length_c 9.462835
_cell_angle_alpha 42.533544
_cell_angle_beta 77.987494
_cell_angle_gamma 43.988729
_cell_volume 731.895662
_symmetry_space_group_name_H-M "P -1"
_symmetry_group_IT_number 2
_symmetry_cell_setting 'triclinic'
loop_
_space_group_symop_operation_xyz
x,y,z
-x,-y,-z
loop_
_atom_site_type_symbol
_atom_site_label
_atom_site_fract_x
_atom_site_fract_y
_atom_site_fract_z
Si Si1 0.953458 0.951323 0.874857
Si Si2 0.130914 0.031242 0.819021
Si Si3 0.846771 0.847166 0.626915
Si Si4 0.454001 0.600797 0.156634
Si Si5 0.674121 0.600800 0.311625
Si Si6 0.274251 0.533870 0.210791
Si Si7 0.517983 0.708905 0.716181
Si Si8 0.302813 0.271023 0.138128
O O1 0.728098 0.081957 0.615913
O O2 0.921550 0.920141 0.082548
O O3 0.971353 0.050774 0.757749
O O4 0.199305 0.769549 0.027761
O O5 0.087015 0.153444 0.539808
O O6 0.409132 0.812880 0.083676
O O7 0.820336 0.750605 0.785414
O O8 0.589016 0.061429 0.382385
O O9 0.051404 0.737311 0.869083
O O10 0.634958 0.533887 0.329531
O O11 0.478937 0.474633 0.310240
O O12 0.454427 0.667637 0.910870
O O13 0.803516 0.480852 0.615335
O O14 0.781331 0.612176 0.165438
O O15 0.370566 0.408730 0.260896
O O16 0.694674 0.666264 0.823691
#
# Coordination Sequence:
#
# PCOD9077472 Si02
#       8
#     2   2   2   2   2   2   2   2
#     4  10  18  34  60  83 115 149 189 221 276 341
#     4   9  18  35  58  86 112 150 182 231 276 331
#     4  10  21  39  63  82 110 145 200 232 275 330
#     4  10  21  35  55  87 118 150 184 227 276 340
#     4   9  19  38  58  83 118 148 182 228 288 333
#     4  12  22  35  57  88 118 144 185 236 284 332
#     4  11  21  36  58  85 117 148 187 231 285 333
#     4   9  21  42  63  78 107 155 192 233 275 333
#
# _framework density 21.861039000000002
#
# number of rings (size 3 to 8) (size 9 to 14) (size 15 to 20)
#    0.000    2.000    1.250    3.375    0.000    1.000 
#    4.500    0.625    2.750    0.000    0.000    0.000 
#    0.000    0.000    0.000    0.000    0.000    0.000 
#
# Total GULP energy -89464.620750 kJ/mol
# GULP energy per Si atom -5591.538797 kJ/mol
# Density = 2.181128 g / cm^3
# Si number density = 21.861039 Si / 1000 Ang^3
#
#
#
# Elastic Constant Matrix: (Units=GPa)
#
#
# Indices 1 2 3 4 5 6 
#
# 1 54.3014 29.7540 11.3830 19.9085 -21.5652 8.1881
# 2 29.7540 93.2521 26.2598 27.6736 -13.1594 24.8444
# 3 11.3830 26.2598 69.2822 33.7703 -12.1790 -4.9536
# 4 19.9085 27.6736 33.7703 48.2027 -4.4845 -0.1843
# 5 -21.5652 -13.1594 -12.1790 -4.4845 25.5024 -2.7745
# 6 8.1881 24.8444 -4.9536 -0.1843 -2.7745 25.5152
#
#
#
# Elastic Compliance Matrix: (Units=1/GPa)
#
#
# Indices 1 2 3 4 5 6 
#
# 1 0.037424 -0.004615 0.008501 -0.015961 0.030225 -0.002694
# 2 -0.004615 0.021107 -0.005333 -0.006447 0.001129 -0.020030
# 3 0.008501 -0.005333 0.027204 -0.018053 0.015263 0.009276
# 4 -0.015961 -0.006447 -0.018053 0.042096 -0.017356 0.006311
# 5 0.030225 0.001129 0.015263 -0.017356 0.069547 -0.000398
# 6 -0.002694 -0.020030 0.009276 0.006311 -0.000398 0.061363
#
#
# Mechanical properties :
#
#
# Convention : Reuss Voigt Hill
#
# Bulk Modulus (GPa) = 12.07132 39.06993 25.57063
# Shear Modulus (GPa) = 17.28609 29.80664 23.54637
#
# Velocity S-wave (km/s) = 2.81504 3.69651 3.28547
# Velocity P-wave (km/s) = 4.01245 6.01080 5.11025
#
# Compressibility (1/GPa) = 0.08284096
#
# Stress axis : x y z
#
# Youngs Moduli (GPa) = 26.72070 47.37791 36.75909
#
# Poissons Ratio (x) = 0.21865 -0.31249
# Poissons Ratio (y) = 0.12332 0.19604
# Poissons Ratio (z) = -0.22715 0.25267
#
# Static dielectric constant tensor:
#      x y z
#    x 1.776410 0.003680 -0.007060 
#    y 0.003680 1.821180 -0.042630 
#    z -0.007060 -0.042630 1.820250 
# 
# From -- ./inp_files/178250.got.cif
#   From: 2010.05.17/outbox.cif.g08.bks.cpg/sg2_90_cif.got.tgz:178250.got - 2010.06.03 11:33:40.
