data_PCOD9077371
_publ_section_title
;
Structure prediction by ZEFSAII (Michael W. Deem and Ramdas Pophale) SiO2 
 PCOD9077371
Probable space group: P -1
;
_chemical_formula_sum "Si O2"
_cell_formula_units_Z 16
_cell_length_a 11.173578
_cell_length_b 8.583017
_cell_length_c 16.334296
_cell_angle_alpha 47.343324
_cell_angle_beta 139.139388
_cell_angle_gamma 124.570552
_cell_volume 748.766011
_symmetry_space_group_name_H-M "P -1"
_symmetry_group_IT_number 2
_symmetry_cell_setting 'triclinic'
loop_
_space_group_symop_operation_xyz
x,y,z
-x,-y,-z
loop_
_atom_site_type_symbol
_atom_site_label
_atom_site_fract_x
_atom_site_fract_y
_atom_site_fract_z
Si Si1 0.736646 0.358957 0.189858
Si Si2 0.407838 0.204188 0.846750
Si Si3 0.641632 0.350543 0.329099
Si Si4 0.783739 0.379294 0.565626
Si Si5 0.560719 0.027012 0.839278
Si Si6 0.462300 0.112547 0.574866
Si Si7 0.919278 0.803316 0.584759
Si Si8 0.864403 0.821218 0.143407
O O1 0.742352 0.320796 0.305403
O O2 0.550612 0.211467 0.123443
O O3 0.778981 0.612841 0.121090
O O4 0.896847 0.266259 0.254556
O O5 0.478434 0.451525 0.815002
O O6 0.215454 0.187725 0.801759
O O7 0.441760 0.175370 0.778825
O O8 0.500000 0.000000 0.000000
O O9 0.777751 0.405470 0.455641
O O10 0.530578 0.123892 0.372395
O O11 0.580204 0.292450 0.520910
O O12 0.848232 0.600717 0.564290
O O13 0.922032 0.209043 0.726326
O O14 0.548710 0.102120 0.713905
O O15 0.768016 0.011961 0.983670
O O16 0.248703 0.147058 0.463554
O O17 0.000000 0.000000 0.500000
#
# Coordination Sequence:
#
# PCOD9077371 Si02
#       8
#     2   2   2   2   2   2   2   2
#     4   9  19  33  56  87 111 142 191 240 289 335
#     4   9  19  34  56  86 110 142 193 242 288 330
#     4  10  20  36  58  81 117 155 188 235 291 339
#     4  11  24  37  57  84 123 157 188 231 285 351
#     4  10  18  34  59  79 115 150 189 241 285 331
#     4  11  23  38  57  86 117 157 194 230 286 349
#     4  11  20  37  56  86 116 142 189 239 288 339
#     4   9  20  35  54  85 113 149 192 235 287 341
#
# _framework density 21.368492
#
# number of rings (size 3 to 8) (size 9 to 14) (size 15 to 20)
#    0.000    2.000    2.500    1.875    0.000    8.000 
#    0.000    0.000    0.000    3.000    0.000    0.000 
#    0.000    0.000    0.000    0.000    0.000    0.000 
#
# Total GULP energy -89100.566574 kJ/mol
# GULP energy per Si atom -5568.785411 kJ/mol
# Density = 2.131986 g / cm^3
# Si number density = 21.368492 Si / 1000 Ang^3
#
#
#
# Elastic Constant Matrix: (Units=GPa)
#
#
# Indices 1 2 3 4 5 6 
#
# 1 71.9544 24.5159 26.7887 -2.8078 22.8990 1.6094
# 2 24.5159 68.2407 -0.5374 -11.0885 7.4865 -1.7531
# 3 26.7887 -0.5374 78.8637 -7.4177 21.8316 -2.5375
# 4 -2.8078 -11.0885 -7.4177 15.8998 -6.3046 0.4128
# 5 22.8990 7.4865 21.8316 -6.3046 32.6721 4.0697
# 6 1.6094 -1.7531 -2.5375 0.4128 4.0697 31.3220
#
#
#
# Elastic Compliance Matrix: (Units=1/GPa)
#
#
# Indices 1 2 3 4 5 6 
#
# 1 0.021961 -0.008073 -0.005087 -0.008794 -0.011797 -0.000344
# 2 -0.008073 0.019898 0.004016 0.014707 0.001064 0.001522
# 3 -0.005087 0.004016 0.017383 0.006758 -0.008021 0.002848
# 4 -0.008794 0.014707 0.006758 0.080289 0.013901 -0.001042
# 5 -0.011797 0.001064 -0.008021 0.013901 0.047462 -0.006334
# 6 -0.000344 0.001522 0.002848 -0.001042 -0.006334 0.033097
#
#
# Mechanical properties :
#
#
# Convention : Reuss Voigt Hill
#
# Bulk Modulus (GPa) = 24.41862 35.62147 30.02005
# Shear Modulus (GPa) = 19.83875 27.19822 23.51848
#
# Velocity S-wave (km/s) = 3.05029 3.57153 3.32115
# Velocity P-wave (km/s) = 4.88445 5.80638 5.36526
#
# Compressibility (1/GPa) = 0.04095235
#
# Stress axis : x y z
#
# Youngs Moduli (GPa) = 45.53474 50.25579 57.52692
#
# Poissons Ratio (x) = 0.40574 0.29266
# Poissons Ratio (y) = 0.36762 -0.23101
# Poissons Ratio (z) = 0.23165 -0.20181
#
# Static dielectric constant tensor:
#      x y z
#    x 1.777510 -0.022380 -0.001730 
#    y -0.022380 1.827860 -0.021050 
#    z -0.001730 -0.021050 1.850410 
# 
# From -- ./inp_files/565774.got.cif
#   From: 2010.05.17/outbox.cif.g08.bks.cpg/sg2_283_cif.got.tgz:565774.got - 2010.06.03 11:33:40.
