data_PCOD9077635
_publ_section_title
;
Structure prediction by ZEFSAII (Michael W. Deem and Ramdas Pophale) SiO2 
 PCOD9077635
Probable space group: P -1
;
_chemical_formula_sum "Si O2"
_cell_formula_units_Z 16
_cell_length_a 13.655443
_cell_length_b 8.394654
_cell_length_c 11.215353
_cell_angle_alpha 72.422222
_cell_angle_beta 147.440517
_cell_angle_gamma 88.921915
_cell_volume 558.177756
_symmetry_space_group_name_H-M "P -1"
_symmetry_group_IT_number 2
_symmetry_cell_setting 'triclinic'
loop_
_space_group_symop_operation_xyz
x,y,z
-x,-y,-z
loop_
_atom_site_type_symbol
_atom_site_label
_atom_site_fract_x
_atom_site_fract_y
_atom_site_fract_z
Si Si1 0.519603 0.248392 0.908588
Si Si2 0.795114 0.744092 0.592160
Si Si3 0.217280 0.582278 0.955829
Si Si4 0.071587 0.171943 0.617845
Si Si5 0.158690 0.249550 0.932786
Si Si6 0.171815 0.775588 0.271755
Si Si7 0.526714 0.156925 0.572557
Si Si8 0.701575 0.162687 0.355713
O O1 0.612627 0.354225 0.899555
O O2 0.523119 0.293456 0.042770
O O3 0.693105 0.012315 0.131162
O O4 0.297976 0.302546 0.610033
O O5 0.688488 0.710494 0.604263
O O6 0.047213 0.662441 0.871420
O O7 0.684856 0.980303 0.417767
O O8 0.288058 0.354811 0.068118
O O9 0.059820 0.691624 0.657458
O O10 0.071857 0.299817 0.698744
O O11 0.925260 0.089056 0.532866
O O12 0.982867 0.307532 0.844584
O O13 0.290177 0.011439 0.115886
O O14 0.372423 0.723860 0.405068
O O15 0.263855 0.757778 0.503811
O O16 0.000000 0.000000 0.000000
O O17 0.500000 0.000000 0.500000
#
# Coordination Sequence:
#
# PCOD9077635 Si02
#       8
#     2   2   2   2   2   2   2   2
#     4  11  21  37  64  99 128 169 210 253 315 393
#     4  12  22  37  66  93 127 169 215 255 316 380
#     4  11  23  40  61  97 138 159 202 265 331 375
#     4  10  18  37  64  93 124 172 207 248 309 400
#     4  10  22  41  64  91 125 168 204 270 327 365
#     4   9  20  38  65  88 118 167 221 256 310 375
#     4  11  22  40  66  90 117 165 229 264 296 377
#     4  10  18  34  61  96 123 158 217 265 295 374
#
# _framework density 28.664702999999999
#
# number of rings (size 3 to 8) (size 9 to 14) (size 15 to 20)
#    0.000    1.500    5.000    1.500    0.000    0.000 
#    2.250    1.250    0.000    4.500    0.000    0.000 
#    0.000    0.000    0.000    0.000    0.000    0.000 
#
# Total GULP energy -89603.720946 kJ/mol
# GULP energy per Si atom -5600.232559 kJ/mol
# Density = 2.859946 g / cm^3
# Si number density = 28.664703 Si / 1000 Ang^3
#
#
#
# Elastic Constant Matrix: (Units=GPa)
#
#
# Indices 1 2 3 4 5 6 
#
# 1 159.3505 16.2441 23.0600 -0.0994 18.1486 28.7077
# 2 16.2441 92.3589 22.6653 -3.5381 10.9975 23.9759
# 3 23.0600 22.6653 77.8388 8.4364 1.8726 9.8867
# 4 -0.0994 -3.5381 8.4364 57.3122 10.6677 4.7516
# 5 18.1486 10.9975 1.8726 10.6677 37.8269 14.7963
# 6 28.7077 23.9759 9.8867 4.7516 14.7963 51.2090
#
#
#
# Elastic Compliance Matrix: (Units=1/GPa)
#
#
# Indices 1 2 3 4 5 6 
#
# 1 0.007408 0.000381 -0.001940 0.001076 -0.002577 -0.003312
# 2 0.000381 0.013377 -0.003519 0.002241 -0.002459 -0.005295
# 3 -0.001940 -0.003519 0.014755 -0.002760 0.002194 -0.000491
# 4 0.001076 0.002241 -0.002760 0.019207 -0.005990 -0.001171
# 5 -0.002577 -0.002459 0.002194 -0.005990 0.032583 -0.006687
# 6 -0.003312 -0.005295 -0.000491 -0.001171 -0.006687 0.025999
#
#
# Mechanical properties :
#
#
# Convention : Reuss Voigt Hill
#
# Bulk Modulus (GPa) = 39.39383 50.38744 44.89063
# Shear Modulus (GPa) = 37.89389 47.10819 42.50104
#
# Velocity S-wave (km/s) = 3.63984 4.05831 3.85476
# Velocity P-wave (km/s) = 5.60690 6.29096 5.95876
#
# Compressibility (1/GPa) = 0.02538469
#
# Stress axis : x y z
#
# Youngs Moduli (GPa) = 134.98581 74.75469 67.77260
#
# Poissons Ratio (x) = -0.02848 0.13145
# Poissons Ratio (y) = -0.05142 0.23851
# Poissons Ratio (z) = 0.26181 0.26308
#
# Static dielectric constant tensor:
#      x y z
#    x 2.303030 -0.068460 -0.017150 
#    y -0.068460 2.233380 -0.049780 
#    z -0.017150 -0.049780 2.313840 
# 
# From -- ./inp_files/393771.got.cif
#   From: 2010.05.17/outbox.cif.g08.bks.cpg/sg2_197_cif.got.tgz:393771.got - 2010.06.03 11:33:40.
