data_PCOD9077358
_publ_section_title
;
Structure prediction by ZEFSAII (Michael W. Deem and Ramdas Pophale) SiO2 
 PCOD9077358
Probable space group: P -1
;
_chemical_formula_sum "Si O2"
_cell_formula_units_Z 12
_cell_length_a 8.315007
_cell_length_b 8.554881
_cell_length_c 13.847599
_cell_angle_alpha 38.773844
_cell_angle_beta 62.878114
_cell_angle_gamma 85.752557
_cell_volume 473.961361
_symmetry_space_group_name_H-M "P -1"
_symmetry_group_IT_number 2
_symmetry_cell_setting 'triclinic'
loop_
_space_group_symop_operation_xyz
x,y,z
-x,-y,-z
loop_
_atom_site_type_symbol
_atom_site_label
_atom_site_fract_x
_atom_site_fract_y
_atom_site_fract_z
Si Si1 0.353921 0.977486 0.244904
Si Si2 0.429279 0.527947 0.377063
Si Si3 0.257909 0.522685 0.791516
Si Si4 0.959480 0.335476 0.355369
Si Si5 0.598050 0.557570 0.793823
Si Si6 0.024119 0.846100 0.231249
O O1 0.489325 0.821862 0.273186
O O2 0.231983 0.899198 0.415472
O O3 0.171891 0.843469 0.277563
O O4 0.489224 0.308418 0.022206
O O5 0.608624 0.447653 0.356743
O O6 0.410778 0.582389 0.242495
O O7 0.209242 0.291260 0.595326
O O8 0.117244 0.657882 0.735390
O O9 0.433935 0.665589 0.758490
O O10 0.118344 0.180710 0.015866
O O11 0.157202 0.293367 0.325759
O O12 0.022164 0.642976 0.242777
#
# Coordination Sequence:
#
# PCOD9077358 Si02
#       6
#     2   2   2   2   2   2
#     4  10  15  23  34  37  44  55  59  64  76  80
#     4   9  15  24  31  37  45  52  59  66  72  80
#     4   9  19  24  30  40  46  50  61  67  72  81
#     4  11  17  24  32  39  44  53  60  66  73  81
#     4   9  17  26  31  37  47  53  57  68  74  79
#     4  10  15  24  32  38  45  54  58  66  75  80
#
# _framework density 25.318519999999999
#
# number of rings (size 3 to 8) (size 9 to 14) (size 15 to 20)
#    1.000    1.333    3.333    3.000    0.000    4.000 
#    0.000    0.000    0.000    0.000    0.000    0.000 
#    0.000    0.000    0.000    0.000    0.000    0.000 
#
# Total GULP energy -67021.614754 kJ/mol
# GULP energy per Si atom -5585.134563 kJ/mol
# Density = 2.526089 g / cm^3
# Si number density = 25.318520 Si / 1000 Ang^3
#
#
#
# Elastic Constant Matrix: (Units=GPa)
#
#
# Indices 1 2 3 4 5 6 
#
# 1 -102.9223 207.4040 -5.0429 160.8003 31.0190 58.0681
# 2 207.4040 -107.1179 74.0894 -153.0293 -26.6901 -44.6566
# 3 -5.0429 74.0894 97.6149 70.6743 -2.1313 27.3010
# 4 160.8003 -153.0293 70.6743 -119.6457 -17.9438 -42.3930
# 5 31.0190 -26.6901 -2.1313 -17.9438 31.4067 -7.7237
# 6 58.0681 -44.6566 27.3010 -42.3930 -7.7237 6.0836
#
#
#
# Elastic Compliance Matrix: (Units=1/GPa)
#
#
# Indices 1 2 3 4 5 6 
#
# 1 0.021935 -0.003928 -0.015614 0.026299 -0.010636 0.001627
# 2 -0.003928 0.012981 0.004483 -0.017683 0.003656 -0.005923
# 3 -0.015614 0.004483 0.018783 -0.016304 0.010564 -0.002551
# 4 0.026299 -0.017683 -0.016304 0.046081 -0.018133 -0.009565
# 5 -0.010636 0.003656 0.010564 -0.018133 0.035829 0.000082
# 6 0.001627 -0.005923 -0.002551 -0.009565 0.000082 0.050262
#
#
# Mechanical properties :
#
#
# Convention : Reuss Voigt Hill
#
# Bulk Modulus (GPa) = 42.40271 48.94172 45.67222
# Shear Modulus (GPa) = 22.33645 -42.35614 -10.00985
#
# Velocity S-wave (km/s) = 2.97344 -4.09459 -1.99052
# Velocity P-wave (km/s) = 5.34533 1.72679 3.57706
#
# Compressibility (1/GPa) = 0.02358340
#
# Stress axis : x y z
#
# Youngs Moduli (GPa) = 45.58891 77.03519 53.23869
#
# Poissons Ratio (x) = 0.30256 0.83127
# Poissons Ratio (y) = 0.17905 -0.23869
# Poissons Ratio (z) = 0.71182 -0.34538
#
# Static dielectric constant tensor:
#      x y z
#    x 2.046680 0.026510 -0.008710 
#    y 0.026510 1.977350 -0.049440 
#    z -0.008710 -0.049440 1.969070 
# 
# From -- ./inp_files/336050.got.cif
#   From: 2010.05.17/outbox.cif.g08.bks.cpg/sg2_169_cif.got.tgz:336050.got - 2010.06.03 11:33:40.
