data_PCOD9077619
_publ_section_title
;
Structure prediction by ZEFSAII (Michael W. Deem and Ramdas Pophale) SiO2 
 PCOD9077619
Probable space group: P -1
;
_chemical_formula_sum "Si O2"
_cell_formula_units_Z 16
_cell_length_a 13.106899
_cell_length_b 9.502444
_cell_length_c 18.297210
_cell_angle_alpha 32.495800
_cell_angle_beta 146.939074
_cell_angle_gamma 144.809711
_cell_volume 618.721134
_symmetry_space_group_name_H-M "P -1"
_symmetry_group_IT_number 2
_symmetry_cell_setting 'triclinic'
loop_
_space_group_symop_operation_xyz
x,y,z
-x,-y,-z
loop_
_atom_site_type_symbol
_atom_site_label
_atom_site_fract_x
_atom_site_fract_y
_atom_site_fract_z
Si Si1 0.413477 0.563922 0.317844
Si Si2 0.583999 0.761035 0.747789
Si Si3 0.204635 0.790163 0.990819
Si Si4 0.710648 0.294324 0.675771
Si Si5 0.209620 0.870191 0.410121
Si Si6 0.011702 0.607473 0.624365
Si Si7 0.991915 0.043723 0.319053
Si Si8 0.355871 0.384168 0.894130
O O1 0.587582 0.447324 0.487346
O O2 0.409308 0.764145 0.294836
O O3 0.202918 0.306494 0.322020
O O4 0.390356 0.710589 0.165157
O O5 0.395118 0.846594 0.575416
O O6 0.491733 0.474119 0.862458
O O7 0.706611 0.995914 0.777059
O O8 0.715131 0.836372 0.719484
O O9 0.221214 0.050203 0.943300
O O10 0.187639 0.885336 0.855747
O O11 0.000000 0.500000 0.000000
O O12 0.941761 0.511406 0.707382
O O13 0.148720 0.632803 0.416682
O O14 0.029463 0.836129 0.371509
O O15 0.990409 0.893377 0.460132
O O16 0.213050 0.563837 0.740499
O O17 0.500000 0.500000 0.000000
#
# Coordination Sequence:
#
# PCOD9077619 Si02
#       8
#     2   2   2   2   2   2   2   2
#     4  10  21  40  60  82 127 168 209 244 316 384
#     4  10  20  35  61  94 119 154 207 262 316 357
#     4  10  23  40  64  90 127 173 204 246 319 381
#     4  10  21  39  63  89 119 168 209 261 306 377
#     4  10  18  34  61  91 117 149 204 261 310 359
#     4  11  22  37  64  93 118 155 220 267 311 357
#     4  11  19  38  63  88 118 164 208 263 303 369
#     4  12  23  40  63  95 131 163 206 267 316 368
#
# _framework density 25.859793
#
# number of rings (size 3 to 8) (size 9 to 14) (size 15 to 20)
#    0.000    1.500    3.750    1.875    0.000    1.500 
#    2.250    2.500    2.750    0.000    0.000    0.000 
#    0.000    0.000    0.000    0.000    0.000    0.000 
#
# Total GULP energy -89236.345028 kJ/mol
# GULP energy per Si atom -5577.271564 kJ/mol
# Density = 2.580093 g / cm^3
# Si number density = 25.859793 Si / 1000 Ang^3
#
#
#
# Elastic Constant Matrix: (Units=GPa)
#
#
# Indices 1 2 3 4 5 6 
#
# 1 81.1581 15.6235 12.2571 -5.7029 -11.4144 9.3820
# 2 15.6235 92.1721 18.7918 -14.3590 -7.8001 -3.6143
# 3 12.2571 18.7918 100.7065 2.1639 -15.4123 9.0503
# 4 -5.7029 -14.3590 2.1639 24.3974 -3.5241 -0.2037
# 5 -11.4144 -7.8001 -15.4123 -3.5241 17.2291 -10.1329
# 6 9.3820 -3.6143 9.0503 -0.2037 -10.1329 36.9738
#
#
#
# Elastic Compliance Matrix: (Units=1/GPa)
#
#
# Indices 1 2 3 4 5 6 
#
# 1 0.014221 -0.001050 -0.000147 0.003998 0.008922 -0.001208
# 2 -0.001050 0.013703 -0.001732 0.009227 0.008428 0.004391
# 3 -0.000147 -0.001732 0.011735 -0.000775 0.009165 -0.000497
# 4 0.003998 0.009227 -0.000775 0.050335 0.019834 0.005790
# 5 0.008922 0.008428 0.009165 0.019834 0.092895 0.021884
# 6 -0.001208 0.004391 -0.000497 0.005790 0.021884 0.033933
#
#
# Mechanical properties :
#
#
# Convention : Reuss Voigt Hill
#
# Bulk Modulus (GPa) = 29.58463 40.82017 35.20240
# Shear Modulus (GPa) = 21.37226 30.87767 26.12497
#
# Velocity S-wave (km/s) = 2.87795 3.45924 3.18190
# Velocity P-wave (km/s) = 4.74433 5.63689 5.20976
#
# Compressibility (1/GPa) = 0.03380134
#
# Stress axis : x y z
#
# Youngs Moduli (GPa) = 70.31648 72.97495 85.21583
#
# Poissons Ratio (x) = 0.07664 0.01251
# Poissons Ratio (y) = 0.07384 0.14761
# Poissons Ratio (z) = 0.01032 0.12641
#
# Static dielectric constant tensor:
#      x y z
#    x 2.205010 -0.104740 -0.069750 
#    y -0.104740 2.155590 -0.035680 
#    z -0.069750 -0.035680 2.056990 
# 
# From -- ./inp_files/597956.got.cif
#   From: 2010.05.17/outbox.cif.g08.bks.cpg/sg2_299_cif.got.tgz:597956.got - 2010.06.03 11:33:40.
