data_PCOD9077506
_publ_section_title
;
Structure prediction by ZEFSAII (Michael W. Deem and Ramdas Pophale) SiO2 
 PCOD9077506
Probable space group: P -1
;
_chemical_formula_sum "Si O2"
_cell_formula_units_Z 15
_cell_length_a 5.348669
_cell_length_b 12.820726
_cell_length_c 12.971025
_cell_angle_alpha 133.615623
_cell_angle_beta 84.569988
_cell_angle_gamma 78.782942
_cell_volume 597.975080
_symmetry_space_group_name_H-M "P -1"
_symmetry_group_IT_number 2
_symmetry_cell_setting 'triclinic'
loop_
_space_group_symop_operation_xyz
x,y,z
-x,-y,-z
loop_
_atom_site_type_symbol
_atom_site_label
_atom_site_fract_x
_atom_site_fract_y
_atom_site_fract_z
Si Si1 0.219627 0.648081 0.825318
Si Si2 0.561165 0.779675 0.769278
Si Si3 0.880238 0.039939 0.373674
Si Si4 0.614295 0.363540 0.520370
Si Si5 0.720099 0.898951 0.093991
Si Si6 0.482290 0.877648 0.298379
Si Si7 0.000000 0.500000 0.500000
Si Si8 0.711249 0.533726 0.088986
O O1 0.408412 0.742824 0.848620
O O2 0.317001 0.491427 0.644065
O O3 0.264303 0.572484 0.885218
O O4 0.916416 0.768160 0.925085
O O5 0.431742 0.713757 0.634443
O O6 0.871475 0.685053 0.666628
O O7 0.475824 0.958956 0.866176
O O8 0.757732 0.224498 0.497199
O O9 0.654857 0.982544 0.391444
O O10 0.899961 0.968098 0.208011
O O11 0.165228 0.968038 0.368016
O O12 0.798349 0.462389 0.563654
O O13 0.568223 0.838804 0.146836
O O14 0.587463 0.715953 0.242380
O O15 0.500000 0.500000 0.000000
O O16 0.000000 0.500000 0.000000
#
# Coordination Sequence:
#
# PCOD9077506 Si02
#       8
#     2   2   2   2   2   2   1   2
#     4  11  21  40  63 102 128 173 227 272 337 399
#     4  10  21  40  62  94 137 174 216 272 335 405
#     4   9  20  39  67  91 127 177 218 268 333 390
#     4  10  22  40  63  96 138 174 218 275 337 402
#     4   9  19  36  64  91 133 169 222 267 334 394
#     4  10  19  39  68  90 126 179 223 265 333 387
#     4  10  18  34  60  86 132 172 214 254 332 382
#     4  12  24  45  67  97 139 176 219 285 338 387
#
# _framework density 25.084654
#
# number of rings (size 3 to 8) (size 9 to 14) (size 15 to 20)
#    0.800    1.067    1.333    4.400    0.000    0.000 
#    9.600    1.333    0.000   12.800    0.000    0.000 
#    0.000    0.000    0.000    0.000    0.000    0.000 
#
# Total GULP energy -83679.999903 kJ/mol
# GULP energy per Si atom -5578.666660 kJ/mol
# Density = 2.502756 g / cm^3
# Si number density = 25.084654 Si / 1000 Ang^3
#
#
#
# Elastic Constant Matrix: (Units=GPa)
#
#
# Indices 1 2 3 4 5 6 
#
# 1 122.3184 17.8224 43.0584 14.8928 -32.1997 -6.2336
# 2 17.8224 141.7205 56.5112 29.7743 -31.7199 -9.5778
# 3 43.0584 56.5112 95.4825 8.7468 -34.5149 -5.1924
# 4 14.8928 29.7743 8.7468 54.4063 -4.3693 -13.4109
# 5 -32.1997 -31.7199 -34.5149 -4.3693 49.3344 8.5068
# 6 -6.2336 -9.5778 -5.1924 -13.4109 8.5068 35.4464
#
#
#
# Elastic Compliance Matrix: (Units=1/GPa)
#
#
# Indices 1 2 3 4 5 6 
#
# 1 0.011109 0.002076 -0.003930 -0.003251 0.005660 -0.000649
# 2 0.002076 0.011048 -0.005466 -0.005534 0.004242 -0.000562
# 3 -0.003930 -0.005466 0.017655 0.001620 0.006508 -0.000530
# 4 -0.003251 -0.005534 0.001620 0.023718 -0.003836 0.008065
# 5 0.005660 0.004242 0.006508 -0.003836 0.031943 -0.006023
# 6 -0.000649 -0.000562 -0.000530 0.008065 -0.006023 0.032364
#
#
# Mechanical properties :
#
#
# Convention : Reuss Voigt Hill
#
# Bulk Modulus (GPa) = 39.72398 66.03392 52.87895
# Shear Modulus (GPa) = 33.14163 43.97938 38.56050
#
# Velocity S-wave (km/s) = 3.63876 4.19171 3.92499
# Velocity P-wave (km/s) = 5.79003 7.05754 6.45497
#
# Compressibility (1/GPa) = 0.02517371
#
# Stress axis : x y z
#
# Youngs Moduli (GPa) = 90.01745 90.51038 56.64061
#
# Poissons Ratio (x) = -0.18789 0.22259
# Poissons Ratio (y) = -0.18686 0.30957
# Poissons Ratio (z) = 0.35375 0.49469
#
# Static dielectric constant tensor:
#      x y z
#    x 2.031110 -0.046290 0.090960 
#    y -0.046290 1.973480 -0.023010 
#    z 0.090960 -0.023010 2.063280 
# 
# From -- ./inp_files/365168.got.cif
#   From: 2010.05.17/outbox.cif.g08.bks.cpg/sg2_183_cif.got.tgz:365168.got - 2010.06.03 11:33:40.
