data_PCOD9077785
_publ_section_title
;
Structure prediction by ZEFSAII (Michael W. Deem and Ramdas Pophale) SiO2 
 PCOD9077785
Probable space group: P -1
;
_chemical_formula_sum "Si O2"
_cell_formula_units_Z 13
_cell_length_a 11.412645
_cell_length_b 9.327214
_cell_length_c 7.851168
_cell_angle_alpha 84.631682
_cell_angle_beta 97.933455
_cell_angle_gamma 37.712395
_cell_volume 477.135373
_symmetry_space_group_name_H-M "P -1"
_symmetry_group_IT_number 2
_symmetry_cell_setting 'triclinic'
loop_
_space_group_symop_operation_xyz
x,y,z
-x,-y,-z
loop_
_atom_site_type_symbol
_atom_site_label
_atom_site_fract_x
_atom_site_fract_y
_atom_site_fract_z
Si Si1 0.871762 0.270848 0.119860
Si Si2 0.049520 0.329285 0.355082
Si Si3 0.604065 0.894282 0.215214
Si Si4 0.500000 0.000000 0.500000
Si Si5 0.441558 0.368750 0.671724
Si Si6 0.120323 0.994190 0.642007
Si Si7 0.607861 0.489962 0.726998
O O1 0.701385 0.479392 0.208910
O O2 0.913055 0.058347 0.180682
O O3 0.038140 0.226715 0.206674
O O4 0.757039 0.403253 0.906413
O O5 0.156885 0.371280 0.728717
O O6 0.244849 0.236365 0.405027
O O7 0.052591 0.217067 0.532583
O O8 0.523734 0.836673 0.323122
O O9 0.519648 0.087524 0.315564
O O10 0.500000 0.000000 0.000000
O O11 0.623625 0.298112 0.750332
O O12 0.350784 0.504863 0.457874
O O13 0.364396 0.744360 0.688027
O O14 0.000000 0.000000 0.500000
#
# Coordination Sequence:
#
# PCOD9077785 Si02
#       7
#     2   2   2   1   2   2   2
#     4   9  19  37  65 100 134 170 212 269 342 409
#     4  10  23  43  69 100 135 180 230 280 340 403
#     4  11  26  46  69  98 132 179 238 286 331 395
#     4  12  26  48  70  90 132 184 232 288 336 386
#     4   9  19  35  61  98 134 167 216 275 331 405
#     4   9  17  33  61  94 132 170 206 263 340 406
#     4  10  18  34  66 101 133 172 212 265 344 411
#
# _framework density 27.245934999999999
#
# number of rings (size 3 to 8) (size 9 to 14) (size 15 to 20)
#    0.000    2.154    0.000    4.154    0.000    6.769 
#    0.000    3.077    0.000   97.846    0.000    0.000 
#    0.000    0.000    0.000    0.000    0.000    0.000 
#
# Total GULP energy -72450.296370 kJ/mol
# GULP energy per Si atom -5573.099721 kJ/mol
# Density = 2.718392 g / cm^3
# Si number density = 27.245935 Si / 1000 Ang^3
#
#
#
# Elastic Constant Matrix: (Units=GPa)
#
#
# Indices 1 2 3 4 5 6 
#
# 1 163.4426 36.8750 51.1760 -8.9567 35.4040 -0.9707
# 2 36.8750 135.4860 57.8138 -17.7732 8.9021 -30.2268
# 3 51.1760 57.8138 210.7953 -6.4930 14.5818 -9.0415
# 4 -8.9567 -17.7732 -6.4930 39.4027 2.2243 -2.1722
# 5 35.4040 8.9021 14.5818 2.2243 35.4261 1.5008
# 6 -0.9707 -30.2268 -9.0415 -2.1722 1.5008 47.8583
#
#
#
# Elastic Compliance Matrix: (Units=1/GPa)
#
#
# Indices 1 2 3 4 5 6 
#
# 1 0.008539 -0.001207 -0.001172 0.001618 -0.007829 -0.000492
# 2 -0.001207 0.010804 -0.002159 0.004677 -0.001195 0.006641
# 3 -0.001172 -0.002159 0.005637 -0.000296 -0.000575 -0.000317
# 4 0.001618 0.004677 -0.000296 0.028310 -0.004633 0.004361
# 5 -0.007829 -0.001195 -0.000575 -0.004633 0.036981 -0.002392
# 6 -0.000492 0.006641 -0.000317 0.004361 -0.002392 0.025293
#
#
# Mechanical properties :
#
#
# Convention : Reuss Voigt Hill
#
# Bulk Modulus (GPa) = 62.86883 89.05038 75.95961
# Shear Modulus (GPa) = 38.47900 48.79468 43.63684
#
# Velocity S-wave (km/s) = 3.76211 4.23649 4.00633
# Velocity P-wave (km/s) = 6.48043 7.52897 7.02429
#
# Compressibility (1/GPa) = 0.01590613
#
# Stress axis : x y z
#
# Youngs Moduli (GPa) = 117.10661 92.55696 177.38478
#
# Poissons Ratio (x) = 0.11172 0.20784
# Poissons Ratio (y) = 0.14136 0.38290
# Poissons Ratio (z) = 0.13722 0.19979
#
# Static dielectric constant tensor:
#      x y z
#    x 1.840570 -0.433840 -0.473360 
#    y -0.433840 1.368760 -0.746200 
#    z -0.473360 -0.746200 1.548260 
# 
# From -- ./inp_files/248440.got.cif
#   From: 2010.05.17/outbox.cif.g08.bks.cpg/sg2_125_cif.got.tgz:248440.got - 2010.06.03 11:33:40.
