data_PCOD9077323
_publ_section_title
;
Structure prediction by ZEFSAII (Michael W. Deem and Ramdas Pophale) SiO2 
 PCOD9077323
Probable space group: P -1
;
_chemical_formula_sum "Si O2"
_cell_formula_units_Z 16
_cell_length_a 9.975871
_cell_length_b 17.159607
_cell_length_c 10.468000
_cell_angle_alpha 146.610182
_cell_angle_beta 61.029057
_cell_angle_gamma 125.573143
_cell_volume 802.111936
_symmetry_space_group_name_H-M "P -1"
_symmetry_group_IT_number 2
_symmetry_cell_setting 'triclinic'
loop_
_space_group_symop_operation_xyz
x,y,z
-x,-y,-z
loop_
_atom_site_type_symbol
_atom_site_label
_atom_site_fract_x
_atom_site_fract_y
_atom_site_fract_z
Si Si1 0.659184 0.222487 0.652030
Si Si2 0.841304 0.796871 0.877874
Si Si3 0.184023 0.504699 0.400804
Si Si4 0.231288 0.130429 0.490006
Si Si5 0.393569 0.831769 0.688766
Si Si6 0.731703 0.965343 0.387849
Si Si7 0.694363 0.539311 0.995610
Si Si8 0.189504 0.019501 0.087517
O O1 0.686169 0.198590 0.457816
O O2 0.463888 0.134637 0.644301
O O3 0.749917 0.135615 0.574753
O O4 0.704380 0.402204 0.889827
O O5 0.787521 0.619689 0.691062
O O6 0.783801 0.841514 0.831053
O O7 0.783809 0.882172 0.134114
O O8 0.039257 0.876848 0.904213
O O9 0.308098 0.678161 0.598697
O O10 0.000000 0.500000 0.500000
O O11 0.215821 0.459070 0.178986
O O12 0.418786 0.145939 0.392756
O O13 0.187504 0.040946 0.521431
O O14 0.235177 0.298224 0.746977
O O15 0.140511 0.055793 0.300463
O O16 0.346506 0.969610 0.950721
O O17 0.500000 0.500000 0.000000
#
# Coordination Sequence:
#
# PCOD9077323 Si02
#       8
#     2   2   2   2   2   2   2   2
#     4   9  18  31  59  85 110 142 197 234 279 340
#     4  11  22  38  60  82 113 155 196 232 288 357
#     4  11  20  35  62  87 112 150 201 234 283 352
#     4  11  22  37  59  87 117 152 193 245 287 340
#     4  10  19  37  58  83 118 155 190 237 290 342
#     4  10  18  34  58  86 105 147 196 237 275 341
#     4  11  18  35  60  85 114 155 194 237 290 344
#     4  11  24  38  55  85 122 153 188 239 299 341
#
# _framework density 19.947341000000002
#
# number of rings (size 3 to 8) (size 9 to 14) (size 15 to 20)
#    0.000    1.500    7.500    0.375    0.000    0.500 
#    0.000    1.875    0.000    1.500    0.000    0.000 
#    0.000    0.000    0.000    0.000    0.000    0.000 
#
# Total GULP energy -89305.611987 kJ/mol
# GULP energy per Si atom -5581.600749 kJ/mol
# Density = 1.990194 g / cm^3
# Si number density = 19.947341 Si / 1000 Ang^3
#
#
#
# Elastic Constant Matrix: (Units=GPa)
#
#
# Indices 1 2 3 4 5 6 
#
# 1 43.4199 34.9134 28.4947 0.6911 -12.2672 -12.0906
# 2 34.9134 138.9310 38.3022 15.5891 -16.8224 -36.7474
# 3 28.4947 38.3022 96.6725 -3.4722 -19.4055 -22.6111
# 4 0.6911 15.5891 -3.4722 38.3980 -0.0086 -17.9736
# 5 -12.2672 -16.8224 -19.4055 -0.0086 29.9081 -6.5169
# 6 -12.0906 -36.7474 -22.6111 -17.9736 -6.5169 35.5334
#
#
#
# Elastic Compliance Matrix: (Units=1/GPa)
#
#
# Indices 1 2 3 4 5 6 
#
# 1 0.034917 -0.004324 -0.003728 0.005436 0.011633 0.009920
# 2 -0.004324 0.013150 0.002367 0.002977 0.010893 0.017138
# 3 -0.003728 0.002367 0.019831 0.011633 0.017668 0.022923
# 4 0.005436 0.002977 0.011633 0.043578 0.019744 0.037995
# 5 0.011633 0.010893 0.017668 0.019744 0.066400 0.048631
# 6 0.009920 0.017138 0.022923 0.037995 0.048631 0.091966
#
#
# Mechanical properties :
#
#
# Convention : Reuss Voigt Hill
#
# Bulk Modulus (GPa) = 17.69079 53.60489 35.64784
# Shear Modulus (GPa) = 16.66355 32.58877 24.62616
#
# Velocity S-wave (km/s) = 2.89342 4.04634 3.51744
# Velocity P-wave (km/s) = 4.47778 6.98298 5.86569
#
# Compressibility (1/GPa) = 0.05652658
#
# Stress axis : x y z
#
# Youngs Moduli (GPa) = 28.63926 76.04576 50.42547
#
# Poissons Ratio (x) = 0.32886 0.18798
# Poissons Ratio (y) = 0.12385 -0.11934
# Poissons Ratio (z) = 0.10677 -0.17997
#
# Static dielectric constant tensor:
#      x y z
#    x 1.733000 0.000130 -0.012970 
#    y 0.000130 1.715180 0.001860 
#    z -0.012970 0.001860 1.693080 
# 
# From -- ./inp_files/274592.got.cif
#   From: 2010.05.17/outbox.cif.g08.bks.cpg/sg2_138_cif.got.tgz:274592.got - 2010.06.03 11:33:40.
