data_PCOD9077580
_publ_section_title
;
Structure prediction by ZEFSAII (Michael W. Deem and Ramdas Pophale) SiO2 
 PCOD9077580
Probable space group: P -1
;
_chemical_formula_sum "Si O2"
_cell_formula_units_Z 10
_cell_length_a 7.056622
_cell_length_b 7.196318
_cell_length_c 15.162883
_cell_angle_alpha 80.188886
_cell_angle_beta 145.054458
_cell_angle_gamma 102.387606
_cell_volume 430.763716
_symmetry_space_group_name_H-M "P -1"
_symmetry_group_IT_number 2
_symmetry_cell_setting 'triclinic'
loop_
_space_group_symop_operation_xyz
x,y,z
-x,-y,-z
loop_
_atom_site_type_symbol
_atom_site_label
_atom_site_fract_x
_atom_site_fract_y
_atom_site_fract_z
Si Si1 0.391990 0.261394 0.886174
Si Si2 0.096938 0.432687 0.140998
Si Si3 0.736661 0.905948 0.980013
Si Si4 0.397331 0.823149 0.697591
Si Si5 0.709343 0.735158 0.352774
O O1 0.248657 0.312615 0.732272
O O2 0.547364 0.074038 0.928559
O O3 0.155374 0.199419 0.883730
O O4 0.727061 0.385945 0.041719
O O5 0.289205 0.245271 0.228737
O O6 0.386403 0.593464 0.270694
O O7 0.000000 0.500000 0.000000
O O8 0.475620 0.768962 0.832159
O O9 0.000000 0.000000 0.000000
O O10 0.054282 0.722309 0.535101
O O11 0.365878 0.048423 0.673349
#
# Coordination Sequence:
#
# PCOD9077580 Si02
#       5
#     2   2   2   2   2
#     4   9  19  34  57  86 113 148 202 236 287 350
#     4  10  19  34  59  86 117 151 193 244 285 345
#     4  10  18  34  61  83 111 156 195 241 287 346
#     4  10  19  36  60  81 118 158 188 239 296 340
#     4   9  20  35  59  86 119 152 192 239 291 350
#
# _framework density 23.214585
#
# number of rings (size 3 to 8) (size 9 to 14) (size 15 to 20)
#    0.000    2.400    2.000    0.600    0.000    0.000 
#    0.000    6.000    8.800    0.000    0.000    0.000 
#    0.000    0.000    0.000    0.000    0.000    0.000 
#
# Total GULP energy -55682.091012 kJ/mol
# GULP energy per Si atom -5568.209101 kJ/mol
# Density = 2.316175 g / cm^3
# Si number density = 23.214585 Si / 1000 Ang^3
#
#
#
# Elastic Constant Matrix: (Units=GPa)
#
#
# Indices 1 2 3 4 5 6 
#
# 1 131.3859 30.9891 58.8749 0.1017 1.8349 21.1039
# 2 30.9891 87.8877 41.9199 14.1609 -3.1657 -14.2337
# 3 58.8749 41.9199 177.6665 23.8286 0.4231 3.2408
# 4 0.1017 14.1609 23.8286 44.8705 -6.8885 6.8205
# 5 1.8349 -3.1657 0.4231 -6.8885 22.9657 -8.7436
# 6 21.1039 -14.2337 3.2408 6.8205 -8.7436 26.8361
#
#
#
# Elastic Compliance Matrix: (Units=1/GPa)
#
#
# Indices 1 2 3 4 5 6 
#
# 1 0.013883 -0.007508 -0.003244 0.005722 -0.007358 -0.018360
# 2 -0.007508 0.019774 -0.001628 -0.007183 0.009375 0.021470
# 3 -0.003244 -0.001628 0.007576 -0.003838 -0.000674 0.001528
# 4 0.005722 -0.007183 -0.003838 0.029078 0.001763 -0.014662
# 5 -0.007358 0.009375 -0.000674 0.001763 0.056991 0.028961
# 6 -0.018360 0.021470 0.001528 -0.014662 0.028961 0.076067
#
#
# Mechanical properties :
#
#
# Convention : Reuss Voigt Hill
#
# Bulk Modulus (GPa) = 60.70676 73.38976 67.04826
# Shear Modulus (GPa) = 21.40212 36.61151 29.00681
#
# Velocity S-wave (km/s) = 3.03962 3.97557 3.53867
# Velocity P-wave (km/s) = 6.20694 7.26332 6.75581
#
# Compressibility (1/GPa) = 0.01647263
#
# Stress axis : x y z
#
# Youngs Moduli (GPa) = 72.02922 50.57053 131.99318
#
# Poissons Ratio (x) = 0.37971 0.42819
# Poissons Ratio (y) = 0.54083 0.21490
# Poissons Ratio (z) = 0.23367 0.08233
#
# Static dielectric constant tensor:
#      x y z
#    x 1.924470 -0.006540 0.004180 
#    y -0.006540 2.031940 0.028990 
#    z 0.004180 0.028990 1.921220 
# 
# From -- ./inp_files/238928.got.cif
#   From: 2010.05.17/outbox.cif.g08.bks.cpg/sg2_120_cif.got.tgz:238928.got - 2010.06.03 11:33:40.
