data_PCOD9077873
_publ_section_title
;
Structure prediction by ZEFSAII (Michael W. Deem and Ramdas Pophale) SiO2 
 PCOD9077873
Probable space group: P -1
;
_chemical_formula_sum "Si O2"
_cell_formula_units_Z 16
_cell_length_a 12.811476
_cell_length_b 7.241360
_cell_length_c 9.324112
_cell_angle_alpha 68.125005
_cell_angle_beta 125.457657
_cell_angle_gamma 111.690661
_cell_volume 640.249869
_symmetry_space_group_name_H-M "P -1"
_symmetry_group_IT_number 2
_symmetry_cell_setting 'triclinic'
loop_
_space_group_symop_operation_xyz
x,y,z
-x,-y,-z
loop_
_atom_site_type_symbol
_atom_site_label
_atom_site_fract_x
_atom_site_fract_y
_atom_site_fract_z
Si Si1 0.347617 0.919623 0.424369
Si Si2 0.052954 0.386024 0.737262
Si Si3 0.134807 0.146737 0.599118
Si Si4 0.559382 0.295184 0.816913
Si Si5 0.743818 0.713939 0.894241
Si Si6 0.779491 0.335988 0.389380
Si Si7 0.620534 0.871773 0.023953
Si Si8 0.683464 0.538505 0.484206
O O1 0.306319 0.877521 0.571105
O O2 0.321568 0.690418 0.399461
O O3 0.500000 0.000000 0.500000
O O4 0.270188 0.087116 0.261088
O O5 0.093431 0.269510 0.665478
O O6 0.147713 0.606740 0.718109
O O7 0.900968 0.368946 0.592716
O O8 0.107198 0.295794 0.945607
O O9 0.259047 0.067313 0.784573
O O10 0.186984 0.285851 0.461477
O O11 0.000000 0.000000 0.500000
O O12 0.672638 0.496786 0.838717
O O13 0.503869 0.243822 0.951028
O O14 0.439745 0.360931 0.616838
O O15 0.596548 0.080646 0.873931
O O16 0.665980 0.741864 0.970668
O O17 0.685621 0.483402 0.328828
#
# Coordination Sequence:
#
# PCOD9077873 Si02
#       8
#     2   2   2   2   2   2   2   2
#     4  10  19  34  56  80 114 154 183 222 288 346
#     4   9  18  33  55  85 107 137 199 240 267 332
#     4   9  17  33  55  75 110 148 183 238 290 323
#     4  10  18  35  55  78 117 146 185 237 286 323
#     4  11  20  33  59  83 112 150 185 232 285 336
#     4   8  17  33  52  76 109 138 182 235 271 325
#     4   9  21  33  52  88 111 140 194 242 275 332
#     4   8  17  33  51  76 108 145 186 223 273 341
#
# _framework density 24.990243
#
# number of rings (size 3 to 8) (size 9 to 14) (size 15 to 20)
#    0.750    2.000    1.250    1.125    0.000    4.500 
#    0.000    5.625    2.750    1.500    0.000    0.000 
#    0.000    0.000    0.000    0.000    0.000    0.000 
#
# Total GULP energy -89166.893437 kJ/mol
# GULP energy per Si atom -5572.930840 kJ/mol
# Density = 2.493336 g / cm^3
# Si number density = 24.990243 Si / 1000 Ang^3
#
#
#
# Elastic Constant Matrix: (Units=GPa)
#
#
# Indices 1 2 3 4 5 6 
#
# 1 48.2872 19.7356 13.1649 -1.1924 9.1665 3.2446
# 2 19.7356 143.0627 55.4307 -15.1270 9.2264 18.0433
# 3 13.1649 55.4307 116.8914 -29.4822 23.9878 9.9489
# 4 -1.1924 -15.1270 -29.4822 38.6587 0.8966 -3.3909
# 5 9.1665 9.2264 23.9878 0.8966 36.5031 -3.5910
# 6 3.2446 18.0433 9.9489 -3.3909 -3.5910 45.1013
#
#
#
# Elastic Compliance Matrix: (Units=1/GPa)
#
#
# Indices 1 2 3 4 5 6 
#
# 1 0.022870 -0.002631 -0.000392 -0.000592 -0.004898 -0.000941
# 2 -0.002631 0.009173 -0.003892 0.000301 0.000642 -0.002548
# 3 -0.000392 -0.003892 0.014984 0.009955 -0.009176 -0.001702
# 4 -0.000592 0.000301 0.009955 0.033701 -0.007329 -0.000324
# 5 -0.004898 0.000642 -0.009176 -0.007329 0.035102 0.004364
# 6 -0.000941 -0.002548 -0.001702 -0.000324 0.004364 0.023958
#
#
# Mechanical properties :
#
#
# Convention : Reuss Voigt Hill
#
# Bulk Modulus (GPa) = 30.12444 53.87817 42.00130
# Shear Modulus (GPa) = 30.36117 38.71330 34.53723
#
# Velocity S-wave (km/s) = 3.48935 3.94018 3.72160
# Velocity P-wave (km/s) = 5.32116 6.50434 5.94227
#
# Compressibility (1/GPa) = 0.03319564
#
# Stress axis : x y z
#
# Youngs Moduli (GPa) = 43.72517 109.01733 66.73870
#
# Poissons Ratio (x) = 0.28683 0.02617
# Poissons Ratio (y) = 0.11504 0.25977
# Poissons Ratio (z) = 0.01715 0.42434
#
# Static dielectric constant tensor:
#      x y z
#    x 2.016530 0.022000 -0.060970 
#    y 0.022000 2.236210 -0.048320 
#    z -0.060970 -0.048320 2.081060 
# 
# From -- ./inp_files/536929.got.cif
#   From: 2010.05.17/outbox.cif.g08.bks.cpg/sg2_269_cif.got.tgz:536929.got - 2010.06.03 11:33:40.
