data_PCOD9077794
_publ_section_title
;
Structure prediction by ZEFSAII (Michael W. Deem and Ramdas Pophale) SiO2 
 PCOD9077794
Probable space group: P -1
;
_chemical_formula_sum "Si O2"
_cell_formula_units_Z 16
_cell_length_a 8.450939
_cell_length_b 12.413700
_cell_length_c 10.960425
_cell_angle_alpha 54.370747
_cell_angle_beta 77.320954
_cell_angle_gamma 115.610835
_cell_volume 645.433609
_symmetry_space_group_name_H-M "P -1"
_symmetry_group_IT_number 2
_symmetry_cell_setting 'triclinic'
loop_
_space_group_symop_operation_xyz
x,y,z
-x,-y,-z
loop_
_atom_site_type_symbol
_atom_site_label
_atom_site_fract_x
_atom_site_fract_y
_atom_site_fract_z
Si Si1 0.995760 0.696974 0.380192
Si Si2 0.415022 0.028344 0.211224
Si Si3 0.152817 0.964415 0.536885
Si Si4 0.431939 0.678830 0.184445
Si Si5 0.100594 0.807129 0.012492
Si Si6 0.393375 0.495411 0.722872
Si Si7 0.303902 0.423306 0.176482
Si Si8 0.237247 0.145009 0.661399
O O1 0.058348 0.728759 0.207438
O O2 0.796748 0.478783 0.595342
O O3 0.904758 0.797737 0.351672
O O4 0.214440 0.808372 0.357440
O O5 0.330587 0.045208 0.342337
O O6 0.432264 0.114434 0.018317
O O7 0.666790 0.118005 0.127718
O O8 0.954550 0.738394 0.715592
O O9 0.397702 0.380908 0.296812
O O10 0.000000 0.000000 0.500000
O O11 0.598267 0.655040 0.214701
O O12 0.347287 0.588760 0.121027
O O13 0.861044 0.629325 0.105549
O O14 0.142055 0.988848 0.880816
O O15 0.497817 0.655458 0.501483
O O16 0.224485 0.041846 0.610832
O O17 0.500000 0.500000 0.000000
#
# Coordination Sequence:
#
# PCOD9077794 Si02
#       8
#     2   2   2   2   2   2   2   2
#     4  11  23  45  65  93 120 174 227 257 299 375
#     4  12  24  41  65  99 124 171 207 261 329 371
#     4  12  19  40  72  94 125 159 221 268 299 381
#     4   9  21  38  65  91 119 158 228 255 302 367
#     4  12  27  40  61  93 141 166 204 261 326 383
#     4   9  21  39  58  94 120 161 213 257 312 364
#     4  10  18  34  66  95 117 155 211 270 297 360
#     4  11  23  42  67  95 123 169 215 264 315 367
#
# _framework density 24.789535000000001
#
# number of rings (size 3 to 8) (size 9 to 14) (size 15 to 20)
#    0.750    0.500    3.750    3.000    0.000    5.000 
#    0.000    0.625    0.000    0.000    0.000    0.000 
#    0.000    0.000    0.000    0.000    0.000    0.000 
#
# Total GULP energy -89121.307701 kJ/mol
# GULP energy per Si atom -5570.081731 kJ/mol
# Density = 2.473311 g / cm^3
# Si number density = 24.789535 Si / 1000 Ang^3
#
#
#
# Elastic Constant Matrix: (Units=GPa)
#
#
# Indices 1 2 3 4 5 6 
#
# 1 90.6884 25.8356 59.0049 3.3570 -35.4084 -4.0296
# 2 25.8356 72.9060 23.2692 18.5984 -4.2596 -8.2265
# 3 59.0049 23.2692 129.3863 11.9409 -23.5263 -17.9347
# 4 3.3570 18.5984 11.9409 48.6705 -2.2280 -9.2868
# 5 -35.4084 -4.2596 -23.5263 -2.2280 48.0338 11.0724
# 6 -4.0296 -8.2265 -17.9347 -9.2868 11.0724 17.5461
#
#
#
# Elastic Compliance Matrix: (Units=1/GPa)
#
#
# Indices 1 2 3 4 5 6 
#
# 1 0.025349 -0.007088 -0.009669 0.000685 0.017521 -0.018079
# 2 -0.007088 0.017960 0.000617 -0.005232 -0.005436 0.008085
# 3 -0.009669 0.000617 0.013294 -0.000361 -0.003770 0.013845
# 4 0.000685 -0.005232 -0.000361 0.024694 -0.001626 0.011431
# 5 0.017521 -0.005436 -0.003770 -0.001626 0.037538 -0.026926
# 6 -0.018079 0.008085 0.013845 0.011431 -0.026926 0.093825
#
#
# Mechanical properties :
#
#
# Convention : Reuss Voigt Hill
#
# Bulk Modulus (GPa) = 41.10966 56.57780 48.84373
# Shear Modulus (GPa) = 19.75918 35.17480 27.46699
#
# Velocity S-wave (km/s) = 2.82632 3.77097 3.33229
# Velocity P-wave (km/s) = 5.22209 6.46785 5.87806
#
# Compressibility (1/GPa) = 0.02432518
#
# Stress axis : x y z
#
# Youngs Moduli (GPa) = 39.44909 55.67822 75.22144
#
# Poissons Ratio (x) = 0.39464 0.72729
# Poissons Ratio (y) = 0.27961 -0.04644
# Poissons Ratio (z) = 0.38142 -0.03438
#
# Static dielectric constant tensor:
#      x y z
#    x 2.027150 0.018380 0.134130 
#    y 0.018380 1.958510 0.223450 
#    z 0.134130 0.223450 2.290940 
# 
# From -- ./inp_files/503820.got.cif
#   From: 2010.05.17/outbox.cif.g08.bks.cpg/sg2_252_cif.got.tgz:503820.got - 2010.06.03 11:33:40.
