data_PCOD9077141
_publ_section_title
;
Structure prediction by ZEFSAII (Michael W. Deem and Ramdas Pophale) SiO2 
 PCOD9077141
Probable space group: P -1
;
_chemical_formula_sum "Si O2"
_cell_formula_units_Z 14
_cell_length_a 12.077992
_cell_length_b 16.645219
_cell_length_c 10.533480
_cell_angle_alpha 44.086499
_cell_angle_beta 141.205306
_cell_angle_gamma 156.608064
_cell_volume 526.719651
_symmetry_space_group_name_H-M "P -1"
_symmetry_group_IT_number 2
_symmetry_cell_setting 'triclinic'
loop_
_space_group_symop_operation_xyz
x,y,z
-x,-y,-z
loop_
_atom_site_type_symbol
_atom_site_label
_atom_site_fract_x
_atom_site_fract_y
_atom_site_fract_z
Si Si1 0.760213 0.530414 0.823764
Si Si2 0.152136 0.964058 0.726842
Si Si3 0.312143 0.281951 0.929813
Si Si4 0.902063 0.919554 0.803208
Si Si5 0.449777 0.056100 0.665177
Si Si6 0.167641 0.771920 0.414391
Si Si7 0.968452 0.390215 0.260265
O O1 0.525266 0.440340 0.827234
O O2 0.972787 0.755793 0.757426
O O3 0.728839 0.486578 0.693001
O O4 0.876146 0.468483 0.046997
O O5 0.079313 0.935299 0.842911
O O6 0.471826 0.110771 0.769459
O O7 0.000000 0.000000 0.500000
O O8 0.063373 0.246284 0.773553
O O9 0.383893 0.282218 0.138466
O O10 0.167241 0.094305 0.941599
O O11 0.784177 0.975077 0.571347
O O12 0.757877 0.229727 0.659086
O O13 0.297344 0.847048 0.748356
O O14 0.032600 0.618142 0.579069
O O15 0.500000 0.000000 0.500000
#
# Coordination Sequence:
#
# PCOD9077141 Si02
#       7
#     2   2   2   2   2   2   2
#     4  10  21  35  59  87 114 147 195 239 280 337
#     4   9  20  40  60  81 113 157 189 224 298 351
#     4  11  22  33  59  96 111 144 198 247 274 320
#     4  10  20  36  58  89 115 146 193 233 285 340
#     4   9  17  35  60  81 108 160 189 220 281 353
#     4  10  18  34  56  84 116 151 188 236 283 335
#     4   9  18  34  55  84 114 149 185 232 286 335
#
# _framework density 26.579605999999998
#
# number of rings (size 3 to 8) (size 9 to 14) (size 15 to 20)
#    0.000    2.286    2.857    0.857    6.000    1.143 
#    0.000    0.714    0.000    4.286    0.000    0.000 
#    0.000    0.000    0.000    0.000    0.000    0.000 
#
# Total GULP energy -78089.040917 kJ/mol
# GULP energy per Si atom -5577.788637 kJ/mol
# Density = 2.651911 g / cm^3
# Si number density = 26.579606 Si / 1000 Ang^3
#
#
#
# Elastic Constant Matrix: (Units=GPa)
#
#
# Indices 1 2 3 4 5 6 
#
# 1 278.6855 50.9810 28.3157 -17.9924 -4.5178 41.1740
# 2 50.9810 46.8530 37.9747 -18.7485 -3.9387 9.4732
# 3 28.3157 37.9747 108.2511 -35.4202 9.8592 5.8663
# 4 -17.9924 -18.7485 -35.4202 25.9247 8.9671 -0.8499
# 5 -4.5178 -3.9387 9.8592 8.9671 39.0120 -14.6483
# 6 41.1740 9.4732 5.8663 -0.8499 -14.6483 45.6470
#
#
#
# Elastic Compliance Matrix: (Units=1/GPa)
#
#
# Indices 1 2 3 4 5 6 
#
# 1 0.005253 -0.005309 0.002377 0.004037 -0.003307 -0.004928
# 2 -0.005309 0.039449 -0.008490 0.012464 0.002126 -0.001393
# 3 0.002377 -0.008490 0.026176 0.037655 -0.019324 -0.009247
# 4 0.004037 0.012464 0.037655 0.115952 -0.042964 -0.022696
# 5 -0.003307 0.002126 -0.019324 -0.042964 0.047539 0.019480
# 6 -0.004928 -0.001393 -0.009247 -0.022696 0.019480 0.033658
#
#
# Mechanical properties :
#
#
# Convention : Reuss Voigt Hill
#
# Bulk Modulus (GPa) = 20.81807 74.25917 47.53862
# Shear Modulus (GPa) = 16.29287 43.21794 29.75540
#
# Velocity S-wave (km/s) = 2.47854 4.03672 3.34950
# Velocity P-wave (km/s) = 4.00502 7.05166 5.73437
#
# Compressibility (1/GPa) = 0.04803519
#
# Stress axis : x y z
#
# Youngs Moduli (GPa) = 190.36704 25.34894 38.20288
#
# Poissons Ratio (x) = 0.13458 -0.09082
# Poissons Ratio (y) = 1.01067 0.32434
# Poissons Ratio (z) = -0.45258 0.21521
#
# Static dielectric constant tensor:
#      x y z
#    x 2.254510 0.185840 -0.198190 
#    y 0.185840 2.302460 -0.091010 
#    z -0.198190 -0.091010 2.156120 
# 
# From -- ./inp_files/254449.got.cif
#   From: 2010.05.17/outbox.cif.g08.bks.cpg/sg2_128_cif.got.tgz:254449.got - 2010.06.03 11:33:40.
