data_PCOD9077574
_publ_section_title
;
Structure prediction by ZEFSAII (Michael W. Deem and Ramdas Pophale) SiO2 
 PCOD9077574
Probable space group: P -1
;
_chemical_formula_sum "Si O2"
_cell_formula_units_Z 15
_cell_length_a 9.375205
_cell_length_b 7.691861
_cell_length_c 15.368088
_cell_angle_alpha 46.275078
_cell_angle_beta 60.705694
_cell_angle_gamma 53.587870
_cell_volume 638.551174
_symmetry_space_group_name_H-M "P -1"
_symmetry_group_IT_number 2
_symmetry_cell_setting 'triclinic'
loop_
_space_group_symop_operation_xyz
x,y,z
-x,-y,-z
loop_
_atom_site_type_symbol
_atom_site_label
_atom_site_fract_x
_atom_site_fract_y
_atom_site_fract_z
Si Si1 0.000000 0.500000 0.500000
Si Si2 0.731937 0.904419 0.313606
Si Si3 0.756693 0.201270 0.656253
Si Si4 0.738906 0.417173 0.403527
Si Si5 0.838844 0.661963 0.055760
Si Si6 0.080041 0.372197 0.244146
Si Si7 0.927587 0.117862 0.885827
Si Si8 0.570661 0.434663 0.265498
O O1 0.813616 0.698187 0.439140
O O2 0.931839 0.257569 0.600619
O O3 0.670852 0.734024 0.323473
O O4 0.897599 0.948444 0.203907
O O5 0.587535 0.178332 0.295925
O O6 0.688215 0.303229 0.544056
O O7 0.619460 0.363363 0.714790
O O8 0.799076 0.893161 0.747464
O O9 0.675988 0.337929 0.359974
O O10 0.957096 0.315285 0.372859
O O11 0.672122 0.583252 0.130008
O O12 0.929795 0.555171 0.158911
O O13 0.000000 0.500000 0.000000
O O14 0.806825 0.964199 0.948702
O O15 0.163658 0.565210 0.191159
O O16 0.000000 0.000000 0.000000
#
# Coordination Sequence:
#
# PCOD9077574 Si02
#       8
#     1   2   2   2   2   2   2   2
#     4  10  22  36  60  88 120 154 202 244 302 364
#     4  10  20  38  61  91 119 155 208 250 300 362
#     4  11  22  38  58  89 127 160 196 248 308 363
#     4   9  20  37  60  85 117 162 204 243 296 363
#     4  10  18  34  61  82 110 153 203 244 289 352
#     4   9  19  35  58  84 113 150 204 243 290 360
#     4   9  18  34  61  86 109 155 208 246 289 351
#     4  11  22  37  61  90 125 159 201 251 304 359
#
# _framework density 23.490677000000002
#
# number of rings (size 3 to 8) (size 9 to 14) (size 15 to 20)
#    0.000    2.133    1.333    3.200    0.000    4.267 
#    0.000    6.667    0.000    0.000    0.000    0.000 
#    0.000    0.000    0.000    0.000    0.000    0.000 
#
# Total GULP energy -83537.178111 kJ/mol
# GULP energy per Si atom -5569.145207 kJ/mol
# Density = 2.343721 g / cm^3
# Si number density = 23.490677 Si / 1000 Ang^3
#
#
#
# Elastic Constant Matrix: (Units=GPa)
#
#
# Indices 1 2 3 4 5 6 
#
# 1 24.8862 9.1836 9.8794 -2.0858 -1.7565 5.5119
# 2 9.1836 162.7198 37.6854 -11.6635 -5.9155 26.1902
# 3 9.8794 37.6854 83.5300 -0.1358 -1.6826 0.6832
# 4 -2.0858 -11.6635 -0.1358 40.3831 5.7674 -5.6145
# 5 -1.7565 -5.9155 -1.6826 5.7674 17.7066 -6.5449
# 6 5.5119 26.1902 0.6832 -5.6145 -6.5449 20.1541
#
#
#
# Elastic Compliance Matrix: (Units=1/GPa)
#
#
# Indices 1 2 3 4 5 6 
#
# 1 0.045064 0.000964 -0.005674 0.000857 -0.001006 -0.013473
# 2 0.000964 0.009023 -0.004127 0.001259 -0.002207 -0.012215
# 3 -0.005674 -0.004127 0.014492 -0.000795 0.002258 0.006936
# 4 0.000857 0.001259 -0.000795 0.026629 -0.007026 0.003293
# 5 -0.001006 -0.002207 0.002258 -0.007026 0.066539 0.022718
# 6 -0.013473 -0.012215 0.006936 0.003293 0.022718 0.077236
#
#
# Mechanical properties :
#
#
# Convention : Reuss Voigt Hill
#
# Bulk Modulus (GPa) = 19.64411 42.73698 31.19055
# Shear Modulus (GPa) = 18.27311 29.94127 24.10719
#
# Velocity S-wave (km/s) = 2.79209 3.57403 3.20698
# Velocity P-wave (km/s) = 4.33302 5.93837 5.19804
#
# Compressibility (1/GPa) = 0.05090584
#
# Stress axis : x y z
#
# Youngs Moduli (GPa) = 22.19055 110.82671 69.00190
#
# Poissons Ratio (x) = -0.10683 0.39148
# Poissons Ratio (y) = -0.02139 0.28480
# Poissons Ratio (z) = 0.12590 0.45742
#
# Static dielectric constant tensor:
#      x y z
#    x 2.004540 -0.014890 0.029070 
#    y -0.014890 1.986480 0.058000 
#    z 0.029070 0.058000 2.004090 
# 
# From -- ./inp_files/413976.got.cif
#   From: 2010.05.17/outbox.cif.g08.bks.cpg/sg2_207_cif.got.tgz:413976.got - 2010.06.03 11:33:40.
