data_PCOD9077319
_publ_section_title
;
Structure prediction by ZEFSAII (Michael W. Deem and Ramdas Pophale) SiO2 
 PCOD9077319
Probable space group: P -1
;
_chemical_formula_sum "Si O2"
_cell_formula_units_Z 10
_cell_length_a 8.654961
_cell_length_b 9.492863
_cell_length_c 12.325114
_cell_angle_alpha 121.907116
_cell_angle_beta 124.002599
_cell_angle_gamma 98.294978
_cell_volume 556.307982
_symmetry_space_group_name_H-M "P -1"
_symmetry_group_IT_number 2
_symmetry_cell_setting 'triclinic'
loop_
_space_group_symop_operation_xyz
x,y,z
-x,-y,-z
loop_
_atom_site_type_symbol
_atom_site_label
_atom_site_fract_x
_atom_site_fract_y
_atom_site_fract_z
Si Si1 0.487128 0.495188 0.126199
Si Si2 0.820571 0.382251 0.005465
Si Si3 0.784240 0.152116 0.695662
Si Si4 0.951934 0.900696 0.559287
Si Si5 0.440818 0.105523 0.932751
O O1 0.327156 0.568339 0.107134
O O2 0.729178 0.658739 0.352308
O O3 0.500000 0.500000 0.000000
O O4 0.400427 0.266419 0.032035
O O5 0.937564 0.377520 0.780628
O O6 0.660165 0.248678 0.992150
O O7 0.839169 0.233456 0.874817
O O8 0.500000 0.000000 0.500000
O O9 0.879991 0.022479 0.650804
O O10 0.000000 0.000000 0.500000
O O11 0.188790 0.938171 0.705763
O O12 0.500000 0.000000 0.000000
#
# Coordination Sequence:
#
# PCOD9077319 Si02
#       5
#     2   2   2   2   2
#     4  10  18  34  58  85 110 149 198 238 277 344
#     4  10  20  36  59  89 116 151 197 240 288 349
#     4  11  20  33  61  93 113 146 200 249 284 336
#     4  12  19  35  63  88 113 154 199 241 288 343
#     4  11  23  39  59  88 122 155 192 245 295 344
#
# _framework density 17.975653000000001
#
# number of rings (size 3 to 8) (size 9 to 14) (size 15 to 20)
#    0.000    1.200    8.000    1.200    0.000    0.800 
#    0.000    1.000    0.000    2.400    0.000    0.000 
#    0.000    0.000    0.000    0.000    0.000    0.000 
#
# Total GULP energy -55671.356666 kJ/mol
# GULP energy per Si atom -5567.135667 kJ/mol
# Density = 1.793474 g / cm^3
# Si number density = 17.975653 Si / 1000 Ang^3
#
#
#
# Elastic Constant Matrix: (Units=GPa)
#
#
# Indices 1 2 3 4 5 6 
#
# 1 80.2416 29.8758 36.8206 -4.8595 9.1635 6.8961
# 2 29.8758 108.7489 42.4802 -12.4000 16.9597 -7.7257
# 3 36.8206 42.4802 132.4125 10.0484 27.6406 1.3670
# 4 -4.8595 -12.4000 10.0484 23.4361 -2.9417 6.9175
# 5 9.1635 16.9597 27.6406 -2.9417 42.9464 8.0835
# 6 6.8961 -7.7257 1.3670 6.9175 8.0835 21.1031
#
#
#
# Elastic Compliance Matrix: (Units=1/GPa)
#
#
# Indices 1 2 3 4 5 6 
#
# 1 0.016710 -0.003102 -0.004723 0.007116 0.003028 -0.009783
# 2 -0.003102 0.012703 -0.003057 0.005474 -0.002994 0.005214
# 3 -0.004723 -0.003057 0.012130 -0.010475 -0.007423 0.005915
# 4 0.007116 0.005474 -0.010475 0.060012 0.011648 -0.023776
# 5 0.003028 -0.002994 -0.007423 0.011648 0.032780 -0.017979
# 6 -0.009783 0.005214 0.005915 -0.023776 -0.017979 0.066790
#
#
# Mechanical properties :
#
#
# Convention : Reuss Voigt Hill
#
# Bulk Modulus (GPa) = 50.55638 59.97290 55.26464
# Shear Modulus (GPa) = 21.78823 31.64555 26.71689
#
# Velocity S-wave (km/s) = 3.48529 4.20034 3.85942
# Velocity P-wave (km/s) = 6.66201 7.54716 7.11836
#
# Compressibility (1/GPa) = 0.01977990
#
# Stress axis : x y z
#
# Youngs Moduli (GPa) = 59.84371 78.71950 82.44314
#
# Poissons Ratio (x) = 0.24415 0.38935
# Poissons Ratio (y) = 0.18561 0.25206
# Poissons Ratio (z) = 0.28262 0.24067
#
# Static dielectric constant tensor:
#      x y z
#    x 1.717560 0.010640 0.007770 
#    y 0.010640 1.571890 0.041940 
#    z 0.007770 0.041940 1.720990 
# 
# From -- ./inp_files/145306.got.cif
#   From: 2010.05.17/outbox.cif.g08.bks.cpg/sg2_73_cif.got.tgz:145306.got - 2010.06.03 11:33:40.
