data_PCOD9077923
_publ_section_title
;
Structure prediction by ZEFSAII (Michael W. Deem and Ramdas Pophale) SiO2 
 PCOD9077923
Probable space group: P -1
;
_chemical_formula_sum "Si O2"
_cell_formula_units_Z 16
_cell_length_a 17.702922
_cell_length_b 10.657926
_cell_length_c 25.621548
_cell_angle_alpha 30.576600
_cell_angle_beta 161.907498
_cell_angle_gamma 143.314853
_cell_volume 759.526274
_symmetry_space_group_name_H-M "P -1"
_symmetry_group_IT_number 2
_symmetry_cell_setting 'triclinic'
loop_
_space_group_symop_operation_xyz
x,y,z
-x,-y,-z
loop_
_atom_site_type_symbol
_atom_site_label
_atom_site_fract_x
_atom_site_fract_y
_atom_site_fract_z
Si Si1 0.098557 0.515616 0.000168
Si Si2 0.912744 0.024652 0.693363
Si Si3 0.423037 0.596697 0.981359
Si Si4 0.327111 0.233886 0.821968
Si Si5 0.031602 0.977429 0.143621
Si Si6 0.138058 0.430901 0.410387
Si Si7 0.341238 0.491879 0.636148
Si Si8 0.479226 0.927026 0.808913
O O1 0.373167 0.593694 0.154083
O O2 0.925683 0.745713 0.780453
O O3 0.099040 0.243516 0.073506
O O4 0.000000 0.500000 0.000000
O O5 0.116040 0.156684 0.748423
O O6 0.956890 0.013057 0.788856
O O7 0.671898 0.215044 0.464764
O O8 0.492971 0.843933 0.908781
O O9 0.138827 0.591086 0.781963
O O10 0.492686 0.612770 0.081287
O O11 0.574258 0.340343 0.153454
O O12 0.233766 0.367234 0.660182
O O13 0.500000 0.000000 0.000000
O O14 0.179746 0.714033 0.318942
O O15 0.745607 0.967122 0.948303
O O16 0.188057 0.443635 0.501081
O O17 0.301102 0.176247 0.592882
#
# Coordination Sequence:
#
# PCOD9077923 Si02
#       8
#     2   2   2   2   2   2   2   2
#     4  10  20  36  58  88 122 157 196 248 301 339
#     4  10  20  37  54  85 124 157 190 240 301 355
#     4  10  22  36  57  85 120 159 191 242 291 359
#     4  12  22  40  61  84 129 163 188 240 308 360
#     4   9  19  33  59  85 119 149 197 247 292 339
#     4  10  20  36  58  89 116 153 197 242 291 350
#     4  11  23  36  60  92 125 154 196 246 295 360
#     4  10  18  35  56  81 121 151 195 241 289 343
#
# _framework density 21.065763
#
# number of rings (size 3 to 8) (size 9 to 14) (size 15 to 20)
#    0.000    1.750    2.500    3.000    1.750    5.500 
#    2.250    0.000    0.000    3.000    0.000    7.875 
#    0.000    0.000    0.000    0.000    0.000    0.000 
#
# Total GULP energy -89098.299776 kJ/mol
# GULP energy per Si atom -5568.643736 kJ/mol
# Density = 2.101782 g / cm^3
# Si number density = 21.065763 Si / 1000 Ang^3
#
#
#
# Elastic Constant Matrix: (Units=GPa)
#
#
# Indices 1 2 3 4 5 6 
#
# 1 22.6379 0.4889 9.0002 -2.0951 2.6680 -7.1598
# 2 0.4889 78.7318 39.9736 -29.5422 2.0901 -3.8206
# 3 9.0002 39.9736 108.2666 -49.7617 17.8869 -13.6638
# 4 -2.0951 -29.5422 -49.7617 44.6387 -7.1662 4.5765
# 5 2.6680 2.0901 17.8869 -7.1662 22.4769 -2.4612
# 6 -7.1598 -3.8206 -13.6638 4.5765 -2.4612 20.6605
#
#
#
# Elastic Compliance Matrix: (Units=1/GPa)
#
#
# Indices 1 2 3 4 5 6 
#
# 1 0.050566 0.001289 -0.003545 -0.002731 -0.002449 0.015731
# 2 0.001289 0.017447 -0.003127 0.008670 0.003489 0.000100
# 3 -0.003545 -0.003127 0.022904 0.020917 -0.010024 0.007513
# 4 -0.002731 0.008670 0.020917 0.050919 -0.000549 0.003146
# 5 -0.002449 0.003489 -0.010024 -0.000549 0.052204 -0.000492
# 6 0.015731 0.000100 0.007513 0.003146 -0.000492 0.058085
#
#
# Mechanical properties :
#
#
# Convention : Reuss Voigt Hill
#
# Bulk Modulus (GPa) = 12.47641 34.28462 23.38051
# Shear Modulus (GPa) = 17.26466 28.23343 22.74904
#
# Velocity S-wave (km/s) = 2.86590 3.66492 3.28976
# Velocity P-wave (km/s) = 4.10934 5.84972 5.05499
#
# Compressibility (1/GPa) = 0.08015127
#
# Stress axis : x y z
#
# Youngs Moduli (GPa) = 19.77595 57.31707 43.66037
#
# Poissons Ratio (x) = -0.07390 0.15478
# Poissons Ratio (y) = -0.02550 0.13655
# Poissons Ratio (z) = 0.07011 0.17926
#
# Static dielectric constant tensor:
#      x y z
#    x 1.784040 0.001350 -0.003860 
#    y 0.001350 1.827550 -0.061060 
#    z -0.003860 -0.061060 1.796820 
# 
# From -- ./inp_files/620362.got.cif
#   From: 2010.05.17/outbox.cif.g08.bks.cpg/sg2_311_cif.got.tgz:620362.got - 2010.06.03 11:33:40.
