data_PCOD9077705
_publ_section_title
;
Structure prediction by ZEFSAII (Michael W. Deem and Ramdas Pophale) SiO2 
 PCOD9077705
Probable space group: P -1
;
_chemical_formula_sum "Si O2"
_cell_formula_units_Z 14
_cell_length_a 7.836243
_cell_length_b 11.880987
_cell_length_c 7.828646
_cell_angle_alpha 53.064958
_cell_angle_beta 65.037258
_cell_angle_gamma 71.994039
_cell_volume 526.617601
_symmetry_space_group_name_H-M "P -1"
_symmetry_group_IT_number 2
_symmetry_cell_setting 'triclinic'
loop_
_space_group_symop_operation_xyz
x,y,z
-x,-y,-z
loop_
_atom_site_type_symbol
_atom_site_label
_atom_site_fract_x
_atom_site_fract_y
_atom_site_fract_z
Si Si1 0.524563 0.327834 0.660914
Si Si2 0.004806 0.637971 0.223912
Si Si3 0.347110 0.675865 0.867815
Si Si4 0.281766 0.998963 0.544652
Si Si5 0.717569 0.733987 0.505978
Si Si6 0.203327 0.211547 0.105297
Si Si7 0.877320 0.376165 0.308475
O O1 0.500000 0.500000 0.500000
O O2 0.424029 0.260545 0.600860
O O3 0.747705 0.293292 0.568758
O O4 0.407283 0.269019 0.921216
O O5 0.897285 0.638102 0.448506
O O6 0.924966 0.520919 0.241724
O O7 0.910661 0.776947 0.035941
O O8 0.230916 0.632560 0.121986
O O9 0.573107 0.674807 0.760989
O O10 0.263387 0.591699 0.822571
O O11 0.260007 0.835286 0.720954
O O12 0.205034 0.119267 0.600662
O O13 0.237029 0.059577 0.319954
O O14 0.500000 0.000000 0.500000
O O15 0.065301 0.296701 0.223281
#
# Coordination Sequence:
#
# PCOD9077705 Si02
#       7
#     2   2   2   2   2   2   2
#     4  10  18  34  63  86 113 141 184 235 289 329
#     4  10  19  33  61  89 110 141 192 237 285 329
#     4   9  19  33  57  80 109 156 185 230 282 324
#     4  10  22  42  55  77 122 157 192 226 278 339
#     4   9  19  35  56  81 114 149 182 231 279 334
#     4  10  20  35  59  86 114 148 190 234 278 336
#     4  10  19  33  60  93 114 137 191 242 283 332
#
# _framework density 26.584755000000001
#
# number of rings (size 3 to 8) (size 9 to 14) (size 15 to 20)
#    0.000    2.286    2.857    1.714    2.000    2.857 
#    0.000   25.000    0.000    0.000    0.000    0.000 
#    0.000    0.000    0.000    0.000    0.000    0.000 
#
# Total GULP energy -78174.218239 kJ/mol
# GULP energy per Si atom -5583.872731 kJ/mol
# Density = 2.652425 g / cm^3
# Si number density = 26.584755 Si / 1000 Ang^3
#
#
#
# Elastic Constant Matrix: (Units=GPa)
#
#
# Indices 1 2 3 4 5 6 
#
# 1 95.6321 18.7344 48.3069 11.6021 -24.0825 -16.3750
# 2 18.7344 109.0155 60.6793 22.9498 -16.1414 0.7031
# 3 48.3069 60.6793 156.9579 30.7095 -34.4384 -22.5604
# 4 11.6021 22.9498 30.7095 52.9969 -21.7113 -12.8635
# 5 -24.0825 -16.1414 -34.4384 -21.7113 65.1294 20.8595
# 6 -16.3750 0.7031 -22.5604 -12.8635 20.8595 41.9622
#
#
#
# Elastic Compliance Matrix: (Units=1/GPa)
#
#
# Indices 1 2 3 4 5 6 
#
# 1 0.013068 -0.000274 -0.003151 0.000711 0.002585 0.002343
# 2 -0.000274 0.012631 -0.004549 -0.003464 0.000826 -0.004236
# 3 -0.003151 -0.004549 0.010241 -0.001923 0.001518 0.003008
# 4 0.000711 -0.003464 -0.001923 0.024481 0.005196 0.004224
# 5 0.002585 0.000826 0.001518 0.005196 0.021360 -0.007214
# 6 0.002343 -0.004236 0.003008 0.004224 -0.007214 0.031315
#
#
# Mechanical properties :
#
#
# Convention : Reuss Voigt Hill
#
# Bulk Modulus (GPa) = 50.01968 68.56074 59.29021
# Shear Modulus (GPa) = 36.84387 47.61002 42.22694
#
# Velocity S-wave (km/s) = 3.72681 4.23647 3.98978
# Velocity P-wave (km/s) = 6.11350 7.05519 6.60116
#
# Compressibility (1/GPa) = 0.01999213
#
# Stress axis : x y z
#
# Youngs Moduli (GPa) = 76.52271 79.17191 97.64449
#
# Poissons Ratio (x) = 0.02168 0.30772
# Poissons Ratio (y) = 0.02096 0.44416
# Poissons Ratio (z) = 0.24115 0.36013
#
# Static dielectric constant tensor:
#      x y z
#    x 2.103900 -0.009100 0.001730 
#    y -0.009100 2.287370 -0.054890 
#    z 0.001730 -0.054890 2.236230 
# 
# From -- ./inp_files/183952.got.cif
#   From: 2010.05.17/outbox.cif.g08.bks.cpg/sg2_92_cif.got.tgz:183952.got - 2010.06.03 11:33:40.
