data_PCOD9077799
_publ_section_title
;
Structure prediction by ZEFSAII (Michael W. Deem and Ramdas Pophale) SiO2 
 PCOD9077799
Probable space group: P -1
;
_chemical_formula_sum "Si O2"
_cell_formula_units_Z 16
_cell_length_a 9.047896
_cell_length_b 12.953163
_cell_length_c 12.524568
_cell_angle_alpha 79.041744
_cell_angle_beta 124.423809
_cell_angle_gamma 56.749640
_cell_volume 697.530384
_symmetry_space_group_name_H-M "P -1"
_symmetry_group_IT_number 2
_symmetry_cell_setting 'triclinic'
loop_
_space_group_symop_operation_xyz
x,y,z
-x,-y,-z
loop_
_atom_site_type_symbol
_atom_site_label
_atom_site_fract_x
_atom_site_fract_y
_atom_site_fract_z
Si Si1 0.102388 0.257436 0.089735
Si Si2 0.250262 0.141163 0.597352
Si Si3 0.705348 0.150865 0.092742
Si Si4 0.752362 0.624264 0.470880
Si Si5 0.854614 0.850470 0.205570
Si Si6 0.041776 0.397652 0.837022
Si Si7 0.228770 0.795975 0.111301
Si Si8 0.145054 0.697627 0.802625
O O1 0.022846 0.289081 0.175757
O O2 0.467150 0.072251 0.261389
O O3 0.972689 0.411524 0.930614
O O4 0.949096 0.224719 0.985163
O O5 0.385433 0.194030 0.633726
O O6 0.111906 0.192345 0.648116
O O7 0.996443 0.255043 0.379894
O O8 0.880737 0.164477 0.214784
O O9 0.903473 0.951649 0.193590
O O10 0.600309 0.247708 0.917850
O O11 0.398620 0.261417 0.005446
O O12 0.876560 0.552212 0.655454
O O13 0.487874 0.666221 0.331318
O O14 0.000000 0.500000 0.500000
O O15 0.009711 0.691154 0.224951
O O16 0.500000 0.000000 0.000000
O O17 0.000000 0.000000 0.000000
O O18 0.500000 0.500000 0.000000
#
# Coordination Sequence:
#
# PCOD9077799 Si02
#       8
#     2   2   2   2   2   2   2   2
#     4  11  24  43  67  91 133 173 221 275 320 394
#     4  12  22  42  70  95 130 181 223 255 329 402
#     4  10  20  39  64  92 129 174 216 265 324 389
#     4  12  22  37  67 103 134 173 212 266 339 396
#     4  10  18  34  67 100 128 160 212 267 327 388
#     4  11  21  39  69 101 133 168 214 273 338 380
#     4  11  21  37  62  96 134 169 215 267 328 397
#     4  11  27  45  66  93 131 177 228 278 322 381
#
# _framework density 22.938068000000001
#
# number of rings (size 3 to 8) (size 9 to 14) (size 15 to 20)
#    0.000    1.000    6.250    2.625    1.750    1.000 
#    0.000    3.750    0.000    0.000    0.000    0.000 
#    0.000    0.000    0.000    0.000    0.000    0.000 
#
# Total GULP energy -89386.586435 kJ/mol
# GULP energy per Si atom -5586.661652 kJ/mol
# Density = 2.288586 g / cm^3
# Si number density = 22.938068 Si / 1000 Ang^3
#
#
#
# Elastic Constant Matrix: (Units=GPa)
#
#
# Indices 1 2 3 4 5 6 
#
# 1 99.4795 17.6380 41.1907 14.8703 -33.2025 -5.0869
# 2 17.6380 51.8718 20.3732 18.1531 -7.8267 1.3300
# 3 41.1907 20.3732 137.6252 27.1212 -20.9601 -14.2212
# 4 14.8703 18.1531 27.1212 36.3078 -2.4189 -4.2144
# 5 -33.2025 -7.8267 -20.9601 -2.4189 44.4196 4.6255
# 6 -5.0869 1.3300 -14.2212 -4.2144 4.6255 26.5995
#
#
#
# Elastic Compliance Matrix: (Units=1/GPa)
#
#
# Indices 1 2 3 4 5 6 
#
# 1 0.014929 -0.001679 -0.002182 -0.003044 0.009709 -0.000398
# 2 -0.001679 0.024651 -0.001006 -0.011221 0.002450 -0.004296
# 3 -0.002182 -0.001006 0.009836 -0.005381 0.002158 0.003664
# 4 -0.003044 -0.011221 -0.005381 0.038554 -0.005120 0.004100
# 5 0.009709 0.002450 0.002158 -0.005120 0.031292 -0.003364
# 6 -0.000398 -0.004296 0.003664 0.004100 -0.003364 0.040927
#
#
# Mechanical properties :
#
#
# Convention : Reuss Voigt Hill
#
# Bulk Modulus (GPa) = 25.20038 49.70893 37.45466
# Shear Modulus (GPa) = 27.30010 35.45035 31.37522
#
# Velocity S-wave (km/s) = 3.45362 3.93553 3.70242
# Velocity P-wave (km/s) = 5.18782 6.50916 5.88568
#
# Compressibility (1/GPa) = 0.03968194
#
# Stress axis : x y z
#
# Youngs Moduli (GPa) = 66.98502 40.56612 101.66782
#
# Poissons Ratio (x) = 0.06809 0.22186
# Poissons Ratio (y) = 0.11244 0.10230
# Poissons Ratio (z) = 0.14617 0.04082
#
# Static dielectric constant tensor:
#      x y z
#    x 1.907670 -0.000210 -0.015310 
#    y -0.000210 1.945680 -0.008040 
#    z -0.015310 -0.008040 1.824880 
# 
# From -- ./inp_files/329496.got.cif
#   From: 2010.05.17/outbox.cif.g08.bks.cpg/sg2_165_cif.got.tgz:329496.got - 2010.06.03 11:33:40.
