data_PCOD9077610
_publ_section_title
;
Structure prediction by ZEFSAII (Michael W. Deem and Ramdas Pophale) SiO2 
 PCOD9077610
Probable space group: P -1
;
_chemical_formula_sum "Si O2"
_cell_formula_units_Z 14
_cell_length_a 27.999219
_cell_length_b 9.191132
_cell_length_c 11.928527
_cell_angle_alpha 45.187910
_cell_angle_beta 26.982325
_cell_angle_gamma 26.271265
_cell_volume 544.263635
_symmetry_space_group_name_H-M "P -1"
_symmetry_group_IT_number 2
_symmetry_cell_setting 'triclinic'
loop_
_space_group_symop_operation_xyz
x,y,z
-x,-y,-z
loop_
_atom_site_type_symbol
_atom_site_label
_atom_site_fract_x
_atom_site_fract_y
_atom_site_fract_z
Si Si1 0.988499 0.604868 0.664576
Si Si2 0.106840 0.504893 0.704402
Si Si3 0.780389 0.561656 0.079386
Si Si4 0.631829 0.225769 0.708691
Si Si5 0.818514 0.286614 0.377197
Si Si6 0.696422 0.694535 0.948700
Si Si7 0.496979 0.366481 0.689025
O O1 0.988400 0.722227 0.718551
O O2 0.085428 0.582419 0.377242
O O3 0.813721 0.752782 0.910104
O O4 0.152075 0.163015 0.580765
O O5 0.144781 0.637456 0.631565
O O6 0.314779 0.081609 0.467451
O O7 0.000000 0.500000 0.000000
O O8 0.645414 0.737907 0.160448
O O9 0.739334 0.550416 0.295201
O O10 0.971524 0.130819 0.873760
O O11 0.673812 0.328139 0.658163
O O12 0.506302 0.475244 0.726552
O O13 0.581419 0.079797 0.935893
O O14 0.666974 0.536752 0.027399
O O15 0.500000 0.500000 0.500000
#
# Coordination Sequence:
#
# PCOD9077610 Si02
#       7
#     2   2   2   2   2   2   2
#     4   8  18  34  60  84 117 157 195 241 290 351
#     4  11  22  39  61  90 125 153 195 255 302 341
#     4  10  18  34  61  90 117 160 202 241 289 362
#     4   8  19  36  58  86 111 159 199 237 290 354
#     4  10  20  34  61  87 121 154 204 243 292 350
#     4  10  20  36  64  85 119 156 209 238 293 364
#     4  11  23  40  65  87 116 161 205 244 296 362
#
# _framework density 25.722830999999999
#
# number of rings (size 3 to 8) (size 9 to 14) (size 15 to 20)
#    0.857    1.429    1.429    1.714    4.000    0.000 
#    0.000    4.286    3.143    0.000    0.000    0.000 
#    0.000    0.000    0.000    0.000    0.000    0.000 
#
# Total GULP energy -78181.128882 kJ/mol
# GULP energy per Si atom -5584.366349 kJ/mol
# Density = 2.566428 g / cm^3
# Si number density = 25.722831 Si / 1000 Ang^3
#
#
#
# Elastic Constant Matrix: (Units=GPa)
#
#
# Indices 1 2 3 4 5 6 
#
# 1 159.2875 36.4432 0.0719 -15.2505 -4.2550 27.1937
# 2 36.4432 62.9285 22.9042 3.1256 2.0561 25.3881
# 3 0.0719 22.9042 62.3042 -18.6612 -7.9347 11.5965
# 4 -15.2505 3.1256 -18.6612 33.1089 5.8928 6.9295
# 5 -4.2550 2.0561 -7.9347 5.8928 42.6401 -15.6013
# 6 27.1937 25.3881 11.5965 6.9295 -15.6013 42.1195
#
#
#
# Elastic Compliance Matrix: (Units=1/GPa)
#
#
# Indices 1 2 3 4 5 6 
#
# 1 0.009619 -0.005501 0.006102 0.010082 -0.001519 -0.006796
# 2 -0.005501 0.028827 -0.011694 -0.008009 -0.007411 -0.012032
# 3 0.006102 -0.011694 0.028335 0.021467 0.000543 -0.008023
# 4 0.010082 -0.008009 0.021467 0.053500 -0.009260 -0.019824
# 5 -0.001519 -0.007411 0.000543 -0.009260 0.031851 0.018619
# 6 -0.006796 -0.012032 -0.008023 -0.019824 0.018619 0.047749
#
#
# Mechanical properties :
#
#
# Convention : Reuss Voigt Hill
#
# Bulk Modulus (GPa) = 22.42412 44.81766 33.62089
# Shear Modulus (GPa) = 21.10317 38.58042 29.84179
#
# Velocity S-wave (km/s) = 2.86738 3.87699 3.40976
# Velocity P-wave (km/s) = 4.43836 6.12393 5.34797
#
# Compressibility (1/GPa) = 0.04459483
#
# Stress axis : x y z
#
# Youngs Moduli (GPa) = 103.96559 34.68934 35.29264
#
# Poissons Ratio (x) = 0.19082 -0.21536
# Poissons Ratio (y) = 0.57188 0.41272
# Poissons Ratio (z) = -0.63442 0.40567
#
# Static dielectric constant tensor:
#      x y z
#    x 2.065840 -0.033590 -0.026150 
#    y -0.033590 2.093230 0.064200 
#    z -0.026150 0.064200 2.083850 
# 
# From -- ./inp_files/476181.got.cif
#   From: 2010.05.17/outbox.cif.g08.bks.cpg/sg2_239_cif.got.tgz:476181.got - 2010.06.03 11:33:40.
