data_PCOD9077176
_publ_section_title
;
Structure prediction by ZEFSAII (Michael W. Deem and Ramdas Pophale) SiO2 
 PCOD9077176
Probable space group: P -1
;
_chemical_formula_sum "Si O2"
_cell_formula_units_Z 14
_cell_length_a 6.824349
_cell_length_b 10.859054
_cell_length_c 16.830435
_cell_angle_alpha 30.582027
_cell_angle_beta 119.003493
_cell_angle_gamma 119.891586
_cell_volume 545.718993
_symmetry_space_group_name_H-M "P -1"
_symmetry_group_IT_number 2
_symmetry_cell_setting 'triclinic'
loop_
_space_group_symop_operation_xyz
x,y,z
-x,-y,-z
loop_
_atom_site_type_symbol
_atom_site_label
_atom_site_fract_x
_atom_site_fract_y
_atom_site_fract_z
Si Si1 0.716533 0.496476 0.392424
Si Si2 0.226757 0.644031 0.356328
Si Si3 0.086418 0.771906 0.903278
Si Si4 0.844157 0.869229 0.968085
Si Si5 0.634951 0.496550 0.808460
Si Si6 0.030621 0.611358 0.699317
Si Si7 0.803871 0.007526 0.603387
O O1 0.657553 0.486637 0.478592
O O2 0.545555 0.590761 0.246847
O O3 0.712210 0.215435 0.520399
O O4 0.971244 0.637377 0.348018
O O5 0.154292 0.493220 0.346651
O O6 0.312798 0.929678 0.195145
O O7 0.667513 0.268002 0.996014
O O8 0.960428 0.832777 0.925388
O O9 0.029196 0.956470 0.722282
O O10 0.000000 0.500000 0.000000
O O11 0.797783 0.584426 0.147548
O O12 0.000000 0.000000 0.000000
O O13 0.878662 0.594621 0.756940
O O14 0.625749 0.752399 0.708764
O O15 0.145703 0.870404 0.541202
#
# Coordination Sequence:
#
# PCOD9077176 Si02
#       7
#     2   2   2   2   2   2   2
#     4  10  19  32  55  80 102 133 184 217 255 312
#     4   9  18  33  55  74 102 143 174 211 264 320
#     4   9  18  32  53  77 105 140 176 214 265 316
#     4   9  16  32  54  78  98 139 182 212 255 320
#     4  10  20  33  52  82 107 133 173 227 260 300
#     4   9  19  32  54  77 103 138 176 212 263 319
#     4  10  18  34  57  75 105 143 175 207 263 329
#
# _framework density 25.654226000000001
#
# number of rings (size 3 to 8) (size 9 to 14) (size 15 to 20)
#    0.000    2.571    1.429    0.857    0.000    0.571 
#    0.000    2.857   12.571    0.857    0.000    0.000 
#    0.000    0.000    0.000    0.000    0.000    0.000 
#
# Total GULP energy -78083.874897 kJ/mol
# GULP energy per Si atom -5577.419635 kJ/mol
# Density = 2.559584 g / cm^3
# Si number density = 25.654226 Si / 1000 Ang^3
#
#
#
# Elastic Constant Matrix: (Units=GPa)
#
#
# Indices 1 2 3 4 5 6 
#
# 1 42.3763 24.2664 10.9162 2.1383 -24.8774 -0.9541
# 2 24.2664 91.0306 33.2873 10.3413 -9.3709 -15.3234
# 3 10.9162 33.2873 151.3896 21.5220 -7.6225 26.4413
# 4 2.1383 10.3413 21.5220 56.1128 9.2821 5.8254
# 5 -24.8774 -9.3709 -7.6225 9.2821 41.4127 11.6047
# 6 -0.9541 -15.3234 26.4413 5.8254 11.6047 38.6996
#
#
#
# Elastic Compliance Matrix: (Units=1/GPa)
#
#
# Indices 1 2 3 4 5 6 
#
# 1 0.049856 -0.013858 0.004789 -0.004981 0.033528 -0.016834
# 2 -0.013858 0.018203 -0.005741 -0.000553 -0.008936 0.013552
# 3 0.004789 -0.005741 0.010217 -0.003108 0.007187 -0.010823
# 4 -0.004981 -0.000553 -0.003108 0.020606 -0.008667 0.001279
# 5 0.033528 -0.008936 0.007187 -0.008667 0.051642 -0.021803
# 6 -0.016834 0.013552 -0.010823 0.001279 -0.021803 0.044531
#
#
# Mechanical properties :
#
#
# Convention : Reuss Voigt Hill
#
# Bulk Modulus (GPa) = 20.55308 46.85959 33.70634
# Shear Modulus (GPa) = 20.75609 41.66680 31.21144
#
# Velocity S-wave (km/s) = 2.84750 4.03447 3.49179
# Velocity P-wave (km/s) = 4.34051 6.32519 5.42439
#
# Compressibility (1/GPa) = 0.04865450
#
# Stress axis : x y z
#
# Youngs Moduli (GPa) = 20.05796 54.93597 97.87880
#
# Poissons Ratio (x) = 0.76128 -0.46870
# Poissons Ratio (y) = 0.27795 0.56196
# Poissons Ratio (z) = -0.09605 0.31541
#
# Static dielectric constant tensor:
#      x y z
#    x 2.187310 0.001170 0.028110 
#    y 0.001170 1.998160 0.005520 
#    z 0.028110 0.005520 2.080850 
# 
# From -- ./inp_files/558306.got.cif
#   From: 2010.05.17/outbox.cif.g08.bks.cpg/sg2_280_cif.got.tgz:558306.got - 2010.06.03 11:33:40.
