data_PCOD9077906
_publ_section_title
;
Structure prediction by ZEFSAII (Michael W. Deem and Ramdas Pophale) SiO2 
 PCOD9077906
Probable space group: P -1
;
_chemical_formula_sum "Si O2"
_cell_formula_units_Z 16
_cell_length_a 12.206343
_cell_length_b 12.096388
_cell_length_c 12.247716
_cell_angle_alpha 131.665596
_cell_angle_beta 132.646943
_cell_angle_gamma 35.771371
_cell_volume 749.167503
_symmetry_space_group_name_H-M "P -1"
_symmetry_group_IT_number 2
_symmetry_cell_setting 'triclinic'
loop_
_space_group_symop_operation_xyz
x,y,z
-x,-y,-z
loop_
_atom_site_type_symbol
_atom_site_label
_atom_site_fract_x
_atom_site_fract_y
_atom_site_fract_z
Si Si1 0.242293 0.881398 0.967367
Si Si2 0.285899 0.183657 0.819880
Si Si3 0.257024 0.746934 0.564339
Si Si4 0.674256 0.507559 0.944590
Si Si5 0.747106 0.848488 0.983295
Si Si6 0.149727 0.015198 0.463546
Si Si7 0.323470 0.434725 0.260100
Si Si8 0.807743 0.098496 0.820495
O O1 0.436720 0.676412 0.915560
O O2 0.291290 0.902407 0.138103
O O3 0.043413 0.915896 0.868320
O O4 0.166769 0.070681 0.970308
O O5 0.224753 0.116739 0.637337
O O6 0.514952 0.024760 0.909371
O O7 0.247281 0.380502 0.896084
O O8 0.188196 0.191369 0.872277
O O9 0.310746 0.546911 0.430155
O O10 0.440373 0.728817 0.710186
O O11 0.088628 0.839610 0.601260
O O12 0.194004 0.861870 0.483285
O O13 0.737802 0.458457 0.827580
O O14 0.750176 0.310054 0.922660
O O15 0.775309 0.658314 0.846976
O O16 0.244352 0.925781 0.351282
#
# Coordination Sequence:
#
# PCOD9077906 Si02
#       8
#     2   2   2   2   2   2   2   2
#     4  10  23  39  60  81 113 156 192 236 274 331
#     4   9  19  33  57  86 114 143 179 236 291 339
#     4  10  21  30  55  84 120 143 177 232 299 333
#     4  10  20  38  62  85 111 148 192 236 281 333
#     4   9  18  34  57  80 114 150 185 225 291 336
#     4  11  21  35  54  86 117 146 183 236 285 337
#     4  10  18  35  55  88 113 145 182 235 287 347
#     4  11  23  40  59  85 112 152 200 231 272 339
#
# _framework density 21.357040000000001
#
# number of rings (size 3 to 8) (size 9 to 14) (size 15 to 20)
#    0.000    2.000    2.500    1.875    3.500    1.000 
#    0.000    5.000    0.000    3.750    0.000    0.000 
#    0.000    0.000    0.000    0.000    0.000    0.000 
#
# Total GULP energy -89171.346126 kJ/mol
# GULP energy per Si atom -5573.209133 kJ/mol
# Density = 2.130843 g / cm^3
# Si number density = 21.357040 Si / 1000 Ang^3
#
#
#
# Elastic Constant Matrix: (Units=GPa)
#
#
# Indices 1 2 3 4 5 6 
#
# 1 42.9437 19.7560 18.6615 6.3899 -15.9015 -0.4722
# 2 19.7560 65.4670 19.0294 6.2161 -2.0207 4.0432
# 3 18.6615 19.0294 98.8880 9.5317 -0.4336 14.7709
# 4 6.3899 6.2161 9.5317 21.8402 5.9027 2.7255
# 5 -15.9015 -2.0207 -0.4336 5.9027 26.7620 -1.8571
# 6 -0.4722 4.0432 14.7709 2.7255 -1.8571 32.6945
#
#
#
# Elastic Compliance Matrix: (Units=1/GPa)
#
#
# Indices 1 2 3 4 5 6 
#
# 1 0.043423 -0.009435 -0.005790 -0.016284 0.029102 0.007420
# 2 -0.009435 0.018587 -0.001473 -0.000491 -0.004255 -0.001970
# 3 -0.005790 -0.001473 0.012474 -0.001727 -0.003356 -0.005584
# 4 -0.016284 -0.000491 -0.001727 0.058355 -0.022997 -0.005565
# 5 0.029102 -0.004255 -0.003356 -0.022997 0.059895 0.007782
# 6 0.007420 -0.001970 -0.005584 -0.005565 0.007782 0.034366
#
#
# Mechanical properties :
#
#
# Convention : Reuss Voigt Hill
#
# Bulk Modulus (GPa) = 24.33779 35.79917 30.06848
# Shear Modulus (GPa) = 18.23531 26.24947 22.24239
#
# Velocity S-wave (km/s) = 2.92521 3.50962 3.23066
# Velocity P-wave (km/s) = 4.77803 5.76384 5.29393
#
# Compressibility (1/GPa) = 0.04108837
#
# Stress axis : x y z
#
# Youngs Moduli (GPa) = 23.02906 53.80041 80.16356
#
# Poissons Ratio (x) = 0.50759 0.46417
# Poissons Ratio (y) = 0.21727 0.11812
# Poissons Ratio (z) = 0.13334 0.07927
#
# Static dielectric constant tensor:
#      x y z
#    x 1.831680 -0.064170 -0.018840 
#    y -0.064170 1.874930 0.000240 
#    z -0.018840 0.000240 1.810750 
# 
# From -- ./inp_files/417861.got.cif
#   From: 2010.05.17/outbox.cif.g08.bks.cpg/sg2_209_cif.got.tgz:417861.got - 2010.06.03 11:33:40.
