data_PCOD9077426
_publ_section_title
;
Structure prediction by ZEFSAII (Michael W. Deem and Ramdas Pophale) SiO2 
 PCOD9077426
Probable space group: P -1
;
_chemical_formula_sum "Si O2"
_cell_formula_units_Z 16
_cell_length_a 8.367708
_cell_length_b 11.756504
_cell_length_c 6.722226
_cell_angle_alpha 90.207540
_cell_angle_beta 83.144620
_cell_angle_gamma 75.213480
_cell_volume 634.427368
_symmetry_space_group_name_H-M "P -1"
_symmetry_group_IT_number 2
_symmetry_cell_setting 'triclinic'
loop_
_space_group_symop_operation_xyz
x,y,z
-x,-y,-z
loop_
_atom_site_type_symbol
_atom_site_label
_atom_site_fract_x
_atom_site_fract_y
_atom_site_fract_z
Si Si1 0.276725 0.732570 0.129011
Si Si2 0.877516 0.468666 0.816657
Si Si3 0.119622 0.600993 0.648114
Si Si4 0.391571 0.298932 0.144880
Si Si5 0.596086 0.287732 0.463630
Si Si6 0.999735 0.968098 0.258292
Si Si7 0.686495 0.008591 0.471160
Si Si8 0.144134 0.159786 0.203381
O O1 0.155653 0.649825 0.089616
O O2 0.389260 0.682193 0.306496
O O3 0.149615 0.855351 0.201597
O O4 0.419362 0.742492 0.955997
O O5 0.871064 0.445751 0.578832
O O6 0.716269 0.572594 0.895880
O O7 0.046787 0.514155 0.800100
O O8 0.294414 0.633090 0.656270
O O9 0.979253 0.725789 0.677778
O O10 0.419371 0.303882 0.380774
O O11 0.283620 0.212542 0.083180
O O12 0.676745 0.147071 0.449544
O O13 0.814560 0.949298 0.277178
O O14 0.025944 0.081617 0.136544
O O15 0.000000 0.000000 0.500000
O O16 0.750493 0.935184 0.659950
O O17 0.500000 0.000000 0.500000
#
# Coordination Sequence:
#
# PCOD9077426 Si02
#       8
#     2   2   2   2   2   2   2   2
#     4  11  22  39  63  83 119 161 191 237 297 341
#     4   9  19  38  59  86 115 154 199 241 287 343
#     4   9  18  34  64  85 109 159 200 232 294 350
#     4  11  24  36  59  91 119 150 200 243 280 346
#     4  11  20  38  60  84 119 149 194 241 292 340
#     4  10  18  35  62  83 111 162 190 228 298 350
#     4  11  18  32  60  88 117 150 187 244 289 342
#     4  10  18  34  59  89 117 155 196 234 288 351
#
# _framework density 25.219593
#
# number of rings (size 3 to 8) (size 9 to 14) (size 15 to 20)
#    0.000    1.750    5.000    2.625    0.000    2.500 
#    0.000    1.250    5.500    0.000    0.000    0.000 
#    0.000    0.000    0.000    0.000    0.000    0.000 
#
# Total GULP energy -89257.556035 kJ/mol
# GULP energy per Si atom -5578.597252 kJ/mol
# Density = 2.516219 g / cm^3
# Si number density = 25.219593 Si / 1000 Ang^3
#
#
#
# Elastic Constant Matrix: (Units=GPa)
#
#
# Indices 1 2 3 4 5 6 
#
# 1 121.7645 32.8746 25.1751 18.6497 -12.6507 23.0654
# 2 32.8746 141.0354 23.3311 15.6451 -16.6990 22.0735
# 3 25.1751 23.3311 54.0288 0.4944 -14.8552 14.4613
# 4 18.6497 15.6451 0.4944 28.3305 -5.6764 -0.4660
# 5 -12.6507 -16.6990 -14.8552 -5.6764 48.0820 -15.6829
# 6 23.0654 22.0735 14.4613 -0.4660 -15.6829 55.9305
#
#
#
# Elastic Compliance Matrix: (Units=1/GPa)
#
#
# Indices 1 2 3 4 5 6 
#
# 1 0.010845 -0.000641 -0.003943 -0.006874 -0.000508 -0.003399
# 2 -0.000641 0.008569 -0.002537 -0.004144 0.000793 -0.002274
# 3 -0.003943 -0.002537 0.023344 0.004603 0.005215 -0.001908
# 4 -0.006874 -0.004144 0.004603 0.043095 0.004897 0.005012
# 5 -0.000508 0.000793 0.005215 0.004897 0.024950 0.005585
# 6 -0.003399 -0.002274 -0.001908 0.005012 0.005585 0.022280
#
#
# Mechanical properties :
#
#
# Convention : Reuss Voigt Hill
#
# Bulk Modulus (GPa) = 35.06954 53.28781 44.17868
# Shear Modulus (GPa) = 31.88150 42.16512 37.02331
#
# Velocity S-wave (km/s) = 3.55935 4.09335 3.83565
# Velocity P-wave (km/s) = 5.55228 6.59667 6.09688
#
# Compressibility (1/GPa) = 0.02851477
#
# Stress axis : x y z
#
# Youngs Moduli (GPa) = 92.20870 116.69933 42.83766
#
# Poissons Ratio (x) = 0.07482 0.16892
# Poissons Ratio (y) = 0.05912 0.10869
# Poissons Ratio (z) = 0.36361 0.29609
#
# Static dielectric constant tensor:
#      x y z
#    x 2.223460 0.118300 0.112610 
#    y 0.118300 1.986260 0.015530 
#    z 0.112610 0.015530 2.153540 
# 
# From -- ./inp_files/188373.got.cif
#   From: 2010.05.17/outbox.cif.g08.bks.cpg/sg2_95_cif.got.tgz:188373.got - 2010.06.03 11:33:40.
