data_PCOD9077335
_publ_section_title
;
Structure prediction by ZEFSAII (Michael W. Deem and Ramdas Pophale) SiO2 
 PCOD9077335
Probable space group: P -1
;
_chemical_formula_sum "Si O2"
_cell_formula_units_Z 16
_cell_length_a 10.764818
_cell_length_b 18.365269
_cell_length_c 8.600785
_cell_angle_alpha 108.339483
_cell_angle_beta 47.752388
_cell_angle_gamma 143.491417
_cell_volume 642.977530
_symmetry_space_group_name_H-M "P -1"
_symmetry_group_IT_number 2
_symmetry_cell_setting 'triclinic'
loop_
_space_group_symop_operation_xyz
x,y,z
-x,-y,-z
loop_
_atom_site_type_symbol
_atom_site_label
_atom_site_fract_x
_atom_site_fract_y
_atom_site_fract_z
Si Si1 0.478046 0.962359 0.236438
Si Si2 0.926392 0.097332 0.682442
Si Si3 0.912557 0.546998 0.190422
Si Si4 0.145926 0.803387 0.691479
Si Si5 0.204203 0.456038 0.033438
Si Si6 0.381722 0.174002 0.217585
Si Si7 0.261172 0.610924 0.489394
Si Si8 0.283885 0.228712 0.044485
O O1 0.202625 0.882656 0.298082
O O2 0.618430 0.089640 0.295453
O O3 0.329823 0.848256 0.412580
O O4 0.775623 0.049117 0.945790
O O5 0.757508 0.954500 0.672622
O O6 0.285555 0.210977 0.430592
O O7 0.746928 0.464107 0.436286
O O8 0.261652 0.709483 0.038289
O O9 0.000000 0.500000 0.000000
O O10 0.757736 0.538007 0.179675
O O11 0.848336 0.640918 0.890209
O O12 0.018521 0.837837 0.773638
O O13 0.867255 0.366564 0.290695
O O14 0.465705 0.615078 0.982373
O O15 0.248531 0.147920 0.144312
O O16 0.000000 0.500000 0.500000
O O17 0.575830 0.742512 0.218772
#
# Coordination Sequence:
#
# PCOD9077335 Si02
#       8
#     2   2   2   2   2   2   2   2
#     4  10  23  43  59  82 117 157 201 243 291 340
#     4  10  23  40  64  85 109 158 201 246 293 343
#     4  10  18  34  58  87 119 148 182 235 289 345
#     4  11  23  40  59  83 122 159 195 242 289 346
#     4  10  21  37  60  87 117 160 189 232 295 356
#     4  11  20  37  64  88 118 146 197 245 293 341
#     4   9  18  33  56  86 116 149 185 229 292 342
#     4  11  21  38  58  88 123 151 190 246 290 346
#
# _framework density 24.884229999999999
#
# number of rings (size 3 to 8) (size 9 to 14) (size 15 to 20)
#    0.000    1.750    5.000    1.125    1.750    2.000 
#    0.000    1.250    0.000    0.000    0.000    0.000 
#    0.000    0.000    0.000    0.000    0.000    0.000 
#
# Total GULP energy -89295.410716 kJ/mol
# GULP energy per Si atom -5580.963170 kJ/mol
# Density = 2.482759 g / cm^3
# Si number density = 24.884230 Si / 1000 Ang^3
#
#
#
# Elastic Constant Matrix: (Units=GPa)
#
#
# Indices 1 2 3 4 5 6 
#
# 1 85.1158 15.4761 29.8847 1.0724 23.8716 3.3932
# 2 15.4761 26.5171 5.8851 -8.2748 7.7490 -0.4829
# 3 29.8847 5.8851 134.5688 11.5664 27.0054 5.6441
# 4 1.0724 -8.2748 11.5664 27.3685 -1.6321 5.0530
# 5 23.8716 7.7490 27.0054 -1.6321 47.4299 -3.5484
# 6 3.3932 -0.4829 5.6441 5.0530 -3.5484 20.9553
#
#
#
# Elastic Compliance Matrix: (Units=1/GPa)
#
#
# Indices 1 2 3 4 5 6 
#
# 1 0.015505 -0.007662 -0.001630 -0.002080 -0.005901 -0.002746
# 2 -0.007662 0.048065 -0.001059 0.015394 -0.002982 -0.001584
# 3 -0.001630 -0.001059 0.009179 -0.004031 -0.004523 -0.002027
# 4 -0.002080 0.015394 -0.004031 0.044688 0.001713 -0.008708
# 5 -0.005901 -0.002982 -0.004523 0.001713 0.027652 0.006374
# 6 -0.002746 -0.001584 -0.002027 -0.008708 0.006374 0.051854
#
#
# Mechanical properties :
#
#
# Convention : Reuss Voigt Hill
#
# Bulk Modulus (GPa) = 19.21354 38.74371 28.97862
# Shear Modulus (GPa) = 21.27732 32.14780 26.71256
#
# Velocity S-wave (km/s) = 2.92730 3.59819 3.27994
# Velocity P-wave (km/s) = 4.37760 5.73289 5.10046
#
# Compressibility (1/GPa) = 0.05204664
#
# Stress axis : x y z
#
# Youngs Moduli (GPa) = 64.49645 20.80522 108.94943
#
# Poissons Ratio (x) = 0.15941 0.17759
# Poissons Ratio (y) = 0.49417 0.11535
# Poissons Ratio (z) = 0.10513 0.02203
#
# Static dielectric constant tensor:
#      x y z
#    x 2.083930 0.037620 -0.029220 
#    y 0.037620 2.054330 -0.017490 
#    z -0.029220 -0.017490 2.083940 
# 
# From -- ./inp_files/258456.got.cif
#   From: 2010.05.17/outbox.cif.g08.bks.cpg/sg2_130_cif.got.tgz:258456.got - 2010.06.03 11:33:40.
