data_PCOD9077177
_publ_section_title
;
Structure prediction by ZEFSAII (Michael W. Deem and Ramdas Pophale) SiO2 
 PCOD9077177
Probable space group: P -1
;
_chemical_formula_sum "Si O2"
_cell_formula_units_Z 16
_cell_length_a 13.281248
_cell_length_b 23.230617
_cell_length_c 22.123988
_cell_angle_alpha 161.745504
_cell_angle_beta 21.189044
_cell_angle_gamma 152.673891
_cell_volume 772.565670
_symmetry_space_group_name_H-M "P -1"
_symmetry_group_IT_number 2
_symmetry_cell_setting 'triclinic'
loop_
_space_group_symop_operation_xyz
x,y,z
-x,-y,-z
loop_
_atom_site_type_symbol
_atom_site_label
_atom_site_fract_x
_atom_site_fract_y
_atom_site_fract_z
Si Si1 0.133520 0.945084 0.678015
Si Si2 0.956901 0.074372 0.529004
Si Si3 0.497643 0.308260 0.845479
Si Si4 0.614594 0.369731 0.072555
Si Si5 0.639428 0.290857 0.442286
Si Si6 0.231175 0.310834 0.121032
Si Si7 0.469690 0.047209 0.919844
Si Si8 0.396741 0.908070 0.619389
O O1 0.226238 0.810384 0.438356
O O2 0.316051 0.867839 0.555570
O O3 0.251847 0.155388 0.813847
O O4 0.807997 0.941431 0.873351
O O5 0.249018 0.040253 0.298467
O O6 0.000000 0.000000 0.500000
O O7 0.711677 0.967300 0.522129
O O8 0.839634 0.275378 0.809557
O O9 0.500000 0.500000 0.000000
O O10 0.444515 0.353449 0.990308
O O11 0.626490 0.584218 0.295235
O O12 0.342753 0.369007 0.181219
O O13 0.555731 0.242738 0.036748
O O14 0.597041 0.092996 0.237651
O O15 0.683868 0.252402 0.449778
O O16 0.925666 0.372524 0.336231
O O17 0.220310 0.089099 0.910546
#
# Coordination Sequence:
#
# PCOD9077177 Si02
#       8
#     2   2   2   2   2   2   2   2
#     4  10  22  37  58  81 101 148 179 219 272 312
#     4   9  18  36  49  78 117 146 166 216 263 321
#     4  10  22  36  55  79 110 134 182 233 267 305
#     4  10  22  31  53  83 113 143 174 211 272 323
#     4  12  19  30  56  82 108 145 174 215 262 326
#     4  10  19  35  51  82 110 139 175 224 272 309
#     4  11  20  37  55  79 118 138 177 218 262 325
#     4  10  18  34  57  75 115 141 175 212 267 327
#
# _framework density 20.710213
#
# number of rings (size 3 to 8) (size 9 to 14) (size 15 to 20)
#    0.000    1.750    6.250    1.500    3.500    0.500 
#    0.000    0.000    0.000   12.000    0.000    8.750 
#    0.000    0.000    0.000    0.000    0.000    0.000 
#
# Total GULP energy -89131.055373 kJ/mol
# GULP energy per Si atom -5570.690961 kJ/mol
# Density = 2.066308 g / cm^3
# Si number density = 20.710213 Si / 1000 Ang^3
#
#
#
# Elastic Constant Matrix: (Units=GPa)
#
#
# Indices 1 2 3 4 5 6 
#
# 1 29.6782 7.9296 15.6033 -14.9811 -8.7663 7.4239
# 2 7.9296 80.9464 50.6660 -12.5238 -8.2044 -13.4291
# 3 15.6033 50.6660 125.4531 -18.3431 -9.7701 -13.5256
# 4 -14.9811 -12.5238 -18.3431 49.9156 0.2542 -12.4464
# 5 -8.7663 -8.2044 -9.7701 0.2542 22.3859 -8.4815
# 6 7.4239 -13.4291 -13.5256 -12.4464 -8.4815 24.3849
#
#
#
# Elastic Compliance Matrix: (Units=1/GPa)
#
#
# Indices 1 2 3 4 5 6 
#
# 1 0.047017 0.000005 -0.003640 0.011340 0.014630 -0.005454
# 2 0.000005 0.020192 -0.004340 0.007566 0.011732 0.016653
# 3 -0.003640 -0.004340 0.012521 0.004983 0.006336 0.010411
# 4 0.011340 0.007566 0.004983 0.033942 0.019448 0.027567
# 5 0.014630 0.011732 0.006336 0.019448 0.072674 0.040725
# 6 -0.005454 0.016653 0.010411 0.027567 0.040725 0.085850
#
#
# Mechanical properties :
#
#
# Convention : Reuss Voigt Hill
#
# Bulk Modulus (GPa) = 15.67880 42.71948 29.19914
# Shear Modulus (GPa) = 16.15992 30.12921 23.14456
#
# Velocity S-wave (km/s) = 2.79639 3.81832 3.34659
# Velocity P-wave (km/s) = 4.24422 6.33336 5.39096
#
# Compressibility (1/GPa) = 0.06378040
#
# Stress axis : x y z
#
# Youngs Moduli (GPa) = 21.26872 49.52342 79.86376
#
# Poissons Ratio (x) = -0.00027 0.29074
# Poissons Ratio (y) = -0.00012 0.34664
# Poissons Ratio (z) = 0.07743 0.21495
#
# Static dielectric constant tensor:
#      x y z
#    x 1.787610 0.052930 0.054730 
#    y 0.052930 1.823240 0.029330 
#    z 0.054730 0.029330 1.853310 
# 
# From -- ./inp_files/612361.got.cif
#   From: 2010.05.17/outbox.cif.g08.bks.cpg/sg2_307_cif.got.tgz:612361.got - 2010.06.03 11:33:40.
