data_PCOD9077680
_publ_section_title
;
Structure prediction by ZEFSAII (Michael W. Deem and Ramdas Pophale) SiO2 
 PCOD9077680
Probable space group: P -1
;
_chemical_formula_sum "Si O2"
_cell_formula_units_Z 15
_cell_length_a 7.669047
_cell_length_b 12.574930
_cell_length_c 8.783153
_cell_angle_alpha 61.371685
_cell_angle_beta 80.195966
_cell_angle_gamma 55.105191
_cell_volume 603.427586
_symmetry_space_group_name_H-M "P -1"
_symmetry_group_IT_number 2
_symmetry_cell_setting 'triclinic'
loop_
_space_group_symop_operation_xyz
x,y,z
-x,-y,-z
loop_
_atom_site_type_symbol
_atom_site_label
_atom_site_fract_x
_atom_site_fract_y
_atom_site_fract_z
Si Si1 0.970385 0.182484 0.951533
Si Si2 0.415335 0.405061 0.638123
Si Si3 0.852790 0.700321 0.334741
Si Si4 0.499267 0.375165 0.997522
Si Si5 0.581730 0.846758 0.779913
Si Si6 0.500000 0.000000 0.000000
Si Si7 0.154079 0.124704 0.506996
Si Si8 0.839718 0.096162 0.732776
O O1 0.750163 0.241458 0.029163
O O2 0.966154 0.113574 0.839308
O O3 0.976707 0.318980 0.804425
O O4 0.161744 0.043588 0.114415
O O5 0.500000 0.500000 0.500000
O O6 0.211505 0.414798 0.591148
O O7 0.401913 0.423204 0.809581
O O8 0.606879 0.240807 0.674611
O O9 0.895705 0.741475 0.466084
O O10 0.654943 0.861697 0.191999
O O11 0.500000 0.500000 0.000000
O O12 0.387959 0.307614 0.146222
O O13 0.541632 0.880636 0.940711
O O14 0.781572 0.845043 0.685320
O O15 0.368771 0.973072 0.636167
O O16 0.963019 0.101096 0.565885
#
# Coordination Sequence:
#
# PCOD9077680 Si02
#       8
#     2   2   2   2   2   1   2   2
#     4   9  18  35  64  91 111 154 212 245 292 358
#     4  11  24  40  58  88 125 161 200 246 308 362
#     4  10  19  35  61  89 113 156 198 252 299 353
#     4  11  23  41  61  87 123 167 199 243 299 368
#     4  10  19  36  61  92 122 155 200 246 308 351
#     4  10  18  34  62  92 114 154 202 250 298 352
#     4   9  19  34  63  94 120 145 199 261 296 345
#     4   9  17  36  62  90 119 153 201 256 293 352
#
# _framework density 24.857994999999999
#
# number of rings (size 3 to 8) (size 9 to 14) (size 15 to 20)
#    0.000    2.133    2.667    0.800    5.600    0.000 
#    2.400    4.000    0.000    4.000    0.000    0.000 
#    0.000    0.000    0.000    0.000    0.000    0.000 
#
# Total GULP energy -83620.769967 kJ/mol
# GULP energy per Si atom -5574.717998 kJ/mol
# Density = 2.480142 g / cm^3
# Si number density = 24.857995 Si / 1000 Ang^3
#
#
#
# Elastic Constant Matrix: (Units=GPa)
#
#
# Indices 1 2 3 4 5 6 
#
# 1 61.6439 19.0830 30.2582 -0.7746 -16.6605 20.4308
# 2 19.0830 91.3221 44.0014 4.9629 -7.4449 32.5800
# 3 30.2582 44.0014 108.7075 -4.5666 -42.7317 21.6703
# 4 -0.7746 4.9629 -4.5666 32.6846 10.5696 -9.0979
# 5 -16.6605 -7.4449 -42.7317 10.5696 44.3184 -10.6159
# 6 20.4308 32.5800 21.6703 -9.0979 -10.6159 38.0045
#
#
#
# Elastic Compliance Matrix: (Units=1/GPa)
#
#
# Indices 1 2 3 4 5 6 
#
# 1 0.022062 0.001546 -0.003171 -0.004574 0.003857 -0.011395
# 2 0.001546 0.020522 -0.008013 -0.007010 -0.006158 -0.017254
# 3 -0.003171 -0.008013 0.019624 -0.001121 0.017104 0.001894
# 4 -0.004574 -0.007010 -0.001121 0.038843 -0.009466 0.015762
# 5 0.003857 -0.006158 0.017104 -0.009466 0.042459 0.003047
# 6 -0.011395 -0.017254 0.001894 0.015762 0.003047 0.050774
#
#
# Mechanical properties :
#
#
# Convention : Reuss Voigt Hill
#
# Bulk Modulus (GPa) = 23.29256 49.81766 36.55511
# Shear Modulus (GPa) = 21.94228 34.22356 28.08292
#
# Velocity S-wave (km/s) = 2.97426 3.71450 3.36480
# Velocity P-wave (km/s) = 4.60278 6.20331 5.46199
#
# Compressibility (1/GPa) = 0.04293217
#
# Stress axis : x y z
#
# Youngs Moduli (GPa) = 45.32729 48.72726 50.95845
#
# Poissons Ratio (x) = -0.07533 0.16159
# Poissons Ratio (y) = -0.07008 0.40833
# Poissons Ratio (z) = 0.14373 0.39045
#
# Static dielectric constant tensor:
#      x y z
#    x 2.359210 -0.165850 -0.240020 
#    y -0.165850 2.013090 0.052540 
#    z -0.240020 0.052540 2.131560 
# 
# From -- ./inp_files/184922.got.cif
#   From: 2010.05.17/outbox.cif.g08.bks.cpg/sg2_93_cif.got.tgz:184922.got - 2010.06.03 11:33:40.
