data_PCOD9077742
_publ_section_title
;
Structure prediction by ZEFSAII (Michael W. Deem and Ramdas Pophale) SiO2 
 PCOD9077742
Probable space group: P -1
;
_chemical_formula_sum "Si O2"
_cell_formula_units_Z 16
_cell_length_a 9.350127
_cell_length_b 7.968788
_cell_length_c 15.942021
_cell_angle_alpha 144.315528
_cell_angle_beta 72.716617
_cell_angle_gamma 104.846700
_cell_volume 661.361336
_symmetry_space_group_name_H-M "P -1"
_symmetry_group_IT_number 2
_symmetry_cell_setting 'triclinic'
loop_
_space_group_symop_operation_xyz
x,y,z
-x,-y,-z
loop_
_atom_site_type_symbol
_atom_site_label
_atom_site_fract_x
_atom_site_fract_y
_atom_site_fract_z
Si Si1 0.593728 0.204301 0.360751
Si Si2 0.820152 0.430337 0.007912
Si Si3 0.317952 0.195388 0.165338
Si Si4 0.829301 0.580595 0.558340
Si Si5 0.347201 0.923433 0.886711
Si Si6 0.376119 0.966185 0.434734
Si Si7 0.830642 0.620003 0.260131
Si Si8 0.818969 0.231047 0.749018
O O1 0.500000 0.500000 0.500000
O O2 0.748639 0.319632 0.417903
O O3 0.620670 0.052230 0.206573
O O4 0.488761 0.007821 0.354888
O O5 0.768080 0.420219 0.915548
O O6 0.762758 0.112924 0.920115
O O7 0.775419 0.629546 0.175810
O O8 0.000000 0.500000 0.000000
O O9 0.244374 0.405489 0.330713
O O10 0.495974 0.207228 0.160161
O O11 0.314129 0.181324 0.059611
O O12 0.000000 0.500000 0.500000
O O13 0.807231 0.891851 0.644044
O O14 0.208939 0.700717 0.831956
O O15 0.259051 0.189763 0.582313
O O16 0.500000 0.000000 0.500000
O O17 0.262635 0.745522 0.316624
O O18 0.005206 0.697075 0.263617
#
# Coordination Sequence:
#
# PCOD9077742 Si02
#       8
#     2   2   2   2   2   2   2   2
#     4  12  20  40  60  83 117 154 206 250 301 356
#     4   8  16  31  58  87 115 155 196 241 297 367
#     4   9  17  32  57  93 118 150 203 246 302 359
#     4  11  22  36  61  92 123 156 198 250 304 364
#     4  10  18  34  64  87 113 159 202 252 298 363
#     4  12  25  38  58  89 122 158 204 255 299 362
#     4  10  19  35  59  89 118 153 200 246 306 364
#     4  10  20  39  60  87 121 162 197 243 309 362
#
# _framework density 24.192523999999999
#
# number of rings (size 3 to 8) (size 9 to 14) (size 15 to 20)
#    0.000    1.750    3.750    1.125    1.750    0.000 
#    0.000    1.250    0.000    0.000    0.000    0.000 
#    0.000    0.000    0.000    0.000    0.000    0.000 
#
# Total GULP energy -89175.254737 kJ/mol
# GULP energy per Si atom -5573.453421 kJ/mol
# Density = 2.413746 g / cm^3
# Si number density = 24.192524 Si / 1000 Ang^3
#
#
#
# Elastic Constant Matrix: (Units=GPa)
#
#
# Indices 1 2 3 4 5 6 
#
# 1 96.9677 13.8030 43.3151 -4.6773 31.6377 8.3650
# 2 13.8030 63.9664 26.4521 -26.2084 13.3534 -2.7727
# 3 43.3151 26.4521 158.7228 -27.6525 39.2943 -35.2923
# 4 -4.6773 -26.2084 -27.6525 46.6911 -6.1862 11.3056
# 5 31.6377 13.3534 39.2943 -6.1862 42.3227 1.5768
# 6 8.3650 -2.7727 -35.2923 11.3056 1.5768 12.9252
#
#
#
# Elastic Compliance Matrix: (Units=1/GPa)
#
#
# Indices 1 2 3 4 5 6 
#
# 1 -0.019893 -0.015331 0.065258 -0.033209 -0.054059 0.223417
# 2 -0.015331 0.015404 0.027878 -0.002231 -0.023116 0.094120
# 3 0.065258 0.027878 -0.123122 0.067107 0.082982 -0.441263
# 4 -0.033209 -0.002231 0.067107 -0.000130 -0.044612 0.209806
# 5 -0.054059 -0.023116 0.082982 -0.044612 -0.023353 0.298482
# 6 0.223417 0.094120 -0.441263 0.209806 0.298482 -1.471836
#
#
# Mechanical properties :
#
#
# Convention : Reuss Voigt Hill
#
# Bulk Modulus (GPa) = 35.71365 54.08859 44.90112
# Shear Modulus (GPa) = -2.82612 36.12690 16.65039
#
# Velocity S-wave (km/s) = -1.08200 3.86853 2.62629
# Velocity P-wave (km/s) = 3.63777 6.50846 5.27226
#
# Compressibility (1/GPa) = 0.02800049
#
# Stress axis : x y z
#
# Youngs Moduli (GPa) = -50.26846 64.91769 -8.12200
#
# Poissons Ratio (x) = 0.99524 0.53003
# Poissons Ratio (y) = -0.77065 0.22643
# Poissons Ratio (z) = 3.28044 -1.80980
#
# Static dielectric constant tensor:
#      x y z
#    x 1.549290 -0.409900 -0.331590 
#    y -0.409900 1.821640 -0.235290 
#    z -0.331590 -0.235290 1.587240 
# 
# From -- ./inp_files/495802.got.cif
#   From: 2010.05.17/outbox.cif.g08.bks.cpg/sg2_248_cif.got.tgz:495802.got - 2010.06.03 11:33:40.
