data_PCOD9077863
_publ_section_title
;
Structure prediction by ZEFSAII (Michael W. Deem and Ramdas Pophale) SiO2 
 PCOD9077863
Probable space group: P -1
;
_chemical_formula_sum "Si O2"
_cell_formula_units_Z 16
_cell_length_a 9.426343
_cell_length_b 12.465498
_cell_length_c 11.102679
_cell_angle_alpha 99.408522
_cell_angle_beta 121.912127
_cell_angle_gamma 49.308561
_cell_volume 805.734867
_symmetry_space_group_name_H-M "P -1"
_symmetry_group_IT_number 2
_symmetry_cell_setting 'triclinic'
loop_
_space_group_symop_operation_xyz
x,y,z
-x,-y,-z
loop_
_atom_site_type_symbol
_atom_site_label
_atom_site_fract_x
_atom_site_fract_y
_atom_site_fract_z
Si Si1 0.349764 0.749812 0.764474
Si Si2 0.834775 0.969168 0.926116
Si Si3 0.497141 0.873161 0.994137
Si Si4 0.031353 0.312284 0.935104
Si Si5 0.382995 0.448598 0.376051
Si Si6 0.928807 0.569163 0.611956
Si Si7 0.773851 0.492603 0.068357
Si Si8 0.984064 0.783442 0.734963
O O1 0.443986 0.688458 0.662127
O O2 0.112290 0.796394 0.694148
O O3 0.341944 0.877565 0.829057
O O4 0.543198 0.616129 0.917919
O O5 0.827621 0.921275 0.780200
O O6 0.603304 0.105103 0.914735
O O7 0.926876 0.829573 0.026359
O O8 0.000000 0.000000 0.000000
O O9 0.752505 0.734564 0.044065
O O10 0.500000 0.000000 0.000000
O O11 0.816355 0.416234 0.772531
O O12 0.978556 0.405447 0.047627
O O13 0.500000 0.500000 0.500000
O O14 0.265149 0.419315 0.413138
O O15 0.000000 0.500000 0.500000
O O16 0.154297 0.467230 0.778282
O O17 0.870182 0.723925 0.621690
O O18 0.810996 0.354823 0.113668
#
# Coordination Sequence:
#
# PCOD9077863 Si02
#       8
#     2   2   2   2   2   2   2   2
#     4  11  18  33  56  83 108 144 179 233 284 333
#     4  10  18  35  54  88 116 146 186 232 274 328
#     4  10  20  30  54  83 111 146 183 225 276 322
#     4   9  19  37  54  85 117 142 186 238 275 337
#     4  11  23  37  56  83 114 151 185 229 295 339
#     4  10  20  35  51  78 112 148 179 223 283 341
#     4   8  18  31  55  79 112 134 179 231 289 328
#     4   9  19  32  51  80 114 140 179 229 274 335
#
# _framework density 19.857648999999999
#
# number of rings (size 3 to 8) (size 9 to 14) (size 15 to 20)
#    0.750    1.500    1.250    2.625    1.750    2.000 
#    0.000    0.000    0.000    3.000    3.250    5.250 
#    0.000    0.000    0.000    0.000    0.000    0.000 
#
# Total GULP energy -89071.769084 kJ/mol
# GULP energy per Si atom -5566.985568 kJ/mol
# Density = 1.981245 g / cm^3
# Si number density = 19.857649 Si / 1000 Ang^3
#
#
#
# Elastic Constant Matrix: (Units=GPa)
#
#
# Indices 1 2 3 4 5 6 
#
# 1 170.8514 50.3711 48.7330 37.5480 -2.1421 -27.6879
# 2 50.3711 63.7083 32.7090 38.0016 -4.8125 -15.8971
# 3 48.7330 32.7090 93.9434 45.3722 -4.9242 -17.5254
# 4 37.5480 38.0016 45.3722 40.6923 -1.2054 -7.1506
# 5 -2.1421 -4.8125 -4.9242 -1.2054 27.6213 11.7926
# 6 -27.6879 -15.8971 -17.5254 -7.1506 11.7926 35.3767
#
#
#
# Elastic Compliance Matrix: (Units=1/GPa)
#
#
# Indices 1 2 3 4 5 6 
#
# 1 0.008551 -0.003909 -0.001398 -0.001936 -0.002327 0.004627
# 2 -0.003909 0.047191 0.014316 -0.053976 0.002330 0.013552
# 3 -0.001398 0.014316 0.028934 -0.042423 0.001113 0.010727
# 4 -0.001936 -0.053976 -0.042423 0.120195 -0.002646 -0.021610
# 5 -0.002327 0.002330 0.001113 -0.002646 0.042948 -0.015075
# 6 0.004627 0.013552 0.010727 -0.021610 -0.015075 0.043950
#
#
# Mechanical properties :
#
#
# Convention : Reuss Voigt Hill
#
# Bulk Modulus (GPa) = 9.73766 65.79215 37.76490
# Shear Modulus (GPa) = 16.23473 33.85071 25.04272
#
# Velocity S-wave (km/s) = 2.86240 4.13324 3.55507
# Velocity P-wave (km/s) = 3.97980 7.48212 5.99253
#
# Compressibility (1/GPa) = 0.10269411
#
# Stress axis : x y z
#
# Youngs Moduli (GPa) = 116.95189 21.19059 34.56102
#
# Poissons Ratio (x) = 0.08283 0.04832
# Poissons Ratio (y) = 0.45713 -0.49478
# Poissons Ratio (z) = 0.16351 -0.30337
#
# Static dielectric constant tensor:
#      x y z
#    x 1.753160 0.027090 0.001060 
#    y 0.027090 1.798590 0.013820 
#    z 0.001060 0.013820 1.695350 
# 
# From -- ./inp_files/396123.got.cif
#   From: 2010.05.17/outbox.cif.g08.bks.cpg/sg2_199_cif.got.tgz:396123.got - 2010.06.03 11:33:40.
