data_PCOD9077201
_publ_section_title
;
Structure prediction by ZEFSAII (Michael W. Deem and Ramdas Pophale) SiO2 
 PCOD9077201
Probable space group: P -1
;
_chemical_formula_sum "Si O2"
_cell_formula_units_Z 16
_cell_length_a 8.846182
_cell_length_b 7.882297
_cell_length_c 11.638507
_cell_angle_alpha 111.664710
_cell_angle_beta 82.732477
_cell_angle_gamma 62.619532
_cell_volume 625.062547
_symmetry_space_group_name_H-M "P -1"
_symmetry_group_IT_number 2
_symmetry_cell_setting 'triclinic'
loop_
_space_group_symop_operation_xyz
x,y,z
-x,-y,-z
loop_
_atom_site_type_symbol
_atom_site_label
_atom_site_fract_x
_atom_site_fract_y
_atom_site_fract_z
Si Si1 0.951880 0.500301 0.372284
Si Si2 0.683320 0.178621 0.818196
Si Si3 0.493803 0.879769 0.358113
Si Si4 0.550081 0.329579 0.102419
Si Si5 0.974132 0.892673 0.365474
Si Si6 0.167891 0.200826 0.826152
Si Si7 0.185196 0.335260 0.098060
Si Si8 0.597246 0.477933 0.366647
O O1 0.777679 0.481358 0.373493
O O2 0.000000 0.500000 0.500000
O O3 0.938366 0.717448 0.380989
O O4 0.097841 0.325356 0.223121
O O5 0.648915 0.016819 0.707168
O O6 0.510018 0.427148 0.873194
O O7 0.849528 0.171016 0.741754
O O8 0.690114 0.165921 0.951616
O O9 0.683372 0.771147 0.244399
O O10 0.456800 0.711174 0.378112
O O11 0.500000 0.000000 0.500000
O O12 0.372911 0.315560 0.104169
O O13 0.613454 0.316154 0.224096
O O14 0.826963 0.987058 0.298805
O O15 0.000000 0.000000 0.500000
O O16 0.967654 0.423475 0.880244
O O17 0.208700 0.178586 0.951621
O O18 0.500000 0.500000 0.500000
#
# Coordination Sequence:
#
# PCOD9077201 Si02
#       8
#     2   2   2   2   2   2   2   2
#     4  11  23  39  58  84 116 152 191 234 285 339
#     4  10  20  30  56  86 113 144 187 238 285 326
#     4  11  21  37  58  85 118 148 188 235 286 341
#     4  10  19  34  55  84 115 144 191 240 282 327
#     4  11  22  37  58  86 118 150 187 233 287 344
#     4  10  19  33  55  88 112 146 190 237 288 326
#     4  10  18  34  57  81 117 144 189 242 281 329
#     4  11  24  38  58  85 115 152 192 233 286 341
#
# _framework density 25.597441
#
# number of rings (size 3 to 8) (size 9 to 14) (size 15 to 20)
#    0.000    1.500    6.250    1.500    3.500    0.000 
#    0.000    0.000    0.000    3.000    0.000    0.000 
#    0.000    0.000    0.000    0.000    0.000    0.000 
#
# Total GULP energy -89233.614750 kJ/mol
# GULP energy per Si atom -5577.100922 kJ/mol
# Density = 2.553918 g / cm^3
# Si number density = 25.597441 Si / 1000 Ang^3
#
#
#
# Elastic Constant Matrix: (Units=GPa)
#
#
# Indices 1 2 3 4 5 6 
#
# 1 185.1799 42.1085 124.3432 -12.9577 29.8893 40.5468
# 2 42.1085 48.7268 65.4919 -9.5418 10.0872 2.1494
# 3 124.3432 65.4919 333.7043 -28.1739 48.0879 25.6005
# 4 -12.9577 -9.5418 -28.1739 38.8293 1.1750 8.2726
# 5 29.8893 10.0872 48.0879 1.1750 68.3351 -2.5422
# 6 40.5468 2.1494 25.6005 8.2726 -2.5422 28.9135
#
#
#
# Elastic Compliance Matrix: (Units=1/GPa)
#
#
# Indices 1 2 3 4 5 6 
#
# 1 0.012946 -0.007137 -0.000703 0.006305 -0.004938 -0.019240
# 2 -0.007137 0.032263 -0.005053 -0.000865 0.002397 0.012542
# 3 -0.000703 -0.005053 0.005313 0.003443 -0.002915 -0.004584
# 4 0.006305 -0.000865 0.003443 0.035122 -0.006492 -0.022446
# 5 -0.004938 0.002397 -0.002915 -0.006492 0.019081 0.012863
# 6 -0.019240 0.012542 -0.004584 -0.022446 0.012863 0.072246
#
#
# Mechanical properties :
#
#
# Convention : Reuss Voigt Hill
#
# Bulk Modulus (GPa) = 40.42761 114.61091 77.51926
# Shear Modulus (GPa) = 23.69619 49.59342 36.64481
#
# Velocity S-wave (km/s) = 3.04587 4.40641 3.78773
# Velocity P-wave (km/s) = 5.31015 8.41190 7.03412
#
# Compressibility (1/GPa) = 0.02473557
#
# Stress axis : x y z
#
# Youngs Moduli (GPa) = 77.24156 30.99506 188.22371
#
# Poissons Ratio (x) = 0.22121 0.13239
# Poissons Ratio (y) = 0.55127 0.95111
# Poissons Ratio (z) = 0.05433 0.15662
#
# Static dielectric constant tensor:
#      x y z
#    x 2.022520 -0.073710 0.072350 
#    y -0.073710 2.195270 0.138560 
#    z 0.072350 0.138560 2.151960 
# 
# From -- ./inp_files/379870.got.cif
#   From: 2010.05.17/outbox.cif.g08.bks.cpg/sg2_190_cif.got.tgz:379870.got - 2010.06.03 11:33:40.
