data_PCOD9077657
_publ_section_title
;
Structure prediction by ZEFSAII (Michael W. Deem and Ramdas Pophale) SiO2 
 PCOD9077657
Probable space group: P -1
;
_chemical_formula_sum "Si O2"
_cell_formula_units_Z 15
_cell_length_a 7.286553
_cell_length_b 14.397148
_cell_length_c 12.286287
_cell_angle_alpha 53.209410
_cell_angle_beta 64.704132
_cell_angle_gamma 108.710618
_cell_volume 564.271873
_symmetry_space_group_name_H-M "P -1"
_symmetry_group_IT_number 2
_symmetry_cell_setting 'triclinic'
loop_
_space_group_symop_operation_xyz
x,y,z
-x,-y,-z
loop_
_atom_site_type_symbol
_atom_site_label
_atom_site_fract_x
_atom_site_fract_y
_atom_site_fract_z
Si Si1 0.409451 0.126486 0.406730
Si Si2 0.957827 0.605214 0.075981
Si Si3 0.385563 0.149282 0.891198
Si Si4 0.000000 0.500000 0.500000
Si Si5 0.333090 0.883208 0.991498
Si Si6 0.155808 0.210945 0.082575
Si Si7 0.833930 0.510995 0.775288
Si Si8 0.985366 0.152415 0.504083
O O1 0.794658 0.299698 0.155858
O O2 0.282903 0.197743 0.419803
O O3 0.226851 0.963095 0.656865
O O4 0.226044 0.999600 0.432867
O O5 0.719832 0.602336 0.104418
O O6 0.135905 0.752651 0.029412
O O7 0.921159 0.462522 0.238503
O O8 0.248625 0.975061 0.986722
O O9 0.624725 0.351372 0.634720
O O10 0.155993 0.116596 0.052345
O O11 0.702696 0.231124 0.823188
O O12 0.120872 0.480111 0.372064
O O13 0.726461 0.054403 0.739134
O O14 0.437765 0.295689 0.038345
O O15 0.895805 0.668067 0.688206
#
# Coordination Sequence:
#
# PCOD9077657 Si02
#       8
#     2   2   2   1   2   2   2   2
#     4  10  21  39  60  91 114 159 205 254 289 352
#     4  11  23  39  61  86 125 158 201 250 294 356
#     4  10  19  34  62  88 118 154 198 245 298 355
#     4  10  18  34  62  86 124 152 188 240 302 356
#     4  10  18  35  61  89 113 157 201 248 292 350
#     4  11  22  40  60  89 121 159 201 248 300 353
#     4  11  22  40  60  91 121 163 193 245 304 360
#     4  10  19  36  67  85 117 159 205 240 303 355
#
# _framework density 26.582930999999999
#
# number of rings (size 3 to 8) (size 9 to 14) (size 15 to 20)
#    0.000    1.600    5.333    2.000    0.000    2.667 
#    0.000    8.000    0.000    0.000    0.000    0.000 
#    0.000    0.000    0.000    0.000    0.000    0.000 
#
# Total GULP energy -83579.219880 kJ/mol
# GULP energy per Si atom -5571.947992 kJ/mol
# Density = 2.652243 g / cm^3
# Si number density = 26.582931 Si / 1000 Ang^3
#
#
#
# Elastic Constant Matrix: (Units=GPa)
#
#
# Indices 1 2 3 4 5 6 
#
# 1 85.5842 31.5378 12.1440 0.3006 21.3737 -23.2211
# 2 31.5378 153.0577 34.2822 -15.1118 17.0207 -29.9827
# 3 12.1440 34.2822 76.9933 23.5212 2.8323 -13.1176
# 4 0.3006 -15.1118 23.5212 39.8822 -11.7454 4.4290
# 5 21.3737 17.0207 2.8323 -11.7454 25.0760 -5.8319
# 6 -23.2211 -29.9827 -13.1176 4.4290 -5.8319 42.9950
#
#
#
# Elastic Compliance Matrix: (Units=1/GPa)
#
#
# Indices 1 2 3 4 5 6 
#
# 1 0.018294 -0.001630 0.002190 -0.007802 -0.016534 0.007973
# 2 -0.001630 0.009355 -0.005133 0.005976 -0.000802 0.003353
# 3 0.002190 -0.005133 0.021357 -0.017398 -0.007816 0.004851
# 4 -0.007802 0.005976 -0.017398 0.045574 0.024336 -0.006748
# 5 -0.016534 -0.000802 -0.007816 0.024336 0.065520 -0.005494
# 6 0.007973 0.003353 0.004851 -0.006748 -0.005494 0.031333
#
#
# Mechanical properties :
#
#
# Convention : Reuss Voigt Hill
#
# Bulk Modulus (GPa) = 25.08701 52.39591 38.74146
# Shear Modulus (GPa) = 23.37898 37.43537 30.40717
#
# Velocity S-wave (km/s) = 2.96881 3.75673 3.38577
# Velocity P-wave (km/s) = 4.60538 6.21052 5.46718
#
# Compressibility (1/GPa) = 0.03986127
#
# Stress axis : x y z
#
# Youngs Moduli (GPa) = 54.66201 106.89332 46.82213
#
# Poissons Ratio (x) = 0.17423 -0.10256
# Poissons Ratio (y) = 0.08910 0.24035
# Poissons Ratio (z) = -0.11973 0.54871
#
# Static dielectric constant tensor:
#      x y z
#    x 2.082400 0.179540 -0.434800 
#    y 0.179540 1.778630 0.729230 
#    z -0.434800 0.729230 0.256680 
# 
# From -- ./inp_files/213301.got.cif
#   From: 2010.05.17/outbox.cif.g08.bks.cpg/sg2_107_cif.got.tgz:213301.got - 2010.06.03 11:33:40.
