data_PCOD9077202
_publ_section_title
;
Structure prediction by ZEFSAII (Michael W. Deem and Ramdas Pophale) SiO2 
 PCOD9077202
Probable space group: P -1
;
_chemical_formula_sum "Si O2"
_cell_formula_units_Z 16
_cell_length_a 6.098340
_cell_length_b 21.259026
_cell_length_c 18.879930
_cell_angle_alpha 20.445222
_cell_angle_beta 116.484309
_cell_angle_gamma 121.945619
_cell_volume 715.188896
_symmetry_space_group_name_H-M "P -1"
_symmetry_group_IT_number 2
_symmetry_cell_setting 'triclinic'
loop_
_space_group_symop_operation_xyz
x,y,z
-x,-y,-z
loop_
_atom_site_type_symbol
_atom_site_label
_atom_site_fract_x
_atom_site_fract_y
_atom_site_fract_z
Si Si1 0.734599 0.595242 0.217419
Si Si2 0.527695 0.719948 0.784995
Si Si3 0.288239 0.040214 0.580887
Si Si4 0.440732 0.705762 0.938766
Si Si5 0.196379 0.628869 0.332635
Si Si6 0.970254 0.693781 0.685181
Si Si7 0.344760 0.344593 0.546992
Si Si8 0.849133 0.275362 0.475099
O O1 0.522048 0.477213 0.369974
O O2 0.786273 0.434633 0.344504
O O3 0.009804 0.711557 0.173294
O O4 0.614359 0.713948 0.024004
O O5 0.690114 0.859964 0.598631
O O6 0.608698 0.780154 0.813631
O O7 0.235788 0.725089 0.731291
O O8 0.500000 0.500000 0.000000
O O9 0.108532 0.119683 0.518270
O O10 0.576684 0.119872 0.574641
O O11 0.237404 0.816254 0.802847
O O12 0.273230 0.483035 0.134766
O O13 0.274198 0.487232 0.440455
O O14 0.466204 0.745692 0.289130
O O15 0.000000 0.500000 0.500000
O O16 0.014090 0.638525 0.669985
O O17 0.064690 0.213766 0.612946
#
# Coordination Sequence:
#
# PCOD9077202 Si02
#       8
#     2   2   2   2   2   2   2   2
#     4  10  18  34  57  81 118 154 194 241 294 341
#     4  11  23  43  63  81 117 153 193 247 297 344
#     4  11  24  39  57  86 116 154 198 240 293 349
#     4  12  22  39  60  84 117 153 196 244 291 347
#     4   8  16  27  50  89 119 149 195 240 279 347
#     4  11  22  42  57  83 115 151 195 241 293 347
#     4   9  15  29  54  85 117 154 195 234 290 345
#     4  10  18  36  58  80 119 153 193 243 290 343
#
# _framework density 22.371713
#
# number of rings (size 3 to 8) (size 9 to 14) (size 15 to 20)
#    0.000    1.750    3.750    1.500    0.000    0.500 
#    9.000    0.000    0.000    0.750    0.000   35.875 
#    0.000    0.000    0.000    0.000    0.000    0.000 
#
# Total GULP energy -89338.896439 kJ/mol
# GULP energy per Si atom -5583.681027 kJ/mol
# Density = 2.232079 g / cm^3
# Si number density = 22.371713 Si / 1000 Ang^3
#
#
#
# Elastic Constant Matrix: (Units=GPa)
#
#
# Indices 1 2 3 4 5 6 
#
# 1 108.7876 42.8910 29.2388 10.5148 9.9767 -12.1529
# 2 42.8910 81.1146 35.3281 28.0894 -6.0550 -12.4825
# 3 29.2388 35.3281 78.7329 8.7490 23.5773 -2.1982
# 4 10.5148 28.0894 8.7490 30.8410 0.3200 1.6076
# 5 9.9767 -6.0550 23.5773 0.3200 24.6772 -1.7864
# 6 -12.1529 -12.4825 -2.1982 1.6076 -1.7864 46.2874
#
#
#
# Elastic Compliance Matrix: (Units=1/GPa)
#
#
# Indices 1 2 3 4 5 6 
#
# 1 0.013069 -0.009850 0.002022 0.004024 -0.009659 0.000359
# 2 -0.009850 0.041852 -0.022680 -0.029234 0.037028 0.010067
# 3 0.002022 -0.022680 0.031875 0.011622 -0.037416 -0.005919
# 4 0.004024 -0.029234 0.011622 0.055072 -0.021270 -0.009009
# 5 -0.009659 0.037028 -0.037416 -0.021270 0.090254 0.009895
# 6 0.000359 0.010067 -0.005919 -0.009009 0.009895 0.024827
#
#
# Mechanical properties :
#
#
# Convention : Reuss Voigt Hill
#
# Bulk Modulus (GPa) = 38.79190 53.72788 46.25989
# Shear Modulus (GPa) = 15.31119 31.10626 23.20872
#
# Velocity S-wave (km/s) = 2.61894 3.73289 3.22438
# Velocity P-wave (km/s) = 5.15000 6.53050 5.88090
#
# Compressibility (1/GPa) = 0.02577858
#
# Stress axis : x y z
#
# Youngs Moduli (GPa) = 76.51431 23.89392 31.37279
#
# Poissons Ratio (x) = 0.23537 -0.06342
# Poissons Ratio (y) = 0.75370 0.71153
# Poissons Ratio (z) = -0.15468 0.54191
#
# Static dielectric constant tensor:
#      x y z
#    x 1.821760 0.049500 0.012150 
#    y 0.049500 1.879720 0.032420 
#    z 0.012150 0.032420 1.801100 
# 
# From -- ./inp_files/44891.got.cif
#   From: 2010.05.17/outbox.cif.g08.bks.cpg/sg2_23_cif.got.tgz:44891.got - 2010.06.03 11:33:40.
