data_PCOD9077943
_publ_section_title
;
Structure prediction by ZEFSAII (Michael W. Deem and Ramdas Pophale) SiO2 
 PCOD9077943
Probable space group: P -1
;
_chemical_formula_sum "Si O2"
_cell_formula_units_Z 16
_cell_length_a 15.518482
_cell_length_b 16.125363
_cell_length_c 12.187812
_cell_angle_alpha 153.157402
_cell_angle_beta 44.407676
_cell_angle_gamma 146.784857
_cell_volume 748.004285
_symmetry_space_group_name_H-M "P -1"
_symmetry_group_IT_number 2
_symmetry_cell_setting 'triclinic'
loop_
_space_group_symop_operation_xyz
x,y,z
-x,-y,-z
loop_
_atom_site_type_symbol
_atom_site_label
_atom_site_fract_x
_atom_site_fract_y
_atom_site_fract_z
Si Si1 0.555992 0.931764 0.127203
Si Si2 0.640855 0.710405 0.228782
Si Si3 0.624569 0.352168 0.461350
Si Si4 0.194363 0.610670 0.069019
Si Si5 0.166616 0.181239 0.621520
Si Si6 0.635048 0.895560 0.779547
Si Si7 0.133728 0.537669 0.782145
Si Si8 0.465314 0.186793 0.758111
O O1 0.375690 0.839750 0.186080
O O2 0.593375 0.857500 0.115067
O O3 0.658291 0.209797 0.341148
O O4 0.572152 0.828047 0.880213
O O5 0.478789 0.609024 0.324320
O O6 0.785214 0.876508 0.378334
O O7 0.647086 0.839903 0.267070
O O8 0.612795 0.467999 0.941949
O O9 0.501277 0.180222 0.272888
O O10 0.784137 0.529497 0.454504
O O11 0.052754 0.605646 0.231606
O O12 0.184219 0.409347 0.902504
O O13 0.161860 0.527851 0.873570
O O14 0.294540 0.228633 0.473895
O O15 0.000000 0.000000 0.500000
O O16 0.774873 0.179787 0.983400
O O17 0.500000 0.000000 0.500000
#
# Coordination Sequence:
#
# PCOD9077943 Si02
#       8
#     2   2   2   2   2   2   2   2
#     4  11  19  34  58  86 115 156 203 244 294 361
#     4  10  23  37  63  90 119 157 209 251 302 353
#     4  10  18  35  56  86 121 151 194 255 303 356
#     4  11  20  32  52  87 120 159 196 230 302 372
#     4  11  22  37  56  89 128 156 189 250 313 367
#     4  10  19  33  54  84 122 155 189 244 309 357
#     4  10  19  31  52  82 123 155 190 233 300 372
#     4  11  22  40  60  90 116 160 211 260 289 348
#
# _framework density 21.390253000000001
#
# number of rings (size 3 to 8) (size 9 to 14) (size 15 to 20)
#    0.000    1.500    6.250    0.750    0.000    1.500 
#    0.000    0.000    0.000    1.500    6.500    0.000 
#    0.000    0.000    0.000    0.000    0.000    0.000 
#
# Total GULP energy -89190.549042 kJ/mol
# GULP energy per Si atom -5574.409315 kJ/mol
# Density = 2.134157 g / cm^3
# Si number density = 21.390253 Si / 1000 Ang^3
#
#
#
# Elastic Constant Matrix: (Units=GPa)
#
#
# Indices 1 2 3 4 5 6 
#
# 1 148.5752 62.4731 31.2832 -15.1147 5.5540 -26.7070
# 2 62.4731 84.3562 13.0130 -13.1154 -1.6374 -10.5395
# 3 31.2832 13.0130 57.8377 1.9604 -7.2222 -11.0790
# 4 -15.1147 -13.1154 1.9604 21.6830 -4.5812 -1.2107
# 5 5.5540 -1.6374 -7.2222 -4.5812 27.5565 -3.4534
# 6 -26.7070 -10.5395 -11.0790 -1.2107 -3.4534 40.2272
#
#
#
# Elastic Compliance Matrix: (Units=1/GPa)
#
#
# Indices 1 2 3 4 5 6 
#
# 1 0.012014 -0.006998 -0.004485 0.004244 -0.002705 0.004803
# 2 -0.006998 0.018280 0.000035 0.007008 0.003757 0.000687
# 3 -0.004485 0.000035 0.021250 -0.003508 0.006308 0.003320
# 4 0.004244 0.007008 -0.003508 0.055810 0.008686 0.006113
# 5 -0.002705 0.003757 0.006308 0.008686 0.040742 0.004685
# 6 0.004803 0.000687 0.003320 0.006113 0.004685 0.029728
#
#
# Mechanical properties :
#
#
# Convention : Reuss Voigt Hill
#
# Bulk Modulus (GPa) = 34.90597 56.03418 45.47007
# Shear Modulus (GPa) = 23.77917 30.16000 26.96959
#
# Velocity S-wave (km/s) = 3.33781 3.75905 3.55468
# Velocity P-wave (km/s) = 5.58647 6.71518 6.17666
#
# Compressibility (1/GPa) = 0.02864839
#
# Stress axis : x y z
#
# Youngs Moduli (GPa) = 83.23918 54.70513 47.05801
#
# Poissons Ratio (x) = 0.38282 0.21106
# Poissons Ratio (y) = 0.58250 -0.00166
# Poissons Ratio (z) = 0.37334 -0.00193
#
# Static dielectric constant tensor:
#      x y z
#    x 1.815400 -0.001720 -0.004260 
#    y -0.001720 1.814230 0.010210 
#    z -0.004260 0.010210 1.898230 
# 
# From -- ./inp_files/455224.got.cif
#   From: 2010.05.17/outbox.cif.g08.bks.cpg/sg2_228_cif.got.tgz:455224.got - 2010.06.03 11:33:40.
