data_PCOD9077334
_publ_section_title
;
Structure prediction by ZEFSAII (Michael W. Deem and Ramdas Pophale) SiO2 
 PCOD9077334
Probable space group: P -1
;
_chemical_formula_sum "Si O2"
_cell_formula_units_Z 16
_cell_length_a 14.684680
_cell_length_b 18.249409
_cell_length_c 12.363928
_cell_angle_alpha 19.918705
_cell_angle_beta 46.718674
_cell_angle_gamma 45.466259
_cell_volume 799.966142
_symmetry_space_group_name_H-M "P -1"
_symmetry_group_IT_number 2
_symmetry_cell_setting 'triclinic'
loop_
_space_group_symop_operation_xyz
x,y,z
-x,-y,-z
loop_
_atom_site_type_symbol
_atom_site_label
_atom_site_fract_x
_atom_site_fract_y
_atom_site_fract_z
Si Si1 0.054417 0.920083 0.253700
Si Si2 0.923968 0.900109 0.609468
Si Si3 0.293404 0.919549 0.938694
Si Si4 0.030702 0.494757 0.737644
Si Si5 0.440324 0.077261 0.323457
Si Si6 0.162750 0.665672 0.217471
Si Si7 0.312089 0.731008 0.799722
Si Si8 0.264705 0.373241 0.205126
O O1 0.024163 0.740172 0.445163
O O2 0.015294 0.855049 0.493377
O O3 0.202200 0.920317 0.114236
O O4 0.961884 0.151086 0.973917
O O5 0.797550 0.074227 0.433132
O O6 0.898457 0.680365 0.989596
O O7 0.000000 0.000000 0.500000
O O8 0.445544 0.840894 0.942057
O O9 0.269013 0.168014 0.566846
O O10 0.243881 0.775566 0.085516
O O11 0.107080 0.479453 0.583497
O O12 0.881802 0.486170 0.866665
O O13 0.313787 0.262541 0.203224
O O14 0.500000 0.000000 0.500000
O O15 0.409561 0.867109 0.580071
O O16 0.250839 0.619121 0.104382
O O17 0.351665 0.536230 0.950571
#
# Coordination Sequence:
#
# PCOD9077334 Si02
#       8
#     2   2   2   2   2   2   2   2
#     4  10  19  34  61  83 114 150 191 234 298 340
#     4  11  23  36  54  85 123 148 189 235 287 352
#     4  10  18  36  57  87 115 145 189 249 282 337
#     4  11  19  35  57  87 114 152 184 236 295 348
#     4  10  21  37  57  86 119 147 198 242 281 329
#     4  10  18  34  58  87 119 140 190 242 292 342
#     4  11  22  37  59  89 117 154 190 239 283 345
#     4  11  19  33  60  82 118 153 187 230 293 334
#
# _framework density 20.000845000000002
#
# number of rings (size 3 to 8) (size 9 to 14) (size 15 to 20)
#    0.000    1.500    6.250    1.875    0.000    3.500 
#    0.000    0.000    0.000    7.500    0.000    0.000 
#    0.000    0.000    0.000    0.000    0.000    0.000 
#
# Total GULP energy -89251.126188 kJ/mol
# GULP energy per Si atom -5578.195387 kJ/mol
# Density = 1.995532 g / cm^3
# Si number density = 20.000845 Si / 1000 Ang^3
#
#
#
# Elastic Constant Matrix: (Units=GPa)
#
#
# Indices 1 2 3 4 5 6 
#
# 1 61.3793 3.1065 9.6946 5.1506 -16.6946 -3.6500
# 2 3.1065 32.6690 24.2313 9.4609 -7.8054 -3.6760
# 3 9.6946 24.2313 66.6836 14.7705 3.7672 -7.5108
# 4 5.1506 9.4609 14.7705 27.9540 6.8135 -5.5309
# 5 -16.6946 -7.8054 3.7672 6.8135 36.0557 1.1958
# 6 -3.6500 -3.6760 -7.5108 -5.5309 1.1958 24.3132
#
#
#
# Elastic Compliance Matrix: (Units=1/GPa)
#
#
# Indices 1 2 3 4 5 6 
#
# 1 0.020713 0.006378 -0.004529 -0.006558 0.012665 0.000560
# 2 0.006378 0.051539 -0.017706 -0.013963 0.018626 -0.000812
# 3 -0.004529 -0.017706 0.023611 -0.002988 -0.007953 0.003648
# 4 -0.006558 -0.013963 -0.002988 0.048521 -0.015174 0.007765
# 5 0.012665 0.018626 -0.007953 -0.015174 0.041437 -0.003229
# 6 0.000560 -0.000812 0.003648 0.007765 -0.003229 0.044143
#
#
# Mechanical properties :
#
#
# Convention : Reuss Voigt Hill
#
# Bulk Modulus (GPa) = 15.58878 26.08852 20.83865
# Shear Modulus (GPa) = 17.66402 25.91122 21.78762
#
# Velocity S-wave (km/s) = 2.97503 3.60322 3.30409
# Velocity P-wave (km/s) = 4.42855 5.51207 4.99975
#
# Compressibility (1/GPa) = 0.06414869
#
# Stress axis : x y z
#
# Youngs Moduli (GPa) = 48.27860 19.40275 42.35369
#
# Poissons Ratio (x) = -0.12374 0.19180
# Poissons Ratio (y) = -0.30790 0.74992
# Poissons Ratio (z) = 0.21863 0.34355
#
# Static dielectric constant tensor:
#      x y z
#    x 1.758350 -0.010730 -0.017670 
#    y -0.010730 1.800360 0.020970 
#    z -0.017670 0.020970 1.753590 
# 
# From -- ./inp_files/329046.got.cif
#   From: 2010.05.17/outbox.cif.g08.bks.cpg/sg2_165_cif.got.tgz:329046.got - 2010.06.03 11:33:40.
