data_PCOD9077106
_publ_section_title
;
Structure prediction by ZEFSAII (Michael W. Deem and Ramdas Pophale) SiO2 
 PCOD9077106
Probable space group: P -1
;
_chemical_formula_sum "Si O2"
_cell_formula_units_Z 14
_cell_length_a 7.860793
_cell_length_b 18.597361
_cell_length_c 18.034244
_cell_angle_alpha 29.105221
_cell_angle_beta 153.484895
_cell_angle_gamma 144.858077
_cell_volume 564.626438
_symmetry_space_group_name_H-M "P -1"
_symmetry_group_IT_number 2
_symmetry_cell_setting 'triclinic'
loop_
_space_group_symop_operation_xyz
x,y,z
-x,-y,-z
loop_
_atom_site_type_symbol
_atom_site_label
_atom_site_fract_x
_atom_site_fract_y
_atom_site_fract_z
Si Si1 0.312068 0.807204 0.375439
Si Si2 0.171082 0.257641 0.894702
Si Si3 0.115786 0.781079 0.899288
Si Si4 0.604181 0.566555 0.797718
Si Si5 0.482051 0.064493 0.308026
Si Si6 0.010664 0.112331 0.591724
Si Si7 0.558152 0.826282 0.165411
O O1 0.490571 0.662494 0.598042
O O2 0.182536 0.801718 0.244655
O O3 0.916947 0.812671 0.262738
O O4 0.582720 0.951447 0.385704
O O5 0.250225 0.431539 0.791698
O O6 0.545113 0.244620 0.000963
O O7 0.213852 0.159111 0.072268
O O8 0.719057 0.685414 0.801676
O O9 0.210678 0.742803 0.055272
O O10 0.131242 0.959177 0.746101
O O11 0.000000 0.500000 0.000000
O O12 0.809340 0.168736 0.390021
O O13 0.274859 0.958737 0.388387
O O14 0.325412 0.221642 0.664276
O O15 0.500000 0.000000 0.000000
#
# Coordination Sequence:
#
# PCOD9077106 Si02
#       7
#     2   2   2   2   2   2   2
#     4  10  18  34  56  79 108 144 173 220 277 316
#     4  10  21  33  53  84 106 138 182 227 257 317
#     4   9  17  34  54  74 105 142 174 218 267 319
#     4  10  20  35  53  78 110 146 178 216 267 324
#     4  10  19  32  55  83 108 132 182 225 270 314
#     4   9  17  32  54  77 108 140 169 219 276 317
#     4   8  16  30  55  83  98 132 182 218 258 323
#
# _framework density 24.795154
#
# number of rings (size 3 to 8) (size 9 to 14) (size 15 to 20)
#    0.000    2.571    1.429    0.857    0.000    0.571 
#    0.000    0.714    0.000    0.857    0.000    0.000 
#    0.000    0.000    0.000    0.000    0.000    0.000 
#
# Total GULP energy -78067.381938 kJ/mol
# GULP energy per Si atom -5576.241567 kJ/mol
# Density = 2.473872 g / cm^3
# Si number density = 24.795154 Si / 1000 Ang^3
#
#
#
# Elastic Constant Matrix: (Units=GPa)
#
#
# Indices 1 2 3 4 5 6 
#
# 1 112.0659 44.0449 27.0837 10.0993 -14.0898 -20.0708
# 2 44.0449 144.6728 55.8554 42.2986 -37.9801 -26.4272
# 3 27.0837 55.8554 146.8736 35.0489 -32.8493 -18.2400
# 4 10.0993 42.2986 35.0489 46.8175 -21.2371 -19.0231
# 5 -14.0898 -37.9801 -32.8493 -21.2371 39.3645 13.4029
# 6 -20.0708 -26.4272 -18.2400 -19.0231 13.4029 26.5826
#
#
#
# Elastic Compliance Matrix: (Units=1/GPa)
#
#
# Indices 1 2 3 4 5 6 
#
# 1 0.011331 -0.002793 -0.001009 0.004089 -0.000003 0.008015
# 2 -0.002793 0.011689 -0.001045 -0.005927 0.005624 0.001718
# 3 -0.001009 -0.001045 0.009261 -0.003993 0.004379 -0.000511
# 4 0.004089 -0.005927 -0.003993 0.040067 0.007430 0.019382
# 5 -0.000003 0.005624 0.004379 0.007430 0.040751 -0.006636
# 6 0.008015 0.001718 -0.000511 0.019382 -0.006636 0.062244
#
#
# Mechanical properties :
#
#
# Convention : Reuss Voigt Hill
#
# Bulk Modulus (GPa) = 44.26997 73.06448 58.66723
# Shear Modulus (GPa) = 25.96543 40.99480 33.48012
#
# Velocity S-wave (km/s) = 3.23955 4.07054 3.67859
# Velocity P-wave (km/s) = 5.64677 7.18496 6.46179
#
# Compressibility (1/GPa) = 0.02258867
#
# Stress axis : x y z
#
# Youngs Moduli (GPa) = 88.25192 85.55201 107.98529
#
# Poissons Ratio (x) = 0.23891 0.10891
# Poissons Ratio (y) = 0.24645 0.11281
# Poissons Ratio (z) = 0.08901 0.08938
#
# Static dielectric constant tensor:
#      x y z
#    x 2.028680 0.056920 0.087800 
#    y 0.056920 2.066550 0.111200 
#    z 0.087800 0.111200 2.108150 
# 
# From -- ./inp_files/347355.got.cif
#   From: 2010.05.17/outbox.cif.g08.bks.cpg/sg2_174_cif.got.tgz:347355.got - 2010.06.03 11:33:40.
