data_PCOD9077983
_publ_section_title
;
Structure prediction by ZEFSAII (Michael W. Deem and Ramdas Pophale) SiO2 
 PCOD9077983
Probable space group: P -1
;
_chemical_formula_sum "Si O2"
_cell_formula_units_Z 15
_cell_length_a 7.290430
_cell_length_b 11.474350
_cell_length_c 11.660852
_cell_angle_alpha 93.730318
_cell_angle_beta 75.624353
_cell_angle_gamma 141.561960
_cell_volume 573.703339
_symmetry_space_group_name_H-M "P -1"
_symmetry_group_IT_number 2
_symmetry_cell_setting 'triclinic'
loop_
_space_group_symop_operation_xyz
x,y,z
-x,-y,-z
loop_
_atom_site_type_symbol
_atom_site_label
_atom_site_fract_x
_atom_site_fract_y
_atom_site_fract_z
Si Si1 0.767894 0.289488 0.602367
Si Si2 0.500000 0.500000 0.500000
Si Si3 0.921112 0.098451 0.895741
Si Si4 0.428540 0.681019 0.571348
Si Si5 0.836263 0.522570 0.922888
Si Si6 0.542199 0.130324 0.856575
Si Si7 0.456789 0.711270 0.839481
Si Si8 0.612015 0.467355 0.731920
O O1 0.638769 0.238766 0.490664
O O2 0.556335 0.123770 0.716966
O O3 0.758540 0.420602 0.652414
O O4 0.138261 0.440529 0.575384
O O5 0.682283 0.720984 0.478967
O O6 0.569095 0.530926 0.635791
O O7 0.755750 0.130802 0.869942
O O8 0.280903 0.277684 0.827891
O O9 0.783232 0.917821 0.843198
O O10 0.791295 0.031221 0.041024
O O11 0.441249 0.702317 0.704556
O O12 0.709793 0.335068 0.880192
O O13 0.811456 0.594889 0.822346
O O14 0.195428 0.681207 0.906212
O O15 0.655839 0.447216 0.067008
#
# Coordination Sequence:
#
# PCOD9077983 Si02
#       8
#     2   1   2   2   2   2   2   2
#     4   9  18  32  59  78 102 148 200 216 264 340
#     4  10  22  34  62  82 110 142 204 226 266 332
#     4  10  21  32  59  82 121 135 189 228 297 304
#     4  10  18  35  57  81 107 147 189 233 268 327
#     4   9  19  35  62  78 114 147 197 210 284 332
#     4   9  17  35  54  82 108 158 180 224 261 357
#     4  10  19  35  57  87 112 148 174 246 276 326
#     4  10  19  36  57  87 104 153 189 230 259 357
#
# _framework density 26.145918000000002
#
# number of rings (size 3 to 8) (size 9 to 14) (size 15 to 20)
#    0.000    2.400    2.667    0.800    0.000    4.800 
#    0.000    4.000    5.867    0.000    0.000    0.000 
#    0.000    0.000    0.000    0.000    0.000    0.000 
#
# Total GULP energy -83519.642656 kJ/mol
# GULP energy per Si atom -5567.976177 kJ/mol
# Density = 2.608641 g / cm^3
# Si number density = 26.145918 Si / 1000 Ang^3
#
#
#
# Elastic Constant Matrix: (Units=GPa)
#
#
# Indices 1 2 3 4 5 6 
#
# 1 79.3450 7.6200 19.8640 12.2553 19.9606 8.6246
# 2 7.6200 34.1663 19.7649 2.5910 -1.6810 4.5476
# 3 19.8640 19.7649 185.4545 24.2679 53.8598 12.4750
# 4 12.2553 2.5910 24.2679 37.8905 15.8360 0.1387
# 5 19.9606 -1.6810 53.8598 15.8360 51.4111 6.3465
# 6 8.6246 4.5476 12.4750 0.1387 6.3465 21.8942
#
#
#
# Elastic Compliance Matrix: (Units=1/GPa)
#
#
# Indices 1 2 3 4 5 6 
#
# 1 0.014988 -0.003461 0.001060 -0.002921 -0.005632 -0.004138
# 2 -0.003461 0.034490 -0.005441 -0.001639 0.009343 -0.005398
# 3 0.001060 -0.005441 0.008852 -0.001835 -0.009089 -0.001684
# 4 -0.002921 -0.001639 -0.001835 0.031658 -0.007298 0.004452
# 5 -0.005632 0.009343 -0.009089 -0.007298 0.034260 -0.004428
# 6 -0.004138 -0.005398 -0.001684 0.004452 -0.004428 0.050641
#
#
# Mechanical properties :
#
#
# Convention : Reuss Voigt Hill
#
# Bulk Modulus (GPa) = 23.44851 43.71819 33.58335
# Shear Modulus (GPa) = 24.41553 39.02030 31.71791
#
# Velocity S-wave (km/s) = 3.05916 3.86736 3.48675
# Velocity P-wave (km/s) = 4.63311 6.05798 5.39281
#
# Compressibility (1/GPa) = 0.04264663
#
# Stress axis : x y z
#
# Youngs Moduli (GPa) = 66.72019 28.99360 112.97258
#
# Poissons Ratio (x) = 0.10033 -0.11971
# Poissons Ratio (y) = 0.23089 0.61466
# Poissons Ratio (z) = -0.07070 0.15775
#
# Static dielectric constant tensor:
#      x y z
#    x 0.503950 -0.199310 0.402230 
#    y -0.199310 2.053990 0.108530 
#    z 0.402230 0.108530 2.040820 
# 
# From -- ./inp_files/292171.got.cif
#   From: 2010.05.17/outbox.cif.g08.bks.cpg/sg2_147_cif.got.tgz:292171.got - 2010.06.03 11:33:40.
