data_PCOD9077449
_publ_section_title
;
Structure prediction by ZEFSAII (Michael W. Deem and Ramdas Pophale) SiO2 
 PCOD9077449
Probable space group: P -1
;
_chemical_formula_sum "Si O2"
_cell_formula_units_Z 16
_cell_length_a 18.058948
_cell_length_b 13.022867
_cell_length_c 11.644497
_cell_angle_alpha 115.780638
_cell_angle_beta 150.965141
_cell_angle_gamma 44.116027
_cell_volume 759.821929
_symmetry_space_group_name_H-M "P -1"
_symmetry_group_IT_number 2
_symmetry_cell_setting 'triclinic'
loop_
_space_group_symop_operation_xyz
x,y,z
-x,-y,-z
loop_
_atom_site_type_symbol
_atom_site_label
_atom_site_fract_x
_atom_site_fract_y
_atom_site_fract_z
Si Si1 0.351903 0.476026 0.832586
Si Si2 0.686998 0.202970 0.346289
Si Si3 0.440593 0.355006 0.322528
Si Si4 0.487744 0.737003 0.254202
Si Si5 0.902690 0.877561 0.079808
Si Si6 0.896827 0.233270 0.947148
Si Si7 0.924456 0.200797 0.232368
Si Si8 0.757098 0.702552 0.803420
O O1 0.309934 0.425744 0.637001
O O2 0.138727 0.650265 0.706388
O O3 0.500000 0.500000 0.000000
O O4 0.534817 0.296817 0.070644
O O5 0.497933 0.309876 0.245219
O O6 0.836284 0.235554 0.575557
O O7 0.878407 0.991790 0.529578
O O8 0.689377 0.257026 0.667572
O O9 0.240260 0.568855 0.169943
O O10 0.353611 0.290000 0.230362
O O11 0.587364 0.762252 0.498328
O O12 0.328946 0.722940 0.079000
O O13 0.282837 0.933366 0.015109
O O14 0.924545 0.889495 0.977297
O O15 0.816668 0.799877 0.941124
O O16 0.994382 0.179835 0.183499
O O17 0.000000 0.500000 0.000000
#
# Coordination Sequence:
#
# PCOD9077449 Si02
#       8
#     2   2   2   2   2   2   2   2
#     4  10  22  38  63  90 127 155 201 252 300 352
#     4  10  22  39  63  99 114 158 202 253 302 355
#     4  10  20  34  61  85 128 151 203 249 303 358
#     4  10  23  39  56  88 126 160 194 250 298 366
#     4  10  23  36  61  90 126 153 199 247 308 362
#     4  10  18  34  59  92 119 158 192 258 302 353
#     4  10  20  36  64  92 123 153 202 252 305 353
#     4  12  23  37  57  91 120 164 196 244 307 361
#
# _framework density 21.057562999999998
#
# number of rings (size 3 to 8) (size 9 to 14) (size 15 to 20)
#    0.000    1.750    3.750    0.375    5.250    6.000 
#    0.000    0.000    0.000    3.750    0.000    0.000 
#    0.000    0.000    0.000    0.000    0.000    0.000 
#
# Total GULP energy -89290.211762 kJ/mol
# GULP energy per Si atom -5580.638235 kJ/mol
# Density = 2.100964 g / cm^3
# Si number density = 21.057563 Si / 1000 Ang^3
#
#
#
# Elastic Constant Matrix: (Units=GPa)
#
#
# Indices 1 2 3 4 5 6 
#
# 1 74.4665 38.3134 15.3752 2.3630 1.6912 1.0434
# 2 38.3134 92.8608 11.5042 0.3621 9.3638 -11.0508
# 3 15.3752 11.5042 30.9174 -10.6153 3.1242 2.8445
# 4 2.3630 0.3621 -10.6153 23.8941 6.2480 7.4734
# 5 1.6912 9.3638 3.1242 6.2480 18.5530 1.9772
# 6 1.0434 -11.0508 2.8445 7.4734 1.9772 36.2876
#
#
#
# Elastic Compliance Matrix: (Units=1/GPa)
#
#
# Indices 1 2 3 4 5 6 
#
# 1 0.019490 -0.007498 -0.010133 -0.007739 0.006406 -0.000805
# 2 -0.007498 0.015487 -0.001826 -0.000094 -0.007379 0.005497
# 3 -0.010133 -0.001826 0.051295 0.031131 -0.016230 -0.009813
# 4 -0.007739 -0.000094 0.031131 0.067814 -0.025748 -0.014810
# 5 0.006406 -0.007379 -0.016230 -0.025748 0.068400 0.000417
# 6 -0.000805 0.005497 -0.009813 -0.014810 0.000417 0.033051
#
#
# Mechanical properties :
#
#
# Convention : Reuss Voigt Hill
#
# Bulk Modulus (GPa) = 21.11587 36.51448 28.81517
# Shear Modulus (GPa) = 16.11676 24.61706 20.36691
#
# Velocity S-wave (km/s) = 2.76953 3.42283 3.11336
# Velocity P-wave (km/s) = 4.50294 5.74447 5.16117
#
# Compressibility (1/GPa) = 0.04735775
#
# Stress axis : x y z
#
# Youngs Moduli (GPa) = 51.30866 64.56995 19.49523
#
# Poissons Ratio (x) = 0.48411 0.19754
# Poissons Ratio (y) = 0.38469 0.03561
# Poissons Ratio (z) = 0.51991 0.11794
#
# Static dielectric constant tensor:
#      x y z
#    x 1.770350 -0.004510 0.041040 
#    y -0.004510 1.796920 -0.097990 
#    z 0.041040 -0.097990 2.533850 
# 
# From -- ./inp_files/279351.got.cif
#   From: 2010.05.17/outbox.cif.g08.bks.cpg/sg2_140_cif.got.tgz:279351.got - 2010.06.03 11:33:40.
