data_PCOD9077815
_publ_section_title
;
Structure prediction by ZEFSAII (Michael W. Deem and Ramdas Pophale) SiO2 
 PCOD9077815
Probable space group: P -1
;
_chemical_formula_sum "Si O2"
_cell_formula_units_Z 16
_cell_length_a 17.105132
_cell_length_b 7.944715
_cell_length_c 26.737861
_cell_angle_alpha 82.733291
_cell_angle_beta 165.043360
_cell_angle_gamma 91.698577
_cell_volume 867.316486
_symmetry_space_group_name_H-M "P -1"
_symmetry_group_IT_number 2
_symmetry_cell_setting 'triclinic'
loop_
_space_group_symop_operation_xyz
x,y,z
-x,-y,-z
loop_
_atom_site_type_symbol
_atom_site_label
_atom_site_fract_x
_atom_site_fract_y
_atom_site_fract_z
Si Si1 0.095900 0.693312 0.980691
Si Si2 0.279081 0.299772 0.576173
Si Si3 0.371619 0.774172 0.045695
Si Si4 0.687693 0.949220 0.796875
Si Si5 0.549091 0.869510 0.908349
Si Si6 0.569328 0.470208 0.102117
Si Si7 0.947193 0.784397 0.454465
Si Si8 0.684444 0.698997 0.897177
O O1 0.407493 0.655959 0.212532
O O2 0.169391 0.773513 0.970838
O O3 0.076241 0.500075 0.962061
O O4 0.782242 0.830172 0.809850
O O5 0.176224 0.223179 0.565976
O O6 0.946093 0.445599 0.345031
O O7 0.394616 0.140851 0.611906
O O8 0.350150 0.640655 0.994090
O O9 0.746310 0.692054 0.300052
O O10 0.319107 0.983015 0.990853
O O11 0.651124 0.829573 0.825083
O O12 0.000000 0.000000 0.000000
O O13 0.493890 0.711187 0.911814
O O14 0.757420 0.780357 0.991019
O O15 0.205452 0.008940 0.668366
O O16 0.500000 0.500000 0.000000
O O17 0.328630 0.690543 0.687744
#
# Coordination Sequence:
#
# PCOD9077815 Si02
#       8
#     2   2   2   2   2   2   2   2
#     4  10  19  31  53  83 109 140 172 220 267 320
#     4  10  18  35  51  78 116 135 170 221 268 320
#     4   9  20  35  52  81 107 133 178 218 269 321
#     4  10  20  31  46  78 114 141 173 212 271 318
#     4  10  19  31  52  77 106 142 164 217 268 321
#     4  12  23  35  53  79 109 145 180 217 263 316
#     4   9  17  30  56  82 103 136 168 218 288 319
#     4  12  16  28  52  80 112 138 170 207 274 335
#
# _framework density 18.447704999999999
#
# number of rings (size 3 to 8) (size 9 to 14) (size 15 to 20)
#    0.750    1.000    3.750    3.000    0.000    2.500 
#    0.000    0.000    0.000    0.750    0.000    4.375 
#    0.000    0.000    0.000    0.000    0.000    0.000 
#
# Total GULP energy -89085.881179 kJ/mol
# GULP energy per Si atom -5567.867574 kJ/mol
# Density = 1.840572 g / cm^3
# Si number density = 18.447705 Si / 1000 Ang^3
#
#
#
# Elastic Constant Matrix: (Units=GPa)
#
#
# Indices 1 2 3 4 5 6 
#
# 1 101.9181 31.6764 29.6256 -14.6343 -1.6130 -23.5747
# 2 31.6764 82.9576 11.0949 -18.7320 -4.6700 -18.6550
# 3 29.6256 11.0949 16.2263 -7.4241 6.4341 -11.4706
# 4 -14.6343 -18.7320 -7.4241 17.8869 -4.6841 12.9737
# 5 -1.6130 -4.6700 6.4341 -4.6841 25.6877 -7.6674
# 6 -23.5747 -18.6550 -11.4706 12.9737 -7.6674 30.4598
#
#
#
# Elastic Compliance Matrix: (Units=1/GPa)
#
#
# Indices 1 2 3 4 5 6 
#
# 1 0.025640 -0.001481 -0.048594 -0.000045 0.014813 0.004385
# 2 -0.001481 0.017832 -0.002576 0.015383 0.007862 0.004232
# 3 -0.048594 -0.002576 0.185171 0.012749 -0.043335 0.014205
# 4 -0.000045 0.015383 0.012749 0.098072 0.010002 -0.025066
# 5 0.014813 0.007862 -0.043335 0.010002 0.056964 0.010040
# 6 0.004385 0.004232 0.014205 -0.025066 0.010040 0.057369
#
#
# Mechanical properties :
#
#
# Convention : Reuss Voigt Hill
#
# Bulk Modulus (GPa) = 8.10773 38.43286 23.27029
# Shear Modulus (GPa) = 8.51115 23.38721 15.94918
#
# Velocity S-wave (km/s) = 2.15027 3.56442 2.94353
# Velocity P-wave (km/s) = 3.25107 6.14970 4.91875
#
# Compressibility (1/GPa) = 0.12333905
#
# Stress axis : x y z
#
# Youngs Moduli (GPa) = 39.00152 56.07807 5.40042
#
# Poissons Ratio (x) = 0.08307 0.26243
# Poissons Ratio (y) = 0.05777 0.01391
# Poissons Ratio (z) = 1.89525 0.14448
#
# Static dielectric constant tensor:
#      x y z
#    x 1.770010 -0.002040 0.020640 
#    y -0.002040 1.740100 0.004680 
#    z 0.020640 0.004680 1.628260 
# 
# From -- ./inp_files/469281.got.cif
#   From: 2010.05.17/outbox.cif.g08.bks.cpg/sg2_235_cif.got.tgz:469281.got - 2010.06.03 11:33:40.
