data_PCOD9077028
_publ_section_title
;
Structure prediction by ZEFSAII (Michael W. Deem and Ramdas Pophale) SiO2 
 PCOD9077028
Probable space group: P -1
;
_chemical_formula_sum "Si O2"
_cell_formula_units_Z 16
_cell_length_a 13.735113
_cell_length_b 11.492436
_cell_length_c 14.436610
_cell_angle_alpha 107.687995
_cell_angle_beta 50.249579
_cell_angle_gamma 147.469124
_cell_volume 774.726483
_symmetry_space_group_name_H-M "P -1"
_symmetry_group_IT_number 2
_symmetry_cell_setting 'triclinic'
loop_
_space_group_symop_operation_xyz
x,y,z
-x,-y,-z
loop_
_atom_site_type_symbol
_atom_site_label
_atom_site_fract_x
_atom_site_fract_y
_atom_site_fract_z
Si Si1 0.848265 0.950296 0.974374
Si Si2 0.071543 0.776856 0.325930
Si Si3 0.571397 0.788856 0.921656
Si Si4 0.388056 0.442234 0.250620
Si Si5 0.642347 0.625852 0.543610
Si Si6 0.496071 0.852092 0.474242
Si Si7 0.783359 0.018083 0.528237
Si Si8 0.994620 0.186097 0.131877
O O1 0.762730 0.947058 0.934065
O O2 0.955078 0.904744 0.874711
O O3 0.578258 0.684138 0.129717
O O4 0.004318 0.161437 0.009393
O O5 0.908973 0.768100 0.412196
O O6 0.814638 0.464612 0.408809
O O7 0.215985 0.888695 0.364551
O O8 0.312573 0.998835 0.157655
O O9 0.618551 0.700858 0.817691
O O10 0.246749 0.495534 0.071784
O O11 0.486170 0.527363 0.318366
O O12 0.095429 0.253523 0.374841
O O13 0.500000 0.500000 0.500000
O O14 0.679244 0.800455 0.577879
O O15 0.500000 0.000000 0.500000
O O16 0.628672 0.923914 0.508021
O O17 0.703781 0.983148 0.298746
#
# Coordination Sequence:
#
# PCOD9077028 Si02
#       8
#     2   2   2   2   2   2   2   2
#     4  10  21  34  60  93 130 165 190 253 323 386
#     4  11  23  38  62  95 126 158 212 261 317 381
#     4  11  20  36  59  92 125 157 200 251 321 379
#     4  10  18  34  54  94 134 163 199 242 324 393
#     4  11  19  31  59  98 133 164 194 258 329 384
#     4  12  27  45  65  88 122 174 223 259 305 366
#     4  11  20  37  61  90 129 164 202 266 314 369
#     4  10  22  39  58  89 127 162 204 250 309 379
#
# _framework density 20.652450000000002
#
# number of rings (size 3 to 8) (size 9 to 14) (size 15 to 20)
#    0.000    1.250    3.750    5.250    0.000    3.500 
#    0.000    0.625    0.000    1.500    0.000    0.000 
#    0.000    0.000    0.000    0.000    0.000    0.000 
#
# Total GULP energy -89179.348647 kJ/mol
# GULP energy per Si atom -5573.709290 kJ/mol
# Density = 2.060544 g / cm^3
# Si number density = 20.652450 Si / 1000 Ang^3
#
#
#
# Elastic Constant Matrix: (Units=GPa)
#
#
# Indices 1 2 3 4 5 6 
#
# 1 -1.8153 31.2207 -7.2031 2.2849 3.2600 -20.8781
# 2 31.2207 102.1300 25.4535 -18.4487 8.7040 4.7251
# 3 -7.2031 25.4535 54.7047 -15.2259 4.4490 -25.2241
# 4 2.2849 -18.4487 -15.2259 32.7844 0.3135 10.1964
# 5 3.2600 8.7040 4.4490 0.3135 14.9844 -2.6439
# 6 -20.8781 4.7251 -25.2241 10.1964 -2.6439 18.6291
#
#
#
# Elastic Compliance Matrix: (Units=1/GPa)
#
#
# Indices 1 2 3 4 5 6 
#
# 1 -0.002560 0.007770 -0.015789 0.006786 -0.004813 -0.030616
# 2 0.007770 0.007183 0.002644 0.002111 -0.005179 0.008576
# 3 -0.015789 0.002644 0.018243 0.011202 -0.003811 -0.000337
# 4 0.006786 0.002111 0.011202 0.035976 -0.006494 0.001625
# 5 -0.004813 -0.005179 -0.003811 -0.006494 0.072881 0.004658
# 6 -0.030616 0.008576 -0.000337 0.001625 0.004658 0.016508
#
#
# Mechanical properties :
#
#
# Convention : Reuss Voigt Hill
#
# Bulk Modulus (GPa) = 82.53767 28.21797 55.37782
# Shear Modulus (GPa) = 30.67104 20.31612 25.49358
#
# Velocity S-wave (km/s) = 3.85789 3.13983 3.51723
# Velocity P-wave (km/s) = 7.73926 5.18050 6.58536
#
# Compressibility (1/GPa) = 0.01211568
#
# Stress axis : x y z
#
# Youngs Moduli (GPa) = -390.60447 139.21633 54.81462
#
# Poissons Ratio (x) = -1.08174 0.86549
# Poissons Ratio (y) = 3.03508 -0.14493
# Poissons Ratio (z) = -6.16742 -0.36808
#
# Static dielectric constant tensor:
#      x y z
#    x 1.584980 0.224420 -0.002130 
#    y 0.224420 1.636110 -0.008740 
#    z -0.002130 -0.008740 1.807370 
# 
# From -- ./inp_files/532551.got.cif
#   From: 2010.05.17/outbox.cif.g08.bks.cpg/sg2_267_cif.got.tgz:532551.got - 2010.06.03 11:33:40.
