data_PCOD9077985
_publ_section_title
;
Structure prediction by ZEFSAII (Michael W. Deem and Ramdas Pophale) SiO2 
 PCOD9077985
Probable space group: P -1
;
_chemical_formula_sum "Si O2"
_cell_formula_units_Z 16
_cell_length_a 21.165621
_cell_length_b 8.763041
_cell_length_c 6.536939
_cell_angle_alpha 121.363984
_cell_angle_beta 132.872674
_cell_angle_gamma 59.449655
_cell_volume 735.331098
_symmetry_space_group_name_H-M "P -1"
_symmetry_group_IT_number 2
_symmetry_cell_setting 'triclinic'
loop_
_space_group_symop_operation_xyz
x,y,z
-x,-y,-z
loop_
_atom_site_type_symbol
_atom_site_label
_atom_site_fract_x
_atom_site_fract_y
_atom_site_fract_z
Si Si1 0.389402 0.220713 0.537707
Si Si2 0.123172 0.398927 0.621603
Si Si3 0.873287 0.321224 0.532169
Si Si4 0.400684 0.890994 0.035846
Si Si5 0.711001 0.842977 0.343421
Si Si6 0.291031 0.605783 0.476260
Si Si7 0.177733 0.876635 0.094490
Si Si8 0.966600 0.250249 0.079354
O O1 0.493920 0.191428 0.788344
O O2 0.334057 0.249954 0.645701
O O3 0.352274 0.401426 0.445888
O O4 0.378172 0.033330 0.274881
O O5 0.108707 0.521725 0.468116
O O6 0.225993 0.294843 0.771473
O O7 0.089045 0.543015 0.827145
O O8 0.062417 0.254639 0.378446
O O9 0.791152 0.393280 0.553962
O O10 0.956215 0.240448 0.806606
O O11 0.844648 0.174792 0.218195
O O12 0.348240 0.732214 0.800191
O O13 0.366162 0.015076 0.847734
O O14 0.778787 0.952104 0.670045
O O15 0.249329 0.709220 0.248587
O O16 0.086373 0.883343 0.022247
#
# Coordination Sequence:
#
# PCOD9077985 Si02
#       8
#     2   2   2   2   2   2   2   2
#     4  11  22  39  61  85 116 157 195 235 297 345
#     4  10  20  34  57  85 114 149 194 234 283 347
#     4  10  18  35  57  81 113 149 194 235 280 344
#     4  10  24  39  57  88 122 147 193 249 285 347
#     4  11  22  38  59  85 116 150 192 240 290 343
#     4  10  20  37  60  84 116 156 193 233 291 346
#     4   9  21  36  55  85 118 149 190 239 286 339
#     4   9  20  36  55  84 115 153 187 237 285 337
#
# _framework density 21.758904999999999
#
# number of rings (size 3 to 8) (size 9 to 14) (size 15 to 20)
#    0.000    2.000    1.250    1.875    5.250    0.500 
#    0.000    0.625    0.000    8.250    0.000    0.000 
#    0.000    0.000    0.000    0.000    0.000    0.000 
#
# Total GULP energy -89390.596583 kJ/mol
# GULP energy per Si atom -5586.912286 kJ/mol
# Density = 2.170938 g / cm^3
# Si number density = 21.758905 Si / 1000 Ang^3
#
#
#
# Elastic Constant Matrix: (Units=GPa)
#
#
# Indices 1 2 3 4 5 6 
#
# 1 53.9958 14.1391 25.0143 -3.8374 11.7615 -8.2173
# 2 14.1391 59.2178 4.3530 4.7900 4.3907 -6.7912
# 3 25.0143 4.3530 108.0646 3.8889 7.6753 -0.7242
# 4 -3.8374 4.7900 3.8889 25.5514 4.9701 -3.0702
# 5 11.7615 4.3907 7.6753 4.9701 30.2088 2.3341
# 6 -8.2173 -6.7912 -0.7242 -3.0702 2.3341 21.4396
#
#
#
# Elastic Compliance Matrix: (Units=1/GPa)
#
#
# Indices 1 2 3 4 5 6 
#
# 1 0.027044 -0.004711 -0.005560 0.009239 -0.010816 0.011186
# 2 -0.004711 0.018749 0.000544 -0.003725 -0.000702 0.003695
# 3 -0.005560 0.000544 0.010605 -0.002792 0.000005 -0.002001
# 4 0.009239 -0.003725 -0.002792 0.044869 -0.010488 0.009834
# 5 -0.010816 -0.000702 0.000005 -0.010488 0.039930 -0.010217
# 6 0.011186 0.003695 -0.002001 0.009834 -0.010217 0.054553
#
#
# Mechanical properties :
#
#
# Convention : Reuss Voigt Hill
#
# Bulk Modulus (GPa) = 27.06738 34.25453 30.66095
# Shear Modulus (GPa) = 21.97626 27.29145 24.63385
#
# Velocity S-wave (km/s) = 3.18148 3.54540 3.36836
# Velocity P-wave (km/s) = 5.09534 5.70410 5.40829
#
# Compressibility (1/GPa) = 0.03694485
#
# Stress axis : x y z
#
# Youngs Moduli (GPa) = 36.97682 53.33715 94.29127
#
# Poissons Ratio (x) = 0.25127 0.52421
# Poissons Ratio (y) = 0.17420 -0.05128
# Poissons Ratio (z) = 0.20557 -0.02901
#
# Static dielectric constant tensor:
#      x y z
#    x 1.766290 -0.035680 0.000940 
#    y -0.035680 1.832170 0.016390 
#    z 0.000940 0.016390 1.784450 
# 
# From -- ./inp_files/47125.got.cif
#   From: 2010.05.17/outbox.cif.g08.bks.cpg/sg2_24_cif.got.tgz:47125.got - 2010.06.03 11:33:40.
