data_PCOD9077467
_publ_section_title
;
Structure prediction by ZEFSAII (Michael W. Deem and Ramdas Pophale) SiO2 
 PCOD9077467
Probable space group: P -1
;
_chemical_formula_sum "Si O2"
_cell_formula_units_Z 16
_cell_length_a 11.319261
_cell_length_b 23.516030
_cell_length_c 7.556901
_cell_angle_alpha 126.846063
_cell_angle_beta 139.384583
_cell_angle_gamma 34.205733
_cell_volume 733.957444
_symmetry_space_group_name_H-M "P -1"
_symmetry_group_IT_number 2
_symmetry_cell_setting 'triclinic'
loop_
_space_group_symop_operation_xyz
x,y,z
-x,-y,-z
loop_
_atom_site_type_symbol
_atom_site_label
_atom_site_fract_x
_atom_site_fract_y
_atom_site_fract_z
Si Si1 0.277075 0.285303 0.109621
Si Si2 0.230782 0.508541 0.895235
Si Si3 0.294036 0.400687 0.093562
Si Si4 0.049687 0.032548 0.946577
Si Si5 0.179795 0.035130 0.627447
Si Si6 0.758002 0.215548 0.737163
Si Si7 0.415603 0.093141 0.849900
Si Si8 0.482704 0.425451 0.692033
O O1 0.333093 0.309352 0.031224
O O2 0.515440 0.239287 0.424500
O O3 0.026861 0.387145 0.114770
O O4 0.248709 0.211020 0.890407
O O5 0.226097 0.490220 0.646504
O O6 0.328257 0.418355 0.966498
O O7 0.432490 0.517744 0.135617
O O8 0.456598 0.399639 0.420267
O O9 0.000000 0.500000 0.000000
O O10 0.863571 0.152059 0.920982
O O11 0.964122 0.997183 0.639498
O O12 0.000000 0.000000 0.000000
O O13 0.349551 0.967147 0.133995
O O14 0.259395 0.063412 0.607450
O O15 0.995245 0.134828 0.724113
O O16 0.435482 0.947699 0.867758
O O17 0.681510 0.319542 0.829273
#
# Coordination Sequence:
#
# PCOD9077467 Si02
#       8
#     2   2   2   2   2   2   2   2
#     4  10  18  34  60  82 109 149 195 239 282 345
#     4  10  21  37  57  86 115 150 198 238 293 344
#     4   9  20  34  56  80 111 149 190 235 290 340
#     4  11  22  37  57  85 123 149 184 238 292 345
#     4  10  19  36  61  82 109 150 192 235 281 340
#     4  10  19  37  58  82 110 148 199 231 284 347
#     4  10  19  35  61  83 109 150 195 231 278 344
#     4  10  21  37  59  82 117 154 189 247 287 340
#
# _framework density 21.799630000000001
#
# number of rings (size 3 to 8) (size 9 to 14) (size 15 to 20)
#    0.000    2.000    2.500    1.875    0.000    6.000 
#    0.000    1.250    5.500    0.000    0.000    0.000 
#    0.000    0.000    0.000    0.000    0.000    0.000 
#
# Total GULP energy -89202.852684 kJ/mol
# GULP energy per Si atom -5575.178293 kJ/mol
# Density = 2.175001 g / cm^3
# Si number density = 21.799630 Si / 1000 Ang^3
#
#
#
# Elastic Constant Matrix: (Units=GPa)
#
#
# Indices 1 2 3 4 5 6 
#
# 1 134.8224 20.8191 16.1684 -9.3157 0.6356 15.9437
# 2 20.8191 79.5689 -2.9815 -3.6145 0.4641 13.6826
# 3 16.1684 -2.9815 14.2318 2.8203 -0.1567 -0.0717
# 4 -9.3157 -3.6145 2.8203 24.0239 6.2408 5.1352
# 5 0.6356 0.4641 -0.1567 6.2408 27.1958 -3.0088
# 6 15.9437 13.6826 -0.0717 5.1352 -3.0088 21.7073
#
#
#
# Elastic Compliance Matrix: (Units=1/GPa)
#
#
# Indices 1 2 3 4 5 6 
#
# 1 0.011239 -0.001341 -0.014916 0.008968 -0.003497 -0.010065
# 2 -0.001341 0.014904 0.003802 0.003892 -0.002158 -0.009617
# 3 -0.014916 0.003802 0.092351 -0.021133 0.007311 0.014877
# 4 0.008968 0.003892 -0.021133 0.057795 -0.016433 -0.025060
# 5 -0.003497 -0.002158 0.007311 -0.016433 0.042217 0.013692
# 6 -0.010065 -0.009617 0.014877 -0.025060 0.013692 0.067398
#
#
# Mechanical properties :
#
#
# Convention : Reuss Voigt Hill
#
# Bulk Modulus (GPa) = 10.68548 32.95947 21.82248
# Shear Modulus (GPa) = 14.61950 27.55988 21.08969
#
# Velocity S-wave (km/s) = 2.59246 3.55947 3.11373
# Velocity P-wave (km/s) = 3.72471 5.66085 4.79159
#
# Compressibility (1/GPa) = 0.09358490
#
# Stress axis : x y z
#
# Youngs Moduli (GPa) = 88.97208 67.09512 10.82823
#
# Poissons Ratio (x) = 0.08998 0.16152
# Poissons Ratio (y) = 0.11932 -0.04117
# Poissons Ratio (z) = 1.32713 -0.25512
#
# Static dielectric constant tensor:
#      x y z
#    x 1.858810 0.014480 -0.043340 
#    y 0.014480 1.819100 0.005600 
#    z -0.043340 0.005600 1.875240 
# 
# From -- ./inp_files/284990.got.cif
#   From: 2010.05.17/outbox.cif.g08.bks.cpg/sg2_143_cif.got.tgz:284990.got - 2010.06.03 11:33:40.
