data_PCOD9077660
_publ_section_title
;
Structure prediction by ZEFSAII (Michael W. Deem and Ramdas Pophale) SiO2 
 PCOD9077660
Probable space group: P -1
;
_chemical_formula_sum "Si O2"
_cell_formula_units_Z 16
_cell_length_a 11.773236
_cell_length_b 9.745026
_cell_length_c 13.077637
_cell_angle_alpha 127.481428
_cell_angle_beta 93.013306
_cell_angle_gamma 52.120144
_cell_volume 806.925975
_symmetry_space_group_name_H-M "P -1"
_symmetry_group_IT_number 2
_symmetry_cell_setting 'triclinic'
loop_
_space_group_symop_operation_xyz
x,y,z
-x,-y,-z
loop_
_atom_site_type_symbol
_atom_site_label
_atom_site_fract_x
_atom_site_fract_y
_atom_site_fract_z
Si Si1 0.695252 0.302517 0.894676
Si Si2 0.825407 0.263865 0.486324
Si Si3 0.148194 0.654944 0.252191
Si Si4 0.244126 0.551810 0.847960
Si Si5 0.365508 0.844959 0.552039
Si Si6 0.738776 0.553592 0.424953
Si Si7 0.937564 0.579447 0.147236
Si Si8 0.646927 0.052479 0.635512
O O1 0.730744 0.417179 0.866415
O O2 0.730591 0.082686 0.738087
O O3 0.500000 0.500000 0.000000
O O4 0.776951 0.267318 0.990737
O O5 0.786520 0.390919 0.651364
O O6 0.676499 0.295839 0.471583
O O7 0.846097 0.374144 0.445249
O O8 0.989400 0.960947 0.368279
O O9 0.077528 0.539749 0.190951
O O10 0.219057 0.596555 0.745356
O O11 0.113261 0.550111 0.872578
O O12 0.442666 0.271184 0.740538
O O13 0.549154 0.711892 0.513928
O O14 0.330322 0.884880 0.445940
O O15 0.233512 0.122076 0.720235
O O16 0.728437 0.771489 0.506259
O O17 0.000000 0.500000 0.000000
#
# Coordination Sequence:
#
# PCOD9077660 Si02
#       8
#     2   2   2   2   2   2   2   2
#     4  10  20  35  61  83 114 156 194 229 281 351
#     4  10  22  36  58  85 116 149 190 244 289 337
#     4  10  21  38  57  82 113 152 197 229 288 348
#     4  10  19  35  57  90 112 150 194 231 288 341
#     4  10  18  35  59  87 112 152 197 235 278 341
#     4  11  20  35  61  89 116 145 196 246 285 326
#     4  11  19  32  60  84 114 153 191 233 279 346
#     4  10  18  34  62  87 113 146 195 244 272 335
#
# _framework density 19.828336
#
# number of rings (size 3 to 8) (size 9 to 14) (size 15 to 20)
#    0.000    1.750    5.000    1.125    0.000    0.000 
#    0.000    3.125    5.500    3.750    0.000    0.000 
#    0.000    0.000    0.000    0.000    0.000    0.000 
#
# Total GULP energy -89196.826490 kJ/mol
# GULP energy per Si atom -5574.801656 kJ/mol
# Density = 1.978321 g / cm^3
# Si number density = 19.828336 Si / 1000 Ang^3
#
#
#
# Elastic Constant Matrix: (Units=GPa)
#
#
# Indices 1 2 3 4 5 6 
#
# 1 96.5800 4.2591 19.1735 -0.6219 -5.8163 4.1251
# 2 4.2591 52.2061 11.3211 -15.5730 9.2219 7.1388
# 3 19.1735 11.3211 84.5405 -21.6011 1.1302 -7.8960
# 4 -0.6219 -15.5730 -21.6011 13.3310 3.8325 -1.1476
# 5 -5.8163 9.2219 1.1302 3.8325 42.3676 -4.6414
# 6 4.1251 7.1388 -7.8960 -1.1476 -4.6414 19.0045
#
#
#
# Elastic Compliance Matrix: (Units=1/GPa)
#
#
# Indices 1 2 3 4 5 6 
#
# 1 0.012392 -0.005493 -0.007502 -0.019605 0.004450 -0.003841
# 2 -0.005493 0.046138 0.016110 0.084673 -0.019893 -0.009191
# 3 -0.007502 0.016110 0.031084 0.072834 -0.010832 0.010245
# 4 -0.019605 0.084673 0.072834 0.306116 -0.049765 0.009042
# 5 0.004450 -0.019893 -0.010832 -0.049765 0.034138 0.007338
# 6 -0.003841 -0.009191 0.010245 0.009042 0.007338 0.063500
#
#
# Mechanical properties :
#
#
# Convention : Reuss Voigt Hill
#
# Bulk Modulus (GPa) = 10.43373 33.64824 22.04098
# Shear Modulus (GPa) = 9.63230 28.17882 18.90556
#
# Velocity S-wave (km/s) = 2.20644 3.77389 3.09117
# Velocity P-wave (km/s) = 3.42996 5.99969 4.88676
#
# Compressibility (1/GPa) = 0.09584303
#
# Stress axis : x y z
#
# Youngs Moduli (GPa) = 80.70029 21.67406 32.17046
#
# Poissons Ratio (x) = 0.11906 0.24135
# Poissons Ratio (y) = 0.44330 -0.51827
# Poissons Ratio (z) = 0.60544 -0.34917
#
# Static dielectric constant tensor:
#      x y z
#    x 1.775220 -0.002470 0.030810 
#    y -0.002470 1.697500 -0.006710 
#    z 0.030810 -0.006710 1.726520 
# 
# From -- ./inp_files/260019.got.cif
#   From: 2010.05.17/outbox.cif.g08.bks.cpg/sg2_131_cif.got.tgz:260019.got - 2010.06.03 11:33:40.
