data_PCOD9077442
_publ_section_title
;
Structure prediction by ZEFSAII (Michael W. Deem and Ramdas Pophale) SiO2 
 PCOD9077442
Probable space group: P -1
;
_chemical_formula_sum "Si O2"
_cell_formula_units_Z 16
_cell_length_a 9.296196
_cell_length_b 5.517361
_cell_length_c 14.642193
_cell_angle_alpha 68.535539
_cell_angle_beta 78.213669
_cell_angle_gamma 74.382622
_cell_volume 668.413648
_symmetry_space_group_name_H-M "P -1"
_symmetry_group_IT_number 2
_symmetry_cell_setting 'triclinic'
loop_
_space_group_symop_operation_xyz
x,y,z
-x,-y,-z
loop_
_atom_site_type_symbol
_atom_site_label
_atom_site_fract_x
_atom_site_fract_y
_atom_site_fract_z
Si Si1 0.332605 0.488361 0.556564
Si Si2 0.166237 0.827741 0.013890
Si Si3 0.262978 0.008371 0.562780
Si Si4 0.661049 0.874196 0.661204
Si Si5 0.189291 0.674445 0.227956
Si Si6 0.661903 0.687522 0.034371
Si Si7 0.436736 0.962516 0.161022
Si Si8 0.083862 0.822938 0.404410
O O1 0.500000 0.500000 0.500000
O O2 0.307499 0.193094 0.608600
O O3 0.203431 0.616106 0.479481
O O4 0.298887 0.692928 0.616308
O O5 0.154606 0.649036 0.130813
O O6 0.236116 0.605012 0.959150
O O7 0.257242 0.066349 0.983316
O O8 0.000000 0.000000 0.000000
O O9 0.356283 0.058582 0.452657
O O10 0.085635 0.095238 0.550893
O O11 0.682852 0.564557 0.718295
O O12 0.548363 0.013405 0.735467
O O13 0.826321 0.940415 0.648574
O O14 0.069113 0.713192 0.319002
O O15 0.266097 0.925857 0.182073
O O16 0.544113 0.718625 0.128808
O O17 0.569185 0.781241 0.939040
#
# Coordination Sequence:
#
# PCOD9077442 Si02
#       8
#     2   2   2   2   2   2   2   2
#     4  11  22  38  61  90 123 160 202 260 318 361
#     4  11  23  40  62  87 122 164 200 247 310 369
#     4  11  23  39  65  91 121 170 219 250 299 380
#     4  10  18  34  59  91 123 152 205 265 299 352
#     4  10  20  35  63  87 121 156 203 261 297 359
#     4  10  21  37  61  87 119 154 199 248 304 376
#     4   9  20  33  58  95 114 151 201 255 309 355
#     4  10  22  38  63  94 117 168 220 255 297 376
#
# _framework density 23.937272
#
# number of rings (size 3 to 8) (size 9 to 14) (size 15 to 20)
#    0.000    1.750    2.500    2.625    3.500    1.500 
#    0.000    0.000   19.250    0.000    0.000    0.000 
#    0.000    0.000    0.000    0.000    0.000    0.000 
#
# Total GULP energy -89097.331531 kJ/mol
# GULP energy per Si atom -5568.583221 kJ/mol
# Density = 2.388279 g / cm^3
# Si number density = 23.937272 Si / 1000 Ang^3
#
#
#
# Elastic Constant Matrix: (Units=GPa)
#
#
# Indices 1 2 3 4 5 6 
#
# 1 96.4647 41.0114 15.3539 5.3563 -11.8552 -12.5761
# 2 41.0114 168.1537 33.8605 28.0776 -13.6410 -1.0012
# 3 15.3539 33.8605 96.1679 31.5103 -13.8871 -13.3662
# 4 5.3563 28.0776 31.5103 36.0417 -4.2326 -14.3048
# 5 -11.8552 -13.6410 -13.8871 -4.2326 15.8883 -0.8708
# 6 -12.5761 -1.0012 -13.3662 -14.3048 -0.8708 41.2185
#
#
#
# Elastic Compliance Matrix: (Units=1/GPa)
#
#
# Indices 1 2 3 4 5 6 
#
# 1 0.013237 -0.003101 -0.000349 0.003847 0.008228 0.005359
# 2 -0.003101 0.008018 -0.000282 -0.006456 0.002437 -0.003032
# 3 -0.000349 -0.000282 0.016237 -0.012246 0.010488 0.001123
# 4 0.003847 -0.006456 -0.012246 0.048447 0.000290 0.013865
# 5 0.008228 0.002437 0.010488 0.000290 0.080842 0.007779
# 6 0.005359 -0.003032 0.001123 0.013865 0.007779 0.031163
#
#
# Mechanical properties :
#
#
# Convention : Reuss Voigt Hill
#
# Bulk Modulus (GPa) = 33.30354 60.13754 46.72054
# Shear Modulus (GPa) = 23.21099 36.66709 29.93904
#
# Velocity S-wave (km/s) = 3.11731 3.91807 3.54040
# Velocity P-wave (km/s) = 5.18651 6.75617 6.02270
#
# Compressibility (1/GPa) = 0.03002684
#
# Stress axis : x y z
#
# Youngs Moduli (GPa) = 75.54806 124.72490 61.58853
#
# Poissons Ratio (x) = 0.38677 0.02149
# Poissons Ratio (y) = 0.23428 0.01737
# Poissons Ratio (z) = 0.02637 0.03518
#
# Static dielectric constant tensor:
#      x y z
#    x 1.968160 0.045490 -0.011480 
#    y 0.045490 2.071940 0.024220 
#    z -0.011480 0.024220 2.016210 
# 
# From -- ./inp_files/552441.got.cif
#   From: 2010.05.17/outbox.cif.g08.bks.cpg/sg2_277_cif.got.tgz:552441.got - 2010.06.03 11:33:40.
