data_PCOD9077719
_publ_section_title
;
Structure prediction by ZEFSAII (Michael W. Deem and Ramdas Pophale) SiO2 
 PCOD9077719
Probable space group: P -1
;
_chemical_formula_sum "Si O2"
_cell_formula_units_Z 16
_cell_length_a 8.062579
_cell_length_b 12.050398
_cell_length_c 9.147490
_cell_angle_alpha 125.865592
_cell_angle_beta 112.065605
_cell_angle_gamma 91.628322
_cell_volume 629.878697
_symmetry_space_group_name_H-M "P -1"
_symmetry_group_IT_number 2
_symmetry_cell_setting 'triclinic'
loop_
_space_group_symop_operation_xyz
x,y,z
-x,-y,-z
loop_
_atom_site_type_symbol
_atom_site_label
_atom_site_fract_x
_atom_site_fract_y
_atom_site_fract_z
Si Si1 0.570140 0.646059 0.225842
Si Si2 0.014909 0.721052 0.231394
Si Si3 0.462110 0.689064 0.664241
Si Si4 0.552825 0.817099 0.080070
Si Si5 0.185923 0.203040 0.342297
Si Si6 0.685778 0.061548 0.711393
Si Si7 0.181660 0.879566 0.694272
Si Si8 0.234873 0.520729 0.217870
O O1 0.622719 0.770649 0.218801
O O2 0.734574 0.667349 0.413244
O O3 0.390450 0.637749 0.259695
O O4 0.500000 0.500000 0.000000
O O5 0.158460 0.815692 0.231641
O O6 0.052295 0.828547 0.465564
O O7 0.062810 0.584400 0.213435
O O8 0.833207 0.633246 0.004636
O O9 0.672954 0.750685 0.712635
O O10 0.341150 0.800023 0.683995
O O11 0.336847 0.544073 0.426150
O O12 0.477783 0.685619 0.840468
O O13 0.384434 0.874396 0.120279
O O14 0.709324 0.949934 0.156022
O O15 0.959567 0.160393 0.244133
O O16 0.234396 0.065652 0.317039
O O17 0.500000 0.000000 0.500000
#
# Coordination Sequence:
#
# PCOD9077719 Si02
#       8
#     2   2   2   2   2   2   2   2
#     4  11  22  39  65  92 126 171 221 269 318 372
#     4  10  18  34  63  92 123 162 221 268 306 369
#     4  10  23  44  64  92 139 174 205 260 330 390
#     4  12  23  41  66  96 131 174 210 264 332 385
#     4  11  23  40  67  96 130 169 216 270 319 383
#     4  12  19  39  65  97 131 165 215 271 326 375
#     4  11  22  38  68  99 129 164 220 266 323 382
#     4   9  19  37  61  86 124 172 212 260 312 376
#
# _framework density 25.401717000000001
#
# number of rings (size 3 to 8) (size 9 to 14) (size 15 to 20)
#    0.000    1.250    5.000    1.875    0.000    3.500 
#    0.000    3.125    0.000    0.000    0.000    0.000 
#    0.000    0.000    0.000    0.000    0.000    0.000 
#
# Total GULP energy -89456.756783 kJ/mol
# GULP energy per Si atom -5591.047299 kJ/mol
# Density = 2.534390 g / cm^3
# Si number density = 25.401717 Si / 1000 Ang^3
#
#
#
# Elastic Constant Matrix: (Units=GPa)
#
#
# Indices 1 2 3 4 5 6 
#
# 1 116.7341 36.6958 35.0844 -2.4208 -3.3270 27.0391
# 2 36.6958 76.3792 27.4231 7.3825 11.0347 5.8675
# 3 35.0844 27.4231 137.2021 -21.7484 -4.5538 12.7635
# 4 -2.4208 7.3825 -21.7484 35.5325 4.6888 1.4937
# 5 -3.3270 11.0347 -4.5538 4.6888 33.0962 3.1321
# 6 27.0391 5.8675 12.7635 1.4937 3.1321 39.8976
#
#
#
# Elastic Compliance Matrix: (Units=1/GPa)
#
#
# Indices 1 2 3 4 5 6 
#
# 1 0.012586 -0.005721 -0.001042 0.001259 0.003578 -0.007683
# 2 -0.005721 0.018426 -0.003629 -0.005684 -0.006703 0.003067
# 3 -0.001042 -0.003629 0.009555 0.006396 0.001721 -0.002192
# 4 0.001259 -0.005684 0.006396 0.033666 -0.001565 -0.003201
# 5 0.003578 -0.006703 0.001721 -0.001565 0.033701 -0.004577
# 6 -0.007683 0.003067 -0.002192 -0.003201 -0.004577 0.031000
#
#
# Mechanical properties :
#
#
# Convention : Reuss Voigt Hill
#
# Bulk Modulus (GPa) = 50.54609 58.74687 54.64648
# Shear Modulus (GPa) = 30.06396 37.11273 33.58834
#
# Velocity S-wave (km/s) = 3.44399 3.82649 3.64027
# Velocity P-wave (km/s) = 5.97969 6.53453 6.26326
#
# Compressibility (1/GPa) = 0.01978392
#
# Stress axis : x y z
#
# Youngs Moduli (GPa) = 79.45528 54.27047 104.65604
#
# Poissons Ratio (x) = 0.31049 0.10902
# Poissons Ratio (y) = 0.45457 0.37977
# Poissons Ratio (z) = 0.08277 0.19693
#
# Static dielectric constant tensor:
#      x y z
#    x 2.123540 -0.027170 0.003140 
#    y -0.027170 1.956490 -0.019200 
#    z 0.003140 -0.019200 2.037520 
# 
# From -- ./inp_files/209065.got.cif
#   From: 2010.05.17/outbox.cif.g08.bks.cpg/sg2_105_cif.got.tgz:209065.got - 2010.06.03 11:33:40.
