data_PCOD9077071
_publ_section_title
;
Structure prediction by ZEFSAII (Michael W. Deem and Ramdas Pophale) SiO2 
 PCOD9077071
Probable space group: P -1
;
_chemical_formula_sum "Si O2"
_cell_formula_units_Z 16
_cell_length_a 9.083685
_cell_length_b 10.341688
_cell_length_c 11.062231
_cell_angle_alpha 56.483813
_cell_angle_beta 120.538819
_cell_angle_gamma 78.566068
_cell_volume 556.118445
_symmetry_space_group_name_H-M "P -1"
_symmetry_group_IT_number 2
_symmetry_cell_setting 'triclinic'
loop_
_space_group_symop_operation_xyz
x,y,z
-x,-y,-z
loop_
_atom_site_type_symbol
_atom_site_label
_atom_site_fract_x
_atom_site_fract_y
_atom_site_fract_z
Si Si1 0.612368 0.715808 0.207880
Si Si2 0.786916 0.099234 0.218356
Si Si3 0.145045 0.161068 0.070592
Si Si4 0.689842 0.482322 0.011747
Si Si5 0.975476 0.753844 0.302126
Si Si6 0.410415 0.928331 0.626531
Si Si7 0.866244 0.616517 0.741989
Si Si8 0.550808 0.283797 0.622387
O O1 0.747827 0.793445 0.221632
O O2 0.423977 0.797597 0.189760
O O3 0.805517 0.474345 0.444766
O O4 0.474170 0.775513 0.998143
O O5 0.814479 0.261986 0.118011
O O6 0.778606 0.035883 0.382589
O O7 0.961654 0.903823 0.309645
O O8 0.030804 0.223658 0.856696
O O9 0.980315 0.386114 0.958458
O O10 0.389357 0.102509 0.201991
O O11 0.236578 0.927753 0.250947
O O12 0.900625 0.446065 0.181680
O O13 0.500000 0.500000 0.000000
O O14 0.550464 0.690267 0.763210
O O15 0.279621 0.145961 0.389403
O O16 0.679160 0.659726 0.551091
O O17 0.500000 0.500000 0.500000
#
# Coordination Sequence:
#
# PCOD9077071 Si02
#       8
#     2   2   2   2   2   2   2   2
#     4  11  22  33  52  84 117 147 184 229 289 338
#     4  11  20  31  49  80 118 147 180 227 275 345
#     4  10  18  34  55  84 111 144 181 230 289 335
#     4   9  21  34  52  80 116 156 188 226 275 340
#     4  11  20  31  56  84 117 148 176 225 296 350
#     4   9  19  32  53  77 115 152 187 222 276 338
#     4  10  20  37  56  80 113 149 192 227 278 329
#     4  11  23  38  58  83 113 151 192 233 278 333
#
# _framework density 28.770848000000001
#
# number of rings (size 3 to 8) (size 9 to 14) (size 15 to 20)
#    0.000    1.750    3.750    1.875    1.750    3.500 
#    0.000    0.000    0.000    0.750    0.000    8.750 
#    0.000    0.000    0.000    0.000    0.000    0.000 
#
# Total GULP energy -89341.557186 kJ/mol
# GULP energy per Si atom -5583.847324 kJ/mol
# Density = 2.870536 g / cm^3
# Si number density = 28.770848 Si / 1000 Ang^3
#
#
#
# Elastic Constant Matrix: (Units=GPa)
#
#
# Indices 1 2 3 4 5 6 
#
# 1 105.1617 48.3523 27.2230 -19.4560 -1.9657 13.9489
# 2 48.3523 153.2027 66.8826 -74.5721 3.5355 18.7104
# 3 27.2230 66.8826 202.7359 -58.3091 -7.2307 -10.9454
# 4 -19.4560 -74.5721 -58.3091 69.2605 0.6675 7.6950
# 5 -1.9657 3.5355 -7.2307 0.6675 50.0907 -11.0570
# 6 13.9489 18.7104 -10.9454 7.6950 -11.0570 23.0225
#
#
#
# Elastic Compliance Matrix: (Units=1/GPa)
#
#
# Indices 1 2 3 4 5 6 
#
# 1 0.011758 -0.001453 -0.001070 0.001700 -0.001301 -0.007645
# 2 -0.001453 0.031656 -0.002601 0.036559 -0.012985 -0.044539
# 3 -0.001070 -0.002601 0.006959 0.001994 0.002587 0.006646
# 4 0.001700 0.036559 0.001994 0.062596 -0.015945 -0.058374
# 5 -0.001301 -0.012985 0.002587 -0.015945 0.028375 0.031528
# 6 -0.007645 -0.044539 0.006646 -0.058374 0.031528 0.122077
#
#
# Mechanical properties :
#
#
# Convention : Reuss Voigt Hill
#
# Bulk Modulus (GPa) = 24.92182 82.89069 53.90625
# Shear Modulus (GPa) = 17.41897 49.71756 33.56826
#
# Velocity S-wave (km/s) = 2.46323 4.16150 3.41947
# Velocity P-wave (km/s) = 4.09524 7.20860 5.86238
#
# Compressibility (1/GPa) = 0.04012549
#
# Stress axis : x y z
#
# Youngs Moduli (GPa) = 85.04593 31.58986 143.70121
#
# Poissons Ratio (x) = 0.04590 0.15373
# Poissons Ratio (y) = 0.12356 0.37378
# Poissons Ratio (z) = 0.09098 0.08217
#
# Static dielectric constant tensor:
#      x y z
#    x 2.252130 -0.065450 0.019710 
#    y -0.065450 2.316490 -0.071960 
#    z 0.019710 -0.071960 2.206340 
# 
# From -- ./inp_files/569136.got.cif
#   From: 2010.05.17/outbox.cif.g08.bks.cpg/sg2_285_cif.got.tgz:569136.got - 2010.06.03 11:33:40.
