data_PCOD9077778
_publ_section_title
;
Structure prediction by ZEFSAII (Michael W. Deem and Ramdas Pophale) SiO2 
 PCOD9077778
Probable space group: P -1
;
_chemical_formula_sum "Si O2"
_cell_formula_units_Z 14
_cell_length_a 8.963203
_cell_length_b 8.285386
_cell_length_c 18.858047
_cell_angle_alpha 63.625955
_cell_angle_beta 132.999257
_cell_angle_gamma 81.243531
_cell_volume 660.054958
_symmetry_space_group_name_H-M "P -1"
_symmetry_group_IT_number 2
_symmetry_cell_setting 'triclinic'
loop_
_space_group_symop_operation_xyz
x,y,z
-x,-y,-z
loop_
_atom_site_type_symbol
_atom_site_label
_atom_site_fract_x
_atom_site_fract_y
_atom_site_fract_z
Si Si1 0.075371 0.259103 0.803010
Si Si2 0.522392 0.791011 0.581795
Si Si3 0.928994 0.103032 0.036969
Si Si4 0.455663 0.173736 0.707812
Si Si5 0.739084 0.371531 0.541550
Si Si6 0.660500 0.610982 0.214810
Si Si7 0.820329 0.929744 0.457744
O O1 0.313045 0.265768 0.866016
O O2 0.814715 0.521759 0.705705
O O3 0.006413 0.247509 0.701355
O O4 0.087970 0.067583 0.888274
O O5 0.278936 0.803749 0.472328
O O6 0.500000 0.000000 0.500000
O O7 0.463746 0.854439 0.632819
O O8 0.601909 0.368161 0.883202
O O9 0.207663 0.046661 0.158169
O O10 0.000000 0.000000 0.000000
O O11 0.341616 0.415144 0.578184
O O12 0.412405 0.246726 0.761874
O O13 0.273935 0.114255 0.635325
O O14 0.500000 0.500000 0.500000
O O15 0.968577 0.333770 0.379728
O O16 0.000000 0.000000 0.500000
#
# Coordination Sequence:
#
# PCOD9077778 Si02
#       7
#     2   2   2   2   2   2   2
#     4  11  21  39  66  92 121 166 212 255 308 365
#     4  11  21  36  59  97 131 152 199 259 324 365
#     4  10  23  40  67  88 122 166 218 255 302 371
#     4  11  21  42  63  93 122 168 215 254 305 370
#     4  10  18  34  65  92 115 159 212 259 292 363
#     4  11  23  40  64  94 128 161 214 255 306 375
#     4  12  25  37  63  97 130 160 202 268 316 361
#
# _framework density 21.210353000000001
#
# number of rings (size 3 to 8) (size 9 to 14) (size 15 to 20)
#    0.000    1.143    5.714    2.571    4.000    0.000 
#    0.000    0.714    0.000    1.714    0.000    0.000 
#    0.000    0.000    0.000    0.000    0.000    0.000 
#
# Total GULP energy -78059.758479 kJ/mol
# GULP energy per Si atom -5575.697034 kJ/mol
# Density = 2.116208 g / cm^3
# Si number density = 21.210353 Si / 1000 Ang^3
#
#
#
# Elastic Constant Matrix: (Units=GPa)
#
#
# Indices 1 2 3 4 5 6 
#
# 1 117.0356 17.3485 21.2741 9.3533 8.7868 0.7438
# 2 17.3485 80.1640 9.5882 6.6193 6.3955 7.2428
# 3 21.2741 9.5882 55.3333 9.6246 14.4412 1.2588
# 4 9.3533 6.6193 9.6246 14.1794 2.0160 7.3845
# 5 8.7868 6.3955 14.4412 2.0160 36.8054 5.7020
# 6 0.7438 7.2428 1.2588 7.3845 5.7020 37.3078
#
#
#
# Elastic Compliance Matrix: (Units=1/GPa)
#
#
# Indices 1 2 3 4 5 6 
#
# 1 0.009631 -0.001449 -0.002422 -0.004523 -0.001039 0.001225
# 2 -0.001449 0.013435 -0.000753 -0.003788 -0.001236 -0.001615
# 3 -0.002422 -0.000753 0.023837 -0.014927 -0.008388 0.003627
# 4 -0.004523 -0.003788 -0.014927 0.094088 0.005245 -0.018096
# 5 -0.001039 -0.001236 -0.008388 0.005245 0.031458 -0.005302
# 6 0.001225 -0.001615 0.003627 -0.018096 -0.005302 0.031363
#
#
# Mechanical properties :
#
#
# Convention : Reuss Voigt Hill
#
# Bulk Modulus (GPa) = 26.55589 38.77272 32.66430
# Shear Modulus (GPa) = 22.16201 31.27999 26.72100
#
# Velocity S-wave (km/s) = 3.23595 3.84442 3.55323
# Velocity P-wave (km/s) = 5.14871 6.16651 5.68045
#
# Compressibility (1/GPa) = 0.03765643
#
# Stress axis : x y z
#
# Youngs Moduli (GPa) = 103.83007 74.43041 41.95174
#
# Poissons Ratio (x) = 0.10784 0.10159
# Poissons Ratio (y) = 0.15044 0.03159
# Poissons Ratio (z) = 0.25144 0.05604
#
# Static dielectric constant tensor:
#      x y z
#    x 1.824180 0.039820 0.059440 
#    y 0.039820 1.786180 0.024850 
#    z 0.059440 0.024850 1.891820 
# 
# From -- ./inp_files/209435.got.cif
#   From: 2010.05.17/outbox.cif.g08.bks.cpg/sg2_105_cif.got.tgz:209435.got - 2010.06.03 11:33:40.
