data_PCOD9077382
_publ_section_title
;
Structure prediction by ZEFSAII (Michael W. Deem and Ramdas Pophale) SiO2 
 PCOD9077382
Probable space group: P -1
;
_chemical_formula_sum "Si O2"
_cell_formula_units_Z 16
_cell_length_a 9.102927
_cell_length_b 13.321248
_cell_length_c 12.544702
_cell_angle_alpha 147.507904
_cell_angle_beta 49.341614
_cell_angle_gamma 114.430655
_cell_volume 584.383757
_symmetry_space_group_name_H-M "P -1"
_symmetry_group_IT_number 2
_symmetry_cell_setting 'triclinic'
loop_
_space_group_symop_operation_xyz
x,y,z
-x,-y,-z
loop_
_atom_site_type_symbol
_atom_site_label
_atom_site_fract_x
_atom_site_fract_y
_atom_site_fract_z
Si Si1 0.650230 0.754880 0.765476
Si Si2 0.775287 0.505248 0.657946
Si Si3 0.313432 0.939796 0.798568
Si Si4 0.165738 0.569140 0.097805
Si Si5 0.658166 0.817034 0.189878
Si Si6 0.225720 0.779032 0.894433
Si Si7 0.055575 0.824974 0.565126
Si Si8 0.280510 0.429819 0.705413
O O1 0.654694 0.558485 0.651930
O O2 0.437469 0.817047 0.859484
O O3 0.851487 0.754837 0.604929
O O4 0.661480 0.889845 0.981852
O O5 0.000000 0.500000 0.500000
O O6 0.819938 0.288249 0.492359
O O7 0.669443 0.649910 0.937682
O O8 0.179007 0.846001 0.853726
O O9 0.531288 0.766687 0.540508
O O10 0.260335 0.048112 0.807936
O O11 0.190885 0.726168 0.311474
O O12 0.925107 0.626159 0.239540
O O13 0.237464 0.349243 0.919047
O O14 0.273334 0.568578 0.934966
O O15 0.500000 0.000000 0.500000
O O16 0.260432 0.559229 0.723013
O O17 0.041283 0.940015 0.188202
#
# Coordination Sequence:
#
# PCOD9077382 Si02
#       8
#     2   2   2   2   2   2   2   2
#     4   9  17  32  56  82 105 140 179 223 270 319
#     4   8  16  30  54  82 106 139 185 228 264 317
#     4  10  19  35  57  81 108 140 180 223 271 324
#     4  10  21  37  56  74 104 147 184 220 267 328
#     4  10  18  34  59  82 102 142 191 227 266 327
#     4  11  21  33  53  83 114 138 177 226 273 319
#     4   9  17  33  54  76 107 139 181 217 266 321
#     4  11  22  35  52  79 111 144 179 220 273 325
#
# _framework density 27.379270000000002
#
# number of rings (size 3 to 8) (size 9 to 14) (size 15 to 20)
#    0.000    2.250    1.250    4.125    0.000    0.500 
#    0.000    1.875    0.000    3.750    0.000    0.000 
#    0.000    0.000    0.000    0.000    0.000    0.000 
#
# Total GULP energy -89236.158957 kJ/mol
# GULP energy per Si atom -5577.259935 kJ/mol
# Density = 2.731695 g / cm^3
# Si number density = 27.379270 Si / 1000 Ang^3
#
#
#
# Elastic Constant Matrix: (Units=GPa)
#
#
# Indices 1 2 3 4 5 6 
#
# 1 56.2476 33.7507 18.2037 -8.8755 -11.0084 -22.0418
# 2 33.7507 103.2210 20.1504 -13.3071 0.7160 -24.8795
# 3 18.2037 20.1504 151.8119 -8.2624 -7.0720 -4.2925
# 4 -8.8755 -13.3071 -8.2624 61.0058 -4.3038 8.1148
# 5 -11.0084 0.7160 -7.0720 -4.3038 42.3431 3.2596
# 6 -22.0418 -24.8795 -4.2925 8.1148 3.2596 46.7019
#
#
#
# Elastic Compliance Matrix: (Units=1/GPa)
#
#
# Indices 1 2 3 4 5 6 
#
# 1 0.026921 -0.006242 -0.001776 0.001631 0.006320 0.008493
# 2 -0.006242 0.012995 -0.000907 0.001138 -0.002175 0.003847
# 3 -0.001776 -0.000907 0.006972 0.000662 0.000851 -0.000855
# 4 0.001631 0.001138 0.000662 0.017370 0.002415 -0.001750
# 5 0.006320 -0.002175 0.000851 0.002415 0.025708 -0.000311
# 6 0.008493 0.003847 -0.000855 -0.001750 -0.000311 0.027718
#
#
# Mechanical properties :
#
#
# Convention : Reuss Voigt Hill
#
# Bulk Modulus (GPa) = 34.43836 50.61000 42.52418
# Shear Modulus (GPa) = 34.43172 45.95521 40.19346
#
# Velocity S-wave (km/s) = 3.55009 4.10135 3.83564
# Velocity P-wave (km/s) = 5.42308 6.39946 5.93139
#
# Compressibility (1/GPa) = 0.02903739
#
# Stress axis : x y z
#
# Youngs Moduli (GPa) = 37.14514 76.95079 143.43180
#
# Poissons Ratio (x) = 0.48036 0.25477
# Poissons Ratio (y) = 0.23188 0.13008
# Poissons Ratio (z) = 0.06598 0.06979
#
# Static dielectric constant tensor:
#      x y z
#    x 2.220650 0.001980 0.050360 
#    y 0.001980 2.141700 0.016520 
#    z 0.050360 0.016520 2.234290 
# 
# From -- ./inp_files/305801.got.cif
#   From: 2010.05.17/outbox.cif.g08.bks.cpg/sg2_153_cif.got.tgz:305801.got - 2010.06.03 11:33:40.
