data_PCOD9077147
_publ_section_title
;
Structure prediction by ZEFSAII (Michael W. Deem and Ramdas Pophale) SiO2 
 PCOD9077147
Probable space group: P -1
;
_chemical_formula_sum "Si O2"
_cell_formula_units_Z 16
_cell_length_a 10.245712
_cell_length_b 10.897327
_cell_length_c 9.453573
_cell_angle_alpha 76.079517
_cell_angle_beta 74.054485
_cell_angle_gamma 37.801518
_cell_volume 621.558062
_symmetry_space_group_name_H-M "P -1"
_symmetry_group_IT_number 2
_symmetry_cell_setting 'triclinic'
loop_
_space_group_symop_operation_xyz
x,y,z
-x,-y,-z
loop_
_atom_site_type_symbol
_atom_site_label
_atom_site_fract_x
_atom_site_fract_y
_atom_site_fract_z
Si Si1 0.617087 0.861538 0.364478
Si Si2 0.045892 0.611898 0.978958
Si Si3 0.408483 0.927181 0.926283
Si Si4 0.910246 0.375194 0.728694
Si Si5 0.943497 0.208006 0.308032
Si Si6 0.326154 0.606059 0.399116
Si Si7 0.864049 0.049555 0.160009
Si Si8 0.558502 0.205861 0.757926
O O1 0.567439 0.756705 0.351393
O O2 0.877272 0.693148 0.347226
O O3 0.500000 0.000000 0.500000
O O4 0.519231 0.019591 0.221434
O O5 0.130025 0.615845 0.809047
O O6 0.164970 0.540520 0.113484
O O7 0.822113 0.847697 0.015876
O O8 0.000000 0.500000 0.000000
O O9 0.522354 0.802844 0.071023
O O10 0.352257 0.845835 0.872909
O O11 0.713181 0.494515 0.647800
O O12 0.012042 0.161115 0.758849
O O13 0.881575 0.238377 0.480149
O O14 0.847443 0.164339 0.254200
O O15 0.198973 0.017604 0.279404
O O16 0.500000 0.500000 0.500000
O O17 0.391287 0.681317 0.265699
O O18 0.000000 0.000000 0.000000
#
# Coordination Sequence:
#
# PCOD9077147 Si02
#       8
#     2   2   2   2   2   2   2   2
#     4  10  21  35  60 101 130 155 206 260 318 375
#     4   9  19  37  66  92 124 169 211 250 321 396
#     4   9  20  34  63  96 127 160 213 255 318 374
#     4  10  21  41  65  88 129 169 207 261 325 378
#     4  11  21  37  69  96 127 161 217 260 321 374
#     4  12  27  42  61  94 132 170 216 270 330 377
#     4  10  14  33  66  99 114 156 210 270 311 373
#     4  11  21  39  65  93 125 166 216 266 312 377
#
# _framework density 25.741762999999999
#
# number of rings (size 3 to 8) (size 9 to 14) (size 15 to 20)
#    0.000    2.000    5.000    1.500    3.500    2.000 
#    0.000    5.625    5.500    0.000    0.000    0.000 
#    0.000    0.000    0.000    0.000    0.000    0.000 
#
# Total GULP energy -89396.792057 kJ/mol
# GULP energy per Si atom -5587.299504 kJ/mol
# Density = 2.568317 g / cm^3
# Si number density = 25.741763 Si / 1000 Ang^3
#
#
#
# Elastic Constant Matrix: (Units=GPa)
#
#
# Indices 1 2 3 4 5 6 
#
# 1 182.8822 36.1413 43.9392 2.6498 39.0698 13.0287
# 2 36.1413 42.4201 32.9151 15.7323 8.6995 -1.9227
# 3 43.9392 32.9151 148.8579 12.9465 20.6988 9.1688
# 4 2.6498 15.7323 12.9465 44.7031 1.7929 5.9556
# 5 39.0698 8.6995 20.6988 1.7929 48.5277 10.0558
# 6 13.0287 -1.9227 9.1688 5.9556 10.0558 36.7537
#
#
#
# Elastic Compliance Matrix: (Units=1/GPa)
#
#
# Indices 1 2 3 4 5 6 
#
# 1 0.007977 -0.006571 -0.000317 0.002413 -0.004746 -0.002185
# 2 -0.006571 0.038959 -0.006026 -0.012630 -0.000315 0.008004
# 3 -0.000317 -0.006026 0.008524 -0.000012 -0.001927 -0.001800
# 4 0.002413 -0.012630 -0.000012 0.027468 0.000580 -0.006123
# 5 -0.004746 -0.000315 -0.001927 0.000580 0.026353 -0.005158
# 6 -0.002185 0.008004 -0.001800 -0.006123 -0.005158 0.031254
#
#
# Mechanical properties :
#
#
# Convention : Reuss Voigt Hill
#
# Bulk Modulus (GPa) = 33.74691 66.68349 50.21520
# Shear Modulus (GPa) = 28.37042 43.40789 35.88915
#
# Velocity S-wave (km/s) = 3.32342 4.11089 3.73795
# Velocity P-wave (km/s) = 5.27873 6.96373 6.17894
#
# Compressibility (1/GPa) = 0.02963234
#
# Stress axis : x y z
#
# Youngs Moduli (GPa) = 125.35513 25.66788 117.32135
#
# Poissons Ratio (x) = 0.16867 0.03720
# Poissons Ratio (y) = 0.82374 0.70693
# Poissons Ratio (z) = 0.03975 0.15466
#
# Static dielectric constant tensor:
#      x y z
#    x 2.110010 -0.071690 -0.046300 
#    y -0.071690 2.151930 -0.114250 
#    z -0.046300 -0.114250 2.190380 
# 
# From -- ./inp_files/258024.got.cif
#   From: 2010.05.17/outbox.cif.g08.bks.cpg/sg2_130_cif.got.tgz:258024.got - 2010.06.03 11:33:40.
