data_PCOD9077481
_publ_section_title
;
Structure prediction by ZEFSAII (Michael W. Deem and Ramdas Pophale) SiO2 
 PCOD9077481
Probable space group: P -1
;
_chemical_formula_sum "Si O2"
_cell_formula_units_Z 15
_cell_length_a 11.214061
_cell_length_b 11.690931
_cell_length_c 11.682208
_cell_angle_alpha 46.550398
_cell_angle_beta 43.117068
_cell_angle_gamma 62.895431
_cell_volume 756.637947
_symmetry_space_group_name_H-M "P -1"
_symmetry_group_IT_number 2
_symmetry_cell_setting 'triclinic'
loop_
_space_group_symop_operation_xyz
x,y,z
-x,-y,-z
loop_
_atom_site_type_symbol
_atom_site_label
_atom_site_fract_x
_atom_site_fract_y
_atom_site_fract_z
Si Si1 0.314911 0.323589 0.498548
Si Si2 0.768525 0.453805 0.279852
Si Si3 0.698693 0.202516 0.887661
Si Si4 0.000000 0.500000 0.500000
Si Si5 0.514699 0.357466 0.720344
Si Si6 0.883395 0.917133 0.036665
Si Si7 0.901654 0.350691 0.019161
Si Si8 0.435009 0.664524 0.887257
O O1 0.421881 0.477668 0.372387
O O2 0.267900 0.195745 0.716934
O O3 0.431214 0.269341 0.349784
O O4 0.132870 0.374611 0.542069
O O5 0.627114 0.359757 0.524224
O O6 0.684564 0.614874 0.188693
O O7 0.819016 0.362892 0.194094
O O8 0.942443 0.507923 0.192537
O O9 0.846184 0.352216 0.682497
O O10 0.568892 0.222012 0.859011
O O11 0.588858 0.222067 0.067592
O O12 0.795482 0.044603 0.934785
O O13 0.010638 0.809508 0.954459
O O14 0.000000 0.000000 0.000000
O O15 0.755513 0.371523 0.012226
O O16 0.500000 0.500000 0.000000
#
# Coordination Sequence:
#
# PCOD9077481 Si02
#       8
#     2   2   2   1   2   2   2   2
#     4  11  21  35  59  91 123 161 199 246 313 370
#     4  10  21  39  66  88 120 162 218 258 295 356
#     4  11  23  38  61  93 127 159 204 257 316 371
#     4  10  18  34  60  84 118 156 198 248 300 366
#     4  10  20  39  65  92 111 162 216 263 298 357
#     4  12  23  40  59  91 132 167 194 248 331 384
#     4  11  22  38  61  92 123 165 204 254 307 370
#     4  12  21  35  61  95 127 150 209 263 307 361
#
# _framework density 19.824541
#
# number of rings (size 3 to 8) (size 9 to 14) (size 15 to 20)
#    0.000    1.067    8.000    0.000    1.867    0.533 
#    0.000    1.333    0.000    0.000    0.000    0.000 
#    0.000    0.000    0.000    0.000    0.000    0.000 
#
# Total GULP energy -83550.259368 kJ/mol
# GULP energy per Si atom -5570.017291 kJ/mol
# Density = 1.977942 g / cm^3
# Si number density = 19.824541 Si / 1000 Ang^3
#
#
#
# Elastic Constant Matrix: (Units=GPa)
#
#
# Indices 1 2 3 4 5 6 
#
# 1 108.8502 35.5091 27.3800 7.5915 12.5508 -25.3852
# 2 35.5091 118.0356 41.4791 20.5058 22.2663 -19.2956
# 3 27.3800 41.4791 58.7073 15.7072 8.6832 -16.6438
# 4 7.5915 20.5058 15.7072 34.8352 0.7574 9.3838
# 5 12.5508 22.2663 8.6832 0.7574 21.2842 -5.0245
# 6 -25.3852 -19.2956 -16.6438 9.3838 -5.0245 27.7858
#
#
#
# Elastic Compliance Matrix: (Units=1/GPa)
#
#
# Indices 1 2 3 4 5 6 
#
# 1 0.013307 0.000293 -0.000054 -0.006646 -0.004653 0.013732
# 2 0.000293 0.015230 -0.003809 -0.009656 -0.011926 0.009666
# 3 -0.000054 -0.003809 0.030740 -0.017197 -0.002957 0.020992
# 4 -0.006646 -0.009656 -0.017197 0.054037 0.009774 -0.039560
# 5 -0.004653 -0.011926 -0.002957 0.009774 0.061532 -0.006478
# 6 0.013732 0.009666 0.020992 -0.039560 -0.006478 0.080011
#
#
# Mechanical properties :
#
#
# Convention : Reuss Voigt Hill
#
# Bulk Modulus (GPa) = 19.18043 54.92550 37.05296
# Shear Modulus (GPa) = 17.89700 28.86271 23.37986
#
# Velocity S-wave (km/s) = 3.00787 3.81978 3.43788
# Velocity P-wave (km/s) = 4.66467 6.87170 5.87279
#
# Compressibility (1/GPa) = 0.05213649
#
# Stress axis : x y z
#
# Youngs Moduli (GPa) = 75.14591 65.66030 32.53114
#
# Poissons Ratio (x) = -0.01922 0.00175
# Poissons Ratio (y) = -0.02199 0.12392
# Poissons Ratio (z) = 0.00404 0.25012
#
# Static dielectric constant tensor:
#      x y z
#    x 1.735230 0.006090 -0.000330 
#    y 0.006090 1.693480 0.016230 
#    z -0.000330 0.016230 1.724750 
# 
# From -- ./inp_files/211650.got.cif
#   From: 2010.05.17/outbox.cif.g08.bks.cpg/sg2_106_cif.got.tgz:211650.got - 2010.06.03 11:33:40.
