data_PCOD9077284
_publ_section_title
;
Structure prediction by ZEFSAII (Michael W. Deem and Ramdas Pophale) SiO2 
 PCOD9077284
Probable space group: P -1
;
_chemical_formula_sum "Si O2"
_cell_formula_units_Z 16
_cell_length_a 9.416597
_cell_length_b 17.809437
_cell_length_c 25.196081
_cell_angle_alpha 14.245065
_cell_angle_beta 131.250581
_cell_angle_gamma 126.106904
_cell_volume 752.892189
_symmetry_space_group_name_H-M "P -1"
_symmetry_group_IT_number 2
_symmetry_cell_setting 'triclinic'
loop_
_space_group_symop_operation_xyz
x,y,z
-x,-y,-z
loop_
_atom_site_type_symbol
_atom_site_label
_atom_site_fract_x
_atom_site_fract_y
_atom_site_fract_z
Si Si1 0.153696 0.687773 0.047212
Si Si2 0.938750 0.607314 0.152587
Si Si3 0.067532 0.984217 0.390497
Si Si4 0.740182 0.534885 0.886578
Si Si5 0.450759 0.240600 0.872725
Si Si6 0.985510 0.420144 0.489930
Si Si7 0.533406 0.903963 0.902281
Si Si8 0.844927 0.544863 0.590331
O O1 0.158767 0.496376 0.125491
O O2 0.369805 0.602575 0.184094
O O3 0.999857 0.668907 0.066951
O O4 0.105605 0.053537 0.767676
O O5 0.735274 0.828093 0.972472
O O6 0.106467 0.631529 0.220814
O O7 0.922735 0.242352 0.401600
O O8 0.255704 0.112525 0.337521
O O9 0.009509 0.747051 0.496584
O O10 0.881161 0.289714 0.129712
O O11 0.556374 0.394501 0.928051
O O12 0.436638 0.085795 0.033683
O O13 0.244312 0.487474 0.641868
O O14 0.500000 0.000000 0.000000
O O15 0.093138 0.607270 0.347402
O O16 0.000000 0.500000 0.500000
O O17 0.370915 0.219491 0.627487
#
# Coordination Sequence:
#
# PCOD9077284 Si02
#       8
#     2   2   2   2   2   2   2   2
#     4  11  22  36  55  88 112 141 181 234 271 323
#     4  10  21  34  55  81 119 145 172 226 287 318
#     4   8  16  34  58  78 107 153 178 227 265 323
#     4   9  17  34  60  79 106 147 196 216 263 319
#     4  11  20  36  60  82 102 141 192 226 267 326
#     4  12  20  37  61  81 106 142 186 230 268 320
#     4  10  18  34  58  79 108 147 184 225 263 329
#     4   9  18  37  55  79 110 145 180 225 268 320
#
# _framework density 21.251382
#
# number of rings (size 3 to 8) (size 9 to 14) (size 15 to 20)
#    0.750    1.250    6.250    0.000    0.000    2.000 
#    0.000    2.500    0.000    9.750    0.000    0.000 
#    0.000    0.000    0.000    0.000    0.000    0.000 
#
# Total GULP energy -89078.355086 kJ/mol
# GULP energy per Si atom -5567.397193 kJ/mol
# Density = 2.120301 g / cm^3
# Si number density = 21.251382 Si / 1000 Ang^3
#
#
#
# Elastic Constant Matrix: (Units=GPa)
#
#
# Indices 1 2 3 4 5 6 
#
# 1 105.1529 14.8882 23.5387 12.4054 13.5118 -11.8900
# 2 14.8882 71.1134 21.8959 16.6242 5.2276 6.7428
# 3 23.5387 21.8959 72.3248 15.2625 18.2552 8.3929
# 4 12.4054 16.6242 15.2625 28.5793 9.0892 -1.0425
# 5 13.5118 5.2276 18.2552 9.0892 30.2723 2.7489
# 6 -11.8900 6.7428 8.3929 -1.0425 2.7489 21.8543
#
#
#
# Elastic Compliance Matrix: (Units=1/GPa)
#
#
# Indices 1 2 3 4 5 6 
#
# 1 0.012081 -0.001872 -0.003280 -0.000933 -0.003612 0.008820
# 2 -0.001872 0.017858 -0.002843 -0.009170 0.002784 -0.006224
# 3 -0.003280 -0.002843 0.019700 -0.005300 -0.007628 -0.007766
# 4 -0.000933 -0.009170 -0.005300 0.046895 -0.009592 0.007801
# 5 -0.003612 0.002784 -0.007628 -0.009592 0.042158 -0.005655
# 6 0.008820 -0.006224 -0.007766 0.007801 -0.005655 0.056542
#
#
# Mechanical properties :
#
#
# Convention : Reuss Voigt Hill
#
# Bulk Modulus (GPa) = 29.71804 41.02629 35.37216
# Shear Modulus (GPa) = 22.47793 28.69239 25.58516
#
# Velocity S-wave (km/s) = 3.25578 3.67841 3.47353
# Velocity P-wave (km/s) = 5.30546 6.11458 5.72434
#
# Compressibility (1/GPa) = 0.03364960
#
# Stress axis : x y z
#
# Youngs Moduli (GPa) = 82.77704 55.99615 50.76207
#
# Poissons Ratio (x) = 0.10482 0.16650
# Poissons Ratio (y) = 0.15495 0.14430
# Poissons Ratio (z) = 0.27151 0.15918
#
# Static dielectric constant tensor:
#      x y z
#    x 1.800360 0.003380 -0.050800 
#    y 0.003380 1.904390 -0.002850 
#    z -0.050800 -0.002850 1.815960 
# 
# From -- ./inp_files/196962.got.cif
#   From: 2010.05.17/outbox.cif.g08.bks.cpg/sg2_99_cif.got.tgz:196962.got - 2010.06.03 11:33:40.
