data_PCOD9077871
_publ_section_title
;
Structure prediction by ZEFSAII (Michael W. Deem and Ramdas Pophale) SiO2 
 PCOD9077871
Probable space group: P -1
;
_chemical_formula_sum "Si O2"
_cell_formula_units_Z 14
_cell_length_a 14.288987
_cell_length_b 8.105791
_cell_length_c 7.679992
_cell_angle_alpha 63.422638
_cell_angle_beta 58.941106
_cell_angle_gamma 43.463658
_cell_volume 520.143417
_symmetry_space_group_name_H-M "P -1"
_symmetry_group_IT_number 2
_symmetry_cell_setting 'triclinic'
loop_
_space_group_symop_operation_xyz
x,y,z
-x,-y,-z
loop_
_atom_site_type_symbol
_atom_site_label
_atom_site_fract_x
_atom_site_fract_y
_atom_site_fract_z
Si Si1 0.873782 0.853945 0.392758
Si Si2 0.754893 0.937029 0.852971
Si Si3 0.516168 0.206309 0.189225
Si Si4 0.946147 0.036370 0.735164
Si Si5 0.393303 0.603212 0.720882
Si Si6 0.809643 0.472960 0.131350
Si Si7 0.727140 0.705299 0.443977
O O1 0.024807 0.793311 0.293968
O O2 0.752238 0.120071 0.304025
O O3 0.806340 0.893497 0.628454
O O4 0.863758 0.674383 0.384325
O O5 0.804140 0.071592 0.838428
O O6 0.823467 0.673101 0.983082
O O7 0.588122 0.111492 0.976760
O O8 0.529803 0.383808 0.196199
O O9 0.618821 0.960511 0.325491
O O10 0.640490 0.708057 0.682242
O O11 0.043735 0.798278 0.875529
O O12 0.000000 0.000000 0.500000
O O13 0.500000 0.500000 0.500000
O O14 0.320048 0.482967 0.865445
O O15 0.764449 0.510459 0.360900
#
# Coordination Sequence:
#
# PCOD9077871 Si02
#       7
#     2   2   2   2   2   2   2
#     4   9  20  35  56  78 107 147 176 218 271 316
#     4  10  20  36  54  82 110 137 181 226 265 306
#     4   9  18  32  54  79 110 142 173 220 264 320
#     4   9  19  38  57  75 107 146 179 218 269 317
#     4  10  18  35  55  77 107 147 180 206 268 328
#     4  10  19  34  59  81 104 138 184 225 258 316
#     4   9  17  33  53  81 106 141 180 211 270 321
#
# _framework density 26.915652000000001
#
# number of rings (size 3 to 8) (size 9 to 14) (size 15 to 20)
#    0.000    2.571    1.429    0.429    2.000    0.571 
#    0.000   20.714    0.000    0.000    0.000    0.000 
#    0.000    0.000    0.000    0.000    0.000    0.000 
#
# Total GULP energy -78319.875584 kJ/mol
# GULP energy per Si atom -5594.276827 kJ/mol
# Density = 2.685439 g / cm^3
# Si number density = 26.915652 Si / 1000 Ang^3
#
#
#
# Elastic Constant Matrix: (Units=GPa)
#
#
# Indices 1 2 3 4 5 6 
#
# 1 114.2591 21.5979 28.5975 -18.5247 -25.9809 4.0940
# 2 21.5979 65.8485 20.6273 -12.9743 1.6867 -0.6076
# 3 28.5975 20.6273 104.4120 1.0674 -2.1954 -1.9183
# 4 -18.5247 -12.9743 1.0674 34.3621 3.1205 0.4667
# 5 -25.9809 1.6867 -2.1954 3.1205 37.9669 -4.3469
# 6 4.0940 -0.6076 -1.9183 0.4667 -4.3469 26.3002
#
#
#
# Elastic Compliance Matrix: (Units=1/GPa)
#
#
# Indices 1 2 3 4 5 6 
#
# 1 0.012656 -0.002420 -0.002891 0.005281 0.008053 -0.001000
# 2 -0.002420 0.018189 -0.003058 0.005943 -0.003135 -0.000050
# 3 -0.002891 -0.003058 0.011007 -0.002994 -0.000834 0.001097
# 4 0.005281 0.005943 -0.002994 0.034289 0.000189 -0.001480
# 5 0.008053 -0.003135 -0.000834 0.000189 0.032378 0.003961
# 6 -0.001000 -0.000050 0.001097 -0.001480 0.003961 0.038938
#
#
# Mechanical properties :
#
#
# Convention : Reuss Voigt Hill
#
# Bulk Modulus (GPa) = 39.82065 47.35168 43.58617
# Shear Modulus (GPa) = 28.97413 33.97230 31.47322
#
# Velocity S-wave (km/s) = 3.28453 3.55657 3.42325
# Velocity P-wave (km/s) = 5.40471 5.87336 5.64390
#
# Compressibility (1/GPa) = 0.02511260
#
# Stress axis : x y z
#
# Youngs Moduli (GPa) = 79.01190 54.97802 90.85365
#
# Poissons Ratio (x) = 0.13307 0.26269
# Poissons Ratio (y) = 0.19124 0.27784
# Poissons Ratio (z) = 0.22845 0.16813
#
# Static dielectric constant tensor:
#      x y z
#    x 2.055460 0.015680 0.007530 
#    y 0.015680 2.125520 -0.046500 
#    z 0.007530 -0.046500 2.135640 
# 
# From -- ./inp_files/325557.got.cif
#   From: 2010.05.17/outbox.cif.g08.bks.cpg/sg2_163_cif.got.tgz:325557.got - 2010.06.03 11:33:40.
