data_PCOD9077542
_publ_section_title
;
Structure prediction by ZEFSAII (Michael W. Deem and Ramdas Pophale) SiO2 
 PCOD9077542
Probable space group: P -1
;
_chemical_formula_sum "Si O2"
_cell_formula_units_Z 16
_cell_length_a 15.559283
_cell_length_b 22.552988
_cell_length_c 6.839192
_cell_angle_alpha 109.074347
_cell_angle_beta 55.605824
_cell_angle_gamma 156.852879
_cell_volume 626.354558
_symmetry_space_group_name_H-M "P -1"
_symmetry_group_IT_number 2
_symmetry_cell_setting 'triclinic'
loop_
_space_group_symop_operation_xyz
x,y,z
-x,-y,-z
loop_
_atom_site_type_symbol
_atom_site_label
_atom_site_fract_x
_atom_site_fract_y
_atom_site_fract_z
Si Si1 0.714534 0.878466 0.648811
Si Si2 0.596098 0.381202 0.576589
Si Si3 0.409130 0.730901 0.285190
Si Si4 0.880486 0.298181 0.321024
Si Si5 0.945377 0.780647 0.103224
Si Si6 0.505619 0.985780 0.201518
Si Si7 0.982758 0.096505 0.194523
Si Si8 0.389287 0.535293 0.691667
O O1 0.541452 0.737120 0.557486
O O2 0.842757 0.009122 0.494219
O O3 0.489208 0.770021 0.997342
O O4 0.000000 0.000000 0.500000
O O5 0.753927 0.420384 0.558383
O O6 0.748411 0.523468 0.407235
O O7 0.316224 0.252852 0.921291
O O8 0.236996 0.697587 0.520788
O O9 0.745762 0.926526 0.169424
O O10 0.659047 0.131831 0.277434
O O11 0.817116 0.222486 0.517423
O O12 0.232780 0.493049 0.001435
O O13 0.752574 0.728727 0.390111
O O14 0.736949 0.601642 0.210961
O O15 0.266480 0.943756 0.966022
O O16 0.986433 0.819613 0.863506
O O17 0.500000 0.000000 0.000000
#
# Coordination Sequence:
#
# PCOD9077542 Si02
#       8
#     2   2   2   2   2   2   2   2
#     4  11  19  33  58  89 120 160 206 261 304 352
#     4  10  20  35  58  86 122 161 203 254 304 362
#     4  11  20  35  56  90 120 157 204 255 308 357
#     4  10  22  40  59  90 129 161 201 255 310 367
#     4   9  18  39  66  92 119 164 204 251 314 367
#     4  10  21  40  67  91 122 159 209 262 303 358
#     4  10  18  34  60  90 119 149 208 260 309 350
#     4   9  20  39  62  84 130 169 198 242 312 382
#
# _framework density 25.544637000000002
#
# number of rings (size 3 to 8) (size 9 to 14) (size 15 to 20)
#    0.000    2.000    3.750    0.750    0.000    2.500 
#    0.000    3.750    0.000    0.000    0.000    0.000 
#    0.000    0.000    0.000    0.000    0.000    0.000 
#
# Total GULP energy -89462.832591 kJ/mol
# GULP energy per Si atom -5591.427037 kJ/mol
# Density = 2.548650 g / cm^3
# Si number density = 25.544637 Si / 1000 Ang^3
#
#
#
# Elastic Constant Matrix: (Units=GPa)
#
#
# Indices 1 2 3 4 5 6 
#
# 1 214.7450 37.4572 104.6154 4.7158 31.6389 -18.5602
# 2 37.4572 37.8862 14.0658 6.4523 14.0313 2.5797
# 3 104.6154 14.0658 175.3289 -0.3316 11.0032 2.8488
# 4 4.7158 6.4523 -0.3316 33.7580 1.1377 4.2522
# 5 31.6389 14.0313 11.0032 1.1377 67.1977 -2.3354
# 6 -18.5602 2.5797 2.8488 4.2522 -2.3354 37.7538
#
#
#
# Elastic Compliance Matrix: (Units=1/GPa)
#
#
# Indices 1 2 3 4 5 6 
#
# 1 0.008808 -0.006529 -0.004701 -0.000608 -0.001827 0.005086
# 2 -0.006529 0.035247 0.001438 -0.004968 -0.004627 -0.005453
# 3 -0.004701 0.001438 0.008419 0.000843 0.000412 -0.003114
# 4 -0.000608 -0.004968 0.000843 0.031087 0.000538 -0.003491
# 5 -0.001827 -0.004627 0.000412 0.000538 0.016643 0.000356
# 6 0.005086 -0.005453 -0.003114 -0.003491 0.000356 0.030011
#
#
# Mechanical properties :
#
#
# Convention : Reuss Voigt Hill
#
# Bulk Modulus (GPa) = 30.40449 82.24856 56.32652
# Shear Modulus (GPa) = 31.10181 45.86333 38.48257
#
# Velocity S-wave (km/s) = 3.49312 4.24184 3.88556
# Velocity P-wave (km/s) = 5.31014 7.50058 6.49832
#
# Compressibility (1/GPa) = 0.03288988
#
# Stress axis : x y z
#
# Youngs Moduli (GPa) = 113.53868 28.37120 118.77364
#
# Poissons Ratio (x) = 0.18523 0.55832
# Poissons Ratio (y) = 0.74128 -0.17074
# Poissons Ratio (z) = 0.53371 -0.04078
#
# Static dielectric constant tensor:
#      x y z
#    x 2.055930 -0.058370 -0.005580 
#    y -0.058370 2.150480 -0.033950 
#    z -0.005580 -0.033950 2.020260 
# 
# From -- ./inp_files/82707.got.cif
#   From: 2010.05.17/outbox.cif.g08.bks.cpg/sg2_42_cif.got.tgz:82707.got - 2010.06.03 11:33:40.
