data_PCOD9077521
_publ_section_title
;
Structure prediction by ZEFSAII (Michael W. Deem and Ramdas Pophale) SiO2 
 PCOD9077521
Probable space group: P -1
;
_chemical_formula_sum "Si O2"
_cell_formula_units_Z 16
_cell_length_a 16.051747
_cell_length_b 11.214619
_cell_length_c 13.211721
_cell_angle_alpha 147.532846
_cell_angle_beta 48.038527
_cell_angle_gamma 144.401704
_cell_volume 742.017803
_symmetry_space_group_name_H-M "P -1"
_symmetry_group_IT_number 2
_symmetry_cell_setting 'triclinic'
loop_
_space_group_symop_operation_xyz
x,y,z
-x,-y,-z
loop_
_atom_site_type_symbol
_atom_site_label
_atom_site_fract_x
_atom_site_fract_y
_atom_site_fract_z
Si Si1 0.402906 0.185212 0.132550
Si Si2 0.006638 0.366035 0.546532
Si Si3 0.429597 0.711889 0.734954
Si Si4 0.380640 0.321717 0.812071
Si Si5 0.326144 0.949847 0.390446
Si Si6 0.247574 0.414322 0.491454
Si Si7 0.530760 0.949249 0.326362
Si Si8 0.929349 0.078339 0.190876
O O1 0.515657 0.335263 0.241749
O O2 0.487654 0.356679 0.086079
O O3 0.280885 0.218481 0.272002
O O4 0.372350 0.887065 0.934669
O O5 0.094119 0.329791 0.530902
O O6 0.081523 0.692458 0.689716
O O7 0.843008 0.222867 0.608514
O O8 0.005025 0.225627 0.341862
O O9 0.300035 0.445464 0.586319
O O10 0.572695 0.891904 0.676391
O O11 0.405962 0.209875 0.811922
O O12 0.370496 0.158910 0.600237
O O13 0.222237 0.217497 0.871194
O O14 0.380444 0.779457 0.267644
O O15 0.357464 0.741411 0.594484
O O16 0.500000 0.000000 0.500000
O O17 0.000000 0.000000 0.000000
#
# Coordination Sequence:
#
# PCOD9077521 Si02
#       8
#     2   2   2   2   2   2   2   2
#     4  11  22  37  64  85 113 151 197 250 294 333
#     4  10  22  37  58  86 121 158 188 233 289 350
#     4  10  23  40  60  88 111 147 209 245 286 344
#     4  10  18  34  60  88 116 150 194 237 288 348
#     4   9  19  36  59  83 118 152 186 237 286 344
#     4  11  20  38  61  83 120 155 186 246 291 343
#     4   9  15  31  55  83 115 137 186 234 277 340
#     4  10  22  36  55  87 127 159 189 226 290 358
#
# _framework density 21.562823999999999
#
# number of rings (size 3 to 8) (size 9 to 14) (size 15 to 20)
#    0.000    2.000    5.000    0.375    3.500    1.000 
#    0.000    3.125    0.000    1.500    0.000    0.000 
#    0.000    0.000    0.000    0.000    0.000    0.000 
#
# Total GULP energy -89193.472309 kJ/mol
# GULP energy per Si atom -5574.592019 kJ/mol
# Density = 2.151375 g / cm^3
# Si number density = 21.562824 Si / 1000 Ang^3
#
#
#
# Elastic Constant Matrix: (Units=GPa)
#
#
# Indices 1 2 3 4 5 6 
#
# 1 109.0507 34.0415 24.5313 -11.8344 -9.0172 20.9335
# 2 34.0415 42.1729 8.5258 -11.1653 2.3791 12.8789
# 3 24.5313 8.5258 75.9164 -11.2742 5.8109 9.1177
# 4 -11.8344 -11.1653 -11.2742 27.1006 -6.1819 -2.4523
# 5 -9.0172 2.3791 5.8109 -6.1819 20.2706 -3.2044
# 6 20.9335 12.8789 9.1177 -2.4523 -3.2044 33.2077
#
#
#
# Elastic Compliance Matrix: (Units=1/GPa)
#
#
# Indices 1 2 3 4 5 6 
#
# 1 0.014764 -0.009980 -0.003544 0.002609 0.009013 -0.003401
# 2 -0.009980 0.036849 0.002087 0.009092 -0.007961 -0.008670
# 3 -0.003544 0.002087 0.015495 0.004240 -0.005452 -0.003043
# 4 0.002609 0.009092 0.004240 0.046300 0.012732 -0.001687
# 5 0.009013 -0.007961 -0.005452 0.012732 0.060622 0.005692
# 6 -0.003401 -0.008670 -0.003043 -0.001687 0.005692 0.036880
#
#
# Mechanical properties :
#
#
# Convention : Reuss Voigt Hill
#
# Bulk Modulus (GPa) = 22.60609 40.14856 31.37732
# Shear Modulus (GPa) = 20.11844 26.78523 23.45183
#
# Velocity S-wave (km/s) = 3.05784 3.52830 3.30146
# Velocity P-wave (km/s) = 4.79310 5.93787 5.39593
#
# Compressibility (1/GPa) = 0.04423587
#
# Stress axis : x y z
#
# Youngs Moduli (GPa) = 67.73300 27.13756 64.53487
#
# Poissons Ratio (x) = 0.27083 0.22870
# Poissons Ratio (y) = 0.67596 -0.13470
# Poissons Ratio (z) = 0.24004 -0.05664
#
# Static dielectric constant tensor:
#      x y z
#    x 1.850970 -0.001800 -0.050350 
#    y -0.001800 1.780920 0.014460 
#    z -0.050350 0.014460 1.916240 
# 
# From -- ./inp_files/532154.got.cif
#   From: 2010.05.17/outbox.cif.g08.bks.cpg/sg2_267_cif.got.tgz:532154.got - 2010.06.03 11:33:40.
