data_PCOD9077285
_publ_section_title
;
Structure prediction by ZEFSAII (Michael W. Deem and Ramdas Pophale) SiO2 
 PCOD9077285
Probable space group: P -1
;
_chemical_formula_sum "Si O2"
_cell_formula_units_Z 12
_cell_length_a 7.073560
_cell_length_b 9.682454
_cell_length_c 12.281618
_cell_angle_alpha 59.547803
_cell_angle_beta 140.705342
_cell_angle_gamma 113.735208
_cell_volume 459.146315
_symmetry_space_group_name_H-M "P -1"
_symmetry_group_IT_number 2
_symmetry_cell_setting 'triclinic'
loop_
_space_group_symop_operation_xyz
x,y,z
-x,-y,-z
loop_
_atom_site_type_symbol
_atom_site_label
_atom_site_fract_x
_atom_site_fract_y
_atom_site_fract_z
Si Si1 0.500493 0.109977 0.730640
Si Si2 0.119322 0.266542 0.339360
Si Si3 0.610864 0.392088 0.358502
Si Si4 0.270583 0.726039 0.038656
Si Si5 0.654038 0.750641 0.891976
Si Si6 0.939172 0.387782 0.719470
O O1 0.193121 0.147176 0.517549
O O2 0.525459 0.144571 0.856853
O O3 0.720898 0.246505 0.722567
O O4 0.616500 0.936922 0.821448
O O5 0.394118 0.266066 0.376719
O O6 0.137592 0.445550 0.324907
O O7 0.832073 0.240136 0.144621
O O8 0.624929 0.320961 0.271760
O O9 0.884331 0.402041 0.561038
O O10 0.433595 0.557689 0.198449
O O11 0.951412 0.719184 0.963917
O O12 0.736888 0.661329 0.075778
#
# Coordination Sequence:
#
# PCOD9077285 Si02
#       6
#     2   2   2   2   2   2
#     4  10  18  22  27  38  43  43  53  65  66  67
#     4  10  15  22  32  34  39  49  57  56  64  76
#     4  10  15  22  32  34  39  49  57  56  64  76
#     4  10  15  23  31  34  39  51  54  57  65  76
#     4  10  18  22  27  38  43  43  53  65  66  67
#     4  10  15  23  31  34  39  51  54  57  65  76
#
# _framework density 26.135458
#
# number of rings (size 3 to 8) (size 9 to 14) (size 15 to 20)
#    0.000    2.000    6.667    4.000    0.000    7.333 
#    0.000    0.000    0.000    0.000    0.000    0.000 
#    0.000    0.000    0.000    0.000    0.000    0.000 
#
# Total GULP energy -67119.157523 kJ/mol
# GULP energy per Si atom -5593.263127 kJ/mol
# Density = 2.607597 g / cm^3
# Si number density = 26.135458 Si / 1000 Ang^3
#
#
#
# Elastic Constant Matrix: (Units=GPa)
#
#
# Indices 1 2 3 4 5 6 
#
# 1 45.3117 27.2543 49.4021 14.1677 18.9089 23.8919
# 2 27.2543 149.7650 63.0756 6.5413 -38.8916 -25.7874
# 3 49.4021 63.0756 273.2304 31.0363 -75.6018 -37.5170
# 4 14.1677 6.5413 31.0363 38.2738 -27.3940 -9.1749
# 5 18.9089 -38.8916 -75.6018 -27.3940 24.8359 -10.5430
# 6 23.8919 -25.7874 -37.5170 -9.1749 -10.5430 14.8141
#
#
#
# Elastic Compliance Matrix: (Units=1/GPa)
#
#
# Indices 1 2 3 4 5 6 
#
# 1 0.007987 0.001981 0.001860 0.005745 0.012215 0.007529
# 2 0.001981 0.006444 -0.002661 -0.002190 -0.002816 -0.002078
# 3 0.001860 -0.002661 0.003564 -0.005265 -0.001911 -0.003227
# 4 0.005745 -0.002190 -0.005265 0.025125 -0.001037 -0.011588
# 5 0.012215 -0.002816 -0.001911 -0.001037 0.009777 -0.023126
# 6 0.007529 -0.002078 -0.003227 -0.011588 -0.023126 0.019937
#
#
# Mechanical properties :
#
#
# Convention : Reuss Voigt Hill
#
# Bulk Modulus (GPa) = 49.13130 83.08567 66.10848
# Shear Modulus (GPa) = 64.71635 37.48974 51.10305
#
# Velocity S-wave (km/s) = 4.98153 3.79151 4.42669
# Velocity P-wave (km/s) = 7.20604 7.14330 7.17474
#
# Compressibility (1/GPa) = 0.02035363
#
# Stress axis : x y z
#
# Youngs Moduli (GPa) = 125.20994 155.17703 280.55936
#
# Poissons Ratio (x) = -0.30739 -0.52180
# Poissons Ratio (y) = -0.24803 0.74670
# Poissons Ratio (z) = -0.23287 0.41300
#
# Static dielectric constant tensor:
#      x y z
#    x 2.109330 -0.007050 -0.019300 
#    y -0.007050 1.973590 0.097740 
#    z -0.019300 0.097740 2.165110 
# 
# From -- ./inp_files/338558.got.cif
#   From: 2010.05.17/outbox.cif.g08.bks.cpg/sg2_170_cif.got.tgz:338558.got - 2010.06.03 11:33:40.
