data_PCOD9077557
_publ_section_title
;
Structure prediction by ZEFSAII (Michael W. Deem and Ramdas Pophale) SiO2 
 PCOD9077557
Probable space group: P -1
;
_chemical_formula_sum "Si O2"
_cell_formula_units_Z 16
_cell_length_a 14.954726
_cell_length_b 19.143179
_cell_length_c 8.534053
_cell_angle_alpha 133.851255
_cell_angle_beta 137.866759
_cell_angle_gamma 29.672579
_cell_volume 802.693318
_symmetry_space_group_name_H-M "P -1"
_symmetry_group_IT_number 2
_symmetry_cell_setting 'triclinic'
loop_
_space_group_symop_operation_xyz
x,y,z
-x,-y,-z
loop_
_atom_site_type_symbol
_atom_site_label
_atom_site_fract_x
_atom_site_fract_y
_atom_site_fract_z
Si Si1 0.074696 0.186082 0.557719
Si Si2 0.320097 0.543498 0.418193
Si Si3 0.849706 0.564955 0.053498
Si Si4 0.563356 0.569920 0.252118
Si Si5 0.579086 0.857739 0.005501
Si Si6 0.393735 0.861866 0.462312
Si Si7 0.005427 0.637485 0.579058
Si Si8 0.624176 0.891845 0.639289
O O1 0.866388 0.288156 0.529392
O O2 0.232253 0.173064 0.828618
O O3 0.034695 0.266162 0.468879
O O4 0.184102 0.026067 0.428535
O O5 0.500000 0.500000 0.500000
O O6 0.388105 0.464893 0.553533
O O7 0.224436 0.504339 0.140733
O O8 0.662346 0.731605 0.032304
O O9 0.949533 0.560340 0.325333
O O10 0.000000 0.500000 0.000000
O O11 0.409426 0.738427 0.288410
O O12 0.763686 0.486440 0.289990
O O13 0.500000 0.500000 0.000000
O O14 0.426666 0.007785 0.130174
O O15 0.489785 0.850648 0.730912
O O16 0.529990 0.838302 0.471869
O O17 0.852884 0.755296 0.692370
O O18 0.500000 0.000000 0.500000
#
# Coordination Sequence:
#
# PCOD9077557 Si02
#       8
#     2   2   2   2   2   2   2   2
#     4   9  18  35  62  88 119 157 202 245 313 362
#     4  11  23  41  63  89 123 164 216 256 295 372
#     4  11  16  35  68  87 115 167 207 246 305 369
#     4  11  25  45  58  85 132 168 201 256 319 365
#     4  10  18  34  60  94 122 154 195 258 311 358
#     4  11  21  38  64  88 124 164 200 251 319 367
#     4  10  20  38  64  89 125 160 208 255 304 370
#     4  11  19  34  60  98 127 145 204 266 302 367
#
# _framework density 19.932894000000001
#
# number of rings (size 3 to 8) (size 9 to 14) (size 15 to 20)
#    0.000    1.500    8.750    1.500    0.000    1.500 
#    4.500    4.375    0.000    0.000    0.000    0.000 
#    0.000    0.000    0.000    0.000    0.000    0.000 
#
# Total GULP energy -89298.388004 kJ/mol
# GULP energy per Si atom -5581.149250 kJ/mol
# Density = 1.988753 g / cm^3
# Si number density = 19.932894 Si / 1000 Ang^3
#
#
#
# Elastic Constant Matrix: (Units=GPa)
#
#
# Indices 1 2 3 4 5 6 
#
# 1 73.9264 41.5153 21.7382 10.9784 17.8393 -25.1287
# 2 41.5153 125.7930 29.3605 30.7690 23.3546 -16.5973
# 3 21.7382 29.3605 76.0034 17.4064 21.4601 0.6932
# 4 10.9784 30.7690 17.4064 24.3432 7.8990 3.0836
# 5 17.8393 23.3546 21.4601 7.8990 23.5119 -1.5225
# 6 -25.1287 -16.5973 0.6932 3.0836 -1.5225 44.7578
#
#
#
# Elastic Compliance Matrix: (Units=1/GPa)
#
#
# Indices 1 2 3 4 5 6 
#
# 1 0.022653 -0.002604 -0.001592 -0.003637 -0.011172 0.011648
# 2 -0.002604 0.014555 0.000891 -0.015993 -0.007614 0.004764
# 3 -0.001592 0.000891 0.019520 -0.009639 -0.014300 -0.000688
# 4 -0.003637 -0.015993 -0.009639 0.070459 0.002957 -0.012577
# 5 -0.011172 -0.007614 -0.014300 0.002957 0.070196 -0.006690
# 6 0.011648 0.004764 -0.000688 -0.012577 -0.006690 0.031298
#
#
# Mechanical properties :
#
#
# Convention : Reuss Voigt Hill
#
# Bulk Modulus (GPa) = 19.95308 51.21676 35.58492
# Shear Modulus (GPa) = 19.84155 30.72986 25.28570
#
# Velocity S-wave (km/s) = 3.15845 3.93066 3.56552
# Velocity P-wave (km/s) = 4.83041 6.80812 5.90269
#
# Compressibility (1/GPa) = 0.05011757
#
# Stress axis : x y z
#
# Youngs Moduli (GPa) = 44.14521 68.70500 51.22999
#
# Poissons Ratio (x) = 0.17891 0.08156
# Poissons Ratio (y) = 0.11495 -0.04565
# Poissons Ratio (z) = 0.07028 -0.06123
#
# Static dielectric constant tensor:
#      x y z
#    x 1.734230 0.019200 -0.033480 
#    y 0.019200 1.733190 -0.000350 
#    z -0.033480 -0.000350 1.721480 
# 
# From -- ./inp_files/319524.got.cif
#   From: 2010.05.17/outbox.cif.g08.bks.cpg/sg2_160_cif.got.tgz:319524.got - 2010.06.03 11:33:40.
