data_PCOD9077913
_publ_section_title
;
Structure prediction by ZEFSAII (Michael W. Deem and Ramdas Pophale) SiO2 
 PCOD9077913
Probable space group: P -1
;
_chemical_formula_sum "Si O2"
_cell_formula_units_Z 14
_cell_length_a 10.717433
_cell_length_b 16.117101
_cell_length_c 8.341234
_cell_angle_alpha 149.875510
_cell_angle_beta 63.482569
_cell_angle_gamma 102.270976
_cell_volume 596.723565
_symmetry_space_group_name_H-M "P -1"
_symmetry_group_IT_number 2
_symmetry_cell_setting 'triclinic'
loop_
_space_group_symop_operation_xyz
x,y,z
-x,-y,-z
loop_
_atom_site_type_symbol
_atom_site_label
_atom_site_fract_x
_atom_site_fract_y
_atom_site_fract_z
Si Si1 0.073258 0.693326 0.209140
Si Si2 0.646831 0.242916 0.880910
Si Si3 0.776449 0.670968 0.330899
Si Si4 0.496649 0.844097 0.621428
Si Si5 0.402981 0.584395 0.447853
Si Si6 0.850228 0.539289 0.552322
Si Si7 0.618067 0.860077 0.050348
O O1 0.175665 0.811431 0.350976
O O2 0.131669 0.541115 0.059222
O O3 0.105086 0.580227 0.835775
O O4 0.891717 0.772043 0.453552
O O5 0.552042 0.404157 0.085021
O O6 0.630012 0.326269 0.208528
O O7 0.545925 0.124722 0.766856
O O8 0.676268 0.727595 0.324047
O O9 0.666027 0.726404 0.642606
O O10 0.423065 0.717861 0.530939
O O11 0.500000 0.000000 0.000000
O O12 0.406148 0.949994 0.697362
O O13 0.263973 0.528342 0.402752
O O14 0.752349 0.746160 0.902591
O O15 0.000000 0.500000 0.500000
#
# Coordination Sequence:
#
# PCOD9077913 Si02
#       7
#     2   2   2   2   2   2   2
#     4   9  16  25  45  67  90 111 140 176 226 253
#     4   9  13  25  41  68  84 112 143 174 211 259
#     4   9  15  25  41  71  92 112 126 181 232 263
#     4  10  15  25  43  69  92 111 137 175 224 267
#     4   9  14  24  44  63  85 113 145 175 209 254
#     4   9  18  31  46  63  83 117 157 182 201 247
#     4   9  17  27  47  67  89 110 145 179 214 261
#
# _framework density 23.461449000000002
#
# number of rings (size 3 to 8) (size 9 to 14) (size 15 to 20)
#    0.000    2.857    4.286    1.714    0.000    0.000 
#    0.000    1.429    0.000    1.714    0.000    0.000 
#    0.000    0.000    0.000    0.000    0.000    0.000 
#
# Total GULP energy -78076.124760 kJ/mol
# GULP energy per Si atom -5576.866054 kJ/mol
# Density = 2.340805 g / cm^3
# Si number density = 23.461449 Si / 1000 Ang^3
#
#
#
# Elastic Constant Matrix: (Units=GPa)
#
#
# Indices 1 2 3 4 5 6 
#
# 1 146.2246 74.4587 42.6173 19.6142 -39.4730 24.8633
# 2 74.4587 144.0700 47.0700 35.3675 -20.0183 30.6893
# 3 42.6173 47.0700 50.6410 21.8773 -10.9959 -9.7643
# 4 19.6142 35.3675 21.8773 46.7641 -8.7321 -3.7816
# 5 -39.4730 -20.0183 -10.9959 -8.7321 38.6527 -6.8154
# 6 24.8633 30.6893 -9.7643 -3.7816 -6.8154 41.5034
#
#
#
# Elastic Compliance Matrix: (Units=1/GPa)
#
#
# Indices 1 2 3 4 5 6 
#
# 1 0.014820 -0.000482 -0.012113 0.000890 0.009937 -0.009658
# 2 -0.000482 0.018302 -0.017116 -0.007221 -0.000696 -0.018043
# 3 -0.012113 -0.017116 0.053775 -0.004814 -0.001400 0.031895
# 4 0.000890 -0.007221 -0.004814 0.030006 0.003818 0.007035
# 5 0.009937 -0.000696 -0.001400 0.003818 0.036216 0.000527
# 6 -0.009658 -0.018043 0.031895 0.007035 0.000527 0.051454
#
#
# Mechanical properties :
#
#
# Convention : Reuss Voigt Hill
#
# Bulk Modulus (GPa) = 36.39650 74.35861 55.37755
# Shear Modulus (GPa) = 18.30473 37.17001 27.73737
#
# Velocity S-wave (km/s) = 2.79624 3.98465 3.44212
# Velocity P-wave (km/s) = 5.09630 7.27548 6.28112
#
# Compressibility (1/GPa) = 0.02747517
#
# Stress axis : x y z
#
# Youngs Moduli (GPa) = 67.47658 54.63906 18.59597
#
# Poissons Ratio (x) = 0.02635 0.22525
# Poissons Ratio (y) = 0.03254 0.31829
# Poissons Ratio (z) = 0.81732 0.93520
#
# Static dielectric constant tensor:
#      x y z
#    x 1.961540 0.005300 0.033410 
#    y 0.005300 1.911550 -0.043680 
#    z 0.033410 -0.043680 1.988400 
# 
# From -- ./inp_files/264207.got.cif
#   From: 2010.05.17/outbox.cif.g08.bks.cpg/sg2_133_cif.got.tgz:264207.got - 2010.06.03 11:33:40.
