data_PCOD9077622
_publ_section_title
;
Structure prediction by ZEFSAII (Michael W. Deem and Ramdas Pophale) SiO2 
 PCOD9077622
Probable space group: P -1
;
_chemical_formula_sum "Si O2"
_cell_formula_units_Z 16
_cell_length_a 11.656267
_cell_length_b 8.765292
_cell_length_c 10.960610
_cell_angle_alpha 128.783232
_cell_angle_beta 50.652127
_cell_angle_gamma 105.432482
_cell_volume 658.918380
_symmetry_space_group_name_H-M "P -1"
_symmetry_group_IT_number 2
_symmetry_cell_setting 'triclinic'
loop_
_space_group_symop_operation_xyz
x,y,z
-x,-y,-z
loop_
_atom_site_type_symbol
_atom_site_label
_atom_site_fract_x
_atom_site_fract_y
_atom_site_fract_z
Si Si1 0.228651 0.606722 0.723597
Si Si2 0.447838 0.793375 0.959622
Si Si3 0.460587 0.793349 0.212732
Si Si4 0.016068 0.189373 0.168545
Si Si5 0.754097 0.723764 0.109997
Si Si6 0.123101 0.726541 0.118768
Si Si7 0.481771 0.247697 0.376312
Si Si8 0.852006 0.020024 0.391511
O O1 0.111731 0.624632 0.701615
O O2 0.134270 0.706038 0.953712
O O3 0.325662 0.392819 0.593829
O O4 0.360396 0.724236 0.658977
O O5 0.504234 0.693152 0.000684
O O6 0.265647 0.822431 0.104853
O O7 0.500263 0.684128 0.742550
O O8 0.530969 0.976415 0.706179
O O9 0.578553 0.723450 0.206267
O O10 0.500000 0.000000 0.000000
O O11 0.179519 0.224196 0.039669
O O12 0.970479 0.133940 0.304463
O O13 0.000000 0.000000 0.000000
O O14 0.843086 0.500734 0.971491
O O15 0.782236 0.888181 0.271610
O O16 0.958720 0.859831 0.327441
O O17 0.285785 0.817793 0.378660
#
# Coordination Sequence:
#
# PCOD9077622 Si02
#       8
#     2   2   2   2   2   2   2   2
#     4  10  18  34  61  91 126 151 201 257 315 358
#     4   9  22  41  63  87 120 171 210 251 299 371
#     4  11  23  39  61  85 129 166 210 247 303 363
#     4  10  20  35  58  89 126 163 190 245 315 371
#     4  11  23  37  63  94 127 159 203 256 317 361
#     4  11  22  38  64  93 124 159 205 257 312 364
#     4   9  19  34  61  92 117 159 207 254 305 365
#     4  11  23  37  63  94 129 157 202 253 317 369
#
# _framework density 24.282218
#
# number of rings (size 3 to 8) (size 9 to 14) (size 15 to 20)
#    0.000    1.750    2.500    3.000    5.250    4.000 
#    0.000    0.000    0.000    1.500    0.000    0.000 
#    0.000    0.000    0.000    0.000    0.000    0.000 
#
# Total GULP energy -89386.813847 kJ/mol
# GULP energy per Si atom -5586.675865 kJ/mol
# Density = 2.422695 g / cm^3
# Si number density = 24.282218 Si / 1000 Ang^3
#
#
#
# Elastic Constant Matrix: (Units=GPa)
#
#
# Indices 1 2 3 4 5 6 
#
# 1 54.4415 -0.8887 11.0470 3.2319 -5.3165 -5.1293
# 2 -0.8887 62.8299 10.1697 -6.2610 -3.8917 -4.1844
# 3 11.0470 10.1697 77.4046 -7.7109 -18.9950 -2.6428
# 4 3.2319 -6.2610 -7.7109 29.7782 -4.5332 -10.1208
# 5 -5.3165 -3.8917 -18.9950 -4.5332 23.9786 -0.5913
# 6 -5.1293 -4.1844 -2.6428 -10.1208 -0.5913 37.4334
#
#
#
# Elastic Compliance Matrix: (Units=1/GPa)
#
#
# Indices 1 2 3 4 5 6 
#
# 1 0.019385 0.000808 -0.002365 -0.001433 0.002340 0.002229
# 2 0.000808 0.016982 -0.000979 0.004830 0.003154 0.003295
# 3 -0.002365 -0.000979 0.018051 0.008163 0.015240 0.003289
# 4 -0.001433 0.004830 0.008163 0.043631 0.015501 0.012961
# 5 0.002340 0.003154 0.015240 0.015501 0.057907 0.006855
# 6 0.002229 0.003295 0.003289 0.012961 0.006855 0.031233
#
#
# Mechanical properties :
#
#
# Convention : Reuss Voigt Hill
#
# Bulk Modulus (GPa) = 20.26547 26.14800 23.20673
# Shear Modulus (GPa) = 23.95677 29.86122 26.90899
#
# Velocity S-wave (km/s) = 3.14442 3.51059 3.33254
# Velocity P-wave (km/s) = 4.64189 5.21767 4.93818
#
# Compressibility (1/GPa) = 0.04934503
#
# Stress axis : x y z
#
# Youngs Moduli (GPa) = 51.58624 58.88604 55.39978
#
# Poissons Ratio (x) = -0.04756 0.13103
# Poissons Ratio (y) = -0.04166 0.05422
# Poissons Ratio (z) = 0.12201 0.05763
#
# Static dielectric constant tensor:
#      x y z
#    x 1.967520 0.005130 0.033160 
#    y 0.005130 1.974600 0.005050 
#    z 0.033160 0.005050 1.994840 
# 
# From -- ./inp_files/200193.got.cif
#   From: 2010.05.17/outbox.cif.g08.bks.cpg/sg2_101_cif.got.tgz:200193.got - 2010.06.03 11:33:40.
