data_PCOD9077458
_publ_section_title
;
Structure prediction by ZEFSAII (Michael W. Deem and Ramdas Pophale) SiO2 
 PCOD9077458
Probable space group: P -1
;
_chemical_formula_sum "Si O2"
_cell_formula_units_Z 14
_cell_length_a 8.403155
_cell_length_b 16.799001
_cell_length_c 17.670603
_cell_angle_alpha 35.863534
_cell_angle_beta 41.551354
_cell_angle_gamma 25.075967
_cell_volume 618.336625
_symmetry_space_group_name_H-M "P -1"
_symmetry_group_IT_number 2
_symmetry_cell_setting 'triclinic'
loop_
_space_group_symop_operation_xyz
x,y,z
-x,-y,-z
loop_
_atom_site_type_symbol
_atom_site_label
_atom_site_fract_x
_atom_site_fract_y
_atom_site_fract_z
Si Si1 0.398765 0.179348 0.942459
Si Si2 0.997306 0.846028 0.415469
Si Si3 0.885024 0.506965 0.323124
Si Si4 0.148938 0.283402 0.117232
Si Si5 0.035252 0.048898 0.367265
Si Si6 0.931936 0.640163 0.351550
Si Si7 0.088011 0.077535 0.785906
O O1 0.135017 0.395588 0.820866
O O2 0.785089 0.091075 0.887335
O O3 0.226132 0.212643 0.057398
O O4 0.500000 0.000000 0.000000
O O5 0.445785 0.673106 0.374327
O O6 0.946906 0.717811 0.567212
O O7 0.834728 0.922433 0.329691
O O8 0.875266 0.018265 0.383519
O O9 0.054430 0.523110 0.318476
O O10 0.906525 0.261863 0.250533
O O11 0.528600 0.125450 0.152581
O O12 0.000000 0.500000 0.000000
O O13 0.483084 0.860287 0.337018
O O14 0.000000 0.000000 0.500000
O O15 0.085995 0.715441 0.269173
O O16 0.000000 0.500000 0.500000
#
# Coordination Sequence:
#
# PCOD9077458 Si02
#       7
#     2   2   2   2   2   2   2
#     4  11  22  40  64  90 127 167 212 260 316 377
#     4   9  17  34  59  88 115 155 205 254 302 356
#     4   9  18  31  58  90 119 153 199 256 307 360
#     4  11  25  42  60  92 130 168 210 258 318 380
#     4  10  23  40  60  83 125 168 206 251 309 370
#     4  10  18  34  59  97 122 148 206 262 306 360
#     4  10  20  38  65  91 123 164 208 262 310 370
#
# _framework density 22.641389
#
# number of rings (size 3 to 8) (size 9 to 14) (size 15 to 20)
#    0.000    2.000    1.429    3.857    4.000    0.000 
#    0.000    7.143    0.000    0.000    0.000    0.000 
#    0.000    0.000    0.000    0.000    0.000    0.000 
#
# Total GULP energy -78284.694538 kJ/mol
# GULP energy per Si atom -5591.763896 kJ/mol
# Density = 2.258986 g / cm^3
# Si number density = 22.641389 Si / 1000 Ang^3
#
#
#
# Elastic Constant Matrix: (Units=GPa)
#
#
# Indices 1 2 3 4 5 6 
#
# 1 146.4416 23.3116 68.3198 -13.2190 -8.4939 23.6098
# 2 23.3116 42.8093 23.8761 -12.9243 -9.8744 15.2322
# 3 68.3198 23.8761 171.4432 -23.0838 -2.4885 14.1304
# 4 -13.2190 -12.9243 -23.0838 35.9213 7.3334 -2.9637
# 5 -8.4939 -9.8744 -2.4885 7.3334 51.5209 -2.9676
# 6 23.6098 15.2322 14.1304 -2.9637 -2.9676 28.5915
#
#
#
# Elastic Compliance Matrix: (Units=1/GPa)
#
#
# Indices 1 2 3 4 5 6 
#
# 1 0.009419 -0.001123 -0.003066 0.000471 0.000804 -0.005532
# 2 -0.001123 0.033802 -0.001830 0.008501 0.004139 -0.014866
# 3 -0.003066 -0.001830 0.007758 0.003390 -0.000968 -0.000077
# 4 0.000471 0.008501 0.003390 0.033601 -0.003110 -0.003434
# 5 0.000804 0.004139 -0.000968 -0.003110 0.020699 -0.000564
# 6 -0.005532 -0.014866 -0.000077 -0.003434 -0.000564 0.047087
#
#
# Mechanical properties :
#
#
# Convention : Reuss Voigt Hill
#
# Bulk Modulus (GPa) = 25.67960 65.74544 45.71252
# Shear Modulus (GPa) = 28.18746 39.55252 33.86999
#
# Velocity S-wave (km/s) = 3.53222 4.18414 3.87192
# Velocity P-wave (km/s) = 5.29168 7.24179 6.34214
#
# Compressibility (1/GPa) = 0.03894142
#
# Stress axis : x y z
#
# Youngs Moduli (GPa) = 106.17047 29.58387 128.89587
#
# Poissons Ratio (x) = 0.03322 0.39518
# Poissons Ratio (y) = 0.11923 0.23588
# Poissons Ratio (z) = 0.32551 0.05414
#
# Static dielectric constant tensor:
#      x y z
#    x 1.841020 -0.008100 -0.008990 
#    y -0.008100 1.877630 -0.012590 
#    z -0.008990 -0.012590 1.826070 
# 
# From -- ./inp_files/205050.got.cif
#   From: 2010.05.17/outbox.cif.g08.bks.cpg/sg2_103_cif.got.tgz:205050.got - 2010.06.03 11:33:40.
