data_PCOD9077441
_publ_section_title
;
Structure prediction by ZEFSAII (Michael W. Deem and Ramdas Pophale) SiO2 
 PCOD9077441
Probable space group: P -1
;
_chemical_formula_sum "Si O2"
_cell_formula_units_Z 16
_cell_length_a 12.041397
_cell_length_b 7.202954
_cell_length_c 18.373569
_cell_angle_alpha 63.607378
_cell_angle_beta 26.062323
_cell_angle_gamma 74.272967
_cell_volume 592.927541
_symmetry_space_group_name_H-M "P -1"
_symmetry_group_IT_number 2
_symmetry_cell_setting 'triclinic'
loop_
_space_group_symop_operation_xyz
x,y,z
-x,-y,-z
loop_
_atom_site_type_symbol
_atom_site_label
_atom_site_fract_x
_atom_site_fract_y
_atom_site_fract_z
Si Si1 0.872230 0.740039 0.128654
Si Si2 0.578798 0.412123 0.685878
Si Si3 0.467351 0.816552 0.465516
Si Si4 0.420859 0.088453 0.956285
Si Si5 0.866894 0.791019 0.351396
Si Si6 0.903577 0.474483 0.853995
Si Si7 0.232466 0.941604 0.455735
Si Si8 0.354310 0.238947 0.203009
O O1 0.718138 0.627694 0.166434
O O2 0.636527 0.702025 0.334645
O O3 0.097729 0.661489 0.047099
O O4 0.000000 0.000000 0.000000
O O5 0.775169 0.649933 0.503582
O O6 0.678716 0.236723 0.611909
O O7 0.552357 0.324440 0.799553
O O8 0.622903 0.835231 0.445800
O O9 0.424110 0.995709 0.403840
O O10 0.161270 0.680049 0.681225
O O11 0.496015 0.927410 0.883354
O O12 0.104944 0.019965 0.165829
O O13 0.500000 0.000000 0.000000
O O14 0.989884 0.637516 0.256537
O O15 0.599943 0.465339 0.019865
O O16 0.915585 0.813325 0.675755
O O17 0.254706 0.153076 0.357332
#
# Coordination Sequence:
#
# PCOD9077441 Si02
#       8
#     2   2   2   2   2   2   2   2
#     4  10  15  23  41  66  96 127 146 183 235 285
#     4  10  17  31  50  71 100 125 150 199 240 286
#     4  10  16  26  43  70 101 119 145 187 238 300
#     4  10  22  35  49  69  92 127 171 204 232 268
#     4  10  17  31  48  72  97 125 158 196 240 285
#     4  10  15  25  41  69 100 122 144 184 237 294
#     4   9  17  30  46  71 101 126 152 179 244 300
#     4   9  19  31  46  67  99 130 156 192 228 291
#
# _framework density 26.984749000000001
#
# number of rings (size 3 to 8) (size 9 to 14) (size 15 to 20)
#    0.000    2.250    3.750    4.500    0.000    1.000 
#    0.000    0.000    0.000    0.750    0.000    0.875 
#    0.000    0.000    0.000    0.000    0.000    0.000 
#
# Total GULP energy -89332.972365 kJ/mol
# GULP energy per Si atom -5583.310773 kJ/mol
# Density = 2.692333 g / cm^3
# Si number density = 26.984749 Si / 1000 Ang^3
#
#
#
# Elastic Constant Matrix: (Units=GPa)
#
#
# Indices 1 2 3 4 5 6 
#
# 1 115.7628 15.6760 71.6526 24.7681 18.1135 -40.4232
# 2 15.6760 64.0405 21.7136 19.7727 15.5568 3.3704
# 3 71.6526 21.7136 184.0544 -1.2678 -0.8266 -22.6799
# 4 24.7681 19.7727 -1.2678 10.0003 -27.9989 8.2409
# 5 18.1135 15.5568 -0.8266 -27.9989 48.9338 3.0277
# 6 -40.4232 3.3704 -22.6799 8.2409 3.0277 37.9206
#
#
#
# Elastic Compliance Matrix: (Units=1/GPa)
#
#
# Indices 1 2 3 4 5 6 
#
# 1 0.007778 -0.008062 -0.001403 0.014634 0.007763 0.004369
# 2 -0.008062 0.015412 -0.000065 0.006936 0.002779 -0.011732
# 3 -0.001403 -0.000065 0.006376 -0.004560 -0.002178 0.003488
# 4 0.014634 0.006936 -0.004560 -0.017332 -0.018700 0.017516
# 5 0.007763 0.002779 -0.002178 -0.018700 0.005301 0.010367
# 6 0.004369 -0.011732 0.003488 0.017516 0.010367 0.029523
#
#
# Mechanical properties :
#
#
# Convention : Reuss Voigt Hill
#
# Bulk Modulus (GPa) = 95.19352 64.66024 79.92688
# Shear Modulus (GPa) = 71.81964 36.35862 54.08913
#
# Velocity S-wave (km/s) = 5.16456 3.67465 4.48195
# Velocity P-wave (km/s) = 8.42122 6.48211 7.51448
#
# Compressibility (1/GPa) = 0.01050492
#
# Stress axis : x y z
#
# Youngs Moduli (GPa) = 128.56350 64.88636 156.84684
#
# Poissons Ratio (x) = 0.52315 0.22004
# Poissons Ratio (y) = 1.03654 0.01018
# Poissons Ratio (z) = 0.18036 0.00421
#
# Static dielectric constant tensor:
#      x y z
#    x 2.266280 0.026270 0.034170 
#    y 0.026270 2.164990 -0.045460 
#    z 0.034170 -0.045460 2.136910 
# 
# From -- ./inp_files/180584.got.cif
#   From: 2010.05.17/outbox.cif.g08.bks.cpg/sg2_91_cif.got.tgz:180584.got - 2010.06.03 11:33:40.
