data_PCOD9077261
_publ_section_title
;
Structure prediction by ZEFSAII (Michael W. Deem and Ramdas Pophale) SiO2 
 PCOD9077261
Probable space group: P -1
;
_chemical_formula_sum "Si O2"
_cell_formula_units_Z 14
_cell_length_a 8.923402
_cell_length_b 12.428569
_cell_length_c 5.433969
_cell_angle_alpha 105.242080
_cell_angle_beta 73.149334
_cell_angle_gamma 81.641482
_cell_volume 540.231530
_symmetry_space_group_name_H-M "P -1"
_symmetry_group_IT_number 2
_symmetry_cell_setting 'triclinic'
loop_
_space_group_symop_operation_xyz
x,y,z
-x,-y,-z
loop_
_atom_site_type_symbol
_atom_site_label
_atom_site_fract_x
_atom_site_fract_y
_atom_site_fract_z
Si Si1 0.453009 0.097770 0.381456
Si Si2 0.101936 0.238353 0.075165
Si Si3 0.237070 0.009838 0.120835
Si Si4 0.196678 0.767833 0.061001
Si Si5 0.401473 0.699602 0.422022
Si Si6 0.000533 0.600481 0.365154
Si Si7 0.269041 0.414876 0.895155
O O1 0.482855 0.212350 0.546466
O O2 0.500000 0.000000 0.500000
O O3 0.587747 0.067379 0.087036
O O4 0.279567 0.090760 0.362525
O O5 0.975575 0.262457 0.924288
O O6 0.005954 0.288610 0.397882
O O7 0.166703 0.102480 0.001417
O O8 0.234598 0.313747 0.030738
O O9 0.151147 0.908847 0.158739
O O10 0.300608 0.714629 0.734605
O O11 0.296562 0.735246 0.246215
O O12 0.545344 0.586565 0.244310
O O13 0.000000 0.500000 0.500000
O O14 0.834786 0.606153 0.302834
O O15 0.167342 0.538921 0.111559
#
# Coordination Sequence:
#
# PCOD9077261 Si02
#       7
#     2   2   2   2   2   2   2
#     4  10  18  34  57  89 122 165 224 270 297 373
#     4  11  23  40  66  94 131 176 212 270 326 385
#     4  10  21  36  60  92 132 174 218 258 317 376
#     4  11  26  43  60  99 144 172 212 263 326 389
#     4  11  24  42  66  94 132 176 217 268 320 384
#     4   9  21  41  68  97 123 155 226 279 319 386
#     4  10  22  41  72  94 120 169 225 271 324 382
#
# _framework density 25.914815999999998
#
# number of rings (size 3 to 8) (size 9 to 14) (size 15 to 20)
#    0.000    1.714    1.429    2.143   10.000    0.000 
#    0.000    3.571    0.000    0.000    0.000    0.000 
#    0.000    0.000    0.000    0.000    0.000    0.000 
#
# Total GULP energy -78168.150498 kJ/mol
# GULP energy per Si atom -5583.439321 kJ/mol
# Density = 2.585583 g / cm^3
# Si number density = 25.914816 Si / 1000 Ang^3
#
#
#
# Elastic Constant Matrix: (Units=GPa)
#
#
# Indices 1 2 3 4 5 6 
#
# 1 84.3434 25.3915 52.3952 15.7655 0.2233 -11.6782
# 2 25.3915 71.5980 7.2955 6.3896 -3.3325 -19.3861
# 3 52.3952 7.2955 130.8684 2.2516 7.5808 -18.6173
# 4 15.7655 6.3896 2.2516 36.2141 -1.5473 6.3061
# 5 0.2233 -3.3325 7.5808 -1.5473 30.5348 -1.0350
# 6 -11.6782 -19.3861 -18.6173 6.3061 -1.0350 40.2946
#
#
#
# Elastic Compliance Matrix: (Units=1/GPa)
#
#
# Indices 1 2 3 4 5 6 
#
# 1 0.019417 -0.005223 -0.007275 -0.007204 0.000760 0.000900
# 2 -0.005223 0.018264 0.002268 -0.002546 0.001636 0.008762
# 3 -0.007275 0.002268 0.011082 0.001313 -0.002254 0.003840
# 4 -0.007204 -0.002546 0.001313 0.032506 0.000833 -0.007772
# 5 0.000760 0.001636 -0.002254 0.000833 0.033548 0.000697
# 6 0.000900 0.008762 0.003840 -0.007772 0.000697 0.032302
#
#
# Mechanical properties :
#
#
# Convention : Reuss Voigt Hill
#
# Bulk Modulus (GPa) = 35.33103 50.77491 43.05297
# Shear Modulus (GPa) = 28.24700 34.85723 31.55211
#
# Velocity S-wave (km/s) = 3.30509 3.67150 3.49310
# Velocity P-wave (km/s) = 5.31300 6.13260 5.73745
#
# Compressibility (1/GPa) = 0.02830373
#
# Stress axis : x y z
#
# Youngs Moduli (GPa) = 51.50168 54.75389 90.24038
#
# Poissons Ratio (x) = 0.28596 0.65647
# Poissons Ratio (y) = 0.26898 -0.20469
# Poissons Ratio (z) = 0.37466 -0.12420
#
# Static dielectric constant tensor:
#      x y z
#    x 2.571720 0.053650 -0.887240 
#    y 0.053650 2.134980 -0.060260 
#    z -0.887240 -0.060260 3.522250 
# 
# From -- ./inp_files/36228.got.cif
#   From: 2010.05.17/outbox.cif.g08.bks.cpg/sg2_19_cif.got.tgz:36228.got - 2010.06.03 11:33:40.
