data_PCOD9077576
_publ_section_title
;
Structure prediction by ZEFSAII (Michael W. Deem and Ramdas Pophale) SiO2 
 PCOD9077576
Probable space group: P -1
;
_chemical_formula_sum "Si O2"
_cell_formula_units_Z 16
_cell_length_a 9.826448
_cell_length_b 11.482594
_cell_length_c 9.711140
_cell_angle_alpha 62.128008
_cell_angle_beta 63.455814
_cell_angle_gamma 48.532863
_cell_volume 710.059809
_symmetry_space_group_name_H-M "P -1"
_symmetry_group_IT_number 2
_symmetry_cell_setting 'triclinic'
loop_
_space_group_symop_operation_xyz
x,y,z
-x,-y,-z
loop_
_atom_site_type_symbol
_atom_site_label
_atom_site_fract_x
_atom_site_fract_y
_atom_site_fract_z
Si Si1 0.372204 0.389900 0.051515
Si Si2 0.144895 0.019807 0.251138
Si Si3 0.447965 0.056622 0.147970
Si Si4 0.093186 0.754259 0.988709
Si Si5 0.768068 0.115294 0.348711
Si Si6 0.355740 0.372021 0.400328
Si Si7 0.741494 0.299924 0.773650
Si Si8 0.308773 0.109228 0.612395
O O1 0.373486 0.375794 0.224566
O O2 0.367140 0.243130 0.085081
O O3 0.195027 0.569391 0.002312
O O4 0.550745 0.368793 0.909423
O O5 0.287744 0.030100 0.271766
O O6 0.225506 0.842265 0.257987
O O7 0.192971 0.053917 0.618854
O O8 0.094562 0.129002 0.075021
O O9 0.619591 0.960648 0.228777
O O10 0.500000 0.000000 0.000000
O O11 0.218348 0.812323 0.842434
O O12 0.100484 0.762584 0.144917
O O13 0.565903 0.244107 0.428642
O O14 0.938705 0.097123 0.360450
O O15 0.277063 0.552435 0.379112
O O16 0.246685 0.291813 0.529759
O O17 0.500000 0.000000 0.500000
#
# Coordination Sequence:
#
# PCOD9077576 Si02
#       8
#     2   2   2   2   2   2   2   2
#     4  11  17  33  56  84 112 143 194 232 268 332
#     4  10  22  32  51  86 119 146 172 237 299 328
#     4  12  23  35  57  89 119 144 182 239 290 331
#     4   9  18  30  53  80 113 140 190 229 273 320
#     4   9  17  35  54  80 108 144 190 229 272 325
#     4  10  18  34  61  83 101 149 204 233 254 331
#     4  11  16  31  57  86 110 147 189 233 273 339
#     4  10  20  38  60  81 109 153 198 228 266 343
#
# _framework density 22.533314000000001
#
# number of rings (size 3 to 8) (size 9 to 14) (size 15 to 20)
#    0.750    1.000    6.250    1.125    0.000    0.500 
#    0.000    3.750    0.000    0.000    0.000    0.000 
#    0.000    0.000    0.000    0.000    0.000    0.000 
#
# Total GULP energy -89249.367311 kJ/mol
# GULP energy per Si atom -5578.085457 kJ/mol
# Density = 2.248203 g / cm^3
# Si number density = 22.533314 Si / 1000 Ang^3
#
#
#
# Elastic Constant Matrix: (Units=GPa)
#
#
# Indices 1 2 3 4 5 6 
#
# 1 78.3490 12.0570 13.6812 -17.5895 -0.8336 11.1460
# 2 12.0570 120.6938 34.1111 -37.6969 2.0694 25.8614
# 3 13.6812 34.1111 69.3181 -27.9704 10.0316 5.6636
# 4 -17.5895 -37.6969 -27.9704 42.1325 12.2288 -9.7319
# 5 -0.8336 2.0694 10.0316 12.2288 18.0220 -5.6553
# 6 11.1460 25.8614 5.6636 -9.7319 -5.6553 27.8354
#
#
#
# Elastic Compliance Matrix: (Units=1/GPa)
#
#
# Indices 1 2 3 4 5 6 
#
# 1 0.015995 0.004293 0.003897 0.015470 -0.015202 -0.008866
# 2 0.004293 0.018827 0.007045 0.028207 -0.030343 -0.016947
# 3 0.003897 0.007045 0.039106 0.048369 -0.058693 -0.011077
# 4 0.015470 0.028207 0.048369 0.115220 -0.115615 -0.025448
# 5 -0.015202 -0.030343 -0.058693 -0.115615 0.182868 0.042952
# 6 -0.008866 -0.016947 -0.011077 -0.025448 0.042952 0.057304
#
#
# Mechanical properties :
#
#
# Convention : Reuss Voigt Hill
#
# Bulk Modulus (GPa) = 9.57855 43.11772 26.34813
# Shear Modulus (GPa) = 11.53008 31.49875 21.51442
#
# Velocity S-wave (km/s) = 2.26451 3.74287 3.09331
# Velocity P-wave (km/s) = 3.33128 6.15268 4.94737
#
# Compressibility (1/GPa) = 0.10439995
#
# Stress axis : x y z
#
# Youngs Moduli (GPa) = 62.51992 53.11558 25.57132
#
# Poissons Ratio (x) = -0.22803 -0.09966
# Poissons Ratio (y) = -0.26840 -0.18016
# Poissons Ratio (z) = -0.24366 -0.37423
#
# Static dielectric constant tensor:
#      x y z
#    x 1.893360 -0.030250 -0.050390 
#    y -0.030250 1.823210 -0.014380 
#    z -0.050390 -0.014380 1.962610 
# 
# From -- ./inp_files/423242.got.cif
#   From: 2010.05.17/outbox.cif.g08.bks.cpg/sg2_212_cif.got.tgz:423242.got - 2010.06.03 11:33:40.
