data_PCOD9077305
_publ_section_title
;
Structure prediction by ZEFSAII (Michael W. Deem and Ramdas Pophale) SiO2 
 PCOD9077305
Probable space group: P -1
;
_chemical_formula_sum "Si O2"
_cell_formula_units_Z 16
_cell_length_a 13.452392
_cell_length_b 8.654867
_cell_length_c 7.684543
_cell_angle_alpha 89.280520
_cell_angle_beta 135.037609
_cell_angle_gamma 99.575500
_cell_volume 616.286392
_symmetry_space_group_name_H-M "P -1"
_symmetry_group_IT_number 2
_symmetry_cell_setting 'triclinic'
loop_
_space_group_symop_operation_xyz
x,y,z
-x,-y,-z
loop_
_atom_site_type_symbol
_atom_site_label
_atom_site_fract_x
_atom_site_fract_y
_atom_site_fract_z
Si Si1 0.718273 0.558615 0.270157
Si Si2 0.613011 0.532058 0.481971
Si Si3 0.168785 0.350973 0.968161
Si Si4 0.514811 0.169440 0.300733
Si Si5 0.640219 0.184132 0.112632
Si Si6 0.934361 0.129003 0.520993
Si Si7 0.962864 0.338390 0.228024
Si Si8 0.298274 0.924643 0.180576
O O1 0.602400 0.593559 0.269509
O O2 0.741921 0.637840 0.106276
O O3 0.693521 0.373370 0.200180
O O4 0.864783 0.609780 0.566033
O O5 0.500000 0.500000 0.500000
O O6 0.603746 0.347904 0.434343
O O7 0.743781 0.637693 0.746884
O O8 0.104907 0.511123 0.891541
O O9 0.038602 0.196760 0.805724
O O10 0.511414 0.140267 0.092079
O O11 0.619499 0.081751 0.539061
O O12 0.354964 0.106345 0.184723
O O13 0.764065 0.093688 0.335593
O O14 0.631791 0.156405 0.894605
O O15 0.949703 0.281584 0.412266
O O16 0.000000 0.000000 0.500000
O O17 0.864594 0.181601 0.015218
#
# Coordination Sequence:
#
# PCOD9077305 Si02
#       8
#     2   2   2   2   2   2   2   2
#     4  10  19  37  64  90 109 153 205 244 290 357
#     4  11  25  38  56  89 122 154 202 246 293 344
#     4  11  19  40  63  87 120 157 195 246 294 352
#     4  10  21  35  55  81 111 159 197 231 283 347
#     4  10  18  34  58  83 111 148 197 236 285 355
#     4  10  20  34  60  94 123 147 188 252 307 344
#     4  10  18  36  64  88 114 153 198 240 293 353
#     4  10  19  34  55  83 112 145 195 242 275 335
#
# _framework density 25.961953999999999
#
# number of rings (size 3 to 8) (size 9 to 14) (size 15 to 20)
#    0.000    1.750    5.000    1.125    0.000    4.000 
#    0.000    5.000    0.000    6.750    0.000    0.000 
#    0.000    0.000    0.000    0.000    0.000    0.000 
#
# Total GULP energy -89144.810651 kJ/mol
# GULP energy per Si atom -5571.550666 kJ/mol
# Density = 2.590286 g / cm^3
# Si number density = 25.961954 Si / 1000 Ang^3
#
#
#
# Elastic Constant Matrix: (Units=GPa)
#
#
# Indices 1 2 3 4 5 6 
#
# 1 110.1079 22.0448 34.4331 -11.6618 -26.7306 3.5579
# 2 22.0448 73.7690 41.3420 12.2561 -2.1693 -3.3983
# 3 34.4331 41.3420 173.8186 38.0538 -3.8886 -1.7732
# 4 -11.6618 12.2561 38.0538 37.0817 10.5857 1.4803
# 5 -26.7306 -2.1693 -3.8886 10.5857 42.8009 -1.5578
# 6 3.5579 -3.3983 -1.7732 1.4803 -1.5578 17.3325
#
#
#
# Elastic Compliance Matrix: (Units=1/GPa)
#
#
# Indices 1 2 3 4 5 6 
#
# 1 0.013013 -0.003230 -0.003246 0.006981 0.005806 -0.003711
# 2 -0.003230 0.016736 -0.002383 -0.004206 -0.000198 0.004042
# 3 -0.003246 -0.002383 0.009239 -0.010165 0.001283 0.002128
# 4 0.006981 -0.004206 -0.010165 0.043527 -0.007823 -0.007718
# 5 0.005806 -0.000198 0.001283 -0.007823 0.029111 0.002185
# 6 -0.003711 0.004042 0.002128 -0.007718 0.002185 0.060322
#
#
# Mechanical properties :
#
#
# Convention : Reuss Voigt Hill
#
# Bulk Modulus (GPa) = 47.01464 61.48167 54.24816
# Shear Modulus (GPa) = 25.41235 36.76806 31.09021
#
# Velocity S-wave (km/s) = 3.13202 3.76736 3.46429
# Velocity P-wave (km/s) = 5.58818 6.53123 6.07802
#
# Compressibility (1/GPa) = 0.02126997
#
# Stress axis : x y z
#
# Youngs Moduli (GPa) = 76.84830 59.75249 108.23844
#
# Poissons Ratio (x) = 0.19298 0.35134
# Poissons Ratio (y) = 0.24819 0.25793
# Poissons Ratio (z) = 0.24945 0.14239
#
# Static dielectric constant tensor:
#      x y z
#    x 2.154960 0.131710 0.222500 
#    y 0.131710 2.014000 0.026020 
#    z 0.222500 0.026020 2.113640 
# 
# From -- ./inp_files/295871.got.cif
#   From: 2010.05.17/outbox.cif.g08.bks.cpg/sg2_148_cif.got.tgz:295871.got - 2010.06.03 11:33:40.
