data_PCOD9077245
_publ_section_title
;
Structure prediction by ZEFSAII (Michael W. Deem and Ramdas Pophale) SiO2 
 PCOD9077245
Probable space group: P -1
;
_chemical_formula_sum "Si O2"
_cell_formula_units_Z 16
_cell_length_a 9.910880
_cell_length_b 19.052705
_cell_length_c 13.924846
_cell_angle_alpha 152.427246
_cell_angle_beta 132.443289
_cell_angle_gamma 31.914253
_cell_volume 610.227822
_symmetry_space_group_name_H-M "P -1"
_symmetry_group_IT_number 2
_symmetry_cell_setting 'triclinic'
loop_
_space_group_symop_operation_xyz
x,y,z
-x,-y,-z
loop_
_atom_site_type_symbol
_atom_site_label
_atom_site_fract_x
_atom_site_fract_y
_atom_site_fract_z
Si Si1 0.717945 0.715396 0.009628
Si Si2 0.621233 0.074950 0.702415
Si Si3 0.303543 0.164477 0.256865
Si Si4 0.212657 0.558206 0.750132
Si Si5 0.578889 0.475053 0.676809
Si Si6 0.049108 0.806374 0.732350
Si Si7 0.614671 0.242893 0.711350
Si Si8 0.973559 0.215777 0.715071
O O1 0.548529 0.811665 0.144027
O O2 0.999033 0.623337 0.057363
O O3 0.570071 0.902684 0.082455
O O4 0.713713 0.541806 0.776917
O O5 0.604301 0.214914 0.783474
O O6 0.500000 0.000000 0.500000
O O7 0.924264 0.892402 0.670705
O O8 0.310759 0.342166 0.481367
O O9 0.108223 0.237861 0.163872
O O10 0.122246 0.217326 0.323519
O O11 0.358899 0.603038 0.815991
O O12 0.335425 0.464814 0.800735
O O13 0.357305 0.567149 0.602498
O O14 0.821661 0.261309 0.599423
O O15 0.000000 0.000000 0.000000
O O16 0.835578 0.220265 0.743967
O O17 0.720221 0.024067 0.445827
#
# Coordination Sequence:
#
# PCOD9077245 Si02
#       8
#     2   2   2   2   2   2   2   2
#     4  11  19  35  59  85 112 149 195 240 284 333
#     4  11  20  34  61  87 115 146 191 245 288 326
#     4   9  16  28  53  79 107 140 187 235 273 329
#     4   9  17  30  49  79 111 138 188 230 280 326
#     4  10  20  33  56  86 109 151 196 235 275 350
#     4  10  18  34  57  86 112 147 192 237 286 334
#     4  10  19  35  53  80 115 153 187 238 282 337
#     4  10  20  34  56  79 118 157 194 221 286 355
#
# _framework density 26.219718
#
# number of rings (size 3 to 8) (size 9 to 14) (size 15 to 20)
#    0.000    2.000    5.000    1.125    0.000    0.000 
#    0.000    3.125    0.000    0.750    0.000    0.000 
#    0.000    0.000    0.000    0.000    0.000    0.000 
#
# Total GULP energy -89232.720618 kJ/mol
# GULP energy per Si atom -5577.045039 kJ/mol
# Density = 2.616004 g / cm^3
# Si number density = 26.219718 Si / 1000 Ang^3
#
#
#
# Elastic Constant Matrix: (Units=GPa)
#
#
# Indices 1 2 3 4 5 6 
#
# 1 105.4091 57.0620 38.3856 -11.1768 24.0448 26.5142
# 2 57.0620 218.4978 27.0967 9.3566 1.0115 36.2402
# 3 38.3856 27.0967 79.1440 -1.9603 15.9038 5.9250
# 4 -11.1768 9.3566 -1.9603 31.8575 3.4394 5.2942
# 5 24.0448 1.0115 15.9038 3.4394 46.3389 -0.2879
# 6 26.5142 36.2402 5.9250 5.2942 -0.2879 35.6105
#
#
#
# Elastic Compliance Matrix: (Units=1/GPa)
#
#
# Indices 1 2 3 4 5 6 
#
# 1 0.019019 -0.002683 -0.005384 0.010090 -0.008786 -0.012106
# 2 -0.002683 0.006096 -0.000915 -0.002361 0.001725 -0.003689
# 3 -0.005384 -0.000915 0.015877 -0.000764 -0.002564 0.002391
# 4 0.010090 -0.002361 -0.000764 0.038203 -0.007824 -0.010725
# 5 -0.008786 0.001725 -0.002564 -0.007824 0.027603 0.006599
# 6 -0.012106 -0.003689 0.002391 -0.010725 0.006599 0.042099
#
#
# Mechanical properties :
#
#
# Convention : Reuss Voigt Hill
#
# Bulk Modulus (GPa) = 43.42473 72.01549 57.72011
# Shear Modulus (GPa) = 28.64728 41.46184 35.05456
#
# Velocity S-wave (km/s) = 3.30901 3.98090 3.66041
# Velocity P-wave (km/s) = 5.58545 6.97538 6.31875
#
# Compressibility (1/GPa) = 0.02302835
#
# Stress axis : x y z
#
# Youngs Moduli (GPa) = 52.57936 164.04928 62.98414
#
# Poissons Ratio (x) = 0.44010 0.33911
# Poissons Ratio (y) = 0.14105 0.05762
# Poissons Ratio (z) = 0.28309 0.15008
#
# Static dielectric constant tensor:
#      x y z
#    x 1.964660 -0.019760 -0.009710 
#    y -0.019760 2.198830 0.004560 
#    z -0.009710 0.004560 2.301290 
# 
# From -- ./inp_files/570485.got.cif
#   From: 2010.05.17/outbox.cif.g08.bks.cpg/sg2_286_cif.got.tgz:570485.got - 2010.06.03 11:33:40.
