data_PCOD9077022
_publ_section_title
;
Structure prediction by ZEFSAII (Michael W. Deem and Ramdas Pophale) SiO2 
 PCOD9077022
Probable space group: P -1
;
_chemical_formula_sum "Si O2"
_cell_formula_units_Z 16
_cell_length_a 8.236941
_cell_length_b 10.084098
_cell_length_c 9.999389
_cell_angle_alpha 90.639718
_cell_angle_beta 67.716089
_cell_angle_gamma 119.288892
_cell_volume 654.465341
_symmetry_space_group_name_H-M "P -1"
_symmetry_group_IT_number 2
_symmetry_cell_setting 'triclinic'
loop_
_space_group_symop_operation_xyz
x,y,z
-x,-y,-z
loop_
_atom_site_type_symbol
_atom_site_label
_atom_site_fract_x
_atom_site_fract_y
_atom_site_fract_z
Si Si1 0.960473 0.304982 0.923020
Si Si2 0.227688 0.972728 0.637247
Si Si3 0.161319 0.861973 0.311124
Si Si4 0.633791 0.225554 0.574854
Si Si5 0.128853 0.153306 0.054928
Si Si6 0.736510 0.742734 0.518190
Si Si7 0.488622 0.139459 0.076643
Si Si8 0.313288 0.527448 0.653702
O O1 0.919721 0.181996 0.814653
O O2 0.112638 0.469653 0.805685
O O3 0.093466 0.279923 0.992378
O O4 0.730282 0.263389 0.032008
O O5 0.403368 0.090833 0.688605
O O6 0.262053 0.107235 0.528197
O O7 0.294912 0.861361 0.551497
O O8 0.004937 0.886863 0.768946
O O9 0.239023 0.747812 0.330229
O O10 0.975690 0.813702 0.472387
O O11 0.342035 0.041634 0.246845
O O12 0.674369 0.373323 0.479976
O O13 0.354799 0.189029 0.028111
O O14 0.000000 0.000000 0.000000
O O15 0.530203 0.633057 0.664998
O O16 0.699331 0.625647 0.404268
O O17 0.500000 0.000000 0.000000
#
# Coordination Sequence:
#
# PCOD9077022 Si02
#       8
#     2   2   2   2   2   2   2   2
#     4  10  21  34  54  88 114 153 195 238 290 352
#     4  10  21  38  57  88 112 152 201 235 301 345
#     4  10  18  34  54  87 112 143 191 244 293 335
#     4  10  22  36  60  82 121 155 186 246 292 357
#     4  12  19  35  61  82 119 154 191 256 292 331
#     4   9  17  34  56  79 114 144 192 238 283 348
#     4  10  19  33  53  89 116 145 196 246 291 338
#     4   9  19  38  53  80 118 155 189 231 293 356
#
# _framework density 24.447434999999999
#
# number of rings (size 3 to 8) (size 9 to 14) (size 15 to 20)
#    0.000    2.000    3.750    1.500    1.750    2.500 
#    2.250    0.625    0.000    0.750    0.000    0.000 
#    0.000    0.000    0.000    0.000    0.000    0.000 
#
# Total GULP energy -89129.842518 kJ/mol
# GULP energy per Si atom -5570.615157 kJ/mol
# Density = 2.439179 g / cm^3
# Si number density = 24.447435 Si / 1000 Ang^3
#
#
#
# Elastic Constant Matrix: (Units=GPa)
#
#
# Indices 1 2 3 4 5 6 
#
# 1 183.8685 22.4592 64.9732 -28.4976 -19.5392 -13.9203
# 2 22.4592 77.7841 24.3924 -5.0713 3.7258 -3.6445
# 3 64.9732 24.3924 106.6585 -19.6088 -15.5568 5.2417
# 4 -28.4976 -5.0713 -19.6088 30.2298 6.8964 -2.1978
# 5 -19.5392 3.7258 -15.5568 6.8964 50.7179 -14.5518
# 6 -13.9203 -3.6445 5.2417 -2.1978 -14.5518 28.4061
#
#
#
# Elastic Compliance Matrix: (Units=1/GPa)
#
#
# Indices 1 2 3 4 5 6 
#
# 1 0.008642 -0.000746 -0.003984 0.005155 0.003486 0.007059
# 2 -0.000746 0.014201 -0.003100 0.000202 -0.002019 0.001010
# 3 -0.003984 -0.003100 0.013614 0.003996 0.001195 -0.003941
# 4 0.005155 0.000202 0.003996 0.041144 -0.001130 0.004419
# 5 0.003486 -0.002019 0.001195 -0.001130 0.025856 0.014387
# 6 0.007059 0.001010 -0.003941 0.004419 0.014387 0.047232
#
#
# Mechanical properties :
#
#
# Convention : Reuss Voigt Hill
#
# Bulk Modulus (GPa) = 48.08647 65.77342 56.92995
# Shear Modulus (GPa) = 28.85466 38.96986 33.91226
#
# Velocity S-wave (km/s) = 3.43924 3.99686 3.72849
# Velocity P-wave (km/s) = 5.95678 6.94710 6.47091
#
# Compressibility (1/GPa) = 0.02079587
#
# Stress axis : x y z
#
# Youngs Moduli (GPa) = 115.72034 70.41797 73.45124
#
# Poissons Ratio (x) = 0.05252 0.29266
# Poissons Ratio (y) = 0.08631 0.22772
# Poissons Ratio (z) = 0.46107 0.21832
#
# Static dielectric constant tensor:
#      x y z
#    x 2.168980 0.062850 -0.034950 
#    y 0.062850 1.937200 0.028380 
#    z -0.034950 0.028380 1.987730 
# 
# From -- ./inp_files/389377.got.cif
#   From: 2010.05.17/outbox.cif.g08.bks.cpg/sg2_195_cif.got.tgz:389377.got - 2010.06.03 11:33:40.
