data_PCOD9077110
_publ_section_title
;
Structure prediction by ZEFSAII (Michael W. Deem and Ramdas Pophale) SiO2 
 PCOD9077110
Probable space group: P -1
;
_chemical_formula_sum "Si O2"
_cell_formula_units_Z 16
_cell_length_a 8.504141
_cell_length_b 7.876597
_cell_length_c 12.167040
_cell_angle_alpha 96.993882
_cell_angle_beta 126.478283
_cell_angle_gamma 106.529974
_cell_volume 581.781576
_symmetry_space_group_name_H-M "P -1"
_symmetry_group_IT_number 2
_symmetry_cell_setting 'triclinic'
loop_
_space_group_symop_operation_xyz
x,y,z
-x,-y,-z
loop_
_atom_site_type_symbol
_atom_site_label
_atom_site_fract_x
_atom_site_fract_y
_atom_site_fract_z
Si Si1 0.913100 0.149175 0.585446
Si Si2 0.068063 0.349785 0.457167
Si Si3 0.478293 0.944406 0.252632
Si Si4 0.626556 0.191806 0.139520
Si Si5 0.190858 0.050080 0.267541
Si Si6 0.709053 0.411727 0.989650
Si Si7 0.655070 0.371042 0.569725
Si Si8 0.853600 0.640535 0.867719
O O1 0.073286 0.227494 0.554483
O O2 0.846897 0.305220 0.624930
O O3 0.682547 0.011497 0.422666
O O4 0.964021 0.048883 0.701251
O O5 0.872678 0.238301 0.281312
O O6 0.000000 0.500000 0.500000
O O7 0.280598 0.463205 0.482483
O O8 0.468816 0.772201 0.162418
O O9 0.510528 0.127252 0.204266
O O10 0.257374 0.900882 0.222355
O O11 0.644783 0.372032 0.088419
O O12 0.500000 0.000000 0.000000
O O13 0.424689 0.199773 0.428215
O O14 0.118226 0.163999 0.160472
O O15 0.766256 0.597698 0.953408
O O16 0.922267 0.374578 0.059578
O O17 0.686673 0.466408 0.708634
#
# Coordination Sequence:
#
# PCOD9077110 Si02
#       8
#     2   2   2   2   2   2   2   2
#     4   9  18  33  57  82 106 143 180 221 273 328
#     4   9  17  31  56  85 107 139 186 230 268 322
#     4   9  18  34  58  77 103 139 182 218 269 327
#     4   9  17  33  58  81 103 143 189 228 265 331
#     4  11  21  34  53  82 115 140 176 227 278 324
#     4  10  20  36  55  75 102 145 189 219 263 326
#     4  10  18  34  56  79 111 142 181 221 275 327
#     4  11  22  33  53  79 109 143 180 225 270 322
#
# _framework density 27.501729000000001
#
# number of rings (size 3 to 8) (size 9 to 14) (size 15 to 20)
#    0.000    2.250    1.250    4.125    0.000    0.500 
#    0.000    1.250    8.250    0.000    0.000    0.000 
#    0.000    0.000    0.000    0.000    0.000    0.000 
#
# Total GULP energy -89523.802066 kJ/mol
# GULP energy per Si atom -5595.237629 kJ/mol
# Density = 2.743913 g / cm^3
# Si number density = 27.501729 Si / 1000 Ang^3
#
#
#
# Elastic Constant Matrix: (Units=GPa)
#
#
# Indices 1 2 3 4 5 6 
#
# 1 52.6827 22.9417 26.9084 -21.4935 -12.8388 7.1816
# 2 22.9417 127.7674 55.9657 -60.7383 -15.2709 30.6135
# 3 26.9084 55.9657 103.3582 -15.3476 -17.4377 10.5104
# 4 -21.4935 -60.7383 -15.3476 78.7224 24.4450 -22.4793
# 5 -12.8388 -15.2709 -17.4377 24.4450 33.3921 -17.4581
# 6 7.1816 30.6135 10.5104 -22.4793 -17.4581 56.4115
#
#
#
# Elastic Compliance Matrix: (Units=1/GPa)
#
#
# Indices 1 2 3 4 5 6 
#
# 1 0.024332 0.000846 -0.005508 0.005393 0.003244 0.000622
# 2 0.000846 0.018687 -0.009225 0.014078 -0.009280 -0.005792
# 3 -0.005508 -0.009225 0.016245 -0.007531 0.008939 0.002446
# 4 0.005393 0.014078 -0.007531 0.028549 -0.016694 -0.000713
# 5 0.003244 -0.009280 0.008939 -0.016694 0.049997 0.011779
# 6 0.000622 -0.005792 0.002446 -0.000713 0.011779 0.023696
#
#
# Mechanical properties :
#
#
# Convention : Reuss Voigt Hill
#
# Bulk Modulus (GPa) = 31.75627 55.04886 43.40257
# Shear Modulus (GPa) = 25.02795 45.57137 35.29966
#
# Velocity S-wave (km/s) = 3.01998 4.07509 3.58654
# Velocity P-wave (km/s) = 4.87159 6.49629 5.74170
#
# Compressibility (1/GPa) = 0.03148985
#
# Stress axis : x y z
#
# Youngs Moduli (GPa) = 41.09782 53.51449 61.55721
#
# Poissons Ratio (x) = -0.04526 0.33905
# Poissons Ratio (y) = -0.03476 0.56785
# Poissons Ratio (z) = 0.22636 0.49366
#
# Static dielectric constant tensor:
#      x y z
#    x 2.088570 0.012960 -0.030560 
#    y 0.012960 2.278860 -0.042300 
#    z -0.030560 -0.042300 2.122380 
# 
# From -- ./inp_files/257059.got.cif
#   From: 2010.05.17/outbox.cif.g08.bks.cpg/sg2_129_cif.got.tgz:257059.got - 2010.06.03 11:33:40.
