data_PCOD9077344
_publ_section_title
;
Structure prediction by ZEFSAII (Michael W. Deem and Ramdas Pophale) SiO2 
 PCOD9077344
Probable space group: P -1
;
_chemical_formula_sum "Si O2"
_cell_formula_units_Z 14
_cell_length_a 14.606304
_cell_length_b 12.120505
_cell_length_c 11.054549
_cell_angle_alpha 89.940156
_cell_angle_beta 69.067439
_cell_angle_gamma 149.639583
_cell_volume 697.932833
_symmetry_space_group_name_H-M "P -1"
_symmetry_group_IT_number 2
_symmetry_cell_setting 'triclinic'
loop_
_space_group_symop_operation_xyz
x,y,z
-x,-y,-z
loop_
_atom_site_type_symbol
_atom_site_label
_atom_site_fract_x
_atom_site_fract_y
_atom_site_fract_z
Si Si1 0.637497 0.811841 0.520377
Si Si2 0.672541 0.057904 0.334842
Si Si3 0.435572 0.226070 0.792748
Si Si4 0.988439 0.206786 0.581741
Si Si5 0.260688 0.175702 0.083869
Si Si6 0.798330 0.819587 0.248526
Si Si7 0.124594 0.587153 0.567048
O O1 0.589023 0.872019 0.466060
O O2 0.817159 0.912913 0.361922
O O3 0.381124 0.474229 0.655436
O O4 0.772983 0.983760 0.580429
O O5 0.723661 0.041482 0.189034
O O6 0.433549 0.888250 0.413262
O O7 0.888887 0.347711 0.308950
O O8 0.344667 0.242602 0.769014
O O9 0.735071 0.522712 0.615007
O O10 0.366534 0.178899 0.963351
O O11 0.007801 0.344616 0.638633
O O12 0.903364 0.029019 0.720837
O O13 0.500000 0.500000 0.000000
O O14 0.075172 0.059381 0.091413
O O15 0.000000 0.500000 0.500000
#
# Coordination Sequence:
#
# PCOD9077344 Si02
#       7
#     2   2   2   2   2   2   2
#     4  10  18  34  58  89 118 157 196 241 296 355
#     4   9  19  34  58  89 119 151 196 249 298 348
#     4  10  22  39  58  86 124 159 196 246 297 353
#     4  11  22  37  61  88 119 155 201 245 296 355
#     4  12  24  38  58  88 120 160 203 242 294 360
#     4  10  20  34  56  82 120 159 198 239 297 351
#     4  10  18  35  62  91 114 152 203 246 297 356
#
# _framework density 20.059237
#
# number of rings (size 3 to 8) (size 9 to 14) (size 15 to 20)
#    0.000    1.714    1.429    5.571    0.000    1.714 
#    0.000    0.714    0.000    3.429    0.000    0.000 
#    0.000    0.000    0.000    0.000    0.000    0.000 
#
# Total GULP energy -78012.140212 kJ/mol
# GULP energy per Si atom -5572.295729 kJ/mol
# Density = 2.001358 g / cm^3
# Si number density = 20.059237 Si / 1000 Ang^3
#
#
#
# Elastic Constant Matrix: (Units=GPa)
#
#
# Indices 1 2 3 4 5 6 
#
# 1 73.4887 28.3476 6.0336 -9.5393 -13.6178 10.5140
# 2 28.3476 132.1467 27.0070 18.6501 -11.4749 -2.8303
# 3 6.0336 27.0070 54.2626 7.2444 -17.4651 -0.0539
# 4 -9.5393 18.6501 7.2444 20.9551 -4.0582 1.6688
# 5 -13.6178 -11.4749 -17.4651 -4.0582 13.5429 7.8642
# 6 10.5140 -2.8303 -0.0539 1.6688 7.8642 33.0494
#
#
#
# Elastic Compliance Matrix: (Units=1/GPa)
#
#
# Indices 1 2 3 4 5 6 
#
# 1 0.077745 -0.024184 0.057430 0.082548 0.202375 -0.079034
# 2 -0.024184 0.016883 -0.021324 -0.032735 -0.062157 0.025548
# 3 0.057430 -0.021324 0.079227 0.062501 0.201905 -0.071167
# 4 0.082548 -0.032735 0.062501 0.145166 0.232580 -0.091636
# 5 0.202375 -0.062157 0.201905 0.232580 0.698335 -0.247290
# 6 -0.079034 0.025548 -0.071167 -0.091636 -0.247290 0.120943
#
#
# Mechanical properties :
#
#
# Convention : Reuss Voigt Hill
#
# Bulk Modulus (GPa) = 5.05822 42.51938 23.78880
# Shear Modulus (GPa) = 4.23601 26.74346 15.48973
#
# Velocity S-wave (km/s) = 1.45476 3.65530 2.78186
# Velocity P-wave (km/s) = 2.31277 6.24963 4.71204
#
# Compressibility (1/GPa) = 0.19769788
#
# Stress axis : x y z
#
# Youngs Moduli (GPa) = 12.86253 59.23082 12.62197
#
# Poissons Ratio (x) = 1.43246 -0.72488
# Poissons Ratio (y) = 0.31107 0.26915
# Poissons Ratio (z) = -0.73869 1.26304
#
# Static dielectric constant tensor:
#      x y z
#    x 1.722080 0.006960 0.005440 
#    y 0.006960 1.749590 0.062940 
#    z 0.005440 0.062940 1.756380 
# 
# From -- ./inp_files/332205.got.cif
#   From: 2010.05.17/outbox.cif.g08.bks.cpg/sg2_167_cif.got.tgz:332205.got - 2010.06.03 11:33:40.
