data_PCOD9077528
_publ_section_title
;
Structure prediction by ZEFSAII (Michael W. Deem and Ramdas Pophale) SiO2 
 PCOD9077528
Probable space group: P -1
;
_chemical_formula_sum "Si O2"
_cell_formula_units_Z 16
_cell_length_a 9.824144
_cell_length_b 9.478183
_cell_length_c 13.752097
_cell_angle_alpha 92.202647
_cell_angle_beta 134.944812
_cell_angle_gamma 113.459364
_cell_volume 723.680446
_symmetry_space_group_name_H-M "P -1"
_symmetry_group_IT_number 2
_symmetry_cell_setting 'triclinic'
loop_
_space_group_symop_operation_xyz
x,y,z
-x,-y,-z
loop_
_atom_site_type_symbol
_atom_site_label
_atom_site_fract_x
_atom_site_fract_y
_atom_site_fract_z
Si Si1 0.111697 0.818226 0.034757
Si Si2 0.609895 0.522315 0.712377
Si Si3 0.914875 0.916618 0.109743
Si Si4 0.479396 0.173587 0.842376
Si Si5 0.726070 0.755714 0.596283
Si Si6 0.875465 0.222871 0.318593
Si Si7 0.780945 0.668822 0.334105
Si Si8 0.372368 0.620288 0.887733
O O1 0.880046 0.622141 0.885807
O O2 0.126999 0.953658 0.966950
O O3 0.347089 0.827199 0.145780
O O4 0.046218 0.866468 0.102775
O O5 0.622563 0.653952 0.643220
O O6 0.489939 0.337207 0.591769
O O7 0.437577 0.487249 0.713223
O O8 0.655002 0.749607 0.007385
O O9 0.102433 0.036554 0.293166
O O10 0.284321 0.195794 0.702846
O O11 0.329758 0.982658 0.812118
O O12 0.635796 0.330542 0.003885
O O13 0.903592 0.715009 0.639840
O O14 0.766075 0.325516 0.245266
O O15 0.978790 0.251590 0.480725
O O16 0.749798 0.579228 0.212554
#
# Coordination Sequence:
#
# PCOD9077528 Si02
#       8
#     2   2   2   2   2   2   2   2
#     4  10  20  35  59  88 115 156 202 256 295 357
#     4   9  18  35  55  83 121 154 197 240 307 350
#     4  10  18  34  60  89 117 149 209 256 292 343
#     4  12  24  40  63  92 128 164 202 248 316 370
#     4   9  18  33  60  88 114 156 199 258 292 351
#     4  11  22  40  65  92 121 161 214 250 303 363
#     4  11  25  40  59  92 132 163 194 256 319 366
#     4  12  21  40  63  95 117 161 215 255 293 361
#
# _framework density 22.109207999999999
#
# number of rings (size 3 to 8) (size 9 to 14) (size 15 to 20)
#    0.000    1.500    3.750    3.000    0.000    0.500 
#    0.000    1.250    0.000    3.000    0.000    0.000 
#    0.000    0.000    0.000    0.000    0.000    0.000 
#
# Total GULP energy -89383.141230 kJ/mol
# GULP energy per Si atom -5586.446327 kJ/mol
# Density = 2.205889 g / cm^3
# Si number density = 22.109208 Si / 1000 Ang^3
#
#
#
# Elastic Constant Matrix: (Units=GPa)
#
#
# Indices 1 2 3 4 5 6 
#
# 1 78.2546 24.9338 13.9329 1.3218 4.1861 -11.8882
# 2 24.9338 49.5585 24.6587 -11.6998 2.5620 -24.2007
# 3 13.9329 24.6587 96.0705 2.0197 -6.9152 -16.0535
# 4 1.3218 -11.6998 2.0197 23.2917 -8.4366 1.3073
# 5 4.1861 2.5620 -6.9152 -8.4366 21.7975 -1.7637
# 6 -11.8882 -24.2007 -16.0535 1.3073 -1.7637 22.3747
#
#
#
# Elastic Compliance Matrix: (Units=1/GPa)
#
#
# Indices 1 2 3 4 5 6 
#
# 1 0.016450 -0.012122 -0.000237 -0.008767 -0.005564 -0.004467
# 2 -0.012122 0.065589 -0.005005 0.034823 0.011345 0.059770
# 3 -0.000237 -0.005005 0.012753 -0.002350 0.004099 0.004071
# 4 -0.008767 0.034823 -0.002350 0.068850 0.025867 0.029337
# 5 -0.005564 0.011345 0.004099 0.025867 0.058164 0.015329
# 6 -0.004467 0.059770 0.004071 0.029337 0.015329 0.109383
#
#
# Mechanical properties :
#
#
# Convention : Reuss Voigt Hill
#
# Bulk Modulus (GPa) = 16.64887 38.99271 27.82079
# Shear Modulus (GPa) = 12.95545 24.18330 18.56938
#
# Velocity S-wave (km/s) = 2.42332 3.31087 2.90124
# Velocity P-wave (km/s) = 3.92130 5.68247 4.88196
#
# Compressibility (1/GPa) = 0.06006415
#
# Stress axis : x y z
#
# Youngs Moduli (GPa) = 60.78849 15.24654 78.41432
#
# Poissons Ratio (x) = 0.18482 0.01859
# Poissons Ratio (y) = 0.73689 0.39244
# Poissons Ratio (z) = 0.01441 0.07630
#
# Static dielectric constant tensor:
#      x y z
#    x 1.809810 0.011680 -0.050360 
#    y 0.011680 1.815280 0.000860 
#    z -0.050360 0.000860 1.834520 
# 
# From -- ./inp_files/272377.got.cif
#   From: 2010.05.17/outbox.cif.g08.bks.cpg/sg2_137_cif.got.tgz:272377.got - 2010.06.03 11:33:40.
