data_PCOD9077545
_publ_section_title
;
Structure prediction by ZEFSAII (Michael W. Deem and Ramdas Pophale) SiO2 
 PCOD9077545
Probable space group: P -1
;
_chemical_formula_sum "Si O2"
_cell_formula_units_Z 12
_cell_length_a 11.906523
_cell_length_b 10.018351
_cell_length_c 10.586196
_cell_angle_alpha 125.598419
_cell_angle_beta 143.283305
_cell_angle_gamma 42.746636
_cell_volume 512.362803
_symmetry_space_group_name_H-M "P -1"
_symmetry_group_IT_number 2
_symmetry_cell_setting 'triclinic'
loop_
_space_group_symop_operation_xyz
x,y,z
-x,-y,-z
loop_
_atom_site_type_symbol
_atom_site_label
_atom_site_fract_x
_atom_site_fract_y
_atom_site_fract_z
Si Si1 0.667031 0.271495 0.046173
Si Si2 0.195024 0.716845 0.089997
Si Si3 0.625678 0.404364 0.427980
Si Si4 0.846716 0.622752 0.808666
Si Si5 0.052715 0.950951 0.343175
Si Si6 0.387816 0.028295 0.048815
O O1 0.778652 0.197274 0.967999
O O2 0.536283 0.171609 0.918714
O O3 0.500000 0.500000 0.000000
O O4 0.423336 0.500133 0.199453
O O5 0.171093 0.849154 0.261136
O O6 0.987711 0.689150 0.893656
O O7 0.500000 0.500000 0.500000
O O8 0.775577 0.495926 0.597804
O O9 0.880648 0.183601 0.287764
O O10 0.772074 0.168980 0.452896
O O11 0.628373 0.814238 0.781010
O O12 0.000000 0.500000 0.000000
O O13 0.873273 0.890481 0.165840
O O14 0.500000 0.000000 0.000000
#
# Coordination Sequence:
#
# PCOD9077545 Si02
#       6
#     2   2   2   2   2   2
#     4  10  21  35  58  85 116 163 185 234 303 334
#     4  10  20  35  62  84 120 142 197 242 285 339
#     4  10  18  34  60  91 114 144 198 241 281 341
#     4  11  18  33  61  89 111 152 194 235 289 337
#     4   8  18  33  56  82 111 151 192 225 282 342
#     4   9  20  33  56  84 114 150 195 231 280 350
#
# _framework density 23.420902000000002
#
# number of rings (size 3 to 8) (size 9 to 14) (size 15 to 20)
#    1.000    1.333    5.000    0.500    2.333    0.000 
#    0.000    1.667    3.667    5.000    0.000    0.000 
#    0.000    0.000    0.000    0.000    0.000    0.000 
#
# Total GULP energy -66880.169870 kJ/mol
# GULP energy per Si atom -5573.347489 kJ/mol
# Density = 2.336760 g / cm^3
# Si number density = 23.420902 Si / 1000 Ang^3
#
#
#
# Elastic Constant Matrix: (Units=GPa)
#
#
# Indices 1 2 3 4 5 6 
#
# 1 157.5793 26.5424 36.0284 4.2701 -17.1343 17.0208
# 2 26.5424 180.3781 26.8698 -5.5762 -10.7424 23.9947
# 3 36.0284 26.8698 66.2380 5.8317 0.6905 -1.1529
# 4 4.2701 -5.5762 5.8317 35.8485 4.5772 -2.5363
# 5 -17.1343 -10.7424 0.6905 4.5772 36.9756 -1.7060
# 6 17.0208 23.9947 -1.1529 -2.5363 -1.7060 28.9377
#
#
#
# Elastic Compliance Matrix: (Units=1/GPa)
#
#
# Indices 1 2 3 4 5 6 
#
# 1 0.008407 0.000385 -0.004770 -0.001050 0.003981 -0.005311
# 2 0.000385 0.006884 -0.003202 0.000893 0.001856 -0.005874
# 3 -0.004770 -0.003202 0.019324 -0.002283 -0.002949 0.005857
# 4 -0.001050 0.000893 -0.002283 0.029152 -0.003695 0.002123
# 5 0.003981 0.001856 -0.002949 -0.003695 0.029823 -0.002564
# 6 -0.005311 -0.005874 0.005857 0.002123 -0.002564 0.042820
#
#
# Mechanical properties :
#
#
# Convention : Reuss Voigt Hill
#
# Bulk Modulus (GPa) = 51.44044 64.78627 58.11336
# Shear Modulus (GPa) = 31.63238 41.33603 36.48420
#
# Velocity S-wave (km/s) = 3.67904 4.20565 3.95113
# Velocity P-wave (km/s) = 6.32916 7.16276 6.75883
#
# Compressibility (1/GPa) = 0.01943996
#
# Stress axis : x y z
#
# Youngs Moduli (GPa) = 118.94954 145.26773 51.74832
#
# Poissons Ratio (x) = -0.05589 0.24686
# Poissons Ratio (y) = -0.04576 0.16570
# Poissons Ratio (z) = 0.56743 0.46514
#
# Static dielectric constant tensor:
#      x y z
#    x 1.909070 -0.051100 -0.037910 
#    y -0.051100 2.025020 0.037840 
#    z -0.037910 0.037840 2.002470 
# 
# From -- ./inp_files/424302.got.cif
#   From: 2010.05.17/outbox.cif.g08.bks.cpg/sg2_213_cif.got.tgz:424302.got - 2010.06.03 11:33:40.
