data_PCOD9077453
_publ_section_title
;
Structure prediction by ZEFSAII (Michael W. Deem and Ramdas Pophale) SiO2 
 PCOD9077453
Probable space group: P -1
;
_chemical_formula_sum "Si O2"
_cell_formula_units_Z 16
_cell_length_a 11.619962
_cell_length_b 8.508554
_cell_length_c 11.828756
_cell_angle_alpha 86.817135
_cell_angle_beta 48.475967
_cell_angle_gamma 69.051626
_cell_volume 789.675390
_symmetry_space_group_name_H-M "P -1"
_symmetry_group_IT_number 2
_symmetry_cell_setting 'triclinic'
loop_
_space_group_symop_operation_xyz
x,y,z
-x,-y,-z
loop_
_atom_site_type_symbol
_atom_site_label
_atom_site_fract_x
_atom_site_fract_y
_atom_site_fract_z
Si Si1 0.299216 0.481168 0.423470
Si Si2 0.351597 0.834809 0.784222
Si Si3 0.726532 0.362259 0.967601
Si Si4 0.834677 0.005416 0.544380
Si Si5 0.640808 0.268422 0.472875
Si Si6 0.639446 0.850975 0.336619
Si Si7 0.402669 0.696812 0.178458
Si Si8 0.081950 0.323060 0.644938
O O1 0.448580 0.287752 0.314761
O O2 0.357920 0.554107 0.492422
O O3 0.300603 0.602760 0.315064
O O4 0.121305 0.477750 0.564235
O O5 0.322728 0.779950 0.679209
O O6 0.318280 0.036623 0.789924
O O7 0.249651 0.772217 0.941275
O O8 0.636649 0.304383 0.927392
O O9 0.896630 0.361233 0.807308
O O10 0.596628 0.559244 0.078476
O O11 0.789227 0.122348 0.455946
O O12 0.673503 0.110747 0.726941
O O13 0.865536 0.819276 0.483566
O O14 0.000000 0.000000 0.500000
O O15 0.464765 0.259058 0.624686
O O16 0.794621 0.748532 0.323318
O O17 0.500000 0.000000 0.500000
#
# Coordination Sequence:
#
# PCOD9077453 Si02
#       8
#     2   2   2   2   2   2   2   2
#     4  10  20  34  65  88 115 164 211 248 292 357
#     4  10  18  35  59  85 118 166 193 245 313 365
#     4  10  22  38  59  90 130 160 197 245 318 359
#     4  11  20  37  63  90 116 156 206 256 287 346
#     4  10  19  36  61  90 119 154 210 250 296 356
#     4  10  18  34  59  93 118 153 202 259 294 354
#     4   9  21  41  61  83 123 172 196 243 307 369
#     4  12  21  36  63  98 119 154 209 259 292 356
#
# _framework density 20.261489999999998
#
# number of rings (size 3 to 8) (size 9 to 14) (size 15 to 20)
#    0.000    1.750    6.250    0.375    0.000    1.000 
#    0.000    0.625    0.000   26.250    0.000    0.000 
#    0.000    0.000    0.000    0.000    0.000    0.000 
#
# Total GULP energy -89235.753562 kJ/mol
# GULP energy per Si atom -5577.234598 kJ/mol
# Density = 2.021537 g / cm^3
# Si number density = 20.261490 Si / 1000 Ang^3
#
#
#
# Elastic Constant Matrix: (Units=GPa)
#
#
# Indices 1 2 3 4 5 6 
#
# 1 84.9083 26.8680 23.4368 -4.6332 5.7192 5.4656
# 2 26.8680 68.8984 36.7641 1.5491 -5.7584 20.9062
# 3 23.4368 36.7641 94.7532 1.9256 -0.5030 15.0537
# 4 -4.6332 1.5491 1.9256 21.1438 -3.6302 -1.7601
# 5 5.7192 -5.7584 -0.5030 -3.6302 35.9215 -6.9517
# 6 5.4656 20.9062 15.0537 -1.7601 -6.9517 29.6057
#
#
#
# Elastic Compliance Matrix: (Units=1/GPa)
#
#
# Indices 1 2 3 4 5 6 
#
# 1 0.014218 -0.005400 -0.001775 0.003389 -0.002481 0.001710
# 2 -0.005400 0.023763 -0.005812 -0.003127 0.001836 -0.012583
# 3 -0.001775 -0.005812 0.013742 -0.001664 -0.001193 -0.002934
# 4 0.003389 -0.003127 -0.001664 0.049873 0.005259 0.006628
# 5 -0.002481 0.001836 -0.001193 0.005259 0.030441 0.007228
# 6 0.001710 -0.012583 -0.002934 0.006628 0.007228 0.045930
#
#
# Mechanical properties :
#
#
# Convention : Reuss Voigt Hill
#
# Bulk Modulus (GPa) = 38.83721 46.96643 42.90182
# Shear Modulus (GPa) = 23.52672 28.10027 25.81349
#
# Velocity S-wave (km/s) = 3.41127 3.72812 3.57321
# Velocity P-wave (km/s) = 5.89282 6.46238 6.18416
#
# Compressibility (1/GPa) = 0.02574850
#
# Stress axis : x y z
#
# Youngs Moduli (GPa) = 70.33310 42.08232 72.77175
#
# Poissons Ratio (x) = 0.22722 0.12920
# Poissons Ratio (y) = 0.37977 0.42295
# Poissons Ratio (z) = 0.12487 0.24459
#
# Static dielectric constant tensor:
#      x y z
#    x 1.751810 0.000350 0.004270 
#    y 0.000350 1.796380 -0.000770 
#    z 0.004270 -0.000770 1.725000 
# 
# From -- ./inp_files/417308.got.cif
#   From: 2010.05.17/outbox.cif.g08.bks.cpg/sg2_209_cif.got.tgz:417308.got - 2010.06.03 11:33:40.
