data_PCOD9077198
_publ_section_title
;
Structure prediction by ZEFSAII (Michael W. Deem and Ramdas Pophale) SiO2 
 PCOD9077198
Probable space group: P -1
;
_chemical_formula_sum "Si O2"
_cell_formula_units_Z 14
_cell_length_a 9.150393
_cell_length_b 12.151748
_cell_length_c 11.791102
_cell_angle_alpha 110.773153
_cell_angle_beta 92.508145
_cell_angle_gamma 39.189254
_cell_volume 712.866516
_symmetry_space_group_name_H-M "P -1"
_symmetry_group_IT_number 2
_symmetry_cell_setting 'triclinic'
loop_
_space_group_symop_operation_xyz
x,y,z
-x,-y,-z
loop_
_atom_site_type_symbol
_atom_site_label
_atom_site_fract_x
_atom_site_fract_y
_atom_site_fract_z
Si Si1 0.676397 0.739001 0.961759
Si Si2 0.863594 0.469828 0.441709
Si Si3 0.404958 0.742346 0.364952
Si Si4 0.243705 0.426432 0.873160
Si Si5 0.654079 0.850273 0.783332
Si Si6 0.041113 0.781931 0.453145
Si Si7 0.656283 0.897439 0.349956
O O1 0.636759 0.750219 0.830459
O O2 0.943106 0.633995 0.938481
O O3 0.688357 0.625994 0.010665
O O4 0.466759 0.961768 0.086357
O O5 0.596275 0.657563 0.440307
O O6 0.000000 0.500000 0.500000
O O7 0.061619 0.303089 0.291268
O O8 0.872828 0.366236 0.502220
O O9 0.575103 0.612768 0.211342
O O10 0.263049 0.719358 0.394422
O O11 0.186582 0.983148 0.425832
O O12 0.291251 0.267149 0.756706
O O13 0.501340 0.936894 0.693647
O O14 0.914954 0.791390 0.350372
O O15 0.500000 0.000000 0.500000
#
# Coordination Sequence:
#
# PCOD9077198 Si02
#       7
#     2   2   2   2   2   2   2
#     4   9  19  32  53  84 106 145 198 248 277 324
#     4  12  22  36  62  92 117 149 193 244 297 351
#     4  11  22  37  57  83 122 162 185 231 302 355
#     4  10  18  34  57  81 109 148 197 241 283 341
#     4  10  19  32  54  85 111 139 190 249 286 328
#     4  11  23  37  53  87 127 153 185 233 300 367
#     4  11  18  33  56  84 116 146 186 246 297 335
#
# _framework density 19.639019000000001
#
# number of rings (size 3 to 8) (size 9 to 14) (size 15 to 20)
#    0.000    1.429    4.286    3.000    0.000    0.000 
#    0.000    0.000    0.000    8.571    0.000    0.000 
#    0.000    0.000    0.000    0.000    0.000    0.000 
#
# Total GULP energy -78079.992339 kJ/mol
# GULP energy per Si atom -5577.142310 kJ/mol
# Density = 1.959432 g / cm^3
# Si number density = 19.639019 Si / 1000 Ang^3
#
#
#
# Elastic Constant Matrix: (Units=GPa)
#
#
# Indices 1 2 3 4 5 6 
#
# 1 102.2039 31.5048 28.5791 -8.7325 -28.5345 -0.3786
# 2 31.5048 98.8434 25.2380 -22.2092 -14.3275 0.7670
# 3 28.5791 25.2380 63.1726 -9.0092 -24.3819 0.5444
# 4 -8.7325 -22.2092 -9.0092 47.7082 -2.4252 -6.7230
# 5 -28.5345 -14.3275 -24.3819 -2.4252 27.8534 -1.2613
# 6 -0.3786 0.7670 0.5444 -6.7230 -1.2613 28.5655
#
#
#
# Elastic Compliance Matrix: (Units=1/GPa)
#
#
# Indices 1 2 3 4 5 6 
#
# 1 0.014612 -0.002011 0.000090 0.002697 0.014318 0.001513
# 2 -0.002011 0.013053 -0.002284 0.005598 0.003193 0.001125
# 3 0.000090 -0.002284 0.026012 0.005246 0.022225 0.001783
# 4 0.002697 0.005598 0.005246 0.026638 0.012854 0.006622
# 5 0.014318 0.003193 0.022225 0.012854 0.073055 0.005931
# 6 0.001513 0.001125 0.001783 0.006622 0.005931 0.036784
#
#
# Mechanical properties :
#
#
# Convention : Reuss Voigt Hill
#
# Bulk Modulus (GPa) = 22.09055 48.31818 35.20436
# Shear Modulus (GPa) = 23.40243 32.75196 28.07719
#
# Velocity S-wave (km/s) = 3.45574 4.08818 3.78519
# Velocity P-wave (km/s) = 5.21494 6.85134 6.08837
#
# Compressibility (1/GPa) = 0.04526823
#
# Stress axis : x y z
#
# Youngs Moduli (GPa) = 68.43519 76.61006 38.44362
#
# Poissons Ratio (x) = 0.15407 -0.00347
# Poissons Ratio (y) = 0.13763 0.08780
# Poissons Ratio (z) = -0.00618 0.17497
#
# Static dielectric constant tensor:
#      x y z
#    x 1.676390 0.033020 -0.003050 
#    y 0.033020 1.787050 0.002000 
#    z -0.003050 0.002000 1.767250 
# 
# From -- ./inp_files/285664.got.cif
#   From: 2010.05.17/outbox.cif.g08.bks.cpg/sg2_143_cif.got.tgz:285664.got - 2010.06.03 11:33:40.
