data_PCOD9077678
_publ_section_title
;
Structure prediction by ZEFSAII (Michael W. Deem and Ramdas Pophale) SiO2 
 PCOD9077678
Probable space group: P -1
;
_chemical_formula_sum "Si O2"
_cell_formula_units_Z 16
_cell_length_a 14.958928
_cell_length_b 11.015602
_cell_length_c 9.458070
_cell_angle_alpha 45.289187
_cell_angle_beta 73.946623
_cell_angle_gamma 109.113093
_cell_volume 686.384644
_symmetry_space_group_name_H-M "P -1"
_symmetry_group_IT_number 2
_symmetry_cell_setting 'triclinic'
loop_
_space_group_symop_operation_xyz
x,y,z
-x,-y,-z
loop_
_atom_site_type_symbol
_atom_site_label
_atom_site_fract_x
_atom_site_fract_y
_atom_site_fract_z
Si Si1 0.656281 0.869911 0.099340
Si Si2 0.972949 0.410376 0.823544
Si Si3 0.675444 0.894339 0.395255
Si Si4 0.221858 0.348222 0.424869
Si Si5 0.607559 0.310125 0.666758
Si Si6 0.727705 0.214789 0.525675
Si Si7 0.520307 0.205665 0.242425
Si Si8 0.952505 0.160168 0.750830
O O1 0.658435 0.930926 0.211332
O O2 0.485332 0.645267 0.326161
O O3 0.717667 0.092825 0.777271
O O4 0.779976 0.898021 0.017733
O O5 0.992407 0.613614 0.563208
O O6 0.101340 0.557652 0.757337
O O7 0.972546 0.265314 0.815381
O O8 0.816273 0.192516 0.143031
O O9 0.725323 0.770392 0.486722
O O10 0.529828 0.720291 0.686772
O O11 0.279376 0.525874 0.392184
O O12 0.051255 0.139186 0.681740
O O13 0.318858 0.554238 0.084963
O O14 0.683584 0.350131 0.459834
O O15 0.500000 0.000000 0.000000
O O16 0.602708 0.962648 0.688195
O O17 0.500000 0.000000 0.500000
#
# Coordination Sequence:
#
# PCOD9077678 Si02
#       8
#     2   2   2   2   2   2   2   2
#     4   9  19  37  61  91 122 155 201 256 296 359
#     4   9  18  35  62  92 119 155 209 255 297 359
#     4  11  25  38  59  93 133 162 196 241 324 375
#     4  12  23  39  62  90 130 163 195 260 309 365
#     4  10  18  34  62  91 117 153 209 254 294 339
#     4  10  19  37  67  92 118 152 214 266 287 345
#     4  12  25  41  65  88 120 167 213 249 298 370
#     4   9  18  33  63  91 119 157 206 255 295 347
#
# _framework density 23.310545999999999
#
# number of rings (size 3 to 8) (size 9 to 14) (size 15 to 20)
#    0.000    1.750    3.750    2.625    5.250    3.000 
#    0.000    0.000    0.000    3.750    0.000    0.000 
#    0.000    0.000    0.000    0.000    0.000    0.000 
#
# Total GULP energy -89200.794626 kJ/mol
# GULP energy per Si atom -5575.049664 kJ/mol
# Density = 2.325749 g / cm^3
# Si number density = 23.310546 Si / 1000 Ang^3
#
#
#
# Elastic Constant Matrix: (Units=GPa)
#
#
# Indices 1 2 3 4 5 6 
#
# 1 106.6531 19.2890 24.2117 10.4120 -17.7844 -8.8152
# 2 19.2890 34.9502 5.8864 13.8031 -0.4272 -6.3854
# 3 24.2117 5.8864 82.9300 8.6485 -16.9269 1.8910
# 4 10.4120 13.8031 8.6485 25.7450 -7.0810 -7.3340
# 5 -17.7844 -0.4272 -16.9269 -7.0810 49.5509 0.9219
# 6 -8.8152 -6.3854 1.8910 -7.3340 0.9219 28.6709
#
#
#
# Elastic Compliance Matrix: (Units=1/GPa)
#
#
# Indices 1 2 3 4 5 6 
#
# 1 0.011686 -0.005888 -0.002457 0.000920 0.003388 0.002570
# 2 -0.005888 0.039996 -0.000065 -0.019687 -0.004645 0.002215
# 3 -0.002457 -0.000065 0.013901 -0.003464 0.003421 -0.002683
# 4 0.000920 -0.019687 -0.003464 0.054845 0.006630 0.009943
# 5 0.003388 -0.004645 0.003421 0.006630 0.023460 0.000723
# 6 0.002570 0.002215 -0.002683 0.009943 0.000723 0.038859
#
#
# Mechanical properties :
#
#
# Convention : Reuss Voigt Hill
#
# Bulk Modulus (GPa) = 20.50776 35.92305 28.21541
# Shear Modulus (GPa) = 23.16711 32.46979 27.81845
#
# Velocity S-wave (km/s) = 3.15595 3.73624 3.45829
# Velocity P-wave (km/s) = 4.70072 5.83581 5.29875
#
# Compressibility (1/GPa) = 0.04876202
#
# Stress axis : x y z
#
# Youngs Moduli (GPa) = 85.56916 25.00256 71.93676
#
# Poissons Ratio (x) = 0.14722 0.17675
# Poissons Ratio (y) = 0.50386 0.00471
# Poissons Ratio (z) = 0.21024 0.00164
#
# Static dielectric constant tensor:
#      x y z
#    x 1.959060 -0.028950 -0.024050 
#    y -0.028950 1.904220 0.021050 
#    z -0.024050 0.021050 1.988190 
# 
# From -- ./inp_files/452145.got.cif
#   From: 2010.05.17/outbox.cif.g08.bks.cpg/sg2_227_cif.got.tgz:452145.got - 2010.06.03 11:33:40.
