data_PCOD9077173
_publ_section_title
;
Structure prediction by ZEFSAII (Michael W. Deem and Ramdas Pophale) SiO2 
 PCOD9077173
Probable space group: P -1
;
_chemical_formula_sum "Si O2"
_cell_formula_units_Z 14
_cell_length_a 9.490326
_cell_length_b 10.099463
_cell_length_c 8.598834
_cell_angle_alpha 125.559337
_cell_angle_beta 65.852924
_cell_angle_gamma 88.138394
_cell_volume 569.781565
_symmetry_space_group_name_H-M "P -1"
_symmetry_group_IT_number 2
_symmetry_cell_setting 'triclinic'
loop_
_space_group_symop_operation_xyz
x,y,z
-x,-y,-z
loop_
_atom_site_type_symbol
_atom_site_label
_atom_site_fract_x
_atom_site_fract_y
_atom_site_fract_z
Si Si1 0.420763 0.366607 0.507570
Si Si2 0.647604 0.064214 0.777097
Si Si3 0.957049 0.754530 0.918426
Si Si4 0.223259 0.829315 0.685067
Si Si5 0.699994 0.805990 0.841438
Si Si6 0.154247 0.288650 0.723554
Si Si7 0.884103 0.197836 0.633586
O O1 0.500000 0.500000 0.500000
O O2 0.580745 0.229449 0.427696
O O3 0.360013 0.292666 0.332354
O O4 0.262817 0.405303 0.717435
O O5 0.718025 0.216509 0.816601
O O6 0.712413 0.970205 0.850383
O O7 0.719516 0.910805 0.511020
O O8 0.450606 0.132026 0.926156
O O9 0.915778 0.694263 0.060896
O O10 0.859814 0.964591 0.108573
O O11 0.867558 0.697241 0.778109
O O12 0.143665 0.731997 0.776772
O O13 0.164601 0.793406 0.517493
O O14 0.996693 0.308972 0.698654
O O15 0.000000 0.000000 0.500000
#
# Coordination Sequence:
#
# PCOD9077173 Si02
#       7
#     2   2   2   2   2   2   2
#     4  11  26  46  60  80 119 175 217 242 284 357
#     4   9  17  32  57  91 121 157 182 243 317 357
#     4  11  21  34  62 104 124 144 193 254 331 358
#     4  11  22  35  65  93 128 157 191 248 312 368
#     4  10  21  35  58  84 129 155 199 250 303 354
#     4  10  21  36  62  91 130 154 196 250 304 369
#     4  10  18  34  56  93 128 151 184 241 314 369
#
# _framework density 24.570820999999999
#
# number of rings (size 3 to 8) (size 9 to 14) (size 15 to 20)
#    0.000    1.714    2.857    5.143    6.000    1.143 
#    0.000    4.286    0.000    0.000    0.000    0.000 
#    0.000    0.000    0.000    0.000    0.000    0.000 
#
# Total GULP energy -78288.663921 kJ/mol
# GULP energy per Si atom -5592.047423 kJ/mol
# Density = 2.451490 g / cm^3
# Si number density = 24.570821 Si / 1000 Ang^3
#
#
#
# Elastic Constant Matrix: (Units=GPa)
#
#
# Indices 1 2 3 4 5 6 
#
# 1 159.2455 51.3228 60.7872 -22.1403 7.5786 28.8632
# 2 51.3228 101.0663 41.2059 -31.4111 -8.8472 34.9141
# 3 60.7872 41.2059 79.6150 -32.2200 -7.7203 10.9504
# 4 -22.1403 -31.4111 -32.2200 37.3511 6.2409 -16.8776
# 5 7.5786 -8.8472 -7.7203 6.2409 46.2582 -12.2530
# 6 28.8632 34.9141 10.9504 -16.8776 -12.2530 32.7159
#
#
#
# Elastic Compliance Matrix: (Units=1/GPa)
#
#
# Indices 1 2 3 4 5 6 
#
# 1 0.012153 0.000116 -0.011014 -0.007104 -0.006345 -0.013200
# 2 0.000116 0.019557 -0.006804 0.002859 -0.002621 -0.018203
# 3 -0.011014 -0.006804 0.031893 0.023638 0.008366 0.021630
# 4 -0.007104 0.002859 0.023638 0.056391 0.005006 0.026271
# 5 -0.006345 -0.002621 0.008366 0.005006 0.027801 0.018590
# 6 -0.013200 -0.018203 0.021630 0.026271 0.018590 0.074913
#
#
# Mechanical properties :
#
#
# Convention : Reuss Voigt Hill
#
# Bulk Modulus (GPa) = 35.46104 71.83986 53.65045
# Shear Modulus (GPa) = 18.69066 35.70577 27.19821
#
# Velocity S-wave (km/s) = 2.76104 3.81619 3.33067
# Velocity P-wave (km/s) = 4.96266 6.97991 6.05587
#
# Compressibility (1/GPa) = 0.02819996
#
# Stress axis : x y z
#
# Youngs Moduli (GPa) = 82.28138 51.13201 31.35440
#
# Poissons Ratio (x) = -0.00591 0.34533
# Poissons Ratio (y) = -0.00951 0.21333
# Poissons Ratio (z) = 0.90624 0.34789
#
# Static dielectric constant tensor:
#      x y z
#    x 1.954440 0.021680 -0.000700 
#    y 0.021680 2.046730 0.023630 
#    z -0.000700 0.023630 1.984360 
# 
# From -- ./inp_files/172684.got.cif
#   From: 2010.05.17/outbox.cif.g08.bks.cpg/sg2_87_cif.got.tgz:172684.got - 2010.06.03 11:33:40.
