data_PCOD9077944
_publ_section_title
;
Structure prediction by ZEFSAII (Michael W. Deem and Ramdas Pophale) SiO2 
 PCOD9077944
Probable space group: P -1
;
_chemical_formula_sum "Si O2"
_cell_formula_units_Z 16
_cell_length_a 8.435266
_cell_length_b 12.794980
_cell_length_c 16.826578
_cell_angle_alpha 124.826096
_cell_angle_beta 26.290504
_cell_angle_gamma 114.064791
_cell_volume 632.586753
_symmetry_space_group_name_H-M "P -1"
_symmetry_group_IT_number 2
_symmetry_cell_setting 'triclinic'
loop_
_space_group_symop_operation_xyz
x,y,z
-x,-y,-z
loop_
_atom_site_type_symbol
_atom_site_label
_atom_site_fract_x
_atom_site_fract_y
_atom_site_fract_z
Si Si1 0.624176 0.186178 0.725333
Si Si2 0.396850 0.807042 0.966337
Si Si3 0.387085 0.362154 0.064698
Si Si4 0.072567 0.367974 0.959708
Si Si5 0.961228 0.022972 0.371613
Si Si6 0.108360 0.459639 0.752360
Si Si7 0.967920 0.046969 0.945232
Si Si8 0.425813 0.830860 0.538375
O O1 0.553703 0.244092 0.871585
O O2 0.985889 0.087043 0.475614
O O3 0.289322 0.121527 0.831545
O O4 0.487492 0.313588 0.784692
O O5 0.678242 0.696226 0.845654
O O6 0.061523 0.737593 0.077281
O O7 0.278597 0.932200 0.132957
O O8 0.392633 0.859214 0.899661
O O9 0.724734 0.429223 0.941113
O O10 0.016723 0.469555 0.245031
O O11 0.819962 0.423425 0.175022
O O12 0.000000 0.500000 0.000000
O O13 0.742706 0.141534 0.462313
O O14 0.719868 0.918125 0.448379
O O15 0.406381 0.318066 0.570673
O O16 0.099187 0.912847 0.777629
O O17 0.000000 0.000000 0.000000
#
# Coordination Sequence:
#
# PCOD9077944 Si02
#       8
#     2   2   2   2   2   2   2   2
#     4   9  19  28  45  71  99 127 151 194 232 289
#     4  10  18  30  49  71  98 127 155 196 234 283
#     4  10  19  29  42  72 106 133 148 176 239 294
#     4  10  15  25  44  65  95 128 158 182 223 275
#     4   9  15  27  44  70  97 121 153 195 244 272
#     4  10  18  28  43  69 106 131 149 179 228 302
#     4   9  19  35  54  69  85 122 170 209 236 262
#     4   9  15  28  49  69  93 121 154 201 234 272
#
# _framework density 25.292974000000001
#
# number of rings (size 3 to 8) (size 9 to 14) (size 15 to 20)
#    0.000    2.500    2.500    3.000    0.000    0.500 
#    0.000    0.625    0.000    7.500    0.000    0.000 
#    0.000    0.000    0.000    0.000    0.000    0.000 
#
# Total GULP energy -89079.335854 kJ/mol
# GULP energy per Si atom -5567.458491 kJ/mol
# Density = 2.523541 g / cm^3
# Si number density = 25.292974 Si / 1000 Ang^3
#
#
#
# Elastic Constant Matrix: (Units=GPa)
#
#
# Indices 1 2 3 4 5 6 
#
# 1 106.2486 60.5516 38.6985 10.7145 11.9509 -34.9403
# 2 60.5516 105.9043 31.0632 18.7957 0.2424 -48.0863
# 3 38.6985 31.0632 67.0457 23.7336 16.8434 -8.8320
# 4 10.7145 18.7957 23.7336 33.9620 0.4044 0.1539
# 5 11.9509 0.2424 16.8434 0.4044 41.7764 8.0479
# 6 -34.9403 -48.0863 -8.8320 0.1539 8.0479 83.6881
#
#
#
# Elastic Compliance Matrix: (Units=1/GPa)
#
#
# Indices 1 2 3 4 5 6 
#
# 1 0.016527 -0.007015 -0.006451 0.003196 -0.002586 0.002432
# 2 -0.007015 0.018488 -0.001243 -0.007196 0.001030 0.007477
# 3 -0.006451 -0.001243 0.027291 -0.016242 -0.009065 0.000374
# 4 0.003196 -0.007196 -0.016242 0.043719 0.006254 -0.005196
# 5 -0.002586 0.001030 -0.009065 0.006254 0.029084 -0.004253
# 6 0.002432 0.007477 0.000374 -0.005196 -0.004253 0.017719
#
#
# Mechanical properties :
#
#
# Convention : Reuss Voigt Hill
#
# Bulk Modulus (GPa) = 30.40577 59.98059 45.19318
# Shear Modulus (GPa) = 25.87882 41.81099 33.84490
#
# Velocity S-wave (km/s) = 3.20216 4.07020 3.66199
# Velocity P-wave (km/s) = 5.07142 6.77160 5.98222
#
# Compressibility (1/GPa) = 0.03288850
#
# Stress axis : x y z
#
# Youngs Moduli (GPa) = 60.50534 54.09023 36.64217
#
# Poissons Ratio (x) = 0.37943 0.23638
# Poissons Ratio (y) = 0.42443 0.04555
# Poissons Ratio (z) = 0.39032 0.06724
#
# Static dielectric constant tensor:
#      x y z
#    x 2.082750 -0.069910 0.029020 
#    y -0.069910 2.170580 -0.022380 
#    z 0.029020 -0.022380 2.131770 
# 
# From -- ./inp_files/260055.got.cif
#   From: 2010.05.17/outbox.cif.g08.bks.cpg/sg2_131_cif.got.tgz:260055.got - 2010.06.03 11:33:40.
