data_PCOD9077143
_publ_section_title
;
Structure prediction by ZEFSAII (Michael W. Deem and Ramdas Pophale) SiO2 
 PCOD9077143
Probable space group: P -1
;
_chemical_formula_sum "Si O2"
_cell_formula_units_Z 16
_cell_length_a 10.678821
_cell_length_b 9.339124
_cell_length_c 10.790947
_cell_angle_alpha 62.696956
_cell_angle_beta 131.347824
_cell_angle_gamma 97.817230
_cell_volume 695.038405
_symmetry_space_group_name_H-M "P -1"
_symmetry_group_IT_number 2
_symmetry_cell_setting 'triclinic'
loop_
_space_group_symop_operation_xyz
x,y,z
-x,-y,-z
loop_
_atom_site_type_symbol
_atom_site_label
_atom_site_fract_x
_atom_site_fract_y
_atom_site_fract_z
Si Si1 0.961869 0.095527 0.569961
Si Si2 0.700118 0.700702 0.925079
Si Si3 0.657376 0.351392 0.616960
Si Si4 0.052591 0.496949 0.247910
Si Si5 0.833785 0.645935 0.368507
Si Si6 0.139719 0.197943 0.267403
Si Si7 0.506418 0.047021 0.633773
Si Si8 0.358809 0.599244 0.706916
O O1 0.787813 0.250598 0.385190
O O2 0.113769 0.181019 0.677226
O O3 0.939359 0.961161 0.712525
O O4 0.000000 0.000000 0.500000
O O5 0.783893 0.744055 0.831774
O O6 0.556129 0.597818 0.862379
O O7 0.590023 0.879047 0.826809
O O8 0.874084 0.605036 0.141954
O O9 0.500000 0.500000 0.500000
O O10 0.832015 0.383603 0.773162
O O11 0.616783 0.176470 0.685193
O O12 0.668284 0.353840 0.474382
O O13 0.168829 0.388141 0.472593
O O14 0.019534 0.363621 0.181861
O O15 0.675738 0.583938 0.231717
O O16 0.000000 0.500000 0.500000
O O17 0.307839 0.132526 0.490644
O O18 0.500000 0.000000 0.500000
#
# Coordination Sequence:
#
# PCOD9077143 Si02
#       8
#     2   2   2   2   2   2   2   2
#     4  11  20  36  63  88 110 159 225 248 275 352
#     4  11  21  36  59  96 125 154 187 254 337 352
#     4  11  19  34  58  88 122 160 197 243 298 370
#     4  11  22  34  58  95 122 153 200 256 307 362
#     4   9  21  38  58  86 112 161 209 244 286 354
#     4  11  19  35  61  89 122 156 202 250 296 377
#     4  10  18  34  56  84 116 162 196 230 299 372
#     4  10  19  37  60  87 120 157 198 256 295 367
#
# _framework density 23.020309999999998
#
# number of rings (size 3 to 8) (size 9 to 14) (size 15 to 20)
#    0.000    1.500    6.250    1.125    0.000    0.500 
#    0.000    2.500    0.000    0.750    0.000    0.000 
#    0.000    0.000    0.000    0.000    0.000    0.000 
#
# Total GULP energy -89206.193772 kJ/mol
# GULP energy per Si atom -5575.387111 kJ/mol
# Density = 2.296791 g / cm^3
# Si number density = 23.020310 Si / 1000 Ang^3
#
#
#
# Elastic Constant Matrix: (Units=GPa)
#
#
# Indices 1 2 3 4 5 6 
#
# 1 76.3761 56.2848 17.3217 5.7562 13.3693 16.4306
# 2 56.2848 170.2234 41.8375 17.0391 17.8051 42.2389
# 3 17.3217 41.8375 83.4980 1.7132 18.9383 14.9823
# 4 5.7562 17.0391 1.7132 23.8163 3.3724 17.8557
# 5 13.3693 17.8051 18.9383 3.3724 26.6697 6.9854
# 6 16.4306 42.2389 14.9823 17.8557 6.9854 67.7710
#
#
#
# Elastic Compliance Matrix: (Units=1/GPa)
#
#
# Indices 1 2 3 4 5 6 
#
# 1 0.018048 -0.005358 0.000330 0.000797 -0.005611 -0.000741
# 2 -0.005358 0.009476 -0.002924 -0.002842 -0.000373 -0.003173
# 3 0.000330 -0.002924 0.015732 0.003471 -0.009383 -0.001683
# 4 0.000797 -0.002842 0.003471 0.053901 -0.004394 -0.012938
# 5 -0.005611 -0.000373 -0.009383 -0.004394 0.047803 -0.000102
# 6 -0.000741 -0.003173 -0.001683 -0.012938 -0.000102 0.020704
#
#
# Mechanical properties :
#
#
# Convention : Reuss Voigt Hill
#
# Bulk Modulus (GPa) = 36.56069 62.33173 49.44621
# Shear Modulus (GPa) = 26.22121 37.96162 32.09141
#
# Velocity S-wave (km/s) = 3.37864 4.06525 3.73775
# Velocity P-wave (km/s) = 5.58002 7.01218 6.33669
#
# Compressibility (1/GPa) = 0.02735178
#
# Stress axis : x y z
#
# Youngs Moduli (GPa) = 55.40711 105.53180 63.56525
#
# Poissons Ratio (x) = 0.56541 -0.02096
# Poissons Ratio (y) = 0.29686 0.18587
# Poissons Ratio (z) = -0.01827 0.30858
#
# Static dielectric constant tensor:
#      x y z
#    x 2.029740 -0.027220 -0.042110 
#    y -0.027220 1.956350 0.018830 
#    z -0.042110 0.018830 1.902990 
# 
# From -- ./inp_files/514233.got.cif
#   From: 2010.05.17/outbox.cif.g08.bks.cpg/sg2_258_cif.got.tgz:514233.got - 2010.06.03 11:33:40.
