data_PCOD9077760
_publ_section_title
;
Structure prediction by ZEFSAII (Michael W. Deem and Ramdas Pophale) SiO2 
 PCOD9077760
Probable space group: P -1
;
_chemical_formula_sum "Si O2"
_cell_formula_units_Z 14
_cell_length_a 15.688532
_cell_length_b 15.735408
_cell_length_c 8.499360
_cell_angle_alpha 26.895429
_cell_angle_beta 129.650869
_cell_angle_gamma 145.436552
_cell_volume 499.108387
_symmetry_space_group_name_H-M "P -1"
_symmetry_group_IT_number 2
_symmetry_cell_setting 'triclinic'
loop_
_space_group_symop_operation_xyz
x,y,z
-x,-y,-z
loop_
_atom_site_type_symbol
_atom_site_label
_atom_site_fract_x
_atom_site_fract_y
_atom_site_fract_z
Si Si1 0.676780 0.327555 0.048170
Si Si2 0.337232 0.217462 0.192848
Si Si3 0.111391 0.794091 0.060145
Si Si4 0.901101 0.497687 0.759944
Si Si5 0.615657 0.885547 0.899507
Si Si6 0.115066 0.257796 0.943016
Si Si7 0.532359 0.118292 0.672783
O O1 0.707569 0.186589 0.426317
O O2 0.587449 0.379905 0.951170
O O3 0.493810 0.076233 0.165584
O O4 0.790559 0.483916 0.775393
O O5 0.377979 0.053595 0.554935
O O6 0.336142 0.219995 0.999333
O O7 0.500000 0.500000 0.000000
O O8 0.175780 0.119710 0.224412
O O9 0.145606 0.729664 0.043567
O O10 0.275005 0.035127 0.950400
O O11 0.000000 0.500000 0.500000
O O12 0.996149 0.831992 0.890221
O O13 0.957113 0.729100 0.319385
O O14 0.000000 0.500000 0.000000
O O15 0.292235 0.578097 0.633905
O O16 0.500000 0.000000 0.000000
#
# Coordination Sequence:
#
# PCOD9077760 Si02
#       7
#     2   2   2   2   2   2   2
#     4  10  19  34  59  91 117 149 207 259 302 356
#     4   9  21  38  61  90 124 164 202 248 311 375
#     4  10  21  36  58  90 121 162 209 250 305 368
#     4  11  22  35  59  90 123 156 207 261 304 355
#     4  10  21  36  60  89 122 163 203 250 310 371
#     4  10  20  38  61  86 127 165 199 252 312 365
#     4  10  18  34  64  92 115 155 206 256 303 357
#
# _framework density 28.050018999999999
#
# number of rings (size 3 to 8) (size 9 to 14) (size 15 to 20)
#    0.000    2.000    1.429    3.429    0.000    6.286 
#    0.000    0.714    3.143    4.286    0.000    0.000 
#    0.000    0.000    0.000    0.000    0.000    0.000 
#
# Total GULP energy -77949.534359 kJ/mol
# GULP energy per Si atom -5567.823883 kJ/mol
# Density = 2.798618 g / cm^3
# Si number density = 28.050019 Si / 1000 Ang^3
#
#
#
# Elastic Constant Matrix: (Units=GPa)
#
#
# Indices 1 2 3 4 5 6 
#
# 1 243.1050 42.6989 27.7491 17.4407 -3.4736 24.7798
# 2 42.6989 148.0288 24.1734 23.5392 4.2084 -4.8169
# 3 27.7491 24.1734 68.3196 21.7640 0.9391 5.4359
# 4 17.4407 23.5392 21.7640 27.0447 5.3886 -3.8285
# 5 -3.4736 4.2084 0.9391 5.3886 46.7951 14.4023
# 6 24.7798 -4.8169 5.4359 -3.8285 14.4023 59.5945
#
#
#
# Elastic Compliance Matrix: (Units=1/GPa)
#
#
# Indices 1 2 3 4 5 6 
#
# 1 0.004820 -0.001036 -0.000667 -0.002332 0.001516 -0.002543
# 2 -0.001036 0.008103 -0.000733 -0.005583 -0.000424 0.000897
# 3 -0.000667 -0.000733 0.020668 -0.016543 0.002536 -0.003343
# 4 -0.002332 -0.005583 -0.016543 0.059495 -0.008632 0.007936
# 5 0.001516 -0.000424 0.002536 -0.008632 0.024751 -0.007432
# 6 -0.002543 0.000897 -0.003343 0.007936 -0.007432 0.020521
#
#
# Mechanical properties :
#
#
# Convention : Reuss Voigt Hill
#
# Bulk Modulus (GPa) = 34.82027 72.07736 53.44882
# Shear Modulus (GPa) = 32.72172 51.00897 41.86535
#
# Velocity S-wave (km/s) = 3.41918 4.26901 3.86751
# Velocity P-wave (km/s) = 5.29418 7.07468 6.24818
#
# Compressibility (1/GPa) = 0.02871890
#
# Stress axis : x y z
#
# Youngs Moduli (GPa) = 207.48051 123.40853 48.38302
#
# Poissons Ratio (x) = 0.12791 0.03225
# Poissons Ratio (y) = 0.21505 0.03547
# Poissons Ratio (z) = 0.13831 0.09047
#
# Static dielectric constant tensor:
#      x y z
#    x 2.516880 -0.163380 0.284210 
#    y -0.163380 2.362620 -0.223740 
#    z 0.284210 -0.223740 2.525220 
# 
# From -- ./inp_files/312401.got.cif
#   From: 2010.05.17/outbox.cif.g08.bks.cpg/sg2_157_cif.got.tgz:312401.got - 2010.06.03 11:33:40.
