data_PCOD9077625
_publ_section_title
;
Structure prediction by ZEFSAII (Michael W. Deem and Ramdas Pophale) SiO2 
 PCOD9077625
Probable space group: P -1
;
_chemical_formula_sum "Si O2"
_cell_formula_units_Z 16
_cell_length_a 13.065830
_cell_length_b 8.914662
_cell_length_c 23.439745
_cell_angle_alpha 131.394617
_cell_angle_beta 19.240170
_cell_angle_gamma 127.246740
_cell_volume 672.906686
_symmetry_space_group_name_H-M "P -1"
_symmetry_group_IT_number 2
_symmetry_cell_setting 'triclinic'
loop_
_space_group_symop_operation_xyz
x,y,z
-x,-y,-z
loop_
_atom_site_type_symbol
_atom_site_label
_atom_site_fract_x
_atom_site_fract_y
_atom_site_fract_z
Si Si1 0.280761 0.532550 0.800346
Si Si2 0.228146 0.156866 0.158017
Si Si3 0.236404 0.195078 0.827597
Si Si4 0.313552 0.137156 0.294888
Si Si5 0.935114 0.570073 0.414843
Si Si6 0.866261 0.018187 0.406423
Si Si7 0.844787 0.573726 0.333468
Si Si8 0.821869 0.833241 0.950276
O O1 0.198706 0.330451 0.823512
O O2 0.443999 0.688865 0.796883
O O3 0.572626 0.504920 0.596438
O O4 0.955353 0.659960 0.989609
O O5 0.222240 0.160493 0.093745
O O6 0.192435 0.393567 0.252563
O O7 0.911552 0.089761 0.336341
O O8 0.500000 0.000000 0.000000
O O9 0.597302 0.128591 0.614057
O O10 0.087857 0.983765 0.858299
O O11 0.071003 0.240101 0.493051
O O12 0.165111 0.076205 0.299220
O O13 0.511992 0.944353 0.167310
O O14 0.963571 0.617697 0.345792
O O15 0.841473 0.782575 0.356255
O O16 0.500000 0.500000 0.500000
O O17 0.072017 0.391105 0.144783
#
# Coordination Sequence:
#
# PCOD9077625 Si02
#       8
#     2   2   2   2   2   2   2   2
#     4   8  18  36  58  89 118 155 195 252 315 351
#     4  11  22  39  61  96 124 161 206 255 309 369
#     4  10  18  34  61  92 118 158 200 254 308 357
#     4   9  20  40  63  87 122 161 200 258 305 358
#     4   9  21  41  65  84 126 164 198 253 313 360
#     4  12  22  37  65  93 123 163 212 249 309 365
#     4  11  24  40  62  90 128 163 209 251 305 372
#     4  10  21  41  62  85 130 163 200 258 308 360
#
# _framework density 23.777441
#
# number of rings (size 3 to 8) (size 9 to 14) (size 15 to 20)
#    0.750    1.250    3.750    0.000    0.000    4.500 
#    2.250    2.500    0.000    0.000    0.000    0.000 
#    0.000    0.000    0.000    0.000    0.000    0.000 
#
# Total GULP energy -89138.067213 kJ/mol
# GULP energy per Si atom -5571.129201 kJ/mol
# Density = 2.372332 g / cm^3
# Si number density = 23.777441 Si / 1000 Ang^3
#
#
#
# Elastic Constant Matrix: (Units=GPa)
#
#
# Indices 1 2 3 4 5 6 
#
# 1 32.2292 12.7103 20.7189 6.2039 10.4270 4.4050
# 2 12.7103 71.2316 20.5596 15.9448 6.7565 4.4361
# 3 20.7189 20.5596 137.0437 25.4047 -1.5050 -0.2639
# 4 6.2039 15.9448 25.4047 37.4543 -1.5957 -0.2262
# 5 10.4270 6.7565 -1.5050 -1.5957 19.8080 0.9930
# 6 4.4050 4.4361 -0.2639 -0.2262 0.9930 14.1155
#
#
#
# Elastic Compliance Matrix: (Units=1/GPa)
#
#
# Indices 1 2 3 4 5 6 
#
# 1 0.045928 -0.002694 -0.006204 -0.003322 -0.023395 -0.012010
# 2 -0.002694 0.016940 -0.001027 -0.006296 -0.004731 -0.004270
# 3 -0.006204 -0.001027 0.009300 -0.004667 0.003842 0.002088
# 4 -0.003322 -0.006296 -0.004667 0.033373 0.006078 0.003035
# 5 -0.023395 -0.004731 0.003842 0.006078 0.064975 0.004386
# 6 -0.012010 -0.004270 0.002088 0.003035 0.004386 0.075713
#
#
# Mechanical properties :
#
#
# Convention : Reuss Voigt Hill
#
# Bulk Modulus (GPa) = 19.11369 38.72024 28.91697
# Shear Modulus (GPa) = 17.63551 26.70994 22.17273
#
# Velocity S-wave (km/s) = 2.72635 3.35525 3.05702
# Velocity P-wave (km/s) = 4.23872 5.59733 4.96471
#
# Compressibility (1/GPa) = 0.05231852
#
# Stress axis : x y z
#
# Youngs Moduli (GPa) = 21.77319 59.03215 107.52311
#
# Poissons Ratio (x) = 0.15904 0.66704
# Poissons Ratio (y) = 0.05866 0.11044
# Poissons Ratio (z) = 0.13507 0.06063
#
# Static dielectric constant tensor:
#      x y z
#    x 2.396360 -0.184580 0.024720 
#    y -0.184580 1.950620 -0.024640 
#    z 0.024720 -0.024640 1.992110 
# 
# From -- ./inp_files/619270.got.cif
#   From: 2010.05.17/outbox.cif.g08.bks.cpg/sg2_310_cif.got.tgz:619270.got - 2010.06.03 11:33:40.
