data_PCOD9077052
_publ_section_title
;
Structure prediction by ZEFSAII (Michael W. Deem and Ramdas Pophale) SiO2 
 PCOD9077052
Probable space group: P -1
;
_chemical_formula_sum "Si O2"
_cell_formula_units_Z 16
_cell_length_a 9.542243
_cell_length_b 17.364532
_cell_length_c 11.341174
_cell_angle_alpha 53.838745
_cell_angle_beta 58.904164
_cell_angle_gamma 103.753151
_cell_volume 805.351163
_symmetry_space_group_name_H-M "P -1"
_symmetry_group_IT_number 2
_symmetry_cell_setting 'triclinic'
loop_
_space_group_symop_operation_xyz
x,y,z
-x,-y,-z
loop_
_atom_site_type_symbol
_atom_site_label
_atom_site_fract_x
_atom_site_fract_y
_atom_site_fract_z
Si Si1 0.874441 0.865779 0.526044
Si Si2 0.439341 0.083047 0.166783
Si Si3 0.986943 0.557925 0.756940
Si Si4 0.176122 0.789405 0.657107
Si Si5 0.358536 0.340165 0.959446
Si Si6 0.446503 0.801181 0.728652
Si Si7 0.273705 0.387014 0.299793
Si Si8 0.259383 0.632800 0.351767
O O1 0.690681 0.744702 0.823236
O O2 0.746266 0.901472 0.496417
O O3 0.866451 0.777247 0.513453
O O4 0.161291 0.007721 0.327849
O O5 0.568875 0.171511 0.154775
O O6 0.343886 0.931210 0.365240
O O7 0.629130 0.210835 0.869287
O O8 0.077241 0.651990 0.751310
O O9 0.190008 0.592561 0.556164
O O10 0.909496 0.608462 0.656983
O O11 0.739742 0.375923 0.050426
O O12 0.354218 0.837545 0.644207
O O13 0.926030 0.737712 0.859516
O O14 0.569933 0.520650 0.732545
O O15 0.512266 0.339123 0.806940
O O16 0.500000 0.500000 0.000000
O O17 0.000000 0.500000 0.500000
#
# Coordination Sequence:
#
# PCOD9077052 Si02
#       8
#     2   2   2   2   2   2   2   2
#     4  10  18  33  63  89 113 146 207 249 285 329
#     4  11  22  38  60  92 116 153 196 253 295 338
#     4  12  21  38  60  91 122 154 199 239 295 352
#     4  11  25  38  60  91 124 153 197 243 298 348
#     4  10  18  36  60  88 114 153 200 246 286 336
#     4  12  21  37  62  91 123 155 192 247 294 351
#     4  10  14  31  58  86 116 142 194 256 274 330
#     4  12  22  36  64  88 117 154 199 250 289 350
#
# _framework density 19.867111999999999
#
# number of rings (size 3 to 8) (size 9 to 14) (size 15 to 20)
#    0.000    1.000   10.000    1.125    1.750    0.500 
#    0.000    0.625    0.000    0.750    0.000    0.000 
#    0.000    0.000    0.000    0.000    0.000    0.000 
#
# Total GULP energy -89160.251424 kJ/mol
# GULP energy per Si atom -5572.515714 kJ/mol
# Density = 1.982189 g / cm^3
# Si number density = 19.867112 Si / 1000 Ang^3
#
#
#
# Elastic Constant Matrix: (Units=GPa)
#
#
# Indices 1 2 3 4 5 6 
#
# 1 117.7338 14.2961 18.4280 6.8187 -14.3937 6.8538
# 2 14.2961 75.0290 22.3686 -10.2585 -7.9575 -5.1873
# 3 18.4280 22.3686 55.2011 3.2007 -10.0722 4.0507
# 4 6.8187 -10.2585 3.2007 29.5308 -5.5708 -9.3466
# 5 -14.3937 -7.9575 -10.0722 -5.5708 11.8871 -1.5146
# 6 6.8538 -5.1873 4.0507 -9.3466 -1.5146 21.0906
#
#
#
# Elastic Compliance Matrix: (Units=1/GPa)
#
#
# Indices 1 2 3 4 5 6 
#
# 1 0.010268 -0.001275 -0.000790 -0.002144 0.009425 -0.003772
# 2 -0.001275 0.020535 -0.007077 0.015867 0.015550 0.014973
# 3 -0.000790 -0.007077 0.024186 -0.005145 0.011421 -0.007589
# 4 -0.002144 0.015867 -0.005145 0.057682 0.034988 0.033663
# 5 0.009425 0.015550 0.011421 0.034988 0.135050 0.023772
# 6 -0.003772 0.014973 -0.007589 0.033663 0.023772 0.070406
#
#
# Mechanical properties :
#
#
# Convention : Reuss Voigt Hill
#
# Bulk Modulus (GPa) = 27.24469 39.79436 33.51953
# Shear Modulus (GPa) = 14.34112 25.35978 19.85045
#
# Velocity S-wave (km/s) = 2.68965 3.57665 3.16438
# Velocity P-wave (km/s) = 4.83620 6.09346 5.50087
#
# Compressibility (1/GPa) = 0.03670440
#
# Stress axis : x y z
#
# Youngs Moduli (GPa) = 97.38708 48.69747 41.34578
#
# Poissons Ratio (x) = 0.06211 0.03268
# Poissons Ratio (y) = 0.12420 0.29260
# Poissons Ratio (z) = 0.07697 0.34463
#
# Static dielectric constant tensor:
#      x y z
#    x 1.734470 -0.034460 -0.052520 
#    y -0.034460 1.798060 -0.003870 
#    z -0.052520 -0.003870 1.751290 
# 
# From -- ./inp_files/402972.got.cif
#   From: 2010.05.17/outbox.cif.g08.bks.cpg/sg2_202_cif.got.tgz:402972.got - 2010.06.03 11:33:40.
