data_PCOD9077866
_publ_section_title
;
Structure prediction by ZEFSAII (Michael W. Deem and Ramdas Pophale) SiO2 
 PCOD9077866
Probable space group: P -1
;
_chemical_formula_sum "Si O2"
_cell_formula_units_Z 16
_cell_length_a 18.329908
_cell_length_b 7.639027
_cell_length_c 12.307614
_cell_angle_alpha 87.465884
_cell_angle_beta 41.508252
_cell_angle_gamma 116.818394
_cell_volume 778.043956
_symmetry_space_group_name_H-M "P -1"
_symmetry_group_IT_number 2
_symmetry_cell_setting 'triclinic'
loop_
_space_group_symop_operation_xyz
x,y,z
-x,-y,-z
loop_
_atom_site_type_symbol
_atom_site_label
_atom_site_fract_x
_atom_site_fract_y
_atom_site_fract_z
Si Si1 0.257518 0.139826 0.249432
Si Si2 0.683977 0.287072 0.288394
Si Si3 0.672893 0.168682 0.754187
Si Si4 0.566076 0.561748 0.747453
Si Si5 0.596290 0.550488 0.284415
Si Si6 0.411557 0.796108 0.366501
Si Si7 0.763293 0.114919 0.039126
Si Si8 0.003421 0.328172 0.571868
O O1 0.288650 0.231172 0.336633
O O2 0.284466 0.963833 0.235306
O O3 0.088742 0.937513 0.378061
O O4 0.400988 0.383601 0.007946
O O5 0.684858 0.472642 0.218313
O O6 0.698209 0.334735 0.399952
O O7 0.791713 0.263462 0.111565
O O8 0.500000 0.000000 0.500000
O O9 0.650644 0.133406 0.650593
O O10 0.806414 0.470743 0.623989
O O11 0.500000 0.000000 0.000000
O O12 0.523438 0.612867 0.681077
O O13 0.595514 0.398780 0.679480
O O14 0.500000 0.500000 0.500000
O O15 0.707322 0.849170 0.128073
O O16 0.604487 0.029834 0.169371
O O17 0.909170 0.269808 0.788605
O O18 0.000000 0.500000 0.500000
#
# Coordination Sequence:
#
# PCOD9077866 Si02
#       8
#     2   2   2   2   2   2   2   2
#     4  10  20  35  56  85 119 167 195 249 310 369
#     4  10  20  32  58  92 126 160 218 250 300 366
#     4  11  21  35  63  86 115 156 210 259 313 375
#     4  10  19  33  57  84 131 153 207 242 307 362
#     4  11  18  33  59  94 127 170 206 255 301 358
#     4  10  18  35  54  89 119 154 205 255 289 367
#     4  10  20  37  61  87 127 161 207 256 309 366
#     4  10  20  40  60  83 124 165 200 258 321 370
#
# _framework density 20.56439
#
# number of rings (size 3 to 8) (size 9 to 14) (size 15 to 20)
#    0.000    1.750    7.500    0.750    3.500    0.000 
#    0.000    1.250    5.500    0.750    0.000    0.000 
#    0.000    0.000    0.000    0.250    0.000    0.000 
#
# Total GULP energy -89080.443961 kJ/mol
# GULP energy per Si atom -5567.527748 kJ/mol
# Density = 2.051758 g / cm^3
# Si number density = 20.564390 Si / 1000 Ang^3
#
#
#
# Elastic Constant Matrix: (Units=GPa)
#
#
# Indices 1 2 3 4 5 6 
#
# 1 69.1373 3.9021 31.0473 6.6554 13.7766 10.0517
# 2 3.9021 82.5358 41.7583 17.8294 -8.8415 23.4433
# 3 31.0473 41.7583 102.5531 3.1736 9.8464 16.4908
# 4 6.6554 17.8294 3.1736 25.4669 7.1275 5.4168
# 5 13.7766 -8.8415 9.8464 7.1275 28.3697 1.0810
# 6 10.0517 23.4433 16.4908 5.4168 1.0810 39.6946
#
#
#
# Elastic Compliance Matrix: (Units=1/GPa)
#
#
# Indices 1 2 3 4 5 6 
#
# 1 0.018882 0.003775 -0.006072 -0.004758 -0.004548 -0.003715
# 2 0.003775 0.026493 -0.011283 -0.020538 0.015863 -0.009544
# 3 -0.006072 -0.011283 0.016703 0.009846 -0.008845 0.000160
# 4 -0.004758 -0.020538 0.009846 0.059605 -0.022548 0.001724
# 5 -0.004548 0.015863 -0.008845 -0.022548 0.051245 -0.002861
# 6 -0.003715 -0.009544 0.000160 0.001724 -0.002861 0.031546
#
#
# Mechanical properties :
#
#
# Convention : Reuss Voigt Hill
#
# Bulk Modulus (GPa) = 28.63911 45.29353 36.96632
# Shear Modulus (GPa) = 20.55294 30.54081 25.54687
#
# Velocity S-wave (km/s) = 3.16483 3.85792 3.52843
# Velocity P-wave (km/s) = 5.22605 6.47439 5.88343
#
# Compressibility (1/GPa) = 0.03491728
#
# Stress axis : x y z
#
# Youngs Moduli (GPa) = 52.95958 37.74591 59.87064
#
# Poissons Ratio (x) = -0.14251 0.36356
# Poissons Ratio (y) = -0.19995 0.67554
# Poissons Ratio (z) = 0.32160 0.42590
#
# Static dielectric constant tensor:
#      x y z
#    x 3.593360 0.250910 0.153610 
#    y 0.250910 1.845230 -0.013730 
#    z 0.153610 -0.013730 1.798010 
# 
# From -- ./inp_files/390024.got.cif
#   From: 2010.05.17/outbox.cif.g08.bks.cpg/sg2_196_cif.got.tgz:390024.got - 2010.06.03 11:33:40.
