data_PCOD9077788
_publ_section_title
;
Structure prediction by ZEFSAII (Michael W. Deem and Ramdas Pophale) SiO2 
 PCOD9077788
Probable space group: P -1
;
_chemical_formula_sum "Si O2"
_cell_formula_units_Z 13
_cell_length_a 9.576087
_cell_length_b 8.360805
_cell_length_c 9.627749
_cell_angle_alpha 80.952928
_cell_angle_beta 74.271489
_cell_angle_gamma 133.718740
_cell_volume 465.844720
_symmetry_space_group_name_H-M "P -1"
_symmetry_group_IT_number 2
_symmetry_cell_setting 'triclinic'
loop_
_space_group_symop_operation_xyz
x,y,z
-x,-y,-z
loop_
_atom_site_type_symbol
_atom_site_label
_atom_site_fract_x
_atom_site_fract_y
_atom_site_fract_z
Si Si1 0.500000 0.500000 0.500000
Si Si2 0.024929 0.529364 0.158203
Si Si3 0.003758 0.145134 0.597068
Si Si4 0.672731 0.997106 0.337768
Si Si5 0.025464 0.211252 0.981900
Si Si6 0.307886 0.604696 0.289274
Si Si7 0.531038 0.602598 0.827660
O O1 0.223318 0.301294 0.612481
O O2 0.570285 0.756323 0.479626
O O3 0.074310 0.763565 0.117383
O O4 0.230314 0.610147 0.164148
O O5 0.786334 0.259693 0.326910
O O6 0.000000 0.500000 0.000000
O O7 0.077429 0.371869 0.468177
O O8 0.000000 0.000000 0.500000
O O9 0.743273 0.903506 0.741704
O O10 0.485445 0.866677 0.287121
O O11 0.898248 0.130196 0.174233
O O12 0.293290 0.477932 0.874323
O O13 0.000000 0.000000 0.000000
O O14 0.426274 0.522534 0.265703
O O15 0.500000 0.500000 0.000000
#
# Coordination Sequence:
#
# PCOD9077788 Si02
#       7
#     1   2   2   2   2   2   2
#     4  10  18  34  66  90 116 154 210 254 282 374
#     4  10  22  39  61  88 124 161 208 256 306 370
#     4   9  19  34  58  89 121 159 207 246 302 365
#     4  10  20  38  64  90 120 161 210 244 311 365
#     4  11  22  39  57  88 125 156 199 255 317 364
#     4  10  20  38  63  87 118 163 211 253 298 379
#     4  11  20  36  60  91 126 157 201 262 312 361
#
# _framework density 27.906295
#
# number of rings (size 3 to 8) (size 9 to 14) (size 15 to 20)
#    0.000    1.846    1.538    4.615    0.000    2.462 
#    2.769    0.769    0.000    1.846    0.000    0.000 
#    0.000    0.000    0.000    0.000    0.000    0.000 
#
# Total GULP energy -72425.194665 kJ/mol
# GULP energy per Si atom -5571.168820 kJ/mol
# Density = 2.784278 g / cm^3
# Si number density = 27.906295 Si / 1000 Ang^3
#
#
#
# Elastic Constant Matrix: (Units=GPa)
#
#
# Indices 1 2 3 4 5 6 
#
# 1 141.3920 41.5155 35.2812 -25.2812 11.5805 18.2850
# 2 41.5155 121.2907 34.7039 -27.2016 -14.8534 19.7278
# 3 35.2812 34.7039 107.3555 -39.8661 -14.4144 12.1528
# 4 -25.2812 -27.2016 -39.8661 42.5059 1.0658 -2.3568
# 5 11.5805 -14.8534 -14.4144 1.0658 36.3852 -12.8356
# 6 18.2850 19.7278 12.1528 -2.3568 -12.8356 56.2055
#
#
#
# Elastic Compliance Matrix: (Units=1/GPa)
#
#
# Indices 1 2 3 4 5 6 
#
# 1 0.009576 -0.002433 -0.001970 0.002269 -0.005984 -0.003107
# 2 -0.002433 0.011160 0.000072 0.005545 0.004535 -0.001873
# 3 -0.001970 0.000072 0.015930 0.013612 0.006277 -0.000824
# 4 0.002269 0.005545 0.013612 0.040915 0.004737 -0.002830
# 5 -0.005984 0.004535 0.006277 0.004737 0.036222 0.007468
# 6 -0.003107 -0.001873 -0.000824 -0.002830 0.007468 0.021225
#
#
# Mechanical properties :
#
#
# Convention : Reuss Voigt Hill
#
# Bulk Modulus (GPa) = 35.70765 65.89323 50.80044
# Shear Modulus (GPa) = 32.67448 44.25516 38.46482
#
# Velocity S-wave (km/s) = 3.42550 3.98659 3.71665
# Velocity P-wave (km/s) = 5.33561 6.69732 6.05487
#
# Compressibility (1/GPa) = 0.02800520
#
# Stress axis : x y z
#
# Youngs Moduli (GPa) = 104.42905 89.60254 62.77519
#
# Poissons Ratio (x) = 0.21797 0.12365
# Poissons Ratio (y) = 0.25404 -0.00451
# Poissons Ratio (z) = 0.20570 -0.00644
#
# Static dielectric constant tensor:
#      x y z
#    x 2.326070 -0.261640 -0.063070 
#    y -0.261640 2.370660 0.036270 
#    z -0.063070 0.036270 2.166830 
# 
# From -- ./inp_files/233364.got.cif
#   From: 2010.05.17/outbox.cif.g08.bks.cpg/sg2_117_cif.got.tgz:233364.got - 2010.06.03 11:33:40.
