data_PCOD9077087
_publ_section_title
;
Structure prediction by ZEFSAII (Michael W. Deem and Ramdas Pophale) SiO2 
 PCOD9077087
Probable space group: P -1
;
_chemical_formula_sum "Si O2"
_cell_formula_units_Z 16
_cell_length_a 15.273510
_cell_length_b 13.891733
_cell_length_c 12.722271
_cell_angle_alpha 30.997893
_cell_angle_beta 141.795617
_cell_angle_gamma 151.882099
_cell_volume 650.223742
_symmetry_space_group_name_H-M "P -1"
_symmetry_group_IT_number 2
_symmetry_cell_setting 'triclinic'
loop_
_space_group_symop_operation_xyz
x,y,z
-x,-y,-z
loop_
_atom_site_type_symbol
_atom_site_label
_atom_site_fract_x
_atom_site_fract_y
_atom_site_fract_z
Si Si1 0.485771 0.394182 0.278442
Si Si2 0.224751 0.734157 0.986358
Si Si3 0.349652 0.093125 0.077587
Si Si4 0.770963 0.589838 0.852586
Si Si5 0.215370 0.514426 0.383216
Si Si6 0.361379 0.911178 0.548889
Si Si7 0.832928 0.946923 0.281568
Si Si8 0.980531 0.576990 0.240932
O O1 0.391635 0.405967 0.281257
O O2 0.659869 0.425256 0.455074
O O3 0.347703 0.121097 0.356821
O O4 0.564235 0.634157 0.059253
O O5 0.295020 0.656640 0.035543
O O6 0.299106 0.721518 0.179788
O O7 0.245070 0.975224 0.778232
O O8 0.000000 0.500000 0.000000
O O9 0.172517 0.847078 0.199992
O O10 0.520970 0.095543 0.242126
O O11 0.262966 0.069490 0.903643
O O12 0.945644 0.824281 0.735016
O O13 0.857597 0.618974 0.020935
O O14 0.038989 0.469794 0.309429
O O15 0.187349 0.291841 0.508535
O O16 0.159871 0.639707 0.607492
O O17 0.500000 0.000000 0.500000
#
# Coordination Sequence:
#
# PCOD9077087 Si02
#       8
#     2   2   2   2   2   2   2   2
#     4  11  23  43  67  93 133 173 216 267 329 388
#     4  10  18  34  55  92 135 165 226 267 303 367
#     4  10  21  44  65  94 134 168 209 269 325 383
#     4  10  20  37  62  91 128 179 214 263 322 373
#     4  11  20  37  64  90 129 181 212 261 318 383
#     4  12  26  44  71 101 127 162 219 276 328 401
#     4   9  19  35  61  88 128 176 216 262 317 375
#     4  11  21  44  70  90 134 179 211 261 340 381
#
# _framework density 24.606915000000001
#
# number of rings (size 3 to 8) (size 9 to 14) (size 15 to 20)
#    0.000    1.500    6.250    0.750    0.000    3.500 
#    2.250    3.125    0.000    0.000    0.000    0.000 
#    0.000    0.000    0.000    0.000    0.000    0.000 
#
# Total GULP energy -89354.874585 kJ/mol
# GULP energy per Si atom -5584.679662 kJ/mol
# Density = 2.455091 g / cm^3
# Si number density = 24.606915 Si / 1000 Ang^3
#
#
#
# Elastic Constant Matrix: (Units=GPa)
#
#
# Indices 1 2 3 4 5 6 
#
# 1 64.3652 9.6975 16.2149 -1.8945 -0.0658 15.7843
# 2 9.6975 98.4574 35.9477 -25.4679 -4.3725 19.6431
# 3 16.2149 35.9477 118.1570 -28.6741 19.3930 -1.6551
# 4 -1.8945 -25.4679 -28.6741 40.2103 -0.9808 -3.5964
# 5 -0.0658 -4.3725 19.3930 -0.9808 23.2300 0.1373
# 6 15.7843 19.6431 -1.6551 -3.5964 0.1373 26.1422
#
#
#
# Elastic Compliance Matrix: (Units=1/GPa)
#
#
# Indices 1 2 3 4 5 6 
#
# 1 0.019912 0.002344 -0.004965 -0.002297 0.004631 -0.014438
# 2 0.002344 0.016371 -0.005431 0.005608 0.007938 -0.013331
# 3 -0.004965 -0.005431 0.014900 0.007445 -0.013215 0.009116
# 4 -0.002297 0.005608 0.007445 0.033736 -0.003755 0.002305
# 5 0.004631 0.007938 -0.013215 -0.003755 0.055490 -0.010405
# 6 -0.014438 -0.013331 0.009116 0.002305 -0.010405 0.057935
#
#
# Mechanical properties :
#
#
# Convention : Reuss Voigt Hill
#
# Bulk Modulus (GPa) = 28.50729 44.96664 36.73696
# Shear Modulus (GPa) = 22.10986 32.52449 27.31717
#
# Velocity S-wave (km/s) = 3.00079 3.63955 3.33549
# Velocity P-wave (km/s) = 4.85968 5.99795 5.45857
#
# Compressibility (1/GPa) = 0.03507875
#
# Stress axis : x y z
#
# Youngs Moduli (GPa) = 50.22123 61.08194 67.11248
#
# Poissons Ratio (x) = -0.14317 0.33323
# Poissons Ratio (y) = -0.11771 0.36449
# Poissons Ratio (z) = 0.24936 0.33174
#
# Static dielectric constant tensor:
#      x y z
#    x 1.930080 -0.033830 -0.032740 
#    y -0.033830 2.000560 -0.032890 
#    z -0.032740 -0.032890 1.973360 
# 
# From -- ./inp_files/534142.got.cif
#   From: 2010.05.17/outbox.cif.g08.bks.cpg/sg2_268_cif.got.tgz:534142.got - 2010.06.03 11:33:40.
