data_PCOD9077502
_publ_section_title
;
Structure prediction by ZEFSAII (Michael W. Deem and Ramdas Pophale) SiO2 
 PCOD9077502
Probable space group: P -1
;
_chemical_formula_sum "Si O2"
_cell_formula_units_Z 14
_cell_length_a 8.078133
_cell_length_b 7.022055
_cell_length_c 15.332358
_cell_angle_alpha 129.364941
_cell_angle_beta 121.847329
_cell_angle_gamma 82.990292
_cell_volume 540.413782
_symmetry_space_group_name_H-M "P -1"
_symmetry_group_IT_number 2
_symmetry_cell_setting 'triclinic'
loop_
_space_group_symop_operation_xyz
x,y,z
-x,-y,-z
loop_
_atom_site_type_symbol
_atom_site_label
_atom_site_fract_x
_atom_site_fract_y
_atom_site_fract_z
Si Si1 0.110724 0.162895 0.659728
Si Si2 0.402424 0.586477 0.583105
Si Si3 0.201092 0.578602 0.925489
Si Si4 0.998138 0.212105 0.316219
Si Si5 0.748786 0.093410 0.806769
Si Si6 0.638613 0.834238 0.041696
Si Si7 0.534947 0.438598 0.760657
O O1 0.055097 0.406326 0.759277
O O2 0.344306 0.299368 0.731987
O O3 0.000000 0.000000 0.500000
O O4 0.059316 0.945656 0.656330
O O5 0.500000 0.500000 0.500000
O O6 0.159218 0.491533 0.466168
O O7 0.450677 0.446608 0.642426
O O8 0.529254 0.889073 0.715682
O O9 0.410518 0.765520 0.995736
O O10 0.137764 0.742397 0.030566
O O11 0.267350 0.359980 0.934541
O O12 0.120727 0.069756 0.247479
O O13 0.776203 0.131262 0.185006
O O14 0.692876 0.278640 0.773581
O O15 0.634530 0.726352 0.911642
#
# Coordination Sequence:
#
# PCOD9077502 Si02
#       7
#     2   2   2   2   2   2   2
#     4  10  18  34  60  86 116 150 189 236 287 337
#     4  10  22  38  56  83 121 153 183 238 291 333
#     4   8  16  32  55  83 114 149 187 233 284 334
#     4  10  19  34  59  85 118 149 189 241 282 330
#     4  10  21  37  61  85 114 152 195 231 281 344
#     4   8  16  32  57  83 109 151 187 230 287 334
#     4  10  20  39  63  80 114 155 188 232 291 341
#
# _framework density 25.906075999999999
#
# number of rings (size 3 to 8) (size 9 to 14) (size 15 to 20)
#    0.000    2.571    1.429    2.571    0.000    7.429 
#    0.000    8.571    3.143    0.000    0.000    0.000 
#    0.000    0.000    0.000    0.000    0.000    0.000 
#
# Total GULP energy -78254.560314 kJ/mol
# GULP energy per Si atom -5589.611451 kJ/mol
# Density = 2.584711 g / cm^3
# Si number density = 25.906076 Si / 1000 Ang^3
#
#
#
# Elastic Constant Matrix: (Units=GPa)
#
#
# Indices 1 2 3 4 5 6 
#
# 1 76.8926 22.7305 42.9359 4.1645 -9.6033 22.0402
# 2 22.7305 78.5659 36.1311 10.0642 -0.2821 9.9255
# 3 42.9359 36.1311 213.7914 2.0311 -3.2943 14.4044
# 4 4.1645 10.0642 2.0311 36.4190 16.4734 1.7852
# 5 -9.6033 -0.2821 -3.2943 16.4734 47.2802 6.8473
# 6 22.0402 9.9255 14.4044 1.7852 6.8473 29.0173
#
#
#
# Elastic Compliance Matrix: (Units=1/GPa)
#
#
# Indices 1 2 3 4 5 6 
#
# 1 0.020678 -0.002293 -0.002581 -0.004332 0.007717 -0.015195
# 2 -0.002293 0.015129 -0.001861 -0.004307 0.001367 -0.002567
# 3 -0.002581 -0.001861 0.005504 0.000676 -0.000375 -0.000088
# 4 -0.004332 -0.004307 0.000676 0.035121 -0.013899 0.005547
# 5 0.007717 0.001367 -0.000375 -0.013899 0.029310 -0.012204
# 6 -0.015195 -0.002567 -0.000088 0.005547 -0.012204 0.049464
#
#
# Mechanical properties :
#
#
# Convention : Reuss Voigt Hill
#
# Bulk Modulus (GPa) = 35.92059 63.64943 49.78501
# Shear Modulus (GPa) = 28.09666 40.37346 34.23506
#
# Velocity S-wave (km/s) = 3.29684 3.95201 3.63920
# Velocity P-wave (km/s) = 5.32804 6.74145 6.07598
#
# Compressibility (1/GPa) = 0.02783919
#
# Stress axis : x y z
#
# Youngs Moduli (GPa) = 48.36010 66.10029 181.67996
#
# Poissons Ratio (x) = 0.15158 0.46900
# Poissons Ratio (y) = 0.11090 0.33816
# Poissons Ratio (z) = 0.12484 0.12303
#
# Static dielectric constant tensor:
#      x y z
#    x 2.047940 -0.000090 0.036080 
#    y -0.000090 2.068650 -0.026130 
#    z 0.036080 -0.026130 2.163610 
# 
# From -- ./inp_files/298687.got.cif
#   From: 2010.05.17/outbox.cif.g08.bks.cpg/sg2_150_cif.got.tgz:298687.got - 2010.06.03 11:33:40.
