data_PCOD9077586
_publ_section_title
;
Structure prediction by ZEFSAII (Michael W. Deem and Ramdas Pophale) SiO2 
 PCOD9077586
Probable space group: P -1
;
_chemical_formula_sum "Si O2"
_cell_formula_units_Z 14
_cell_length_a 11.209869
_cell_length_b 9.074809
_cell_length_c 8.226351
_cell_angle_alpha 86.830890
_cell_angle_beta 116.565726
_cell_angle_gamma 118.895555
_cell_volume 641.338239
_symmetry_space_group_name_H-M "P -1"
_symmetry_group_IT_number 2
_symmetry_cell_setting 'triclinic'
loop_
_space_group_symop_operation_xyz
x,y,z
-x,-y,-z
loop_
_atom_site_type_symbol
_atom_site_label
_atom_site_fract_x
_atom_site_fract_y
_atom_site_fract_z
Si Si1 0.844187 0.494005 0.618732
Si Si2 0.510278 0.830535 0.050454
Si Si3 0.762707 0.940902 0.940022
Si Si4 0.776498 0.036507 0.418602
Si Si5 0.894192 0.858847 0.713169
Si Si6 0.822506 0.364542 0.247392
Si Si7 0.328623 0.857702 0.346498
O O1 0.849504 0.667878 0.653570
O O2 0.820563 0.450206 0.413608
O O3 0.713381 0.336454 0.653160
O O4 0.015953 0.522862 0.753749
O O5 0.607194 0.879371 0.272418
O O6 0.621112 0.820689 0.981123
O O7 0.333356 0.679153 0.938729
O O8 0.500000 0.000000 0.000000
O O9 0.786373 0.858197 0.796029
O O10 0.721130 0.083464 0.847117
O O11 0.927788 0.029305 0.125071
O O12 0.820683 0.187059 0.304318
O O13 0.774915 0.131918 0.574076
O O14 0.872297 0.950067 0.537461
O O15 0.500000 0.000000 0.500000
#
# Coordination Sequence:
#
# PCOD9077586 Si02
#       7
#     2   2   2   2   2   2   2
#     4  10  20  35  58  84 116 148 188 239 282 332
#     4  10  18  34  61  85 107 146 196 236 271 331
#     4  10  21  36  57  85 118 151 189 232 280 341
#     4   9  19  35  59  82 111 153 187 225 284 343
#     4  10  21  37  55  86 121 154 186 226 288 345
#     4   9  19  35  57  88 113 143 193 241 277 325
#     4  10  20  38  60  83 110 149 194 236 283 335
#
# _framework density 21.829356000000001
#
# number of rings (size 3 to 8) (size 9 to 14) (size 15 to 20)
#    0.000    2.286    0.000    4.286    0.000    2.857 
#    0.000    8.571    0.000    8.571    0.000    0.000 
#    0.000    0.000    0.000    0.000    0.000    0.000 
#
# Total GULP energy -78099.847610 kJ/mol
# GULP energy per Si atom -5578.560544 kJ/mol
# Density = 2.177967 g / cm^3
# Si number density = 21.829356 Si / 1000 Ang^3
#
#
#
# Elastic Constant Matrix: (Units=GPa)
#
#
# Indices 1 2 3 4 5 6 
#
# 1 94.4463 45.3841 29.4223 10.4665 -6.0716 -6.6641
# 2 45.3841 100.5035 32.8426 14.0869 14.5767 -3.6966
# 3 29.4223 32.8426 114.5310 4.2914 25.2937 -4.6065
# 4 10.4665 14.0869 4.2914 26.3207 -1.8732 0.6833
# 5 -6.0716 14.5767 25.2937 -1.8732 40.2523 8.2329
# 6 -6.6641 -3.6966 -4.6065 0.6833 8.2329 32.2797
#
#
#
# Elastic Compliance Matrix: (Units=1/GPa)
#
#
# Indices 1 2 3 4 5 6 
#
# 1 0.015487 -0.006603 -0.003523 -0.001571 0.006821 0.000232
# 2 -0.006603 0.015061 -0.000866 -0.005816 -0.006594 0.002043
# 3 -0.003523 -0.000866 0.011873 -0.000742 -0.008328 0.003007
# 4 -0.001571 -0.005816 -0.000742 0.042290 0.004970 -0.003259
# 5 0.006821 -0.006594 -0.008328 0.004970 0.035719 -0.009751
# 6 0.000232 0.002043 0.003007 -0.003259 -0.009751 0.034246
#
#
# Mechanical properties :
#
#
# Convention : Reuss Voigt Hill
#
# Bulk Modulus (GPa) = 48.93145 58.30875 53.62010
# Shear Modulus (GPa) = 27.25191 33.22600 30.23895
#
# Velocity S-wave (km/s) = 3.53711 3.90562 3.72592
# Velocity P-wave (km/s) = 6.25665 6.86350 6.56709
#
# Compressibility (1/GPa) = 0.02043675
#
# Stress axis : x y z
#
# Youngs Moduli (GPa) = 64.56884 66.39496 84.22643
#
# Poissons Ratio (x) = 0.43839 0.29676
# Poissons Ratio (y) = 0.42633 0.07297
# Poissons Ratio (z) = 0.22750 0.05752
#
# Static dielectric constant tensor:
#      x y z
#    x 1.876350 0.031040 -0.034010 
#    y 0.031040 1.827080 -0.009360 
#    z -0.034010 -0.009360 1.830830 
# 
# From -- ./inp_files/175259.got.cif
#   From: 2010.05.17/outbox.cif.g08.bks.cpg/sg2_88_cif.got.tgz:175259.got - 2010.06.03 11:33:40.
