data_PCOD9077269
_publ_section_title
;
Structure prediction by ZEFSAII (Michael W. Deem and Ramdas Pophale) SiO2 
 PCOD9077269
Probable space group: P -1
;
_chemical_formula_sum "Si O2"
_cell_formula_units_Z 16
_cell_length_a 10.759155
_cell_length_b 8.876838
_cell_length_c 11.656262
_cell_angle_alpha 73.240779
_cell_angle_beta 43.058949
_cell_angle_gamma 57.074022
_cell_volume 626.385856
_symmetry_space_group_name_H-M "P -1"
_symmetry_group_IT_number 2
_symmetry_cell_setting 'triclinic'
loop_
_space_group_symop_operation_xyz
x,y,z
-x,-y,-z
loop_
_atom_site_type_symbol
_atom_site_label
_atom_site_fract_x
_atom_site_fract_y
_atom_site_fract_z
Si Si1 0.144915 0.390709 0.818605
Si Si2 0.978244 0.871602 0.162968
Si Si3 0.642368 0.210175 0.242303
Si Si4 0.473384 0.597217 0.373941
Si Si5 0.308604 0.265112 0.310524
Si Si6 0.991521 0.272165 0.335478
Si Si7 0.645043 0.073231 0.930972
Si Si8 0.294444 0.621766 0.191563
O O1 0.108079 0.232197 0.834032
O O2 0.380800 0.315658 0.725107
O O3 0.074570 0.539276 0.729431
O O4 0.000000 0.500000 0.000000
O O5 0.090121 0.754594 0.225063
O O6 0.782745 0.072092 0.277818
O O7 0.173286 0.862825 0.962992
O O8 0.575017 0.420958 0.259852
O O9 0.430633 0.199281 0.364819
O O10 0.500000 0.500000 0.500000
O O11 0.226039 0.718271 0.491062
O O12 0.240732 0.478109 0.313724
O O13 0.134863 0.245575 0.358246
O O14 0.518322 0.164329 0.111954
O O15 0.125368 0.105276 0.193923
O O16 0.645704 0.236322 0.824529
O O17 0.500000 0.000000 0.000000
O O18 0.500000 0.500000 0.000000
#
# Coordination Sequence:
#
# PCOD9077269 Si02
#       8
#     2   2   2   2   2   2   2   2
#     4  11  22  37  63  92 123 163 210 257 304 374
#     4  11  22  36  62  97 123 154 214 262 315 347
#     4  11  23  37  61  94 123 163 204 270 303 373
#     4  10  24  42  59  88 131 167 203 253 327 382
#     4  10  20  38  62  93 121 157 219 254 309 364
#     4  10  22  40  62  91 126 172 199 254 323 372
#     4   9  19  32  57  91 119 159 202 252 302 372
#     4  10  18  34  57  92 123 156 199 267 304 364
#
# _framework density 25.543361999999998
#
# number of rings (size 3 to 8) (size 9 to 14) (size 15 to 20)
#    0.000    1.750    5.000    0.000    5.250    0.500 
#    0.000    3.750    0.000    1.500    0.000    0.000 
#    0.000    0.000    0.000    0.000    0.000    0.000 
#
# Total GULP energy -89274.950322 kJ/mol
# GULP energy per Si atom -5579.684395 kJ/mol
# Density = 2.548522 g / cm^3
# Si number density = 25.543362 Si / 1000 Ang^3
#
#
#
# Elastic Constant Matrix: (Units=GPa)
#
#
# Indices 1 2 3 4 5 6 
#
# 1 159.1747 33.2415 44.0053 0.6643 -62.4349 7.5851
# 2 33.2415 88.6650 15.6067 23.8241 -25.7151 11.0459
# 3 44.0053 15.6067 99.3985 17.7977 -36.2328 -0.9043
# 4 0.6643 23.8241 17.7977 35.6805 -4.9715 -11.1902
# 5 -62.4349 -25.7151 -36.2328 -4.9715 49.7748 -2.8953
# 6 7.5851 11.0459 -0.9043 -11.1902 -2.8953 44.1370
#
#
#
# Elastic Compliance Matrix: (Units=1/GPa)
#
#
# Indices 1 2 3 4 5 6 
#
# 1 0.012561 -0.000847 -0.000289 0.002517 0.015341 -0.000308
# 2 -0.000847 0.018742 0.003448 -0.015383 0.009142 -0.007775
# 3 -0.000289 0.003448 0.015507 -0.009037 0.011687 -0.002020
# 4 0.002517 -0.015383 -0.009037 0.046534 -0.005869 0.014645
# 5 0.015341 0.009142 0.011687 -0.005869 0.051816 -0.002774
# 6 -0.000308 -0.007775 -0.002020 0.014645 -0.002774 0.028145
#
#
# Mechanical properties :
#
#
# Convention : Reuss Voigt Hill
#
# Bulk Modulus (GPa) = 19.44212 59.21612 39.32912
# Shear Modulus (GPa) = 26.90689 42.87743 34.89216
#
# Velocity S-wave (km/s) = 3.24910 4.10153 3.69995
# Velocity P-wave (km/s) = 4.65870 6.75744 5.80373
#
# Compressibility (1/GPa) = 0.05143473
#
# Stress axis : x y z
#
# Youngs Moduli (GPa) = 79.61290 53.35489 64.48738
#
# Poissons Ratio (x) = 0.04518 0.01865
# Poissons Ratio (y) = 0.06742 -0.22237
# Poissons Ratio (z) = 0.02302 -0.18398
#
# Static dielectric constant tensor:
#      x y z
#    x 2.511280 -0.096930 0.226270 
#    y -0.096930 2.021420 -0.063390 
#    z 0.226270 -0.063390 2.111410 
# 
# From -- ./inp_files/515514.got.cif
#   From: 2010.05.17/outbox.cif.g08.bks.cpg/sg2_258_cif.got.tgz:515514.got - 2010.06.03 11:33:40.
