data_PCOD9077439
_publ_section_title
;
Structure prediction by ZEFSAII (Michael W. Deem and Ramdas Pophale) SiO2 
 PCOD9077439
Probable space group: P -1
;
_chemical_formula_sum "Si O2"
_cell_formula_units_Z 16
_cell_length_a 9.063112
_cell_length_b 11.633272
_cell_length_c 13.854758
_cell_angle_alpha 89.090896
_cell_angle_beta 117.399719
_cell_angle_gamma 140.436084
_cell_volume 661.252191
_symmetry_space_group_name_H-M "P -1"
_symmetry_group_IT_number 2
_symmetry_cell_setting 'triclinic'
loop_
_space_group_symop_operation_xyz
x,y,z
-x,-y,-z
loop_
_atom_site_type_symbol
_atom_site_label
_atom_site_fract_x
_atom_site_fract_y
_atom_site_fract_z
Si Si1 0.960140 0.159154 0.661410
Si Si2 0.246133 0.214641 0.342084
Si Si3 0.679079 0.160181 0.194522
Si Si4 0.163743 0.264223 0.514504
Si Si5 0.706783 0.414514 0.737790
Si Si6 0.671027 0.495770 0.926103
Si Si7 0.346332 0.083308 0.934393
Si Si8 0.732844 0.158347 0.764147
O O1 0.941968 0.160031 0.540670
O O2 0.345633 0.375913 0.805203
O O3 0.804329 0.166666 0.676589
O O4 0.775455 0.932365 0.640297
O O5 0.058675 0.163451 0.377429
O O6 0.585991 0.481399 0.429152
O O7 0.034153 0.115022 0.185276
O O8 0.048895 0.411066 0.277481
O O9 0.594083 0.993213 0.112637
O O10 0.579420 0.083940 0.275331
O O11 0.472943 0.135431 0.078337
O O12 0.367828 0.272976 0.611270
O O13 0.819501 0.545479 0.867582
O O14 0.705919 0.279670 0.760873
O O15 0.530692 0.298861 0.938516
O O16 0.960910 0.706860 0.080909
#
# Coordination Sequence:
#
# PCOD9077439 Si02
#       8
#     2   2   2   2   2   2   2   2
#     4  10  24  39  59  87 126 155 193 243 298 356
#     4  10  21  41  65  89 110 149 211 250 289 336
#     4  11  21  32  58  89 124 152 187 242 297 340
#     4  10  22  41  70  85 109 154 207 256 285 336
#     4  11  21  37  62  91 117 155 206 241 286 345
#     4  10  19  37  57  86 120 160 199 240 280 351
#     4  10  18  34  59  91 116 147 197 251 280 342
#     4  12  23  37  55  90 132 160 184 233 305 364
#
# _framework density 24.196515000000002
#
# number of rings (size 3 to 8) (size 9 to 14) (size 15 to 20)
#    0.000    1.500    3.750    2.625    1.750    1.000 
#    0.000    1.875    0.000    2.250    0.000    0.000 
#    0.000    0.000    0.000    0.000    0.000    0.000 
#
# Total GULP energy -89578.582121 kJ/mol
# GULP energy per Si atom -5598.661383 kJ/mol
# Density = 2.414144 g / cm^3
# Si number density = 24.196515 Si / 1000 Ang^3
#
#
#
# Elastic Constant Matrix: (Units=GPa)
#
#
# Indices 1 2 3 4 5 6 
#
# 1 68.1227 25.5680 13.7589 -11.4784 -13.4972 21.2847
# 2 25.5680 99.3332 3.6393 -13.0693 5.7183 16.5573
# 3 13.7589 3.6393 74.9226 -17.5666 6.5280 5.9963
# 4 -11.4784 -13.0693 -17.5666 37.9340 1.7477 -2.0991
# 5 -13.4972 5.7183 6.5280 1.7477 21.9956 -6.6483
# 6 21.2847 16.5573 5.9963 -2.0991 -6.6483 22.4585
#
#
#
# Elastic Compliance Matrix: (Units=1/GPa)
#
#
# Indices 1 2 3 4 5 6 
#
# 1 0.024677 -0.003901 -0.003417 0.003111 0.012177 -0.015704
# 2 -0.003901 0.013825 0.002850 0.004829 -0.010186 -0.009821
# 3 -0.003417 0.002850 0.017065 0.008008 -0.010264 -0.005709
# 4 0.003111 0.004829 0.008008 0.032560 -0.006594 -0.007555
# 5 0.012177 -0.010186 -0.010264 -0.006594 0.064334 0.017137
# 6 -0.015704 -0.009821 -0.005709 -0.007555 0.017137 0.072541
#
#
# Mechanical properties :
#
#
# Convention : Reuss Voigt Hill
#
# Bulk Modulus (GPa) = 21.44430 36.47899 28.96164
# Shear Modulus (GPa) = 20.04156 29.77179 24.90668
#
# Velocity S-wave (km/s) = 2.88111 3.51153 3.21183
# Velocity P-wave (km/s) = 4.46649 5.61694 5.07442
#
# Compressibility (1/GPa) = 0.04663243
#
# Stress axis : x y z
#
# Youngs Moduli (GPa) = 40.52371 72.33065 58.59979
#
# Poissons Ratio (x) = 0.28214 0.20024
# Poissons Ratio (y) = 0.15807 -0.16703
# Poissons Ratio (z) = 0.13847 -0.20617
#
# Static dielectric constant tensor:
#      x y z
#    x 1.922700 0.019240 0.055110 
#    y 0.019240 1.917320 0.023530 
#    z 0.055110 0.023530 1.984170 
# 
# From -- ./inp_files/304566.got.cif
#   From: 2010.05.17/outbox.cif.g08.bks.cpg/sg2_153_cif.got.tgz:304566.got - 2010.06.03 11:33:40.
