data_PCOD9077218
_publ_section_title
;
Structure prediction by ZEFSAII (Michael W. Deem and Ramdas Pophale) SiO2 
 PCOD9077218
Probable space group: P -1
;
_chemical_formula_sum "Si O2"
_cell_formula_units_Z 16
_cell_length_a 11.758844
_cell_length_b 6.706875
_cell_length_c 13.524451
_cell_angle_alpha 58.463161
_cell_angle_beta 128.555923
_cell_angle_gamma 85.524717
_cell_volume 565.384746
_symmetry_space_group_name_H-M "P -1"
_symmetry_group_IT_number 2
_symmetry_cell_setting 'triclinic'
loop_
_space_group_symop_operation_xyz
x,y,z
-x,-y,-z
loop_
_atom_site_type_symbol
_atom_site_label
_atom_site_fract_x
_atom_site_fract_y
_atom_site_fract_z
Si Si1 0.499980 0.472115 0.832302
Si Si2 0.406833 0.131364 0.727137
Si Si3 0.001162 0.529363 0.155078
Si Si4 0.718034 0.047027 0.735910
Si Si5 0.255571 0.465128 0.855188
Si Si6 0.181561 0.111122 0.754750
Si Si7 0.622655 0.606780 0.669415
Si Si8 0.874244 0.292476 0.655435
O O1 0.461380 0.284980 0.790518
O O2 0.340145 0.590051 0.798999
O O3 0.541514 0.628783 0.730107
O O4 0.688905 0.227113 0.053798
O O5 0.240187 0.138335 0.673337
O O6 0.309252 0.373900 0.525395
O O7 0.579075 0.789180 0.916816
O O8 0.932423 0.373612 0.223958
O O9 0.195877 0.409087 0.241525
O O10 0.994663 0.743942 0.178268
O O11 0.840863 0.740617 0.936865
O O12 0.673001 0.301207 0.724986
O O13 0.541361 0.144587 0.553902
O O14 0.838551 0.060031 0.715516
O O15 0.226529 0.286094 0.804836
O O16 0.974473 0.239623 0.621375
#
# Coordination Sequence:
#
# PCOD9077218 Si02
#       8
#     2   2   2   2   2   2   2   2
#     4   9  14  25  32  37  43  52  59  65  74  75
#     4   9  14  20  29  38  45  51  58  62  75  78
#     4  10  19  25  30  38  47  51  59  64  73  79
#     4  10  18  23  30  37  46  51  59  66  71  77
#     4   8  16  24  32  36  47  52  54  69  73  76
#     4   8  14  20  29  37  45  52  55  66  72  79
#     4  10  17  24  34  37  43  54  60  63  71  81
#     4  10  15  21  28  37  45  50  60  65  68  80
#
# _framework density 28.299313000000001
#
# number of rings (size 3 to 8) (size 9 to 14) (size 15 to 20)
#    0.000    2.750    1.250    6.375    3.500    0.000 
#    0.000    0.000    0.000    0.000    0.000    0.000 
#    0.000    0.000    0.000    0.000    0.000    0.000 
#
# Total GULP energy -89326.573371 kJ/mol
# GULP energy per Si atom -5582.910836 kJ/mol
# Density = 2.823490 g / cm^3
# Si number density = 28.299313 Si / 1000 Ang^3
#
#
#
# Elastic Constant Matrix: (Units=GPa)
#
#
# Indices 1 2 3 4 5 6 
#
# 1 298.9445 43.6878 35.1903 -2.8020 -8.3236 38.1014
# 2 43.6878 101.9051 23.8048 -2.8117 1.9855 8.1139
# 3 35.1903 23.8048 120.6091 5.8726 -8.9707 1.0688
# 4 -2.8020 -2.8117 5.8726 34.2479 4.3551 3.2185
# 5 -8.3236 1.9855 -8.9707 4.3551 23.7612 1.2326
# 6 38.1014 8.1139 1.0688 3.2185 1.2326 33.6764
#
#
#
# Elastic Compliance Matrix: (Units=1/GPa)
#
#
# Indices 1 2 3 4 5 6 
#
# 1 0.004266 -0.001265 -0.000883 0.000653 0.001386 -0.004607
# 2 -0.001265 0.011020 -0.002047 0.001567 -0.002361 -0.001223
# 3 -0.000883 -0.002047 0.009341 -0.002443 0.003769 0.001291
# 4 0.000653 0.001567 -0.002443 0.030955 -0.006303 -0.003767
# 5 0.001386 -0.002361 0.003769 -0.006303 0.045459 -0.002180
# 6 -0.004607 -0.001223 0.001291 -0.003767 -0.002180 0.035600
#
#
# Mechanical properties :
#
#
# Convention : Reuss Voigt Hill
#
# Bulk Modulus (GPa) = 61.58753 80.75829 71.17291
# Shear Modulus (GPa) = 33.23527 46.25548 39.74537
#
# Velocity S-wave (km/s) = 3.43070 4.04729 3.75168
# Velocity P-wave (km/s) = 6.12398 7.10211 6.63110
#
# Compressibility (1/GPa) = 0.01623705
#
# Stress axis : x y z
#
# Youngs Moduli (GPa) = 234.42840 90.74387 107.05827
#
# Poissons Ratio (x) = 0.11476 0.09452
# Poissons Ratio (y) = 0.29648 0.21916
# Poissons Ratio (z) = 0.20698 0.18576
#
# Static dielectric constant tensor:
#      x y z
#    x 2.283780 -0.088540 -0.014980 
#    y -0.088540 2.245050 -0.003740 
#    z -0.014980 -0.003740 2.135320 
# 
# From -- ./inp_files/265258.got.cif
#   From: 2010.05.17/outbox.cif.g08.bks.cpg/sg2_133_cif.got.tgz:265258.got - 2010.06.03 11:33:40.
