data_PCOD9077255
_publ_section_title
;
Structure prediction by ZEFSAII (Michael W. Deem and Ramdas Pophale) SiO2 
 PCOD9077255
Probable space group: P -1
;
_chemical_formula_sum "Si O2"
_cell_formula_units_Z 14
_cell_length_a 11.268158
_cell_length_b 8.134994
_cell_length_c 16.386738
_cell_angle_alpha 93.775423
_cell_angle_beta 44.838191
_cell_angle_gamma 58.012577
_cell_volume 605.996390
_symmetry_space_group_name_H-M "P -1"
_symmetry_group_IT_number 2
_symmetry_cell_setting 'triclinic'
loop_
_space_group_symop_operation_xyz
x,y,z
-x,-y,-z
loop_
_atom_site_type_symbol
_atom_site_label
_atom_site_fract_x
_atom_site_fract_y
_atom_site_fract_z
Si Si1 0.342293 0.796199 0.065621
Si Si2 0.338892 0.543365 0.776765
Si Si3 0.562092 0.879673 0.220498
Si Si4 0.205048 0.586072 0.660048
Si Si5 0.634728 0.147103 0.135233
Si Si6 0.624860 0.011498 0.366764
Si Si7 0.175218 0.411257 0.084944
O O1 0.500000 0.500000 0.000000
O O2 0.373506 0.800837 0.953801
O O3 0.517365 0.792829 0.031945
O O4 0.999550 0.102310 0.260697
O O5 0.507829 0.253647 0.726154
O O6 0.354788 0.510069 0.670641
O O7 0.444148 0.631475 0.765199
O O8 0.980742 0.828678 0.977824
O O9 0.431209 0.149913 0.249552
O O10 0.598187 0.933337 0.293434
O O11 0.794948 0.654577 0.027046
O O12 0.439094 0.325035 0.474663
O O13 0.983841 0.612763 0.793443
O O14 0.500000 0.000000 0.500000
O O15 0.972040 0.736592 0.202319
#
# Coordination Sequence:
#
# PCOD9077255 Si02
#       7
#     2   2   2   2   2   2   2
#     4  11  23  40  59  88 127 163 205 250 303 363
#     4  10  18  34  57  87 123 146 200 258 300 347
#     4  12  19  36  63  91 118 159 206 251 303 362
#     4  10  21  39  60  92 124 154 202 256 309 361
#     4  10  21  33  56  91 115 156 206 251 291 361
#     4  10  20  36  63  93 122 153 201 256 314 360
#     4  11  20  36  65  88 117 160 206 245 300 373
#
# _framework density 23.102447999999999
#
# number of rings (size 3 to 8) (size 9 to 14) (size 15 to 20)
#    0.000    1.429    5.714    3.000    0.000    2.286 
#    0.000    3.571    0.000    1.714    0.000    0.000 
#    0.000    0.000    0.000    0.000    0.000    0.000 
#
# Total GULP energy -78005.426684 kJ/mol
# GULP energy per Si atom -5571.816192 kJ/mol
# Density = 2.304987 g / cm^3
# Si number density = 23.102448 Si / 1000 Ang^3
#
#
#
# Elastic Constant Matrix: (Units=GPa)
#
#
# Indices 1 2 3 4 5 6 
#
# 1 94.0605 48.1359 52.8445 12.1904 29.2537 17.7493
# 2 48.1359 144.7176 29.1416 20.5939 6.8443 18.3895
# 3 52.8445 29.1416 76.0107 17.8100 24.6702 0.6712
# 4 12.1904 20.5939 17.8100 33.6458 10.8777 10.5579
# 5 29.2537 6.8443 24.6702 10.8777 27.4255 4.5475
# 6 17.7493 18.3895 0.6712 10.5579 4.5475 38.5419
#
#
#
# Elastic Compliance Matrix: (Units=1/GPa)
#
#
# Indices 1 2 3 4 5 6 
#
# 1 0.026966 -0.005587 -0.012942 0.009391 -0.017794 -0.010000
# 2 -0.005587 0.009482 -0.000615 -0.005114 0.006389 -0.001293
# 3 -0.012942 -0.000615 0.027256 -0.009627 -0.008298 0.009395
# 4 0.009391 -0.005114 -0.009627 0.043160 -0.015253 -0.011741
# 5 -0.017794 0.006389 -0.008298 -0.015253 0.067105 0.001551
# 6 -0.010000 -0.001293 0.009395 -0.011741 0.001551 0.034038
#
#
# Mechanical properties :
#
#
# Convention : Reuss Voigt Hill
#
# Bulk Modulus (GPa) = 39.34739 63.89252 51.61995
# Shear Modulus (GPa) = 19.62570 32.23375 25.92973
#
# Velocity S-wave (km/s) = 2.91779 3.73936 3.35383
# Velocity P-wave (km/s) = 5.33104 6.80881 6.11474
#
# Compressibility (1/GPa) = 0.02541465
#
# Stress axis : x y z
#
# Youngs Moduli (GPa) = 37.08389 105.46049 36.68964
#
# Poissons Ratio (x) = 0.58925 0.47484
# Poissons Ratio (y) = 0.20720 0.02257
# Poissons Ratio (z) = 0.47994 0.06486
#
# Static dielectric constant tensor:
#      x y z
#    x 1.840490 0.043670 -0.012960 
#    y 0.043670 1.964160 0.023290 
#    z -0.012960 0.023290 1.878280 
# 
# From -- ./inp_files/566010.got.cif
#   From: 2010.05.17/outbox.cif.g08.bks.cpg/sg2_284_cif.got.tgz:566010.got - 2010.06.03 11:33:40.
