data_PCOD9077562
_publ_section_title
;
Structure prediction by ZEFSAII (Michael W. Deem and Ramdas Pophale) SiO2 
 PCOD9077562
Probable space group: P -1
;
_chemical_formula_sum "Si O2"
_cell_formula_units_Z 15
_cell_length_a 14.156800
_cell_length_b 27.270931
_cell_length_c 5.073807
_cell_angle_alpha 117.641865
_cell_angle_beta 122.329116
_cell_angle_gamma 24.544137
_cell_volume 686.144490
_symmetry_space_group_name_H-M "P -1"
_symmetry_group_IT_number 2
_symmetry_cell_setting 'triclinic'
loop_
_space_group_symop_operation_xyz
x,y,z
-x,-y,-z
loop_
_atom_site_type_symbol
_atom_site_label
_atom_site_fract_x
_atom_site_fract_y
_atom_site_fract_z
Si Si1 0.688367 0.228028 0.169788
Si Si2 0.006326 0.886008 0.139996
Si Si3 0.840716 0.731958 0.610725
Si Si4 0.385553 0.862433 0.054169
Si Si5 0.770357 0.682029 0.767745
Si Si6 0.190042 0.488640 0.295481
Si Si7 0.000000 0.500000 0.500000
Si Si8 0.326078 0.074730 0.179012
O O1 0.871903 0.151743 0.498159
O O2 0.447252 0.365667 0.244242
O O3 0.793798 0.211091 0.026186
O O4 0.672913 0.168065 0.955241
O O5 0.836978 0.907916 0.001187
O O6 0.841812 0.005387 0.061338
O O7 0.578379 0.822055 0.361644
O O8 0.841132 0.712329 0.868114
O O9 0.834618 0.799637 0.742896
O O10 0.057751 0.604470 0.470004
O O11 0.534772 0.778332 0.811870
O O12 0.789173 0.635995 0.425074
O O13 0.004694 0.550878 0.933334
O O14 0.193178 0.451837 0.474763
O O15 0.500000 0.000000 0.500000
O O16 0.500000 0.000000 0.000000
#
# Coordination Sequence:
#
# PCOD9077562 Si02
#       8
#     2   2   2   2   2   2   1   2
#     4  12  28  44  66 100 154 190 213 271 352 451
#     4  12  28  46  68 102 138 190 233 271 357 420
#     4  10  24  40  73 105 128 178 240 305 334 389
#     4  11  23  41  67 102 141 178 230 286 348 409
#     4  10  21  34  65  99 133 174 236 283 345 385
#     4  10  23  39  63 100 140 185 230 281 342 407
#     4  10  18  34  60  94 132 176 236 270 332 392
#     4  12  25  50  79  99 134 172 244 306 338 392
#
# _framework density 21.861286
#
# number of rings (size 3 to 8) (size 9 to 14) (size 15 to 20)
#    0.000    1.067    2.667    2.800   13.067    0.000 
#    0.000    1.333    0.000    0.000    0.000    0.000 
#    0.000    0.000    0.000    0.000    0.000    0.000 
#
# Total GULP energy -83541.306176 kJ/mol
# GULP energy per Si atom -5569.420412 kJ/mol
# Density = 2.181153 g / cm^3
# Si number density = 21.861286 Si / 1000 Ang^3
#
#
#
# Elastic Constant Matrix: (Units=GPa)
#
#
# Indices 1 2 3 4 5 6 
#
# 1 129.7225 42.9814 27.7205 10.5315 -1.1718 -10.8524
# 2 42.9814 106.1888 10.1377 6.5126 14.5651 3.9930
# 3 27.7205 10.1377 72.8153 -13.8792 0.7593 -3.6568
# 4 10.5315 6.5126 -13.8792 34.1534 -6.9822 -9.5114
# 5 -1.1718 14.5651 0.7593 -6.9822 32.2707 3.8291
# 6 -10.8524 3.9930 -3.6568 -9.5114 3.8291 41.5708
#
#
#
# Elastic Compliance Matrix: (Units=1/GPa)
#
#
# Indices 1 2 3 4 5 6 
#
# 1 0.010235 -0.003813 -0.003905 -0.003246 0.001265 0.001836
# 2 -0.003813 0.012194 -0.000971 -0.003479 -0.006077 -0.002488
# 3 -0.003905 -0.000971 0.017274 0.009469 0.001629 0.002610
# 4 -0.003246 -0.003479 0.009469 0.038906 0.008648 0.008425
# 5 0.001265 -0.006077 0.001629 0.008648 0.035638 -0.000247
# 6 0.001836 -0.002488 0.002610 0.008425 -0.000247 0.026953
#
#
# Mechanical properties :
#
#
# Convention : Reuss Voigt Hill
#
# Bulk Modulus (GPa) = 44.79406 52.26731 48.53068
# Shear Modulus (GPa) = 30.11647 36.79145 33.45396
#
# Velocity S-wave (km/s) = 3.71565 4.10683 3.91613
# Velocity P-wave (km/s) = 6.24041 6.81532 6.53419
#
# Compressibility (1/GPa) = 0.02232439
#
# Stress axis : x y z
#
# Youngs Moduli (GPa) = 97.70043 82.00866 57.88968
#
# Poissons Ratio (x) = 0.31273 0.22608
# Poissons Ratio (y) = 0.37257 0.05619
# Poissons Ratio (z) = 0.38156 0.07960
#
# Static dielectric constant tensor:
#      x y z
#    x 1.832840 -0.044310 -0.118790 
#    y -0.044310 1.999850 0.282100 
#    z -0.118790 0.282100 2.399160 
# 
# From -- ./inp_files/84469.got.cif
#   From: 2010.05.17/outbox.cif.g08.bks.cpg/sg2_43_cif.got.tgz:84469.got - 2010.06.03 11:33:40.
