data_PCOD9077473
_publ_section_title
;
Structure prediction by ZEFSAII (Michael W. Deem and Ramdas Pophale) SiO2 
 PCOD9077473
Probable space group: P -1
;
_chemical_formula_sum "Si O2"
_cell_formula_units_Z 16
_cell_length_a 8.402185
_cell_length_b 7.004212
_cell_length_c 16.648338
_cell_angle_alpha 61.849857
_cell_angle_beta 98.514670
_cell_angle_gamma 55.026565
_cell_volume 577.034537
_symmetry_space_group_name_H-M "P -1"
_symmetry_group_IT_number 2
_symmetry_cell_setting 'triclinic'
loop_
_space_group_symop_operation_xyz
x,y,z
-x,-y,-z
loop_
_atom_site_type_symbol
_atom_site_label
_atom_site_fract_x
_atom_site_fract_y
_atom_site_fract_z
Si Si1 0.241277 0.323451 0.657234
Si Si2 0.913365 0.766111 0.188737
Si Si3 0.840085 0.376944 0.914350
Si Si4 0.427397 0.305239 0.401109
Si Si5 0.563967 0.525186 0.192061
Si Si6 0.792743 0.381889 0.087269
Si Si7 0.328977 0.861557 0.278082
Si Si8 0.096886 0.084483 0.584482
O O1 0.510185 0.095864 0.691157
O O2 0.095628 0.275649 0.612823
O O3 0.217925 0.282772 0.757095
O O4 0.111039 0.668191 0.544088
O O5 0.989440 0.651922 0.124998
O O6 0.177395 0.527049 0.293803
O O7 0.784718 0.127578 0.118869
O O8 0.586180 0.542020 0.830017
O O9 0.791173 0.498227 0.977526
O O10 0.000000 0.000000 0.000000
O O11 0.384169 0.583048 0.385323
O O12 0.500000 0.000000 0.500000
O O13 0.660600 0.123378 0.403961
O O14 0.594820 0.625181 0.091636
O O15 0.424962 0.744753 0.216038
O O16 0.833818 0.196986 0.305194
O O17 0.052312 0.158396 0.187830
#
# Coordination Sequence:
#
# PCOD9077473 Si02
#       8
#     2   2   2   2   2   2   2   2
#     4  11  22  38  58  87 125 162 194 246 304 348
#     4  10  18  34  60  83 117 158 197 244 297 350
#     4  10  18  35  63  92 113 153 208 250 294 355
#     4  10  18  36  59  83 118 157 199 244 292 357
#     4  11  19  37  64  91 115 157 204 246 298 357
#     4  10  20  38  62  87 118 156 206 251 292 355
#     4  10  23  39  57  90 129 153 198 255 294 349
#     4  10  21  36  60  85 120 157 205 235 293 370
#
# _framework density 27.727975000000001
#
# number of rings (size 3 to 8) (size 9 to 14) (size 15 to 20)
#    0.000    1.750    7.500    0.375    0.000    2.000 
#    2.250    1.875    0.000    1.500    0.000    0.000 
#    0.000    0.000    0.000    0.000    0.000    0.000 
#
# Total GULP energy -89387.706279 kJ/mol
# GULP energy per Si atom -5586.731642 kJ/mol
# Density = 2.766486 g / cm^3
# Si number density = 27.727975 Si / 1000 Ang^3
#
#
#
# Elastic Constant Matrix: (Units=GPa)
#
#
# Indices 1 2 3 4 5 6 
#
# 1 120.2394 20.9183 31.9749 4.7344 -19.7341 -7.2364
# 2 20.9183 80.5755 22.6672 6.9512 -11.1652 -3.5257
# 3 31.9749 22.6672 87.0816 11.8033 -5.4184 0.8761
# 4 4.7344 6.9512 11.8033 29.5967 -11.7080 -5.3921
# 5 -19.7341 -11.1652 -5.4184 -11.7080 32.0625 -9.4351
# 6 -7.2364 -3.5257 0.8761 -5.3921 -9.4351 45.6489
#
#
#
# Elastic Compliance Matrix: (Units=1/GPa)
#
#
# Indices 1 2 3 4 5 6 
#
# 1 0.010952 -0.000751 -0.003888 0.004053 0.008475 0.003983
# 2 -0.000751 0.014213 -0.003191 0.000260 0.004640 0.002030
# 3 -0.003888 -0.003191 0.014394 -0.006582 -0.004301 -0.002805
# 4 0.004053 0.000260 -0.006582 0.046138 0.021462 0.010675
# 5 0.008475 0.004640 -0.004301 0.021462 0.049408 0.014532
# 6 0.003983 0.002030 -0.002805 0.010675 0.014532 0.027013
#
#
# Mechanical properties :
#
#
# Convention : Reuss Voigt Hill
#
# Bulk Modulus (GPa) = 41.84091 48.77970 45.31030
# Shear Modulus (GPa) = 26.91878 35.61735 31.26807
#
# Velocity S-wave (km/s) = 3.11917 3.58792 3.36173
# Velocity P-wave (km/s) = 5.30046 5.89870 5.60756
#
# Compressibility (1/GPa) = 0.02390005
#
# Stress axis : x y z
#
# Youngs Moduli (GPa) = 91.30445 70.36007 69.47107
#
# Poissons Ratio (x) = 0.05281 0.27012
# Poissons Ratio (y) = 0.06853 0.22167
# Poissons Ratio (z) = 0.35502 0.22451
#
# Static dielectric constant tensor:
#      x y z
#    x 2.202970 0.091130 -0.021880 
#    y 0.091130 2.159120 0.014690 
#    z -0.021880 0.014690 2.371590 
# 
# From -- ./inp_files/215745.got.cif
#   From: 2010.05.17/outbox.cif.g08.bks.cpg/sg2_108_cif.got.tgz:215745.got - 2010.06.03 11:33:40.
