data_PCOD9077763
_publ_section_title
;
Structure prediction by ZEFSAII (Michael W. Deem and Ramdas Pophale) SiO2 
 PCOD9077763
Probable space group: P -1
;
_chemical_formula_sum "Si O2"
_cell_formula_units_Z 16
_cell_length_a 12.750274
_cell_length_b 21.445211
_cell_length_c 8.742974
_cell_angle_alpha 81.846593
_cell_angle_beta 81.707134
_cell_angle_gamma 19.281279
_cell_volume 781.022113
_symmetry_space_group_name_H-M "P -1"
_symmetry_group_IT_number 2
_symmetry_cell_setting 'triclinic'
loop_
_space_group_symop_operation_xyz
x,y,z
-x,-y,-z
loop_
_atom_site_type_symbol
_atom_site_label
_atom_site_fract_x
_atom_site_fract_y
_atom_site_fract_z
Si Si1 0.862242 0.643437 0.419970
Si Si2 0.134666 0.727616 0.689361
Si Si3 0.949282 0.028493 0.185610
Si Si4 0.580364 0.519723 0.060385
Si Si5 0.388096 0.435566 0.261477
Si Si6 0.861304 0.946939 0.157042
Si Si7 0.386580 0.890763 0.173866
Si Si8 0.343758 0.019752 0.558623
O O1 0.707783 0.720029 0.257833
O O2 0.588929 0.828516 0.516306
O O3 0.000000 0.500000 0.500000
O O4 0.134569 0.542927 0.380215
O O5 0.213958 0.616636 0.791121
O O6 0.443297 0.599562 0.679453
O O7 0.867685 0.915648 0.776302
O O8 0.979795 0.804795 0.531396
O O9 0.661436 0.232955 0.229391
O O10 0.865477 0.003958 0.251919
O O11 0.255219 0.893659 0.232813
O O12 0.000000 0.000000 0.000000
O O13 0.230080 0.740020 0.100136
O O14 0.500000 0.500000 0.000000
O O15 0.740841 0.470904 0.911019
O O16 0.753109 0.943631 0.261608
O O17 0.633991 0.088218 0.011399
O O18 0.500000 0.000000 0.500000
#
# Coordination Sequence:
#
# PCOD9077763 Si02
#       8
#     2   2   2   2   2   2   2   2
#     4  11  25  44  61  88 127 165 200 241 303 376
#     4   9  20  40  62  88 118 160 204 242 298 364
#     4   9  16  35  60  93 114 144 203 256 298 331
#     4  10  18  34  64  93 111 150 218 249 283 347
#     4  10  19  37  68  87 115 159 210 249 282 365
#     4  11  20  38  65  88 121 158 200 260 292 354
#     4   9  19  39  65  87 118 158 203 245 302 358
#     4  11  27  43  57  90 134 160 191 249 319 357
#
# _framework density 20.485976000000001
#
# number of rings (size 3 to 8) (size 9 to 14) (size 15 to 20)
#    0.000    2.000    5.000    0.750    3.500    2.500 
#    2.250   11.875    0.000    0.000    0.000    0.000 
#    0.000    0.000    0.000    0.000    0.000    0.000 
#
# Total GULP energy -89197.833008 kJ/mol
# GULP energy per Si atom -5574.864563 kJ/mol
# Density = 2.043935 g / cm^3
# Si number density = 20.485976 Si / 1000 Ang^3
#
#
#
# Elastic Constant Matrix: (Units=GPa)
#
#
# Indices 1 2 3 4 5 6 
#
# 1 86.1348 19.8497 29.4224 -12.6111 -18.3760 -4.1999
# 2 19.8497 63.8151 31.3258 -18.7112 -7.7405 -1.2073
# 3 29.4224 31.3258 73.1475 -16.0150 -20.3762 -12.2090
# 4 -12.6111 -18.7112 -16.0150 30.3184 -1.0018 0.2180
# 5 -18.3760 -7.7405 -20.3762 -1.0018 36.7481 3.0480
# 6 -4.1999 -1.2073 -12.2090 0.2180 3.0480 33.0752
#
#
#
# Elastic Compliance Matrix: (Units=1/GPa)
#
#
# Indices 1 2 3 4 5 6 
#
# 1 0.014672 -0.001307 -0.002898 0.003947 0.005545 0.000209
# 2 -0.001307 0.022428 -0.007205 0.009524 0.000511 -0.002117
# 3 -0.002898 -0.007205 0.023264 0.006901 0.009537 0.007032
# 4 0.003947 0.009524 0.006901 0.044423 0.008827 0.002290
# 5 0.005545 0.000511 0.009537 0.008827 0.035546 0.000909
# 6 0.000209 -0.002117 0.007032 0.002290 0.000909 0.032680
#
#
# Mechanical properties :
#
#
# Convention : Reuss Voigt Hill
#
# Bulk Modulus (GPa) = 26.63620 42.69922 34.66771
# Shear Modulus (GPa) = 23.99829 29.52833 26.76331
#
# Velocity S-wave (km/s) = 3.42636 3.80069 3.61837
# Velocity P-wave (km/s) = 5.35571 6.33630 5.86653
#
# Compressibility (1/GPa) = 0.03754290
#
# Stress axis : x y z
#
# Youngs Moduli (GPa) = 68.15755 44.58678 42.98558
#
# Poissons Ratio (x) = 0.05829 0.12458
# Poissons Ratio (y) = 0.08910 0.30971
# Poissons Ratio (z) = 0.19754 0.32124
#
# Static dielectric constant tensor:
#      x y z
#    x 1.783320 0.065210 -0.034250 
#    y 0.065210 1.841910 -0.029950 
#    z -0.034250 -0.029950 1.778200 
# 
# From -- ./inp_files/283040.got.cif
#   From: 2010.05.17/outbox.cif.g08.bks.cpg/sg2_142_cif.got.tgz:283040.got - 2010.06.03 11:33:40.
