data_PCOD9077608
_publ_section_title
;
Structure prediction by ZEFSAII (Michael W. Deem and Ramdas Pophale) SiO2 
 PCOD9077608
Probable space group: P -1
;
_chemical_formula_sum "Si O2"
_cell_formula_units_Z 14
_cell_length_a 7.839599
_cell_length_b 9.595111
_cell_length_c 10.296069
_cell_angle_alpha 53.976126
_cell_angle_beta 83.214308
_cell_angle_gamma 111.023726
_cell_volume 526.189205
_symmetry_space_group_name_H-M "P -1"
_symmetry_group_IT_number 2
_symmetry_cell_setting 'triclinic'
loop_
_space_group_symop_operation_xyz
x,y,z
-x,-y,-z
loop_
_atom_site_type_symbol
_atom_site_label
_atom_site_fract_x
_atom_site_fract_y
_atom_site_fract_z
Si Si1 0.560023 0.408473 0.666435
Si Si2 0.075059 0.242279 0.433408
Si Si3 0.520589 0.606483 0.805753
Si Si4 0.030308 0.745116 0.073264
Si Si5 0.847213 0.968542 0.842796
Si Si6 0.271447 0.726469 0.628847
Si Si7 0.469106 0.992655 0.788837
O O1 0.500000 0.500000 0.500000
O O2 0.794626 0.540511 0.619267
O O3 0.462675 0.451609 0.774906
O O4 0.494192 0.178564 0.775049
O O5 0.243693 0.239387 0.333794
O O6 0.991331 0.093395 0.642429
O O7 0.889804 0.207761 0.381596
O O8 0.394136 0.713734 0.745156
O O9 0.500000 0.500000 0.000000
O O10 0.238452 0.811274 0.940803
O O11 0.087197 0.884905 0.118372
O O12 0.904377 0.802991 0.958161
O O13 0.885965 0.512121 0.258433
O O14 0.625773 0.924877 0.849669
O O15 0.438961 0.871632 0.427266
#
# Coordination Sequence:
#
# PCOD9077608 Si02
#       7
#     2   2   2   2   2   2   2
#     4  10  18  34  61  89 122 162 199 251 307 363
#     4   9  21  37  62  88 122 164 212 247 310 371
#     4  10  23  39  60  91 125 161 208 262 306 362
#     4  11  23  33  55  96 131 158 202 249 312 370
#     4  10  21  33  55  89 131 160 196 249 317 361
#     4  11  22  39  65  88 125 168 202 253 317 365
#     4  11  21  38  57  91 131 159 197 257 308 364
#
# _framework density 26.606397999999999
#
# number of rings (size 3 to 8) (size 9 to 14) (size 15 to 20)
#    0.857    0.857    1.429    3.857    4.000    4.000 
#    0.000    0.000    0.000    3.429    0.000    8.000 
#    0.000    0.000    0.000    0.000    0.000    0.000 
#
# Total GULP energy -78343.936088 kJ/mol
# GULP energy per Si atom -5595.995435 kJ/mol
# Density = 2.654584 g / cm^3
# Si number density = 26.606398 Si / 1000 Ang^3
#
#
#
# Elastic Constant Matrix: (Units=GPa)
#
#
# Indices 1 2 3 4 5 6 
#
# 1 187.7567 24.2474 104.0709 27.6272 -1.5260 14.8760
# 2 24.2474 72.2341 39.7274 5.2967 -4.6653 2.8691
# 3 104.0709 39.7274 155.2579 25.9570 1.2621 4.2044
# 4 27.6272 5.2967 25.9570 49.7895 5.0031 7.6298
# 5 -1.5260 -4.6653 1.2621 5.0031 57.1119 5.7488
# 6 14.8760 2.8691 4.2044 7.6298 5.7488 32.0548
#
#
#
# Elastic Compliance Matrix: (Units=1/GPa)
#
#
# Indices 1 2 3 4 5 6 
#
# 1 0.008970 0.000473 -0.005785 -0.001606 0.000871 -0.003220
# 2 0.000473 0.016306 -0.004535 0.000436 0.001554 -0.001466
# 3 -0.005785 -0.004535 0.011888 -0.002784 -0.000779 0.002334
# 4 -0.001606 0.000436 -0.002784 0.023176 -0.001557 -0.004166
# 5 0.000871 0.001554 -0.000779 -0.001557 0.018148 -0.003325
# 6 -0.003220 -0.001466 0.002334 -0.004166 -0.003325 0.034104
#
#
# Mechanical properties :
#
#
# Convention : Reuss Voigt Hill
#
# Bulk Modulus (GPa) = 57.24451 83.48223 70.36337
# Shear Modulus (GPa) = 36.20314 44.27144 40.23729
#
# Velocity S-wave (km/s) = 3.69276 4.08357 3.89307
# Velocity P-wave (km/s) = 6.30428 7.32659 6.83458
#
# Compressibility (1/GPa) = 0.01746892
#
# Stress axis : x y z
#
# Youngs Moduli (GPa) = 111.48140 61.32688 84.12025
#
# Poissons Ratio (x) = -0.02898 0.48664
# Poissons Ratio (y) = -0.05268 0.38148
# Poissons Ratio (z) = 0.64493 0.27811
#
# Static dielectric constant tensor:
#      x y z
#    x 2.068280 0.038020 -0.008290 
#    y 0.038020 2.245300 -0.084070 
#    z -0.008290 -0.084070 2.068460 
# 
# From -- ./inp_files/388836.got.cif
#   From: 2010.05.17/outbox.cif.g08.bks.cpg/sg2_195_cif.got.tgz:388836.got - 2010.06.03 11:33:40.
