data_PCOD9077713
_publ_section_title
;
Structure prediction by ZEFSAII (Michael W. Deem and Ramdas Pophale) SiO2 
 PCOD9077713
Probable space group: P -1
;
_chemical_formula_sum "Si O2"
_cell_formula_units_Z 16
_cell_length_a 8.819717
_cell_length_b 15.325442
_cell_length_c 8.348235
_cell_angle_alpha 134.827750
_cell_angle_beta 90.609425
_cell_angle_gamma 62.671588
_cell_volume 617.032815
_symmetry_space_group_name_H-M "P -1"
_symmetry_group_IT_number 2
_symmetry_cell_setting 'triclinic'
loop_
_space_group_symop_operation_xyz
x,y,z
-x,-y,-z
loop_
_atom_site_type_symbol
_atom_site_label
_atom_site_fract_x
_atom_site_fract_y
_atom_site_fract_z
Si Si1 0.402009 0.523230 0.292637
Si Si2 0.980269 0.600923 0.918346
Si Si3 0.223850 0.708793 0.190463
Si Si4 0.990996 0.993648 0.231315
Si Si5 0.028390 0.703238 0.732238
Si Si6 0.295638 0.032951 0.177427
Si Si7 0.305805 0.268811 0.654965
Si Si8 0.587726 0.220541 0.358806
O O1 0.305518 0.612352 0.235726
O O2 0.471163 0.616872 0.495734
O O3 0.224167 0.569076 0.460049
O O4 0.602827 0.358070 0.022611
O O5 0.074710 0.676828 0.094660
O O6 0.769459 0.685003 0.105665
O O7 0.123785 0.417617 0.740923
O O8 0.977715 0.628089 0.766391
O O9 0.122117 0.889361 0.467474
O O10 0.821835 0.101361 0.232746
O O11 0.172844 0.989670 0.205735
O O12 0.047280 0.822841 0.986887
O O13 0.853226 0.824140 0.763478
O O14 0.357341 0.103143 0.394784
O O15 0.457693 0.873764 0.872665
O O16 0.484921 0.255756 0.574472
#
# Coordination Sequence:
#
# PCOD9077713 Si02
#       8
#     2   2   2   2   2   2   2   2
#     4  10  18  34  63  89 114 147 197 245 289 340
#     4  11  24  37  58  83 121 160 190 240 290 349
#     4  10  19  35  57  89 115 153 189 233 293 343
#     4  10  19  37  65  90 112 151 196 238 295 346
#     4  11  21  38  62  89 117 148 199 246 290 338
#     4  11  19  38  64  85 115 154 196 238 290 355
#     4  11  23  40  56  83 120 160 198 228 292 355
#     4  10  18  35  64  89 107 152 199 243 281 347
#
# _framework density 25.930548999999999
#
# number of rings (size 3 to 8) (size 9 to 14) (size 15 to 20)
#    0.000    1.500    6.250    1.125    0.000    1.500 
#    0.000    2.500    2.750    0.000    0.000    0.000 
#    0.000    0.000    0.000    0.000    0.000    0.000 
#
# Total GULP energy -89494.867599 kJ/mol
# GULP energy per Si atom -5593.429225 kJ/mol
# Density = 2.587153 g / cm^3
# Si number density = 25.930549 Si / 1000 Ang^3
#
#
#
# Elastic Constant Matrix: (Units=GPa)
#
#
# Indices 1 2 3 4 5 6 
#
# 1 55.7751 -2.3394 25.2334 -5.9965 -13.4089 19.5598
# 2 -2.3394 83.6154 26.3895 -20.5176 -12.1676 9.9161
# 3 25.2334 26.3895 192.4289 -18.5540 -16.4380 26.6262
# 4 -5.9965 -20.5176 -18.5540 -0.8610 22.8621 -16.3372
# 5 -13.4089 -12.1676 -16.4380 22.8621 58.0843 -9.9193
# 6 19.5598 9.9161 26.6262 -16.3372 -9.9193 33.1777
#
#
#
# Elastic Compliance Matrix: (Units=1/GPa)
#
#
# Indices 1 2 3 4 5 6 
#
# 1 0.023429 0.004137 -0.001469 0.006406 0.001589 -0.010240
# 2 0.004137 0.012129 -0.001552 -0.008384 0.005088 -0.007426
# 3 -0.001469 -0.001552 0.006113 -0.000388 0.000606 -0.003585
# 4 0.006406 -0.008384 -0.000388 -0.057820 0.018278 -0.023967
# 5 0.001589 0.005088 0.000606 0.018278 0.013342 0.010045
# 6 -0.010240 -0.007426 -0.003585 -0.023967 0.010045 0.032476
#
#
# Mechanical properties :
#
#
# Convention : Reuss Voigt Hill
#
# Bulk Modulus (GPa) = 22.77798 47.82072 35.29935
# Shear Modulus (GPa) = 118.84348 36.91596 77.87972
#
# Velocity S-wave (km/s) = 6.77724 3.77722 5.48627
# Velocity P-wave (km/s) = 8.36926 6.12414 7.33313
#
# Compressibility (1/GPa) = 0.04390204
#
# Stress axis : x y z
#
# Youngs Moduli (GPa) = 42.68154 82.44804 163.59348
#
# Poissons Ratio (x) = -0.34108 0.24036
# Poissons Ratio (y) = -0.17657 0.25391
# Poissons Ratio (z) = 0.06271 0.12797
#
# Static dielectric constant tensor:
#      x y z
#    x 2.034690 -0.030830 0.034430 
#    y -0.030830 2.020590 -0.028180 
#    z 0.034430 -0.028180 2.086770 
# 
# From -- ./inp_files/208912.got.cif
#   From: 2010.05.17/outbox.cif.g08.bks.cpg/sg2_105_cif.got.tgz:208912.got - 2010.06.03 11:33:40.
