data_PCOD9077011
_publ_section_title
;
Structure prediction by ZEFSAII (Michael W. Deem and Ramdas Pophale) SiO2 
 PCOD9077011
Probable space group: P -1
;
_chemical_formula_sum "Si O2"
_cell_formula_units_Z 16
_cell_length_a 15.575675
_cell_length_b 9.054921
_cell_length_c 8.785479
_cell_angle_alpha 86.039357
_cell_angle_beta 101.587269
_cell_angle_gamma 47.788485
_cell_volume 862.766256
_symmetry_space_group_name_H-M "P -1"
_symmetry_group_IT_number 2
_symmetry_cell_setting 'triclinic'
loop_
_space_group_symop_operation_xyz
x,y,z
-x,-y,-z
loop_
_atom_site_type_symbol
_atom_site_label
_atom_site_fract_x
_atom_site_fract_y
_atom_site_fract_z
Si Si1 0.436777 0.470232 0.853500
Si Si2 0.751801 0.717647 0.801653
Si Si3 0.262751 0.521464 0.413363
Si Si4 0.158223 0.450278 0.615721
Si Si5 0.904332 0.722686 0.645408
Si Si6 0.460325 0.807552 0.377346
Si Si7 0.635757 0.768793 0.069945
Si Si8 0.704455 0.205392 0.488214
O O1 0.531241 0.288607 0.774685
O O2 0.378021 0.393166 0.914538
O O3 0.339137 0.675350 0.697797
O O4 0.500000 0.500000 0.000000
O O5 0.771455 0.537933 0.737569
O O6 0.860187 0.701673 0.790190
O O7 0.630501 0.946585 0.680408
O O8 0.717916 0.724557 0.961512
O O9 0.173269 0.582384 0.515287
O O10 0.401504 0.312255 0.524495
O O11 0.269403 0.689164 0.396325
O O12 0.129567 0.359524 0.487892
O O13 0.288477 0.268226 0.753960
O O14 0.047915 0.585455 0.687221
O O15 0.822685 0.960644 0.554547
O O16 0.407315 0.759007 0.487707
O O17 0.500000 0.000000 0.000000
#
# Coordination Sequence:
#
# PCOD9077011 Si02
#       8
#     2   2   2   2   2   2   2   2
#     4  11  23  35  52  87 121 147 178 225 295 339
#     4  10  21  34  56  82 110 151 187 228 277 333
#     4  10  18  34  54  82 109 144 190 231 273 328
#     4  10  20  40  60  84 110 144 200 235 269 334
#     4   9  22  39  62  82 106 152 195 236 275 320
#     4  10  19  36  52  81 112 149 188 225 279 333
#     4  12  23  37  58  86 119 149 182 231 285 338
#     4  10  21  36  56  83 112 151 182 234 284 329
#
# _framework density 18.544999000000001
#
# number of rings (size 3 to 8) (size 9 to 14) (size 15 to 20)
#    0.000    1.750    3.750    1.875    5.250    2.000 
#    0.000    0.000    0.000    0.750    0.000    0.000 
#    0.000    0.000    0.000    0.000    0.000    0.000 
#
# Total GULP energy -89174.825704 kJ/mol
# GULP energy per Si atom -5573.426607 kJ/mol
# Density = 1.850279 g / cm^3
# Si number density = 18.544999 Si / 1000 Ang^3
#
#
#
# Elastic Constant Matrix: (Units=GPa)
#
#
# Indices 1 2 3 4 5 6 
#
# 1 80.6952 25.2436 19.2605 -10.9385 -17.7040 -6.8877
# 2 25.2436 52.2742 12.0003 -7.4035 -8.4128 -2.4355
# 3 19.2605 12.0003 47.0055 -3.2670 -14.7151 3.1034
# 4 -10.9385 -7.4035 -3.2670 20.7250 1.1629 -3.2815
# 5 -17.7040 -8.4128 -14.7151 1.1629 35.9174 1.6086
# 6 -6.8877 -2.4355 3.1034 -3.2815 1.6086 35.0895
#
#
#
# Elastic Compliance Matrix: (Units=1/GPa)
#
#
# Indices 1 2 3 4 5 6 
#
# 1 0.017480 -0.005539 -0.003841 0.006942 0.005351 0.003790
# 2 -0.005539 0.023495 -0.003046 0.005111 0.001304 0.001231
# 3 -0.003841 -0.003046 0.026505 0.000005 0.008417 -0.003695
# 4 0.006942 0.005111 0.000005 0.054661 0.002551 0.006712
# 5 0.005351 0.001304 0.008417 0.002551 0.034192 -0.000933
# 6 0.003790 0.001231 -0.003695 0.006712 -0.000933 0.030325
#
#
# Mechanical properties :
#
#
# Convention : Reuss Voigt Hill
#
# Bulk Modulus (GPa) = 23.45893 32.55375 28.00634
# Shear Modulus (GPa) = 22.15125 26.57773 24.36449
#
# Velocity S-wave (km/s) = 3.45984 3.78980 3.62858
# Velocity P-wave (km/s) = 5.35144 6.06153 5.71752
#
# Compressibility (1/GPa) = 0.04262770
#
# Stress axis : x y z
#
# Youngs Moduli (GPa) = 57.20759 42.56207 37.72854
#
# Poissons Ratio (x) = 0.23574 0.14493
# Poissons Ratio (y) = 0.31685 0.11494
# Poissons Ratio (z) = 0.21975 0.12966
#
# Static dielectric constant tensor:
#      x y z
#    x 1.658940 -0.005240 -0.022660 
#    y -0.005240 1.635690 0.014650 
#    z -0.022660 0.014650 1.654460 
# 
# From -- ./inp_files/186542.got.cif
#   From: 2010.05.17/outbox.cif.g08.bks.cpg/sg2_94_cif.got.tgz:186542.got - 2010.06.03 11:33:40.
