data_PCOD9077119
_publ_section_title
;
Structure prediction by ZEFSAII (Michael W. Deem and Ramdas Pophale) SiO2 
 PCOD9077119
Probable space group: P -1
;
_chemical_formula_sum "Si O2"
_cell_formula_units_Z 12
_cell_length_a 7.703430
_cell_length_b 9.298558
_cell_length_c 9.444339
_cell_angle_alpha 125.120658
_cell_angle_beta 64.213834
_cell_angle_gamma 111.329795
_cell_volume 492.293649
_symmetry_space_group_name_H-M "P -1"
_symmetry_group_IT_number 2
_symmetry_cell_setting 'triclinic'
loop_
_space_group_symop_operation_xyz
x,y,z
-x,-y,-z
loop_
_atom_site_type_symbol
_atom_site_label
_atom_site_fract_x
_atom_site_fract_y
_atom_site_fract_z
Si Si1 0.654703 0.578288 0.606407
Si Si2 0.069261 0.412983 0.740020
Si Si3 0.672540 0.215703 0.082854
Si Si4 0.503388 0.023433 0.770670
Si Si5 0.184122 0.074316 0.576381
Si Si6 0.690494 0.279844 0.652263
O O1 0.500000 0.500000 0.500000
O O2 0.846787 0.624266 0.468787
O O3 0.544199 0.724788 0.801576
O O4 0.674163 0.427169 0.627189
O O5 0.167409 0.609935 0.861158
O O6 0.135938 0.267640 0.741415
O O7 0.840068 0.375311 0.771537
O O8 0.674745 0.084945 0.142855
O O9 0.659740 0.104380 0.881190
O O10 0.498874 0.185610 0.753910
O O11 0.616264 0.890735 0.566211
O O12 0.224884 0.894487 0.539754
O O13 0.000000 0.000000 0.500000
#
# Coordination Sequence:
#
# PCOD9077119 Si02
#       6
#     2   2   2   2   2   2
#     4  10  19  33  54  82 106 138 183 224 263 313
#     4  10  18  34  56  82 104 139 182 222 260 315
#     4  10  20  33  54  80 110 143 174 218 268 320
#     4   9  19  35  53  77 110 149 172 211 276 318
#     4   8  16  33  53  80 103 143 176 215 267 314
#     4   9  19  34  56  77 108 143 180 216 267 315
#
# _framework density 24.375696000000001
#
# number of rings (size 3 to 8) (size 9 to 14) (size 15 to 20)
#    1.000    1.667    1.667    0.500    0.000    1.333 
#    0.000   13.333    0.000    4.000    0.000    0.000 
#    0.000    0.000    0.000    0.000    0.000    0.000 
#
# Total GULP energy -66857.294428 kJ/mol
# GULP energy per Si atom -5571.441202 kJ/mol
# Density = 2.432022 g / cm^3
# Si number density = 24.375696 Si / 1000 Ang^3
#
#
#
# Elastic Constant Matrix: (Units=GPa)
#
#
# Indices 1 2 3 4 5 6 
#
# 1 59.4466 40.4032 8.4296 10.0597 7.6795 -8.6287
# 2 40.4032 171.5602 24.2588 16.7521 9.1544 -14.8013
# 3 8.4296 24.2588 60.3551 6.0352 7.0691 -1.7798
# 4 10.0597 16.7521 6.0352 32.8455 8.7056 13.8818
# 5 7.6795 9.1544 7.0691 8.7056 20.6896 5.3541
# 6 -8.6287 -14.8013 -1.7798 13.8818 5.3541 55.0116
#
#
#
# Elastic Compliance Matrix: (Units=1/GPa)
#
#
# Indices 1 2 3 4 5 6 
#
# 1 0.021634 -0.003957 -0.000212 -0.004911 -0.005192 0.004066
# 2 -0.003957 0.007562 -0.002065 -0.003062 -0.000443 0.002163
# 3 -0.000212 -0.002065 0.018149 -0.001256 -0.004885 0.000791
# 4 -0.004911 -0.003062 -0.001256 0.041281 -0.010919 -0.010989
# 5 -0.005192 -0.000443 -0.004885 -0.010919 0.057744 -0.003956
# 6 0.004066 0.002163 0.000791 -0.010989 -0.003956 0.022581
#
#
# Mechanical properties :
#
#
# Convention : Reuss Voigt Hill
#
# Bulk Modulus (GPa) = 28.67246 48.61614 38.64430
# Shear Modulus (GPa) = 25.90076 36.26069 31.08073
#
# Velocity S-wave (km/s) = 3.26324 3.86109 3.57469
# Velocity P-wave (km/s) = 5.09770 6.31389 5.73811
#
# Compressibility (1/GPa) = 0.03487667
#
# Stress axis : x y z
#
# Youngs Moduli (GPa) = 46.22452 132.23891 55.09870
#
# Poissons Ratio (x) = 0.52333 0.01167
# Poissons Ratio (y) = 0.18293 0.11377
# Poissons Ratio (z) = 0.00979 0.27306
#
# Static dielectric constant tensor:
#      x y z
#    x 1.990730 0.007420 -0.032390 
#    y 0.007420 1.980860 -0.056290 
#    z -0.032390 -0.056290 2.055550 
# 
# From -- ./inp_files/301555.got.cif
#   From: 2010.05.17/outbox.cif.g08.bks.cpg/sg2_151_cif.got.tgz:301555.got - 2010.06.03 11:33:40.
