data_PCOD9077791
_publ_section_title
;
Structure prediction by ZEFSAII (Michael W. Deem and Ramdas Pophale) SiO2 
 PCOD9077791
Probable space group: P -1
;
_chemical_formula_sum "Si O2"
_cell_formula_units_Z 15
_cell_length_a 7.801903
_cell_length_b 19.510353
_cell_length_c 11.250547
_cell_angle_alpha 34.145047
_cell_angle_beta 137.108551
_cell_angle_gamma 138.060458
_cell_volume 610.377072
_symmetry_space_group_name_H-M "P -1"
_symmetry_group_IT_number 2
_symmetry_cell_setting 'triclinic'
loop_
_space_group_symop_operation_xyz
x,y,z
-x,-y,-z
loop_
_atom_site_type_symbol
_atom_site_label
_atom_site_fract_x
_atom_site_fract_y
_atom_site_fract_z
Si Si1 0.342283 0.853913 0.583427
Si Si2 0.343431 0.310607 0.939397
Si Si3 0.954436 0.372677 0.823783
Si Si4 0.000000 0.000000 0.500000
Si Si5 0.126952 0.279649 0.272029
Si Si6 0.473155 0.431955 0.430422
Si Si7 0.125242 0.192021 0.757412
Si Si8 0.459986 0.923325 0.965140
O O1 0.121456 0.777834 0.679670
O O2 0.174202 0.850920 0.384225
O O3 0.500000 0.000000 0.500000
O O4 0.544488 0.775756 0.795639
O O5 0.565225 0.431113 0.810267
O O6 0.164533 0.214455 0.885340
O O7 0.185704 0.380390 0.837919
O O8 0.781593 0.462253 0.582485
O O9 0.734958 0.227241 0.900243
O O10 0.070342 0.375341 0.010506
O O11 0.133763 0.152529 0.391745
O O12 0.715347 0.023218 0.287754
O O13 0.388175 0.350727 0.381786
O O14 0.286638 0.333053 0.574879
O O15 0.270134 0.093372 0.925672
O O16 0.500000 0.000000 0.000000
#
# Coordination Sequence:
#
# PCOD9077791 Si02
#       8
#     2   2   2   1   2   2   2   2
#     4  11  26  44  63  95 135 169 223 276 334 397
#     4  12  25  41  65 100 132 173 215 277 340 391
#     4  10  23  40  63  97 129 165 223 270 330 396
#     4  10  18  34  66  90 120 162 212 262 312 380
#     4  10  23  42  66  94 127 175 220 270 328 399
#     4  10  22  44  69  91 129 173 226 271 328 400
#     4  10  24  44  65  97 131 174 220 274 334 397
#     4  10  20  38  65  89 123 172 219 258 321 392
#
# _framework density 24.574973
#
# number of rings (size 3 to 8) (size 9 to 14) (size 15 to 20)
#    0.000    1.600    0.000    5.600    5.600    5.333 
#    4.800    0.000    0.000    0.000    0.000    0.000 
#    0.000    0.000    0.000    0.000    0.000    0.000 
#
# Total GULP energy -83724.661593 kJ/mol
# GULP energy per Si atom -5581.644106 kJ/mol
# Density = 2.451904 g / cm^3
# Si number density = 24.574973 Si / 1000 Ang^3
#
#
#
# Elastic Constant Matrix: (Units=GPa)
#
#
# Indices 1 2 3 4 5 6 
#
# 1 79.4480 33.3774 36.8593 14.6969 0.7409 -5.6957
# 2 33.3774 90.0118 64.6131 31.9274 14.3454 -10.4435
# 3 36.8593 64.6131 119.2885 28.1768 18.9755 -16.1663
# 4 14.6969 31.9274 28.1768 44.0725 -3.9997 -3.1051
# 5 0.7409 14.3454 18.9755 -3.9997 30.5958 -0.2600
# 6 -5.6957 -10.4435 -16.1663 -3.1051 -0.2600 24.6192
#
#
#
# Elastic Compliance Matrix: (Units=1/GPa)
#
#
# Indices 1 2 3 4 5 6 
#
# 1 0.015770 -0.004163 -0.003254 0.000151 0.003606 -0.000197
# 2 -0.004163 0.023396 -0.006977 -0.011630 -0.008038 0.002828
# 3 -0.003254 -0.006977 0.016224 -0.004445 -0.007239 0.006304
# 4 0.000151 -0.011630 -0.004445 0.034831 0.012732 -0.003290
# 5 0.003606 -0.008038 -0.007239 0.012732 0.042475 -0.005275
# 6 -0.000197 0.002828 0.006304 -0.003290 -0.005275 0.045441
#
#
# Mechanical properties :
#
#
# Convention : Reuss Voigt Hill
#
# Bulk Modulus (GPa) = 37.59180 62.04975 49.82077
# Shear Modulus (GPa) = 23.17048 30.11739 26.64394
#
# Velocity S-wave (km/s) = 3.07392 3.50456 3.29628
# Velocity P-wave (km/s) = 5.28475 6.45599 5.89951
#
# Compressibility (1/GPa) = 0.02660155
#
# Stress axis : x y z
#
# Youngs Moduli (GPa) = 63.41277 42.74192 61.63853
#
# Poissons Ratio (x) = 0.17793 0.20056
# Poissons Ratio (y) = 0.26398 0.43007
# Poissons Ratio (z) = 0.20633 0.29822
#
# Static dielectric constant tensor:
#      x y z
#    x 2.063340 0.067760 -0.050580 
#    y 0.067760 1.924890 -0.011200 
#    z -0.050580 -0.011200 1.942350 
# 
# From -- ./inp_files/404643.got.cif
#   From: 2010.05.17/outbox.cif.g08.bks.cpg/sg2_203_cif.got.tgz:404643.got - 2010.06.03 11:33:40.
