data_PCOD9077496
_publ_section_title
;
Structure prediction by ZEFSAII (Michael W. Deem and Ramdas Pophale) SiO2 
 PCOD9077496
Probable space group: P -1
;
_chemical_formula_sum "Si O2"
_cell_formula_units_Z 14
_cell_length_a 9.606109
_cell_length_b 17.105419
_cell_length_c 19.540161
_cell_angle_alpha 158.986047
_cell_angle_beta 36.660958
_cell_angle_gamma 132.967895
_cell_volume 652.673441
_symmetry_space_group_name_H-M "P -1"
_symmetry_group_IT_number 2
_symmetry_cell_setting 'triclinic'
loop_
_space_group_symop_operation_xyz
x,y,z
-x,-y,-z
loop_
_atom_site_type_symbol
_atom_site_label
_atom_site_fract_x
_atom_site_fract_y
_atom_site_fract_z
Si Si1 0.508679 0.570694 0.475516
Si Si2 0.701690 0.583957 0.905352
Si Si3 0.169005 0.680461 0.979013
Si Si4 0.633144 0.743370 0.211798
Si Si5 0.648057 0.609472 0.797699
Si Si6 0.794559 0.829303 0.633901
Si Si7 0.183606 0.322455 0.352268
O O1 0.500000 0.500000 0.500000
O O2 0.712152 0.392280 0.202376
O O3 0.405961 0.205989 0.368481
O O4 0.256472 0.554574 0.529856
O O5 0.522880 0.426563 0.849968
O O6 0.656054 0.704626 0.948103
O O7 0.974803 0.402775 0.652975
O O8 0.659519 0.742009 0.117697
O O9 0.394080 0.557979 0.840958
O O10 0.906305 0.644613 0.054999
O O11 0.126808 0.948494 0.228848
O O12 0.500000 0.000000 0.500000
O O13 0.691790 0.752755 0.831580
O O14 0.891262 0.386847 0.516838
O O15 0.723926 0.832879 0.744903
#
# Coordination Sequence:
#
# PCOD9077496 Si02
#       7
#     2   2   2   2   2   2   2
#     4   9  18  32  54  84 112 150 189 227 271 329
#     4  10  21  39  62  80 114 150 189 238 289 333
#     4  11  21  35  60  87 116 145 194 239 276 335
#     4  11  22  39  63  87 105 150 201 237 277 339
#     4   9  19  36  56  85 118 150 179 238 288 331
#     4  10  18  34  60  86 112 153 193 229 275 339
#     4   8  17  34  57  80 120 153 185 222 284 342
#
# _framework density 21.450237000000001
#
# number of rings (size 3 to 8) (size 9 to 14) (size 15 to 20)
#    0.000    2.286    2.857    0.000    0.000    5.714 
#    0.000    4.286    0.000    0.000    0.000    0.000 
#    0.000    0.000    0.000    0.000    0.000    0.000 
#
# Total GULP energy -77994.569922 kJ/mol
# GULP energy per Si atom -5571.040709 kJ/mol
# Density = 2.140142 g / cm^3
# Si number density = 21.450237 Si / 1000 Ang^3
#
#
#
# Elastic Constant Matrix: (Units=GPa)
#
#
# Indices 1 2 3 4 5 6 
#
# 1 131.0089 31.1731 48.1946 -9.1725 8.5822 16.3414
# 2 31.1731 45.7611 17.6869 -8.8625 0.3818 15.7049
# 3 48.1946 17.6869 105.7976 -15.6495 18.7308 7.8712
# 4 -9.1725 -8.8625 -15.6495 29.2978 6.6882 1.9756
# 5 8.5822 0.3818 18.7308 6.6882 34.7704 -16.6299
# 6 16.3414 15.7049 7.8712 1.9756 -16.6299 39.8555
#
#
#
# Elastic Compliance Matrix: (Units=1/GPa)
#
#
# Indices 1 2 3 4 5 6 
#
# 1 0.010523 -0.004779 -0.003268 0.000807 -0.002265 -0.002771
# 2 -0.004779 0.032505 0.001578 0.012562 -0.010094 -0.015995
# 3 -0.003268 0.001578 0.015499 0.011506 -0.013950 -0.008734
# 4 0.000807 0.012562 0.011506 0.051854 -0.026675 -0.021254
# 5 -0.002265 -0.010094 -0.013950 -0.026675 0.057934 0.033157
# 6 -0.002771 -0.015995 -0.008734 -0.021254 0.033157 0.049143
#
#
# Mechanical properties :
#
#
# Convention : Reuss Voigt Hill
#
# Bulk Modulus (GPa) = 21.93547 52.96410 37.44978
# Shear Modulus (GPa) = 20.35909 33.15228 26.75569
#
# Velocity S-wave (km/s) = 3.08414 3.93561 3.53560
# Velocity P-wave (km/s) = 4.78863 6.73774 5.84501
#
# Compressibility (1/GPa) = 0.04558826
#
# Stress axis : x y z
#
# Youngs Moduli (GPa) = 95.02997 30.76489 64.52233
#
# Poissons Ratio (x) = 0.14703 0.21087
# Poissons Ratio (y) = 0.45415 -0.10183
# Poissons Ratio (z) = 0.31057 -0.04855
#
# Static dielectric constant tensor:
#      x y z
#    x 1.829370 0.012430 -0.015020 
#    y 0.012430 1.819870 -0.018660 
#    z -0.015020 -0.018660 1.788370 
# 
# From -- ./inp_files/591676.got.cif
#   From: 2010.05.17/outbox.cif.g08.bks.cpg/sg2_296_cif.got.tgz:591676.got - 2010.06.03 11:33:40.
