data_PCOD9077513
_publ_section_title
;
Structure prediction by ZEFSAII (Michael W. Deem and Ramdas Pophale) SiO2 
 PCOD9077513
Probable space group: P -1
;
_chemical_formula_sum "Si O2"
_cell_formula_units_Z 14
_cell_length_a 7.091793
_cell_length_b 8.362393
_cell_length_c 12.598314
_cell_angle_alpha 59.367557
_cell_angle_beta 67.211843
_cell_angle_gamma 92.502877
_cell_volume 564.675937
_symmetry_space_group_name_H-M "P -1"
_symmetry_group_IT_number 2
_symmetry_cell_setting 'triclinic'
loop_
_space_group_symop_operation_xyz
x,y,z
-x,-y,-z
loop_
_atom_site_type_symbol
_atom_site_label
_atom_site_fract_x
_atom_site_fract_y
_atom_site_fract_z
Si Si1 0.024091 0.760030 0.690149
Si Si2 0.807381 0.800355 0.119966
Si Si3 0.849858 0.801292 0.455619
Si Si4 0.783033 0.553208 0.004838
Si Si5 0.479322 0.786061 0.699361
Si Si6 0.892637 0.526314 0.380060
Si Si7 0.493959 0.184018 0.648224
O O1 0.835065 0.644878 0.847791
O O2 0.261180 0.769400 0.683468
O O3 0.999865 0.635995 0.629278
O O4 0.020550 0.980523 0.612004
O O5 0.762079 0.705500 0.046484
O O6 0.874232 0.648354 0.236079
O O7 0.596032 0.833177 0.207344
O O8 0.000000 0.000000 0.000000
O O9 0.650203 0.731072 0.605798
O O10 0.981149 0.675423 0.407388
O O11 0.716915 0.835759 0.368847
O O12 0.596381 0.356831 0.136522
O O13 0.000000 0.500000 0.000000
O O14 0.568384 0.005425 0.649296
O O15 0.662407 0.391032 0.516736
#
# Coordination Sequence:
#
# PCOD9077513 Si02
#       7
#     2   2   2   2   2   2   2
#     4  10  17  24  29  37  44  49  56  61  69  76
#     4  11  18  23  29  37  41  48  58  61  68  77
#     4  10  16  23  31  38  41  48  59  62  66  76
#     4  10  16  23  28  34  45  50  52  63  71  72
#     4  10  15  24  30  36  43  48  56  63  67  74
#     4  11  17  24  32  36  43  51  54  63  69  72
#     4  10  17  23  31  37  41  49  57  61  68  75
#
# _framework density 24.792978000000002
#
# number of rings (size 3 to 8) (size 9 to 14) (size 15 to 20)
#    0.000    1.714    5.714    6.857    0.000    0.000 
#    0.000    0.000    0.000    0.000    0.000    0.000 
#    0.000    0.000    0.000    0.000    0.000    0.000 
#
# Total GULP energy -78275.164810 kJ/mol
# GULP energy per Si atom -5591.083201 kJ/mol
# Density = 2.473655 g / cm^3
# Si number density = 24.792978 Si / 1000 Ang^3
#
#
#
# Elastic Constant Matrix: (Units=GPa)
#
#
# Indices 1 2 3 4 5 6 
#
# 1 78.1779 8.5134 -13.1372 4.8854 -11.1970 -14.1895
# 2 8.5134 183.7853 57.8225 19.7060 2.8546 -4.6572
# 3 -13.1372 57.8225 155.1581 6.6503 -5.3774 7.5210
# 4 4.8854 19.7060 6.6503 63.1025 -0.8177 2.6203
# 5 -11.1970 2.8546 -5.3774 -0.8177 -4.2677 18.4494
# 6 -14.1895 -4.6572 7.5210 2.6203 18.4494 27.0135
#
#
#
# Elastic Compliance Matrix: (Units=1/GPa)
#
#
# Indices 1 2 3 4 5 6 
#
# 1 0.014407 -0.000586 0.001015 -0.001422 -0.001909 0.008625
# 2 -0.000586 0.006214 -0.002111 -0.001577 0.003835 -0.001115
# 3 0.001015 -0.002111 0.007064 -0.000305 -0.005202 0.001785
# 4 -0.001422 -0.001577 -0.000305 0.016472 -0.002793 -0.000624
# 5 -0.001909 0.003835 -0.005202 -0.002793 -0.054067 0.038304
# 6 0.008625 -0.001115 0.001785 -0.000624 0.038304 0.014760
#
#
# Mechanical properties :
#
#
# Convention : Reuss Voigt Hill
#
# Bulk Modulus (GPa) = 41.11723 58.16874 49.64299
# Shear Modulus (GPa) = 306.38873 41.43116 173.90995
#
# Velocity S-wave (km/s) = 11.12866 4.09232 8.38434
# Velocity P-wave (km/s) = 13.48146 6.77069 10.66752
#
# Compressibility (1/GPa) = 0.02432070
#
# Stress axis : x y z
#
# Youngs Moduli (GPa) = 69.41187 160.93819 141.56571
#
# Poissons Ratio (x) = 0.09430 -0.14367
# Poissons Ratio (y) = 0.04067 0.29880
# Poissons Ratio (z) = -0.07045 0.33969
#
# Static dielectric constant tensor:
#      x y z
#    x 2.094120 -0.121260 0.024040 
#    y -0.121260 2.137130 0.066670 
#    z 0.024040 0.066670 2.025570 
# 
# From -- ./inp_files/537822.got.cif
#   From: 2010.05.17/outbox.cif.g08.bks.cpg/sg2_269_cif.got.tgz:537822.got - 2010.06.03 11:33:40.
