data_PCOD9077673
_publ_section_title
;
Structure prediction by ZEFSAII (Michael W. Deem and Ramdas Pophale) SiO2 
 PCOD9077673
Probable space group: P -1
;
_chemical_formula_sum "Si O2"
_cell_formula_units_Z 13
_cell_length_a 11.402730
_cell_length_b 15.093770
_cell_length_c 9.389105
_cell_angle_alpha 149.109126
_cell_angle_beta 133.891980
_cell_angle_gamma 54.364690
_cell_volume 597.547570
_symmetry_space_group_name_H-M "P -1"
_symmetry_group_IT_number 2
_symmetry_cell_setting 'triclinic'
loop_
_space_group_symop_operation_xyz
x,y,z
-x,-y,-z
loop_
_atom_site_type_symbol
_atom_site_label
_atom_site_fract_x
_atom_site_fract_y
_atom_site_fract_z
Si Si1 0.895387 0.775083 0.969377
Si Si2 0.855543 0.865728 0.740821
Si Si3 0.636554 0.161323 0.052071
Si Si4 0.765383 0.035921 0.426777
Si Si5 0.500000 0.000000 0.000000
Si Si6 0.157125 0.517938 0.257979
Si Si7 0.312046 0.267002 0.841008
O O1 0.893713 0.780212 0.806202
O O2 0.864691 0.596371 0.776246
O O3 0.070305 0.852015 0.275037
O O4 0.762959 0.910440 0.108129
O O5 0.799517 0.727794 0.384808
O O6 0.702929 0.986821 0.804293
O O7 0.000000 0.000000 0.000000
O O8 0.788427 0.290610 0.389887
O O9 0.502750 0.240183 0.944599
O O10 0.548446 0.127060 0.080716
O O11 0.758829 0.905447 0.373212
O O12 0.602447 0.129826 0.383373
O O13 0.291647 0.426465 0.149116
O O14 0.000000 0.500000 0.000000
#
# Coordination Sequence:
#
# PCOD9077673 Si02
#       7
#     2   2   2   2   1   2   2
#     4  10  20  36  61  87 124 160 211 248 305 364
#     4  12  22  40  65  94 127 164 209 258 310 373
#     4  11  23  40  65  93 124 165 210 255 314 368
#     4   9  17  33  58  87 113 157 209 247 289 362
#     4  10  18  34  62  90 114 154 212 252 292 366
#     4  11  23  41  65  92 125 164 212 261 307 369
#     4  10  22  39  62  91 128 160 204 261 314 367
#
# _framework density 21.755590999999999
#
# number of rings (size 3 to 8) (size 9 to 14) (size 15 to 20)
#    0.000    1.538    3.077    2.769    2.154    0.000 
#    0.000    3.846    0.000    0.000    0.000    0.000 
#    0.000    0.000    0.000    0.000    0.000    0.000 
#
# Total GULP energy -72376.102261 kJ/mol
# GULP energy per Si atom -5567.392482 kJ/mol
# Density = 2.170607 g / cm^3
# Si number density = 21.755591 Si / 1000 Ang^3
#
#
#
# Elastic Constant Matrix: (Units=GPa)
#
#
# Indices 1 2 3 4 5 6 
#
# 1 49.6769 14.6265 8.2262 -8.0546 -0.3817 12.5802
# 2 14.6265 72.2116 8.5636 -23.9727 -7.3389 20.1867
# 3 8.2262 8.5636 62.7184 -15.2379 4.3370 12.0615
# 4 -8.0546 -23.9727 -15.2379 34.2978 2.4463 -6.6315
# 5 -0.3817 -7.3389 4.3370 2.4463 21.3808 -6.3650
# 6 12.5802 20.1867 12.0615 -6.6315 -6.3650 40.0838
#
#
#
# Elastic Compliance Matrix: (Units=1/GPa)
#
#
# Indices 1 2 3 4 5 6 
#
# 1 0.022767 -0.002362 -0.000846 0.002383 -0.002189 -0.005655
# 2 -0.002362 0.020958 0.001955 0.013257 0.002933 -0.007743
# 3 -0.000846 0.001955 0.019608 0.009143 -0.006180 -0.006088
# 4 0.002383 0.013257 0.009143 0.042569 -0.003217 -0.003643
# 5 -0.002189 0.002933 -0.006180 -0.003217 0.051977 0.008791
# 6 -0.005655 -0.007743 -0.006088 -0.003643 0.008791 0.033247
#
#
# Mechanical properties :
#
#
# Convention : Reuss Voigt Hill
#
# Bulk Modulus (GPa) = 16.43979 27.49327 21.96653
# Shear Modulus (GPa) = 23.37464 29.36519 26.36992
#
# Velocity S-wave (km/s) = 3.28139 3.67792 3.48530
# Velocity P-wave (km/s) = 4.68291 5.54084 5.12984
#
# Compressibility (1/GPa) = 0.06082801
#
# Stress axis : x y z
#
# Youngs Moduli (GPa) = 43.92303 47.71395 51.00023
#
# Poissons Ratio (x) = 0.11269 0.04314
# Poissons Ratio (y) = 0.10373 -0.09971
# Poissons Ratio (z) = 0.03716 -0.09329
#
# Static dielectric constant tensor:
#      x y z
#    x 1.657430 0.180620 -0.055500 
#    y 0.180620 1.578700 0.033890 
#    z -0.055500 0.033890 1.755110 
# 
# From -- ./inp_files/144884.got.cif
#   From: 2010.05.17/outbox.cif.g08.bks.cpg/sg2_73_cif.got.tgz:144884.got - 2010.06.03 11:33:40.
