data_PCOD9077088
_publ_section_title
;
Structure prediction by ZEFSAII (Michael W. Deem and Ramdas Pophale) SiO2 
 PCOD9077088
Probable space group: P -1
;
_chemical_formula_sum "Si O2"
_cell_formula_units_Z 14
_cell_length_a 9.029585
_cell_length_b 12.945371
_cell_length_c 9.147907
_cell_angle_alpha 87.589469
_cell_angle_beta 95.653657
_cell_angle_gamma 144.738973
_cell_volume 612.940375
_symmetry_space_group_name_H-M "P -1"
_symmetry_group_IT_number 2
_symmetry_cell_setting 'triclinic'
loop_
_space_group_symop_operation_xyz
x,y,z
-x,-y,-z
loop_
_atom_site_type_symbol
_atom_site_label
_atom_site_fract_x
_atom_site_fract_y
_atom_site_fract_z
Si Si1 0.919216 0.499516 0.336472
Si Si2 0.740183 0.325998 0.899282
Si Si3 0.611745 0.139039 0.169992
Si Si4 0.563367 0.679275 0.600744
Si Si5 0.156078 0.940270 0.328986
Si Si6 0.077520 0.865684 0.658781
Si Si7 0.645132 0.757707 0.272176
O O1 0.759974 0.319457 0.250639
O O2 0.714984 0.475787 0.341892
O O3 0.000000 0.500000 0.500000
O O4 0.168475 0.661127 0.251540
O O5 0.572710 0.334376 0.858217
O O6 0.597927 0.162465 0.997236
O O7 0.000000 0.500000 0.000000
O O8 0.335423 0.981364 0.231923
O O9 0.792535 0.146499 0.229322
O O10 0.701873 0.868318 0.637703
O O11 0.533953 0.659847 0.423757
O O12 0.773440 0.712988 0.662543
O O13 0.126605 0.872541 0.490525
O O14 0.873032 0.808980 0.249500
O O15 0.215768 0.053050 0.695014
#
# Coordination Sequence:
#
# PCOD9077088 Si02
#       7
#     2   2   2   2   2   2   2
#     4  10  18  34  56  69  92 140 181 197 231 298
#     4  10  21  33  50  74 103 132 172 205 240 295
#     4  10  20  32  49  80 107 125 158 216 256 285
#     4   8  15  30  54  78  93 129 173 206 237 290
#     4   8  16  30  52  77  99 130 165 202 247 297
#     4   9  17  31  53  78 106 123 160 214 257 290
#     4   9  16  31  54  75  98 133 167 200 248 301
#
# _framework density 22.840723000000001
#
# number of rings (size 3 to 8) (size 9 to 14) (size 15 to 20)
#    0.000    2.857    1.429    2.143    0.000    1.143 
#    0.000    1.429    0.000    0.000    0.000    0.000 
#    0.000    0.000    0.000    0.000    0.000    0.000 
#
# Total GULP energy -78230.269495 kJ/mol
# GULP energy per Si atom -5587.876392 kJ/mol
# Density = 2.278874 g / cm^3
# Si number density = 22.840723 Si / 1000 Ang^3
#
#
#
# Elastic Constant Matrix: (Units=GPa)
#
#
# Indices 1 2 3 4 5 6 
#
# 1 131.0074 31.0734 72.2469 -11.7479 22.8256 36.5951
# 2 31.0734 47.1839 18.4023 9.8941 3.6910 2.5615
# 3 72.2469 18.4023 131.8855 -0.8488 17.7261 34.3669
# 4 -11.7479 9.8941 -0.8488 21.9201 14.7050 2.1697
# 5 22.8256 3.6910 17.7261 14.7050 36.9704 6.0479
# 6 36.5951 2.5615 34.3669 2.1697 6.0479 41.0462
#
#
#
# Elastic Compliance Matrix: (Units=1/GPa)
#
#
# Indices 1 2 3 4 5 6 
#
# 1 0.035128 -0.030041 -0.003407 0.059241 -0.036639 -0.024324
# 2 -0.030041 0.051711 -0.002332 -0.066842 0.037236 0.023555
# 3 -0.003407 -0.002332 0.011918 0.002571 -0.003347 -0.006438
# 4 0.059241 -0.066842 0.002571 0.174622 -0.093013 -0.046323
# 5 -0.036639 0.037236 -0.003347 -0.093013 0.080261 0.026235
# 6 -0.024324 0.023555 -0.006438 -0.046323 0.026235 0.048553
#
#
# Mechanical properties :
#
#
# Convention : Reuss Voigt Hill
#
# Bulk Modulus (GPa) = 36.76785 61.50247 49.13516
# Shear Modulus (GPa) = 10.35581 32.54430 21.45006
#
# Velocity S-wave (km/s) = 2.13161 3.77880 3.06782
# Velocity P-wave (km/s) = 4.71071 6.78411 5.84016
#
# Compressibility (1/GPa) = 0.02719767
#
# Stress axis : x y z
#
# Youngs Moduli (GPa) = 28.46711 19.33807 83.90380
#
# Poissons Ratio (x) = 0.58093 0.28589
# Poissons Ratio (y) = 0.85517 0.19567
# Poissons Ratio (z) = 0.09700 0.04510
#
# Static dielectric constant tensor:
#      x y z
#    x 1.868650 -0.012720 -0.021770 
#    y -0.012720 1.934050 -0.000470 
#    z -0.021770 -0.000470 1.858490 
# 
# From -- ./inp_files/154700.got.cif
#   From: 2010.05.17/outbox.cif.g08.bks.cpg/sg2_78_cif.got.tgz:154700.got - 2010.06.03 11:33:40.
