data_PCOD9077710
_publ_section_title
;
Structure prediction by ZEFSAII (Michael W. Deem and Ramdas Pophale) SiO2 
 PCOD9077710
Probable space group: P -1
;
_chemical_formula_sum "Si O2"
_cell_formula_units_Z 16
_cell_length_a 10.161877
_cell_length_b 15.627829
_cell_length_c 9.110506
_cell_angle_alpha 67.110686
_cell_angle_beta 91.040133
_cell_angle_gamma 141.770633
_cell_volume 712.339929
_symmetry_space_group_name_H-M "P -1"
_symmetry_group_IT_number 2
_symmetry_cell_setting 'triclinic'
loop_
_space_group_symop_operation_xyz
x,y,z
-x,-y,-z
loop_
_atom_site_type_symbol
_atom_site_label
_atom_site_fract_x
_atom_site_fract_y
_atom_site_fract_z
Si Si1 0.184902 0.663374 0.008385
Si Si2 0.577298 0.377322 0.945789
Si Si3 0.123945 0.341211 0.005780
Si Si4 0.638788 0.021389 0.605100
Si Si5 0.093941 0.156491 0.952323
Si Si6 0.500155 0.607870 0.590618
Si Si7 0.267984 0.119652 0.398709
Si Si8 0.890041 0.701100 0.410281
O O1 0.291683 0.635852 0.111123
O O2 0.427177 0.854647 0.816632
O O3 0.000000 0.500000 0.000000
O O4 0.035922 0.666382 0.053160
O O5 0.779309 0.568544 0.892339
O O6 0.406708 0.240510 0.173062
O O7 0.383651 0.308247 0.879775
O O8 0.020383 0.175489 0.082632
O O9 0.364216 0.486406 0.811331
O O10 0.873795 0.202334 0.573302
O O11 0.500000 0.000000 0.500000
O O12 0.746746 0.997738 0.539201
O O13 0.023697 0.184737 0.801757
O O14 0.000000 0.000000 0.000000
O O15 0.575858 0.755096 0.541661
O O16 0.733909 0.683141 0.511233
O O17 0.308494 0.487376 0.534994
O O18 0.000000 0.000000 0.500000
#
# Coordination Sequence:
#
# PCOD9077710 Si02
#       8
#     2   2   2   2   2   2   2   2
#     4   9  19  40  61  86 123 161 201 253 305 361
#     4   9  19  35  58  87 114 153 207 243 294 353
#     4   9  19  37  61  85 116 158 204 245 294 361
#     4  11  23  40  62  93 124 158 206 257 308 367
#     4  11  21  34  56  88 121 152 196 249 300 359
#     4   9  19  38  64  84 115 162 201 245 310 354
#     4  10  18  34  63  88 119 155 202 253 293 355
#     4  10  21  41  60  84 127 159 195 254 317 353
#
# _framework density 22.461188
#
# number of rings (size 3 to 8) (size 9 to 14) (size 15 to 20)
#    0.000    2.250    1.250    2.625    0.000    1.000 
#   13.500    6.250    0.000    0.000    0.000    0.000 
#    0.000    0.000    0.000    0.000    0.000    0.000 
#
# Total GULP energy -89136.717590 kJ/mol
# GULP energy per Si atom -5571.044849 kJ/mol
# Density = 2.241006 g / cm^3
# Si number density = 22.461188 Si / 1000 Ang^3
#
#
#
# Elastic Constant Matrix: (Units=GPa)
#
#
# Indices 1 2 3 4 5 6 
#
# 1 104.3559 40.9052 0.5302 -10.3127 17.4751 4.4204
# 2 40.9052 129.0620 18.0111 -14.7298 14.8008 5.3455
# 3 0.5302 18.0111 31.3969 -2.6645 0.0621 1.6864
# 4 -10.3127 -14.7298 -2.6645 17.3094 4.1700 6.6738
# 5 17.4751 14.8008 0.0621 4.1700 23.9445 -1.0028
# 6 4.4204 5.3455 1.6864 6.6738 -1.0028 49.2421
#
#
#
# Elastic Compliance Matrix: (Units=1/GPa)
#
#
# Indices 1 2 3 4 5 6 
#
# 1 0.013157 -0.002048 0.001945 0.009833 -0.010162 -0.002565
# 2 -0.002048 0.011258 -0.005414 0.010212 -0.007328 -0.002386
# 3 0.001945 -0.005414 0.035147 0.002013 0.001442 -0.001034
# 4 0.009833 0.010212 0.002013 0.085059 -0.028900 -0.014177
# 5 -0.010162 -0.007328 0.001442 -0.028900 0.059022 0.006777
# 6 -0.002565 -0.002386 -0.001034 -0.014177 0.006777 0.022892
#
#
# Mechanical properties :
#
#
# Convention : Reuss Voigt Hill
#
# Bulk Modulus (GPa) = 20.60681 42.63420 31.62050
# Shear Modulus (GPa) = 19.70488 31.79043 25.74766
#
# Velocity S-wave (km/s) = 2.96511 3.76619 3.38940
# Velocity P-wave (km/s) = 4.57350 6.15912 5.42456
#
# Compressibility (1/GPa) = 0.04852765
#
# Stress axis : x y z
#
# Youngs Moduli (GPa) = 76.00307 88.82961 28.45206
#
# Poissons Ratio (x) = 0.18190 -0.05534
# Poissons Ratio (y) = 0.15564 0.15404
# Poissons Ratio (z) = -0.14782 0.48094
#
# Static dielectric constant tensor:
#      x y z
#    x 1.815340 -0.049790 -0.031690 
#    y -0.049790 1.858270 -0.031160 
#    z -0.031690 -0.031160 1.818550 
# 
# From -- ./inp_files/397213.got.cif
#   From: 2010.05.17/outbox.cif.g08.bks.cpg/sg2_199_cif.got.tgz:397213.got - 2010.06.03 11:33:40.
