data_PCOD9077304
_publ_section_title
;
Structure prediction by ZEFSAII (Michael W. Deem and Ramdas Pophale) SiO2 
 PCOD9077304
Probable space group: P -1
;
_chemical_formula_sum "Si O2"
_cell_formula_units_Z 16
_cell_length_a 9.464374
_cell_length_b 22.703338
_cell_length_c 13.926153
_cell_angle_alpha 24.724242
_cell_angle_beta 44.655690
_cell_angle_gamma 48.802090
_cell_volume 878.850432
_symmetry_space_group_name_H-M "P -1"
_symmetry_group_IT_number 2
_symmetry_cell_setting 'triclinic'
loop_
_space_group_symop_operation_xyz
x,y,z
-x,-y,-z
loop_
_atom_site_type_symbol
_atom_site_label
_atom_site_fract_x
_atom_site_fract_y
_atom_site_fract_z
Si Si1 0.892124 0.536267 0.098192
Si Si2 0.831943 0.922480 0.134493
Si Si3 0.089523 0.163747 0.288499
Si Si4 0.576853 0.910462 0.911036
Si Si5 0.780075 0.383256 0.041687
Si Si6 0.357004 0.370096 0.378640
Si Si7 0.567805 0.317571 0.553795
Si Si8 0.178331 0.947827 0.257209
O O1 0.698553 0.445395 0.334301
O O2 0.828343 0.700045 0.898911
O O3 0.000000 0.500000 0.000000
O O4 0.072052 0.517557 0.116277
O O5 0.782924 0.756007 0.403109
O O6 0.624763 0.003537 0.146685
O O7 0.872358 0.961779 0.945733
O O8 0.000000 0.000000 0.000000
O O9 0.255630 0.091398 0.248364
O O10 0.909664 0.235230 0.202845
O O11 0.998664 0.071692 0.552506
O O12 0.651596 0.983209 0.864042
O O13 0.532595 0.753933 0.200364
O O14 0.571356 0.359695 0.233215
O O15 0.732803 0.473465 0.835709
O O16 0.413867 0.352572 0.489360
O O17 0.730378 0.202219 0.601868
#
# Coordination Sequence:
#
# PCOD9077304 Si02
#       8
#     2   2   2   2   2   2   2   2
#     4  10  18  34  58  83 111 147 195 239 275 340
#     4  11  24  37  60  90 114 154 195 242 285 342
#     4  10  21  37  60  91 113 151 198 233 299 340
#     4  11  22  37  61  85 119 153 192 245 284 350
#     4   9  21  33  59  85 114 145 187 247 282 336
#     4  11  18  36  56  87 114 145 197 235 286 333
#     4  11  18  35  59  85 113 150 202 233 280 344
#     4  11  19  38  63  85 113 155 196 238 282 348
#
# _framework density 18.2056
#
# number of rings (size 3 to 8) (size 9 to 14) (size 15 to 20)
#    0.750    0.750    6.250    1.125    3.500    0.500 
#    0.000    1.250    2.750    0.000    0.000    0.000 
#    0.000    0.000    0.000    0.000    0.000    0.000 
#
# Total GULP energy -89094.605138 kJ/mol
# GULP energy per Si atom -5568.412821 kJ/mol
# Density = 1.816416 g / cm^3
# Si number density = 18.205600 Si / 1000 Ang^3
#
#
#
# Elastic Constant Matrix: (Units=GPa)
#
#
# Indices 1 2 3 4 5 6 
#
# 1 63.9059 17.7468 27.8511 1.6106 -16.6828 4.1337
# 2 17.7468 61.9755 23.7390 16.1944 1.6850 -5.6130
# 3 27.8511 23.7390 83.0698 0.9392 -6.4793 -10.4155
# 4 1.6106 16.1944 0.9392 28.1966 10.0302 -9.6959
# 5 -16.6828 1.6850 -6.4793 10.0302 37.4130 -7.8790
# 6 4.1337 -5.6130 -10.4155 -9.6959 -7.8790 16.3900
#
#
#
# Elastic Compliance Matrix: (Units=1/GPa)
#
#
# Indices 1 2 3 4 5 6 
#
# 1 0.022833 -0.003420 -0.007353 -0.005856 0.008299 -0.011078
# 2 -0.003420 0.022484 -0.005573 -0.013427 -0.000577 -0.003200
# 3 -0.007353 -0.005573 0.018285 0.008410 0.001522 0.017273
# 4 -0.005856 -0.013427 0.008410 0.057446 -0.009264 0.031753
# 5 0.008299 -0.000577 0.001522 -0.009264 0.035348 0.010189
# 6 -0.011078 -0.003200 0.017273 0.031753 0.010189 0.097370
#
#
# Mechanical properties :
#
#
# Convention : Reuss Voigt Hill
#
# Bulk Modulus (GPa) = 32.35270 38.62500 35.48885
# Shear Modulus (GPa) = 16.84846 25.70752 21.27799
#
# Velocity S-wave (km/s) = 3.04543 3.76182 3.42242
# Velocity P-wave (km/s) = 5.49322 6.33486 5.92900
#
# Compressibility (1/GPa) = 0.03090932
#
# Stress axis : x y z
#
# Youngs Moduli (GPa) = 43.79572 44.47602 54.68855
#
# Poissons Ratio (x) = 0.15212 0.40215
# Poissons Ratio (y) = 0.14980 0.30477
# Poissons Ratio (z) = 0.32205 0.24786
#
# Static dielectric constant tensor:
#      x y z
#    x 1.660900 0.000780 -0.037490 
#    y 0.000780 1.607470 -0.036430 
#    z -0.037490 -0.036430 1.738360 
# 
# From -- ./inp_files/404476.got.cif
#   From: 2010.05.17/outbox.cif.g08.bks.cpg/sg2_203_cif.got.tgz:404476.got - 2010.06.03 11:33:40.
