data_PCOD9077024
_publ_section_title
;
Structure prediction by ZEFSAII (Michael W. Deem and Ramdas Pophale) SiO2 
 PCOD9077024
Probable space group: P -1
;
_chemical_formula_sum "Si O2"
_cell_formula_units_Z 14
_cell_length_a 10.310215
_cell_length_b 12.065442
_cell_length_c 13.099837
_cell_angle_alpha 53.530295
_cell_angle_beta 46.069645
_cell_angle_gamma 26.600148
_cell_volume 523.788395
_symmetry_space_group_name_H-M "P -1"
_symmetry_group_IT_number 2
_symmetry_cell_setting 'triclinic'
loop_
_space_group_symop_operation_xyz
x,y,z
-x,-y,-z
loop_
_atom_site_type_symbol
_atom_site_label
_atom_site_fract_x
_atom_site_fract_y
_atom_site_fract_z
Si Si1 0.807087 0.912731 0.870285
Si Si2 0.609629 0.633613 0.613129
Si Si3 0.181455 0.207686 0.629908
Si Si4 0.369045 0.400381 0.948815
Si Si5 0.652239 0.260429 0.509138
Si Si6 0.988780 0.401557 0.241769
Si Si7 0.449768 0.837473 0.814633
O O1 0.125869 0.678881 0.897237
O O2 0.636163 0.167933 0.851412
O O3 0.901542 0.546334 0.920112
O O4 0.500000 0.000000 0.000000
O O5 0.809027 0.633716 0.451871
O O6 0.364563 0.745572 0.599943
O O7 0.483193 0.749129 0.732639
O O8 0.884577 0.346970 0.646011
O O9 0.500000 0.000000 0.500000
O O10 0.174798 0.126728 0.782340
O O11 0.548359 0.272123 0.033088
O O12 0.053151 0.220534 0.243493
O O13 0.373308 0.341158 0.665829
O O14 0.000000 0.000000 0.500000
O O15 0.500000 0.500000 0.500000
O O16 0.250165 0.252751 0.270761
#
# Coordination Sequence:
#
# PCOD9077024 Si02
#       7
#     2   2   2   2   2   2   2
#     4  10  18  34  54  87 128 144 177 234 296 381
#     4  10  21  36  53  80 113 151 196 248 281 351
#     4   9  17  31  55  81 109 145 183 235 311 342
#     4   9  21  32  56  94 120 144 181 227 316 365
#     4  12  29  42  57  81 115 168 212 231 269 339
#     4   9  20  37  58  86 121 154 187 241 292 341
#     4   9  20  31  61  87 118 148 178 241 320 349
#
# _framework density 26.728349999999999
#
# number of rings (size 3 to 8) (size 9 to 14) (size 15 to 20)
#    0.857    1.429    0.000    4.286    8.000    3.429 
#    0.000    0.000    0.000    0.000    0.000    6.000 
#    0.000    0.000    0.000    0.000    0.000    0.000 
#
# Total GULP energy -77993.905151 kJ/mol
# GULP energy per Si atom -5570.993225 kJ/mol
# Density = 2.666751 g / cm^3
# Si number density = 26.728350 Si / 1000 Ang^3
#
#
#
# Elastic Constant Matrix: (Units=GPa)
#
#
# Indices 1 2 3 4 5 6 
#
# 1 154.5104 52.4916 35.5816 -6.0477 46.1272 -23.5275
# 2 52.4916 168.1672 40.7845 -5.3020 21.1841 -28.8756
# 3 35.5816 40.7845 83.9475 -4.3986 23.1286 -2.3630
# 4 -6.0477 -5.3020 -4.3986 43.0019 1.7587 14.8400
# 5 46.1272 21.1841 23.1286 1.7587 41.9224 -5.5355
# 6 -23.5275 -28.8756 -2.3630 14.8400 -5.5355 44.0649
#
#
#
# Elastic Compliance Matrix: (Units=1/GPa)
#
#
# Indices 1 2 3 4 5 6 
#
# 1 0.010690 -0.001206 -0.001026 0.000484 -0.010155 0.003424
# 2 -0.001206 0.007900 -0.003189 -0.001140 -0.000235 0.004716
# 3 -0.001026 -0.003189 0.015721 0.002531 -0.006497 -0.003463
# 4 0.000484 -0.001140 0.002531 0.027024 -0.003798 -0.009931
# 5 -0.010155 -0.000235 -0.006497 -0.003798 0.038922 0.000244
# 6 0.003424 0.004716 -0.003463 -0.009931 0.000244 0.030802
#
#
# Mechanical properties :
#
#
# Convention : Reuss Voigt Hill
#
# Bulk Modulus (GPa) = 42.60675 73.81562 58.21118
# Shear Modulus (GPa) = 33.39506 44.31566 38.85536
#
# Velocity S-wave (km/s) = 3.53855 4.07627 3.81690
# Velocity P-wave (km/s) = 5.71580 7.05915 6.42270
#
# Compressibility (1/GPa) = 0.02347046
#
# Stress axis : x y z
#
# Youngs Moduli (GPa) = 93.54707 126.58671 63.60731
#
# Poissons Ratio (x) = 0.15261 0.06524
# Poissons Ratio (y) = 0.11277 0.20285
# Poissons Ratio (z) = 0.09595 0.40369
#
# Static dielectric constant tensor:
#      x y z
#    x 2.205940 0.062080 -0.067990 
#    y 0.062080 2.258940 -0.098370 
#    z -0.067990 -0.098370 2.168860 
# 
# From -- ./inp_files/558500.got.cif
#   From: 2010.05.17/outbox.cif.g08.bks.cpg/sg2_280_cif.got.tgz:558500.got - 2010.06.03 11:33:40.
