data_PCOD9077137
_publ_section_title
;
Structure prediction by ZEFSAII (Michael W. Deem and Ramdas Pophale) SiO2 
 PCOD9077137
Probable space group: P -1
;
_chemical_formula_sum "Si O2"
_cell_formula_units_Z 16
_cell_length_a 9.565752
_cell_length_b 8.649793
_cell_length_c 27.218856
_cell_angle_alpha 129.611756
_cell_angle_beta 38.344055
_cell_angle_gamma 102.045176
_cell_volume 853.202182
_symmetry_space_group_name_H-M "P -1"
_symmetry_group_IT_number 2
_symmetry_cell_setting 'triclinic'
loop_
_space_group_symop_operation_xyz
x,y,z
-x,-y,-z
loop_
_atom_site_type_symbol
_atom_site_label
_atom_site_fract_x
_atom_site_fract_y
_atom_site_fract_z
Si Si1 0.641809 0.039575 0.578998
Si Si2 0.259574 0.896360 0.944145
Si Si3 0.705852 0.563450 0.440123
Si Si4 0.707587 0.719380 0.364405
Si Si5 0.253977 0.052795 0.194149
Si Si6 0.699324 0.283044 0.700538
Si Si7 0.732976 0.321295 0.810568
Si Si8 0.298353 0.914732 0.046714
O O1 0.572060 0.843179 0.553437
O O2 0.975653 0.857913 0.435216
O O3 0.454566 0.264461 0.636368
O O4 0.595758 0.160996 0.669264
O O5 0.489784 0.588651 0.815780
O O6 0.444011 0.996177 0.901638
O O7 0.149330 0.973287 0.046659
O O8 0.000000 0.000000 0.000000
O O9 0.500000 0.500000 0.500000
O O10 0.742111 0.561708 0.370556
O O11 0.013132 0.345083 0.333915
O O12 0.997345 0.674906 0.261872
O O13 0.500000 0.000000 0.500000
O O14 0.259126 0.857616 0.188050
O O15 0.163814 0.028958 0.159681
O O16 0.720844 0.228339 0.741221
O O17 0.471011 0.615438 0.946338
O O18 0.500000 0.000000 0.000000
#
# Coordination Sequence:
#
# PCOD9077137 Si02
#       8
#     2   2   2   2   2   2   2   2
#     4  10  20  36  58  84 116 157 196 233 297 348
#     4  10  21  40  61  84 115 159 195 239 299 349
#     4  11  21  36  60  90 119 150 195 248 293 347
#     4  10  18  34  56  84 111 150 195 231 289 344
#     4  11  21  37  58  88 117 149 196 248 294 347
#     4  10  20  38  58  81 117 158 191 238 292 357
#     4  11  20  37  60  85 118 155 191 245 298 346
#     4   9  20  37  60  83 113 151 196 243 291 343
#
# _framework density 18.752882
#
# number of rings (size 3 to 8) (size 9 to 14) (size 15 to 20)
#    0.000    1.750    3.750    3.375    0.000    3.000 
#    0.000    8.125    0.000    0.000    0.000    0.000 
#    0.000    0.000    0.000    0.000    0.000    0.000 
#
# Total GULP energy -89146.329703 kJ/mol
# GULP energy per Si atom -5571.645606 kJ/mol
# Density = 1.871020 g / cm^3
# Si number density = 18.752882 Si / 1000 Ang^3
#
#
#
# Elastic Constant Matrix: (Units=GPa)
#
#
# Indices 1 2 3 4 5 6 
#
# 1 130.4409 47.6097 32.4295 0.7360 4.6289 -13.3693
# 2 47.6097 140.2513 31.4610 -0.7421 0.1123 -17.2760
# 3 32.4295 31.4610 37.3758 -1.1368 1.5394 -9.9845
# 4 0.7360 -0.7421 -1.1368 21.9265 3.1584 -3.4308
# 5 4.6289 0.1123 1.5394 3.1584 37.1281 3.5720
# 6 -13.3693 -17.2760 -9.9845 -3.4308 3.5720 25.6620
#
#
#
# Elastic Compliance Matrix: (Units=1/GPa)
#
#
# Indices 1 2 3 4 5 6 
#
# 1 0.010229 -0.001715 -0.006979 -0.000360 -0.001101 0.001564
# 2 -0.001715 0.009357 -0.005476 0.000609 0.000038 0.003351
# 3 -0.006979 -0.005476 0.040032 0.003822 -0.001968 0.009038
# 4 -0.000360 0.000609 0.003822 0.047944 -0.005043 0.008821
# 5 -0.001101 0.000038 -0.001968 -0.005043 0.028150 -0.005906
# 6 0.001564 0.003351 0.009038 0.008821 -0.005906 0.047557
#
#
# Mechanical properties :
#
#
# Convention : Reuss Voigt Hill
#
# Bulk Modulus (GPa) = 31.97228 59.00761 45.48994
# Shear Modulus (GPa) = 22.51914 30.04783 26.28348
#
# Velocity S-wave (km/s) = 3.46907 4.00722 3.74782
# Velocity P-wave (km/s) = 5.75606 7.27631 6.56037
#
# Compressibility (1/GPa) = 0.03127710
#
# Stress axis : x y z
#
# Youngs Moduli (GPa) = 97.76287 106.87754 24.98022
#
# Poissons Ratio (x) = 0.18330 0.17435
# Poissons Ratio (y) = 0.16767 0.13678
# Poissons Ratio (z) = 0.68232 0.58521
#
# Static dielectric constant tensor:
#      x y z
#    x 1.677940 -0.006750 0.000630 
#    y -0.006750 1.647170 0.009140 
#    z 0.000630 0.009140 1.677140 
# 
# From -- ./inp_files/216693.got.cif
#   From: 2010.05.17/outbox.cif.g08.bks.cpg/sg2_109_cif.got.tgz:216693.got - 2010.06.03 11:33:40.
