data_PCOD9077244
_publ_section_title
;
Structure prediction by ZEFSAII (Michael W. Deem and Ramdas Pophale) SiO2 
 PCOD9077244
Probable space group: P -1
;
_chemical_formula_sum "Si O2"
_cell_formula_units_Z 16
_cell_length_a 17.353431
_cell_length_b 12.345918
_cell_length_c 11.299017
_cell_angle_alpha 45.669548
_cell_angle_beta 146.743219
_cell_angle_gamma 144.317281
_cell_volume 772.886653
_symmetry_space_group_name_H-M "P -1"
_symmetry_group_IT_number 2
_symmetry_cell_setting 'triclinic'
loop_
_space_group_symop_operation_xyz
x,y,z
-x,-y,-z
loop_
_atom_site_type_symbol
_atom_site_label
_atom_site_fract_x
_atom_site_fract_y
_atom_site_fract_z
Si Si1 0.818516 0.395799 0.412298
Si Si2 0.412460 0.722014 0.135704
Si Si3 0.987365 0.499123 0.181172
Si Si4 0.403885 0.425190 0.637003
Si Si5 0.648990 0.617804 0.004570
Si Si6 0.229085 0.099889 0.861161
Si Si7 0.043536 0.295855 0.223397
Si Si8 0.502403 0.037746 0.174156
O O1 0.738920 0.510614 0.192476
O O2 0.682754 0.183044 0.360573
O O3 0.000000 0.500000 0.500000
O O4 0.868604 0.413517 0.600274
O O5 0.507515 0.623403 0.310935
O O6 0.458555 0.841445 0.223893
O O7 0.205879 0.585666 0.958698
O O8 0.480915 0.860944 0.005317
O O9 0.983807 0.333328 0.240576
O O10 0.025841 0.643875 0.017858
O O11 0.301128 0.258301 0.731396
O O12 0.250640 0.428552 0.384786
O O13 0.554814 0.597913 0.775942
O O14 0.762353 0.815254 0.064520
O O15 0.500000 0.500000 0.000000
O O16 0.354619 0.031881 0.063072
O O17 0.037992 0.919880 0.729436
#
# Coordination Sequence:
#
# PCOD9077244 Si02
#       8
#     2   2   2   2   2   2   2   2
#     4  12  21  36  60  90 114 149 192 242 289 339
#     4  10  19  37  59  85 116 147 189 243 283 342
#     4  11  23  39  57  82 124 156 192 231 289 353
#     4  10  20  36  61  86 112 148 197 241 288 334
#     4  10  18  34  57  86 112 143 185 243 293 330
#     4  10  19  36  59  85 116 146 196 244 284 335
#     4  11  24  38  55  87 118 161 191 230 289 348
#     4  10  19  34  60  89 114 142 193 240 291 329
#
# _framework density 20.701613999999999
#
# number of rings (size 3 to 8) (size 9 to 14) (size 15 to 20)
#    0.000    1.500    6.250    1.875    0.000    1.500 
#    0.000    1.875    0.000    3.750    0.000    0.000 
#    0.000    0.000    0.000    0.000    0.000    0.000 
#
# Total GULP energy -89296.318408 kJ/mol
# GULP energy per Si atom -5581.019901 kJ/mol
# Density = 2.065450 g / cm^3
# Si number density = 20.701614 Si / 1000 Ang^3
#
#
#
# Elastic Constant Matrix: (Units=GPa)
#
#
# Indices 1 2 3 4 5 6 
#
# 1 48.6450 23.4351 19.1033 5.8846 9.4428 -18.7012
# 2 23.4351 85.7582 27.8218 24.9176 -17.8625 -22.6120
# 3 19.1033 27.8218 88.3206 29.1211 -7.2464 -14.3000
# 4 5.8846 24.9176 29.1211 25.2033 -4.7264 -6.4677
# 5 9.4428 -17.8625 -7.2464 -4.7264 37.3363 13.4959
# 6 -18.7012 -22.6120 -14.3000 -6.4677 13.4959 28.5686
#
#
#
# Elastic Compliance Matrix: (Units=1/GPa)
#
#
# Indices 1 2 3 4 5 6 
#
# 1 0.045951 -0.010478 -0.007170 0.011315 -0.029060 0.034487
# 2 -0.010478 0.022461 0.003470 -0.021061 0.010313 0.003015
# 3 -0.007170 0.003470 0.020196 -0.024130 0.004055 0.000784
# 4 0.011315 -0.021061 -0.024130 0.084694 -0.007376 0.001317
# 5 -0.029060 0.010313 0.004055 -0.007376 0.051512 -0.034835
# 6 0.034487 0.003015 0.000784 0.001317 -0.034835 0.077112
#
#
# Mechanical properties :
#
#
# Convention : Reuss Voigt Hill
#
# Bulk Modulus (GPa) = 16.59698 40.38270 28.48984
# Shear Modulus (GPa) = 14.27073 28.37920 21.32496
#
# Velocity S-wave (km/s) = 2.62840 3.70654 3.21302
# Velocity P-wave (km/s) = 4.15283 6.15364 5.24944
#
# Compressibility (1/GPa) = 0.06025191
#
# Stress axis : x y z
#
# Youngs Moduli (GPa) = 21.76212 44.52110 49.51507
#
# Poissons Ratio (x) = 0.46651 0.35500
# Poissons Ratio (y) = 0.22803 -0.17180
# Poissons Ratio (z) = 0.15602 -0.15447
#
# Static dielectric constant tensor:
#      x y z
#    x 1.750560 -0.005080 -0.022590 
#    y -0.005080 1.770570 -0.005530 
#    z -0.022590 -0.005530 1.774730 
# 
# From -- ./inp_files/262310.got.cif
#   From: 2010.05.17/outbox.cif.g08.bks.cpg/sg2_132_cif.got.tgz:262310.got - 2010.06.03 11:33:40.
