data_PCOD9077809
_publ_section_title
;
Structure prediction by ZEFSAII (Michael W. Deem and Ramdas Pophale) SiO2 
 PCOD9077809
Probable space group: P -1
;
_chemical_formula_sum "Si O2"
_cell_formula_units_Z 15
_cell_length_a 11.284694
_cell_length_b 7.401720
_cell_length_c 14.468350
_cell_angle_alpha 95.441476
_cell_angle_beta 32.433893
_cell_angle_gamma 88.757855
_cell_volume 633.404647
_symmetry_space_group_name_H-M "P -1"
_symmetry_group_IT_number 2
_symmetry_cell_setting 'triclinic'
loop_
_space_group_symop_operation_xyz
x,y,z
-x,-y,-z
loop_
_atom_site_type_symbol
_atom_site_label
_atom_site_fract_x
_atom_site_fract_y
_atom_site_fract_z
Si Si1 0.235994 0.529048 0.198243
Si Si2 0.608244 0.177808 0.411390
Si Si3 0.676747 0.015648 0.039511
Si Si4 0.000000 0.000000 0.000000
Si Si5 0.712729 0.202822 0.681715
Si Si6 0.386046 0.388609 0.269815
Si Si7 0.936106 0.073837 0.344892
Si Si8 0.813991 0.671975 0.402092
O O1 0.185119 0.732307 0.288792
O O2 0.220050 0.397926 0.290676
O O3 0.051514 0.527238 0.241411
O O4 0.397399 0.763307 0.904237
O O5 0.757155 0.209304 0.403771
O O6 0.391532 0.331991 0.532699
O O7 0.774398 0.116699 0.212499
O O8 0.500000 0.000000 0.500000
O O9 0.454959 0.933053 0.195079
O O10 0.284855 0.340462 0.430450
O O11 0.840509 0.970717 0.016426
O O12 0.813120 0.932968 0.855984
O O13 0.576255 0.400790 0.742586
O O14 0.887096 0.123310 0.484961
O O15 0.500000 0.500000 0.000000
O O16 0.880573 0.871231 0.351398
#
# Coordination Sequence:
#
# PCOD9077809 Si02
#       8
#     2   2   2   1   2   2   2   2
#     4  10  24  42  64  96 133 175 228 272 331 399
#     4   9  18  33  64  96 125 169 219 264 325 394
#     4  11  20  43  67  96 134 174 223 270 326 399
#     4  10  18  34  70  90 126 178 216 262 328 386
#     4  10  24  43  64  99 138 164 229 276 327 396
#     4  10  22  41  68  92 133 178 213 277 335 383
#     4  10  21  38  68  99 129 175 218 272 332 394
#     4  11  19  41  67  94 132 177 221 272 333 388
#
# _framework density 23.681543000000001
#
# number of rings (size 3 to 8) (size 9 to 14) (size 15 to 20)
#    0.800    1.067    2.667    2.000    0.000    1.600 
#    0.000    2.667    2.933    0.000    0.000    0.000 
#    0.000    0.000    0.000    0.000    0.000    0.000 
#
# Total GULP energy -83514.780594 kJ/mol
# GULP energy per Si atom -5567.652040 kJ/mol
# Density = 2.362764 g / cm^3
# Si number density = 23.681543 Si / 1000 Ang^3
#
#
#
# Elastic Constant Matrix: (Units=GPa)
#
#
# Indices 1 2 3 4 5 6 
#
# 1 88.5487 6.3801 31.9701 -6.2130 -20.6963 -17.1070
# 2 6.3801 51.0788 9.3656 -2.9970 -0.7290 2.2952
# 3 31.9701 9.3656 135.2841 5.7449 1.9285 1.9606
# 4 -6.2130 -2.9970 5.7449 23.0713 -2.1268 5.6211
# 5 -20.6963 -0.7290 1.9285 -2.1268 36.3947 7.2562
# 6 -17.1070 2.2952 1.9606 5.6211 7.2562 25.8822
#
#
#
# Elastic Compliance Matrix: (Units=1/GPa)
#
#
# Indices 1 2 3 4 5 6 
#
# 1 0.016778 -0.001319 -0.004289 0.004163 0.008332 0.008292
# 2 -0.001319 0.020335 -0.001203 0.003502 0.000628 -0.003520
# 3 -0.004289 -0.001203 0.008694 -0.003262 -0.002733 -0.001912
# 4 0.004163 0.003502 -0.003262 0.048860 0.007462 -0.010015
# 5 0.008332 0.000628 -0.002733 0.007462 0.033898 -0.005466
# 6 0.008292 -0.003520 -0.001912 -0.010015 -0.005466 0.048281
#
#
# Mechanical properties :
#
#
# Convention : Reuss Voigt Hill
#
# Bulk Modulus (GPa) = 31.06942 41.14926 36.10934
# Shear Modulus (GPa) = 24.85116 32.21604 28.53360
#
# Velocity S-wave (km/s) = 3.24294 3.69234 3.47492
# Velocity P-wave (km/s) = 5.21252 5.96588 5.60188
#
# Compressibility (1/GPa) = 0.03218599
#
# Stress axis : x y z
#
# Youngs Moduli (GPa) = 59.60046 49.17522 115.02162
#
# Poissons Ratio (x) = 0.06484 0.49338
# Poissons Ratio (y) = 0.07859 0.13835
# Poissons Ratio (z) = 0.25566 0.05915
#
# Static dielectric constant tensor:
#      x y z
#    x 1.943230 -0.034630 -0.016400 
#    y -0.034630 1.941090 0.034550 
#    z -0.016400 0.034550 1.935460 
# 
# From -- ./inp_files/517001.got.cif
#   From: 2010.05.17/outbox.cif.g08.bks.cpg/sg2_259_cif.got.tgz:517001.got - 2010.06.03 11:33:40.
