data_PCOD9077583
_publ_section_title
;
Structure prediction by ZEFSAII (Michael W. Deem and Ramdas Pophale) SiO2 
 PCOD9077583
Probable space group: P -1
;
_chemical_formula_sum "Si O2"
_cell_formula_units_Z 16
_cell_length_a 10.751404
_cell_length_b 8.147951
_cell_length_c 11.062778
_cell_angle_alpha 96.375466
_cell_angle_beta 48.391966
_cell_angle_gamma 80.804794
_cell_volume 683.646093
_symmetry_space_group_name_H-M "P -1"
_symmetry_group_IT_number 2
_symmetry_cell_setting 'triclinic'
loop_
_space_group_symop_operation_xyz
x,y,z
-x,-y,-z
loop_
_atom_site_type_symbol
_atom_site_label
_atom_site_fract_x
_atom_site_fract_y
_atom_site_fract_z
Si Si1 0.716965 0.908837 0.392891
Si Si2 0.113070 0.812874 0.456408
Si Si3 0.206091 0.646659 0.621245
Si Si4 0.197999 0.872717 0.856893
Si Si5 0.508788 0.817721 0.835897
Si Si6 0.469820 0.269350 0.660216
Si Si7 0.881193 0.666371 0.448101
Si Si8 0.503203 0.216724 0.887223
O O1 0.650791 0.750884 0.374211
O O2 0.882502 0.809482 0.357144
O O3 0.726659 0.016908 0.277074
O O4 0.591912 0.063433 0.568006
O O5 0.113704 0.803586 0.600590
O O6 0.305548 0.776531 0.274378
O O7 0.026903 0.672306 0.450054
O O8 0.000000 0.000000 0.500000
O O9 0.194352 0.702983 0.771471
O O10 0.408438 0.614103 0.446066
O O11 0.111685 0.508666 0.637209
O O12 0.330731 0.823070 0.879793
O O13 0.000000 0.000000 0.000000
O O14 0.687261 0.730644 0.639087
O O15 0.495544 0.019987 0.876692
O O16 0.529609 0.727606 0.947441
O O17 0.391901 0.310075 0.848544
#
# Coordination Sequence:
#
# PCOD9077583 Si02
#       8
#     2   2   2   2   2   2   2   2
#     4  10  18  34  61  84 116 160 207 253 295 361
#     4  11  21  40  66  90 122 167 212 250 300 365
#     4  10  24  38  62  92 125 160 206 256 312 372
#     4  11  24  40  62  93 123 162 213 264 307 362
#     4  11  22  36  63  94 127 154 208 261 311 360
#     4   9  16  37  57  85 117 154 212 250 291 360
#     4  12  22  39  63  94 125 165 204 255 314 375
#     4  10  20  36  59  97 118 158 211 258 301 356
#
# _framework density 23.403922000000001
#
# number of rings (size 3 to 8) (size 9 to 14) (size 15 to 20)
#    0.000    1.500    3.750    3.375    3.500    2.000 
#    0.000    3.125    2.750    0.000    0.000    0.000 
#    0.000    0.000    0.000    0.000    0.000    0.000 
#
# Total GULP energy -89219.152123 kJ/mol
# GULP energy per Si atom -5576.197008 kJ/mol
# Density = 2.335065 g / cm^3
# Si number density = 23.403922 Si / 1000 Ang^3
#
#
#
# Elastic Constant Matrix: (Units=GPa)
#
#
# Indices 1 2 3 4 5 6 
#
# 1 135.3999 24.9506 27.5327 1.8928 24.0817 31.7370
# 2 24.9506 54.8340 1.9282 -0.4693 7.1755 24.6439
# 3 27.5327 1.9282 51.4350 -1.7748 21.5879 4.3435
# 4 1.8928 -0.4693 -1.7748 13.5555 -5.1200 7.7139
# 5 24.0817 7.1755 21.5879 -5.1200 32.4158 -4.0162
# 6 31.7370 24.6439 4.3435 7.7139 -4.0162 47.8450
#
#
#
# Elastic Compliance Matrix: (Units=1/GPa)
#
#
# Indices 1 2 3 4 5 6 
#
# 1 0.011014 -0.000638 -0.002050 -0.000545 -0.007672 -0.007347
# 2 -0.000638 0.026732 0.004923 0.006994 -0.009565 -0.015723
# 3 -0.002050 0.004923 0.029033 -0.000038 -0.019583 -0.005449
# 4 -0.000545 0.006994 -0.000038 0.087468 0.010660 -0.016445
# 5 -0.007672 -0.009565 -0.019583 0.010660 0.055214 0.014710
# 6 -0.007347 -0.015723 -0.005449 -0.016445 0.014710 0.038254
#
#
# Mechanical properties :
#
#
# Convention : Reuss Voigt Hill
#
# Bulk Modulus (GPa) = 14.03517 38.94356 26.48937
# Shear Modulus (GPa) = 18.72687 31.24709 24.98698
#
# Velocity S-wave (km/s) = 2.83178 3.65790 3.27102
# Velocity P-wave (km/s) = 4.08680 5.87504 5.06054
#
# Compressibility (1/GPa) = 0.07124957
#
# Stress axis : x y z
#
# Youngs Moduli (GPa) = 90.78996 37.40802 34.44365
#
# Poissons Ratio (x) = 0.02387 0.07061
# Poissons Ratio (y) = 0.05794 -0.16958
# Poissons Ratio (z) = 0.18613 -0.18417
#
# Static dielectric constant tensor:
#      x y z
#    x 1.999520 0.044140 0.016880 
#    y 0.044140 1.930210 -0.002950 
#    z 0.016880 -0.002950 1.958280 
# 
# From -- ./inp_files/258069.got.cif
#   From: 2010.05.17/outbox.cif.g08.bks.cpg/sg2_130_cif.got.tgz:258069.got - 2010.06.03 11:33:40.
