data_PCOD9077765
_publ_section_title
;
Structure prediction by ZEFSAII (Michael W. Deem and Ramdas Pophale) SiO2 
 PCOD9077765
Probable space group: P -1
;
_chemical_formula_sum "Si O2"
_cell_formula_units_Z 15
_cell_length_a 12.213473
_cell_length_b 13.939111
_cell_length_c 7.817245
_cell_angle_alpha 106.659484
_cell_angle_beta 94.380104
_cell_angle_gamma 30.185174
_cell_volume 599.082035
_symmetry_space_group_name_H-M "P -1"
_symmetry_group_IT_number 2
_symmetry_cell_setting 'triclinic'
loop_
_space_group_symop_operation_xyz
x,y,z
-x,-y,-z
loop_
_atom_site_type_symbol
_atom_site_label
_atom_site_fract_x
_atom_site_fract_y
_atom_site_fract_z
Si Si1 0.627263 0.163811 0.484423
Si Si2 0.761875 0.258903 0.461200
Si Si3 0.062883 0.345734 0.272342
Si Si4 0.348570 0.263359 0.069215
Si Si5 0.380954 0.195137 0.655063
Si Si6 0.000000 0.000000 0.000000
Si Si7 0.152162 0.587967 0.423572
Si Si8 0.135893 0.107093 0.949457
O O1 0.736963 0.184228 0.547999
O O2 0.545036 0.159911 0.625177
O O3 0.392078 0.377412 0.454581
O O4 0.788694 0.970510 0.276113
O O5 0.500000 0.500000 0.500000
O O6 0.885649 0.118461 0.234883
O O7 0.868365 0.277946 0.545705
O O8 0.288878 0.226913 0.185411
O O9 0.850474 0.594184 0.373081
O O10 0.047423 0.291838 0.412587
O O11 0.011935 0.308544 0.093095
O O12 0.190460 0.486124 0.213417
O O13 0.614434 0.084633 0.022707
O O14 0.309521 0.249090 0.871509
O O15 0.500000 0.000000 0.500000
O O16 0.997954 0.881249 0.990034
#
# Coordination Sequence:
#
# PCOD9077765 Si02
#       8
#     2   2   2   2   2   1   2   2
#     4   8  18  34  58  82 116 160 200 244 303 366
#     4   9  16  32  58  88 120 155 201 259 302 365
#     4  11  21  38  62  89 120 166 205 250 314 377
#     4  11  23  37  58  92 128 160 204 259 310 365
#     4  11  24  42  58  84 125 171 206 251 313 379
#     4  10  18  34  64  94 122 160 200 254 320 364
#     4   9  18  34  56  88 119 149 203 254 305 353
#     4  10  20  37  64  94 120 154 210 258 303 365
#
# _framework density 25.038307
#
# number of rings (size 3 to 8) (size 9 to 14) (size 15 to 20)
#    0.000    2.133    1.333    2.800    0.000    3.200 
#    0.000    0.667    0.000    1.600    0.000    0.000 
#    0.000    0.000    0.000    0.000    0.000    0.000 
#
# Total GULP energy -83741.987093 kJ/mol
# GULP energy per Si atom -5582.799140 kJ/mol
# Density = 2.498132 g / cm^3
# Si number density = 25.038307 Si / 1000 Ang^3
#
#
#
# Elastic Constant Matrix: (Units=GPa)
#
#
# Indices 1 2 3 4 5 6 
#
# 1 133.7752 32.2300 52.7502 6.5178 3.6373 43.2458
# 2 32.2300 93.0463 33.8482 13.8420 8.2682 11.6822
# 3 52.7502 33.8482 136.3291 9.6344 2.8232 20.5768
# 4 6.5178 13.8420 9.6344 29.4604 10.6235 19.0622
# 5 3.6373 8.2682 2.8232 10.6235 44.3351 5.0934
# 6 43.2458 11.6822 20.5768 19.0622 5.0934 39.7733
#
#
#
# Elastic Compliance Matrix: (Units=1/GPa)
#
#
# Indices 1 2 3 4 5 6 
#
# 1 0.015379 -0.003521 -0.002914 0.012603 -0.001133 -0.020075
# 2 -0.003521 0.013338 -0.002112 -0.007575 -0.000793 0.004736
# 3 -0.002914 -0.002112 0.009125 -0.001236 0.000393 -0.000390
# 4 0.012603 -0.007575 -0.001236 0.065299 -0.010503 -0.040790
# 5 -0.001133 -0.000793 0.000393 -0.010503 0.024932 0.003103
# 6 -0.020075 0.004736 -0.000390 -0.040790 0.003103 0.064933
#
#
# Mechanical properties :
#
#
# Convention : Reuss Voigt Hill
#
# Bulk Modulus (GPa) = 48.19563 66.75639 57.47601
# Shear Modulus (GPa) = 23.03976 39.00192 31.02084
#
# Velocity S-wave (km/s) = 3.03674 3.95104 3.52367
# Velocity P-wave (km/s) = 5.62016 6.89448 6.28968
#
# Compressibility (1/GPa) = 0.02074877
#
# Stress axis : x y z
#
# Youngs Moduli (GPa) = 65.02432 74.97284 109.58728
#
# Poissons Ratio (x) = 0.26397 0.31929
# Poissons Ratio (y) = 0.22894 0.23148
# Poissons Ratio (z) = 0.18945 0.15837
#
# Static dielectric constant tensor:
#      x y z
#    x 2.032490 -0.058370 0.002070 
#    y -0.058370 2.038990 0.037990 
#    z 0.002070 0.037990 1.926760 
# 
# From -- ./inp_files/258970.got.cif
#   From: 2010.05.17/outbox.cif.g08.bks.cpg/sg2_130_cif.got.tgz:258970.got - 2010.06.03 11:33:40.
