data_PCOD9077456
_publ_section_title
;
Structure prediction by ZEFSAII (Michael W. Deem and Ramdas Pophale) SiO2 
 PCOD9077456
Probable space group: P -1
;
_chemical_formula_sum "Si O2"
_cell_formula_units_Z 16
_cell_length_a 11.384055
_cell_length_b 5.623249
_cell_length_c 16.040909
_cell_angle_alpha 106.278649
_cell_angle_beta 125.416089
_cell_angle_gamma 51.730643
_cell_volume 652.046127
_symmetry_space_group_name_H-M "P -1"
_symmetry_group_IT_number 2
_symmetry_cell_setting 'triclinic'
loop_
_space_group_symop_operation_xyz
x,y,z
-x,-y,-z
loop_
_atom_site_type_symbol
_atom_site_label
_atom_site_fract_x
_atom_site_fract_y
_atom_site_fract_z
Si Si1 0.287687 0.964740 0.137580
Si Si2 0.371540 0.392597 0.020802
Si Si3 0.013659 0.443014 0.306706
Si Si4 0.654706 0.744760 0.474491
Si Si5 0.821500 0.180112 0.757629
Si Si6 0.385549 0.157676 0.829628
Si Si7 0.960992 0.606909 0.103951
Si Si8 0.465561 0.657599 0.591999
O O1 0.293864 0.718649 0.057720
O O2 0.275260 0.886411 0.219271
O O3 0.463470 0.937656 0.184249
O O4 0.106700 0.297203 0.085988
O O5 0.550563 0.146396 0.120795
O O6 0.387393 0.364175 0.924651
O O7 0.234416 0.306571 0.977779
O O8 0.157226 0.446327 0.419231
O O9 0.999681 0.536239 0.212921
O O10 0.809287 0.660211 0.270849
O O11 0.094253 0.084126 0.302085
O O12 0.616316 0.498649 0.408998
O O13 0.500000 0.000000 0.500000
O O14 0.645834 0.978968 0.427243
O O15 0.981723 0.168776 0.863811
O O16 0.664098 0.511654 0.692543
O O17 0.500000 0.500000 0.500000
#
# Coordination Sequence:
#
# PCOD9077456 Si02
#       8
#     2   2   2   2   2   2   2   2
#     4  11  23  38  58  85 121 163 198 255 313 368
#     4  10  22  42  61  86 112 165 209 253 305 362
#     4  10  21  36  60  92 119 158 204 251 311 363
#     4  10  18  34  59  95 123 161 201 264 311 371
#     4  11  22  36  59  94 120 157 197 260 314 366
#     4  10  23  40  60  84 122 160 203 252 299 384
#     4  10  22  37  60  87 122 152 210 257 303 369
#     4  10  19  33  61  91 129 157 204 257 319 367
#
# _framework density 24.538143000000002
#
# number of rings (size 3 to 8) (size 9 to 14) (size 15 to 20)
#    0.000    1.750    2.500    3.000    1.750    8.000 
#    0.000    0.000    0.000    1.500    0.000    0.000 
#    0.000    0.000    0.000    0.000    0.000    0.000 
#
# Total GULP energy -89468.834441 kJ/mol
# GULP energy per Si atom -5591.802153 kJ/mol
# Density = 2.448229 g / cm^3
# Si number density = 24.538143 Si / 1000 Ang^3
#
#
#
# Elastic Constant Matrix: (Units=GPa)
#
#
# Indices 1 2 3 4 5 6 
#
# 1 96.4522 38.6239 17.5341 -11.9459 16.7564 -13.4595
# 2 38.6239 88.6658 36.0654 -13.3458 13.3238 -0.4487
# 3 17.5341 36.0654 97.7879 -31.9008 30.7810 -6.3975
# 4 -11.9459 -13.3458 -31.9008 45.8196 -3.9466 4.7810
# 5 16.7564 13.3238 30.7810 -3.9466 35.7962 -2.0594
# 6 -13.4595 -0.4487 -6.3975 4.7810 -2.0594 40.8172
#
#
#
# Elastic Compliance Matrix: (Units=1/GPa)
#
#
# Indices 1 2 3 4 5 6 
#
# 1 0.014348 -0.006004 0.002939 0.003021 -0.006420 0.004448
# 2 -0.006004 0.015848 -0.005534 -0.000409 0.001478 -0.002550
# 3 0.002939 -0.005534 0.020740 0.012037 -0.015711 0.001956
# 4 0.003021 -0.000409 0.012037 0.030269 -0.008338 -0.001088
# 5 -0.006420 0.001478 -0.015711 -0.008338 0.042899 -0.001422
# 6 0.004448 -0.002550 0.001956 -0.001088 -0.001422 0.026300
#
#
# Mechanical properties :
#
#
# Convention : Reuss Voigt Hill
#
# Bulk Modulus (GPa) = 29.63943 51.92807 40.78375
# Shear Modulus (GPa) = 27.95662 37.19877 32.57770
#
# Velocity S-wave (km/s) = 3.37903 3.89775 3.64763
# Velocity P-wave (km/s) = 5.22771 6.43931 5.86488
#
# Compressibility (1/GPa) = 0.03373884
#
# Stress axis : x y z
#
# Youngs Moduli (GPa) = 69.69689 63.09978 48.21531
#
# Poissons Ratio (x) = 0.37882 -0.14170
# Poissons Ratio (y) = 0.41843 0.26682
# Poissons Ratio (z) = -0.20483 0.34919
#
# Static dielectric constant tensor:
#      x y z
#    x 2.062130 0.084870 0.002960 
#    y 0.084870 1.945180 -0.003080 
#    z 0.002960 -0.003080 2.036840 
# 
# From -- ./inp_files/39289.got.cif
#   From: 2010.05.17/outbox.cif.g08.bks.cpg/sg2_20_cif.got.tgz:39289.got - 2010.06.03 11:33:40.
