data_PCOD9077340
_publ_section_title
;
Structure prediction by ZEFSAII (Michael W. Deem and Ramdas Pophale) SiO2 
 PCOD9077340
Probable space group: P -1
;
_chemical_formula_sum "Si O2"
_cell_formula_units_Z 14
_cell_length_a 18.367591
_cell_length_b 23.107032
_cell_length_c 8.552226
_cell_angle_alpha 34.736758
_cell_angle_beta 38.900715
_cell_angle_gamma 15.954937
_cell_volume 566.883741
_symmetry_space_group_name_H-M "P -1"
_symmetry_group_IT_number 2
_symmetry_cell_setting 'triclinic'
loop_
_space_group_symop_operation_xyz
x,y,z
-x,-y,-z
loop_
_atom_site_type_symbol
_atom_site_label
_atom_site_fract_x
_atom_site_fract_y
_atom_site_fract_z
Si Si1 0.725154 0.455013 0.173471
Si Si2 0.838827 0.142045 0.186427
Si Si3 0.836310 0.522513 0.400079
Si Si4 0.811435 0.939666 0.188864
Si Si5 0.573786 0.403542 0.344656
Si Si6 0.794692 0.578437 0.974676
Si Si7 0.653934 0.113410 0.377165
O O1 0.784731 0.312117 0.279928
O O2 0.578852 0.528056 0.410341
O O3 0.902289 0.404040 0.066771
O O4 0.524685 0.675361 0.907507
O O5 0.704082 0.228505 0.387046
O O6 0.871278 0.013506 0.319559
O O7 0.632986 0.368461 0.919942
O O8 0.073656 0.036275 0.059983
O O9 0.553781 0.760268 0.427942
O O10 0.971574 0.308100 0.693092
O O11 0.037827 0.452363 0.267452
O O12 0.808287 0.545998 0.208074
O O13 0.519504 0.158995 0.118379
O O14 0.779561 0.939296 0.428306
#
# Coordination Sequence:
#
# PCOD9077340 Si02
#       7
#     2   2   2   2   2   2   2
#     4   9  17  32  53  87 121 147 201 250 282 358
#     4  10  18  34  58  87 126 160 195 251 304 359
#     4  11  23  45  65  83 126 165 199 260 303 350
#     4  11  22  39  64  93 121 160 204 248 305 365
#     4   9  17  31  58  89 121 166 200 235 311 367
#     4  10  23  41  63  91 120 160 210 251 300 362
#     4  10  22  38  61  92 122 161 204 246 307 365
#
# _framework density 24.696422999999999
#
# number of rings (size 3 to 8) (size 9 to 14) (size 15 to 20)
#    0.000    2.000    0.000    5.143    0.000    2.286 
#    0.000   20.714    0.000    0.000    0.000    0.000 
#    0.000    0.000    0.000    0.000    0.000    0.000 
#
# Total GULP energy -78279.261300 kJ/mol
# GULP energy per Si atom -5591.375807 kJ/mol
# Density = 2.464021 g / cm^3
# Si number density = 24.696423 Si / 1000 Ang^3
#
#
#
# Elastic Constant Matrix: (Units=GPa)
#
#
# Indices 1 2 3 4 5 6 
#
# 1 158.4397 34.8800 38.1130 11.9787 -11.6520 -17.7390
# 2 34.8800 85.3907 22.2773 10.2984 -7.1269 -8.1776
# 3 38.1130 22.2773 66.4264 22.0471 7.4231 -11.9995
# 4 11.9787 10.2984 22.0471 33.3986 -10.6900 7.2489
# 5 -11.6520 -7.1269 7.4231 -10.6900 40.0031 7.6651
# 6 -17.7390 -8.1776 -11.9995 7.2489 7.6651 50.2504
#
#
#
# Elastic Compliance Matrix: (Units=1/GPa)
#
#
# Indices 1 2 3 4 5 6 
#
# 1 0.008072 -0.001920 -0.004838 0.001802 0.003269 0.000623
# 2 -0.001920 0.013706 -0.003449 -0.000642 0.002260 0.000477
# 3 -0.004838 -0.003449 0.031683 -0.026131 -0.017124 0.011678
# 4 0.001802 -0.000642 -0.026131 0.058384 0.024279 -0.017834
# 5 0.003269 0.002260 -0.017124 0.024279 0.038301 -0.011912
# 6 0.000623 0.000477 0.011678 -0.017834 -0.011912 0.027376
#
#
# Mechanical properties :
#
#
# Convention : Reuss Voigt Hill
#
# Bulk Modulus (GPa) = 30.25903 55.64416 42.95160
# Shear Modulus (GPa) = 23.92886 39.06286 31.49586
#
# Velocity S-wave (km/s) = 3.11613 3.98140 3.57504
# Velocity P-wave (km/s) = 5.02255 6.61178 5.87118
#
# Compressibility (1/GPa) = 0.03304798
#
# Stress axis : x y z
#
# Youngs Moduli (GPa) = 123.88474 72.95854 31.56259
#
# Poissons Ratio (x) = 0.14006 0.15271
# Poissons Ratio (y) = 0.23782 0.10885
# Poissons Ratio (z) = 0.59941 0.25161
#
# Static dielectric constant tensor:
#      x y z
#    x 1.965350 0.015030 -0.029900 
#    y 0.015030 2.013320 -0.063060 
#    z -0.029900 -0.063060 1.983890 
# 
# From -- ./inp_files/334758.got.cif
#   From: 2010.05.17/outbox.cif.g08.bks.cpg/sg2_168_cif.got.tgz:334758.got - 2010.06.03 11:33:40.
