data_PCOD9077961
_publ_section_title
;
Structure prediction by ZEFSAII (Michael W. Deem and Ramdas Pophale) SiO2 
 PCOD9077961
Probable space group: P -1
;
_chemical_formula_sum "Si O2"
_cell_formula_units_Z 16
_cell_length_a 12.497138
_cell_length_b 18.372722
_cell_length_c 11.508884
_cell_angle_alpha 70.186585
_cell_angle_beta 70.826644
_cell_angle_gamma 16.956016
_cell_volume 724.949283
_symmetry_space_group_name_H-M "P -1"
_symmetry_group_IT_number 2
_symmetry_cell_setting 'triclinic'
loop_
_space_group_symop_operation_xyz
x,y,z
-x,-y,-z
loop_
_atom_site_type_symbol
_atom_site_label
_atom_site_fract_x
_atom_site_fract_y
_atom_site_fract_z
Si Si1 0.000952 0.690661 0.435184
Si Si2 0.064900 0.511218 0.359781
Si Si3 0.186537 0.975392 0.181520
Si Si4 0.838928 0.190036 0.424811
Si Si5 0.605604 0.764393 0.938388
Si Si6 0.828844 0.073808 0.134539
Si Si7 0.041371 0.559566 0.720696
Si Si8 0.879616 0.935223 0.371216
O O1 0.918314 0.689284 0.356039
O O2 0.413923 0.455388 0.404850
O O3 0.995697 0.646328 0.581512
O O4 0.766332 0.920456 0.404974
O O5 0.000000 0.500000 0.500000
O O6 0.914900 0.556638 0.284251
O O7 0.506355 0.228242 0.348054
O O8 0.567550 0.680187 0.226656
O O9 0.301329 0.959418 0.044811
O O10 0.055971 0.086602 0.295377
O O11 0.864099 0.125857 0.176835
O O12 0.905383 0.193872 0.517104
O O13 0.000000 0.000000 0.500000
O O14 0.508138 0.754666 0.895652
O O15 0.695840 0.777700 0.813434
O O16 0.000000 0.500000 0.000000
O O17 0.059007 0.856563 0.235927
O O18 0.000000 0.000000 0.000000
#
# Coordination Sequence:
#
# PCOD9077961 Si02
#       8
#     2   2   2   2   2   2   2   2
#     4  11  23  35  59  94 125 161 202 258 308 365
#     4  10  20  35  55  83 124 158 198 241 307 360
#     4  10  19  34  61  87 118 162 207 247 300 362
#     4  12  19  36  60  88 127 162 201 253 310 365
#     4   9  19  33  58  91 116 158 212 248 296 375
#     4  10  19  35  59  89 116 160 205 245 300 365
#     4  10  18  35  56  90 122 160 205 244 305 368
#     4  12  22  37  60  94 123 160 206 253 309 365
#
# _framework density 22.070509999999999
#
# number of rings (size 3 to 8) (size 9 to 14) (size 15 to 20)
#    0.000    1.500    5.000    1.125    0.000    2.000 
#    0.000    0.000    0.000    7.500   16.250    0.000 
#    0.000    0.000    0.000    0.000    0.000    0.000 
#
# Total GULP energy -89084.726820 kJ/mol
# GULP energy per Si atom -5567.795426 kJ/mol
# Density = 2.202028 g / cm^3
# Si number density = 22.070510 Si / 1000 Ang^3
#
#
#
# Elastic Constant Matrix: (Units=GPa)
#
#
# Indices 1 2 3 4 5 6 
#
# 1 99.7265 17.9465 37.1553 0.9915 7.8971 -3.7362
# 2 17.9465 46.0980 26.0688 14.8138 -6.0799 -18.8820
# 3 37.1553 26.0688 150.5267 24.3892 -6.3796 -4.0601
# 4 0.9915 14.8138 24.3892 24.5145 -16.9990 -7.1812
# 5 7.8971 -6.0799 -6.3796 -16.9990 36.8481 -1.6885
# 6 -3.7362 -18.8820 -4.0601 -7.1812 -1.6885 40.1526
#
#
#
# Elastic Compliance Matrix: (Units=1/GPa)
#
#
# Indices 1 2 3 4 5 6 
#
# 1 0.012070 -0.004894 -0.002794 0.003300 -0.002400 -0.000971
# 2 -0.004894 0.034951 -0.002071 -0.014888 0.000190 0.013117
# 3 -0.002794 -0.002071 0.009231 -0.010730 -0.003202 -0.002354
# 4 0.003300 -0.014888 -0.010730 0.088122 0.036067 0.009498
# 5 -0.002400 0.000190 -0.003202 0.036067 0.044128 0.007848
# 6 -0.000971 0.013117 -0.002354 0.009498 0.007848 0.032773
#
#
# Mechanical properties :
#
#
# Convention : Reuss Voigt Hill
#
# Bulk Modulus (GPa) = 27.22262 50.96581 39.09421
# Shear Modulus (GPa) = 19.75980 34.64842 27.20411
#
# Velocity S-wave (km/s) = 2.99541 3.96649 3.51465
# Velocity P-wave (km/s) = 4.93198 6.64227 5.84997
#
# Compressibility (1/GPa) = 0.03673416
#
# Stress axis : x y z
#
# Youngs Moduli (GPa) = 82.84947 28.61118 108.33048
#
# Poissons Ratio (x) = 0.14002 0.30273
# Poissons Ratio (y) = 0.40545 0.22434
# Poissons Ratio (z) = 0.23152 0.05925
#
# Static dielectric constant tensor:
#      x y z
#    x 1.670430 0.164210 0.420730 
#    y 0.164210 1.714640 -0.311420 
#    z 0.420730 -0.311420 0.992870 
# 
# From -- ./inp_files/404741.got.cif
#   From: 2010.05.17/outbox.cif.g08.bks.cpg/sg2_203_cif.got.tgz:404741.got - 2010.06.03 11:33:40.
