data_PCOD9077424
_publ_section_title
;
Structure prediction by ZEFSAII (Michael W. Deem and Ramdas Pophale) SiO2 
 PCOD9077424
Probable space group: P -1
;
_chemical_formula_sum "Si O2"
_cell_formula_units_Z 14
_cell_length_a 20.328346
_cell_length_b 25.625278
_cell_length_c 8.157338
_cell_angle_alpha 35.970778
_cell_angle_beta 35.829480
_cell_angle_gamma 12.223702
_cell_volume 521.724494
_symmetry_space_group_name_H-M "P -1"
_symmetry_group_IT_number 2
_symmetry_cell_setting 'triclinic'
loop_
_space_group_symop_operation_xyz
x,y,z
-x,-y,-z
loop_
_atom_site_type_symbol
_atom_site_label
_atom_site_fract_x
_atom_site_fract_y
_atom_site_fract_z
Si Si1 0.176133 0.709745 0.704537
Si Si2 0.955060 0.906818 0.005501
Si Si3 0.928682 0.697043 0.142622
Si Si4 0.625977 0.637464 0.184821
Si Si5 0.507811 0.788874 0.578904
Si Si6 0.367384 0.205420 0.017546
Si Si7 0.339371 0.773047 0.712399
O O1 0.500000 0.500000 0.500000
O O2 0.064454 0.694723 0.916019
O O3 0.156541 0.727716 0.896965
O O4 0.927405 0.963986 0.489123
O O5 0.660290 0.179620 0.822709
O O6 0.748829 0.997471 0.310384
O O7 0.182977 0.793890 0.950813
O O8 0.044078 0.600005 0.970105
O O9 0.560495 0.971253 0.233875
O O10 0.144491 0.471763 0.385171
O O11 0.534882 0.803523 0.006534
O O12 0.619894 0.581408 0.501572
O O13 0.504810 0.852569 0.266201
O O14 0.427318 0.749622 0.768544
O O15 0.000000 0.500000 0.000000
#
# Coordination Sequence:
#
# PCOD9077424 Si02
#       7
#     2   2   2   2   2   2   2
#     4  11  19  33  60  92 125 177 206 233 311 370
#     4  10  18  34  59  88 134 164 203 258 293 359
#     4  11  21  41  65  87 130 162 202 256 314 365
#     4   9  19  38  62  91 123 161 205 251 307 369
#     4  10  22  40  60  93 125 159 209 263 299 368
#     4  11  24  46  68  89 120 160 209 267 319 367
#     4  10  18  36  57  88 133 165 202 253 290 366
#
# _framework density 26.834084000000001
#
# number of rings (size 3 to 8) (size 9 to 14) (size 15 to 20)
#    0.000    1.714    4.286    4.714    0.000    1.143 
#    5.143    4.286    0.000    0.000    0.000    0.000 
#    0.000    0.000    0.000    0.000    0.000    0.000 
#
# Total GULP energy -78308.605959 kJ/mol
# GULP energy per Si atom -5593.471854 kJ/mol
# Density = 2.677301 g / cm^3
# Si number density = 26.834084 Si / 1000 Ang^3
#
#
#
# Elastic Constant Matrix: (Units=GPa)
#
#
# Indices 1 2 3 4 5 6 
#
# 1 105.0619 49.9119 34.9153 19.5704 14.3846 -0.9450
# 2 49.9119 177.3457 24.7843 7.7455 22.8437 10.3085
# 3 34.9153 24.7843 64.8734 12.6148 20.6707 8.8151
# 4 19.5704 7.7455 12.6148 29.8778 5.0282 9.9041
# 5 14.3846 22.8437 20.6707 5.0282 40.5289 7.2543
# 6 -0.9450 10.3085 8.8151 9.9041 7.2543 42.6699
#
#
#
# Elastic Compliance Matrix: (Units=1/GPa)
#
#
# Indices 1 2 3 4 5 6 
#
# 1 0.014305 -0.003124 -0.005492 -0.007517 -0.000299 0.004002
# 2 -0.003124 0.006909 -0.000174 0.001280 -0.002576 -0.001562
# 3 -0.005492 -0.000174 0.022107 -0.003483 -0.008363 -0.002416
# 4 -0.007517 0.001280 -0.003483 0.042721 0.000159 -0.009699
# 5 -0.000299 -0.002576 -0.008363 0.000159 0.031008 -0.002965
# 6 0.004002 -0.001562 -0.002416 -0.009699 -0.002965 0.027156
#
#
# Mechanical properties :
#
#
# Convention : Reuss Voigt Hill
#
# Bulk Modulus (GPa) = 38.84932 62.94485 50.89708
# Shear Modulus (GPa) = 29.34834 38.45995 33.90414
#
# Velocity S-wave (km/s) = 3.31070 3.78994 3.55839
# Velocity P-wave (km/s) = 5.39660 6.53142 5.99094
#
# Compressibility (1/GPa) = 0.02574048
#
# Stress axis : x y z
#
# Youngs Moduli (GPa) = 69.90638 144.73977 45.23354
#
# Poissons Ratio (x) = 0.45220 0.24843
# Poissons Ratio (y) = 0.21840 0.00787
# Poissons Ratio (z) = 0.38394 0.02518
#
# Static dielectric constant tensor:
#      x y z
#    x 2.106420 -0.026890 -0.029690 
#    y -0.026890 2.197350 0.010160 
#    z -0.029690 0.010160 2.090480 
# 
# From -- ./inp_files/197364.got.cif
#   From: 2010.05.17/outbox.cif.g08.bks.cpg/sg2_99_cif.got.tgz:197364.got - 2010.06.03 11:33:40.
