data_PCOD9077509
_publ_section_title
;
Structure prediction by ZEFSAII (Michael W. Deem and Ramdas Pophale) SiO2 
 PCOD9077509
Probable space group: P -1
;
_chemical_formula_sum "Si O2"
_cell_formula_units_Z 16
_cell_length_a 11.746256
_cell_length_b 8.738153
_cell_length_c 11.291692
_cell_angle_alpha 114.796505
_cell_angle_beta 78.249511
_cell_angle_gamma 55.875199
_cell_volume 706.967304
_symmetry_space_group_name_H-M "P -1"
_symmetry_group_IT_number 2
_symmetry_cell_setting 'triclinic'
loop_
_space_group_symop_operation_xyz
x,y,z
-x,-y,-z
loop_
_atom_site_type_symbol
_atom_site_label
_atom_site_fract_x
_atom_site_fract_y
_atom_site_fract_z
Si Si1 0.680554 0.198946 0.815187
Si Si2 0.666271 0.483322 0.095588
Si Si3 0.714317 0.062868 0.342707
Si Si4 0.198160 0.764426 0.418498
Si Si5 0.019617 0.656234 0.485174
Si Si6 0.969573 0.861193 0.034842
Si Si7 0.394078 0.275809 0.567657
Si Si8 0.072066 0.438488 0.744540
O O1 0.508882 0.275419 0.852594
O O2 0.690888 0.336938 0.756989
O O3 0.851381 0.923371 0.658103
O O4 0.681320 0.280157 0.970820
O O5 0.632214 0.566895 0.266370
O O6 0.857552 0.349946 0.993133
O O7 0.741516 0.151055 0.480535
O O8 0.516090 0.231365 0.431522
O O9 0.819101 0.779008 0.251793
O O10 0.805153 0.054924 0.212118
O O11 0.180953 0.608473 0.443174
O O12 0.000000 0.000000 0.500000
O O13 0.013843 0.611393 0.333212
O O14 0.000000 0.500000 0.500000
O O15 0.956368 0.706288 0.909464
O O16 0.000000 0.000000 0.000000
O O17 0.209829 0.394862 0.621345
O O18 0.500000 0.000000 0.500000
#
# Coordination Sequence:
#
# PCOD9077509 Si02
#       8
#     2   2   2   2   2   2   2   2
#     4  10  19  37  64  90 116 163 210 247 301 370
#     4  10  20  36  62  91 123 157 202 254 300 365
#     4  11  19  39  64  88 119 160 214 255 298 369
#     4  10  18  34  60  87 115 154 209 250 291 368
#     4  11  23  37  61  94 128 160 200 262 317 362
#     4  11  25  38  58  93 127 161 203 262 320 363
#     4   9  18  36  60  87 120 155 206 251 295 361
#     4  10  21  38  59  88 123 162 209 248 311 370
#
# _framework density 22.631882000000001
#
# number of rings (size 3 to 8) (size 9 to 14) (size 15 to 20)
#    0.000    1.750    3.750    2.625    3.500    0.000 
#    0.000    3.750    0.000    3.000    0.000    0.000 
#    0.000    0.000    0.000    0.000    0.000    0.000 
#
# Total GULP energy -89151.296509 kJ/mol
# GULP energy per Si atom -5571.956032 kJ/mol
# Density = 2.258037 g / cm^3
# Si number density = 22.631882 Si / 1000 Ang^3
#
#
#
# Elastic Constant Matrix: (Units=GPa)
#
#
# Indices 1 2 3 4 5 6 
#
# 1 92.0622 13.5426 35.7238 3.9323 -8.7010 7.0465
# 2 13.5426 51.3781 17.2823 -3.5844 5.1326 23.1927
# 3 35.7238 17.2823 113.2365 7.2818 -4.4582 6.7747
# 4 3.9323 -3.5844 7.2818 22.2248 14.5939 -5.0842
# 5 -8.7010 5.1326 -4.4582 14.5939 41.0633 0.0502
# 6 7.0465 23.1927 6.7747 -5.0842 0.0502 24.8688
#
#
#
# Elastic Compliance Matrix: (Units=1/GPa)
#
#
# Indices 1 2 3 4 5 6 
#
# 1 0.013241 -0.002511 -0.003193 -0.005070 0.004577 -0.001586
# 2 -0.002511 0.036543 -0.003521 0.005078 -0.007248 -0.031356
# 3 -0.003193 -0.003521 0.010828 -0.005397 0.002857 0.000130
# 4 -0.005070 0.005078 -0.005397 0.068888 -0.026793 0.012308
# 5 0.004577 -0.007248 0.002857 -0.026793 0.036062 -0.000866
# 6 -0.001586 -0.031356 0.000130 0.012308 -0.000866 0.072386
#
#
# Mechanical properties :
#
#
# Convention : Reuss Voigt Hill
#
# Bulk Modulus (GPa) = 23.71846 43.30824 33.51335
# Shear Modulus (GPa) = 18.48764 30.30660 24.39712
#
# Velocity S-wave (km/s) = 2.86122 3.66336 3.28685
# Velocity P-wave (km/s) = 4.62799 6.08860 5.40783
#
# Compressibility (1/GPa) = 0.04216126
#
# Stress axis : x y z
#
# Youngs Moduli (GPa) = 75.52249 27.36516 92.35725
#
# Poissons Ratio (x) = 0.06872 0.29489
# Poissons Ratio (y) = 0.18965 0.32518
# Poissons Ratio (z) = 0.24114 0.09635
#
# Static dielectric constant tensor:
#      x y z
#    x 1.863620 0.000260 -0.003890 
#    y 0.000260 1.997760 -0.031100 
#    z -0.003890 -0.031100 1.823530 
# 
# From -- ./inp_files/332335.got.cif
#   From: 2010.05.17/outbox.cif.g08.bks.cpg/sg2_167_cif.got.tgz:332335.got - 2010.06.03 11:33:40.
