data_PCOD9077758
_publ_section_title
;
Structure prediction by ZEFSAII (Michael W. Deem and Ramdas Pophale) SiO2 
 PCOD9077758
Probable space group: P -1
;
_chemical_formula_sum "Si O2"
_cell_formula_units_Z 16
_cell_length_a 6.834315
_cell_length_b 16.287041
_cell_length_c 13.879510
_cell_angle_alpha 34.130936
_cell_angle_beta 109.397124
_cell_angle_gamma 107.063957
_cell_volume 817.139713
_symmetry_space_group_name_H-M "P -1"
_symmetry_group_IT_number 2
_symmetry_cell_setting 'triclinic'
loop_
_space_group_symop_operation_xyz
x,y,z
-x,-y,-z
loop_
_atom_site_type_symbol
_atom_site_label
_atom_site_fract_x
_atom_site_fract_y
_atom_site_fract_z
Si Si1 0.679942 0.319517 0.029784
Si Si2 0.607536 0.313788 0.604981
Si Si3 0.258496 0.165581 0.590223
Si Si4 0.285350 0.578492 0.278493
Si Si5 0.958973 0.083410 0.312812
Si Si6 0.596403 0.862160 0.704039
Si Si7 0.453759 0.362346 0.258325
Si Si8 0.900595 0.354257 0.432811
O O1 0.892858 0.247059 0.165596
O O2 0.515693 0.199959 0.160111
O O3 0.683989 0.338821 0.897235
O O4 0.634747 0.476493 0.914270
O O5 0.448574 0.179659 0.682612
O O6 0.461794 0.455221 0.430194
O O7 0.685350 0.322687 0.718158
O O8 0.795907 0.324004 0.549478
O O9 0.336254 0.272899 0.411796
O O10 0.048980 0.227902 0.541464
O O11 0.207715 0.009760 0.685761
O O12 0.059907 0.494690 0.325031
O O13 0.169682 0.091630 0.280581
O O14 0.000000 0.000000 0.500000
O O15 0.583343 0.730166 0.753618
O O16 0.500000 0.000000 0.500000
O O17 0.699556 0.372085 0.314557
#
# Coordination Sequence:
#
# PCOD9077758 Si02
#       8
#     2   2   2   2   2   2   2   2
#     4  12  25  41  61  95 125 160 211 267 299 362
#     4   9  19  37  66  90 128 156 198 254 317 378
#     4  10  20  40  63  91 122 165 206 248 308 375
#     4  10  20  38  60  97 125 158 196 257 322 361
#     4  12  25  43  62  83 124 174 209 248 309 375
#     4  12  25  43  62  88 126 175 209 246 311 371
#     4  11  22  39  60  95 127 156 209 260 306 356
#     4  10  18  34  64  91 125 155 201 246 311 378
#
# _framework density 19.580494999999999
#
# number of rings (size 3 to 8) (size 9 to 14) (size 15 to 20)
#    0.000    1.250    6.250    1.500    1.750    1.500 
#    0.000    0.625    0.000    1.500    0.000    0.000 
#    0.000    0.000    0.000    0.000    0.000    0.000 
#
# Total GULP energy -89316.392225 kJ/mol
# GULP energy per Si atom -5582.274514 kJ/mol
# Density = 1.953593 g / cm^3
# Si number density = 19.580495 Si / 1000 Ang^3
#
#
#
# Elastic Constant Matrix: (Units=GPa)
#
#
# Indices 1 2 3 4 5 6 
#
# 1 134.6067 47.1528 39.4374 -11.1441 -11.3973 -2.7601
# 2 47.1528 140.7543 42.4413 -4.2315 -9.3141 -4.2480
# 3 39.4374 42.4413 82.4778 -5.3979 -2.3159 -0.9576
# 4 -11.1441 -4.2315 -5.3979 22.9266 -5.2979 -5.7803
# 5 -11.3973 -9.3141 -2.3159 -5.2979 24.8580 -0.6086
# 6 -2.7601 -4.2480 -0.9576 -5.7803 -0.6086 25.1905
#
#
#
# Elastic Compliance Matrix: (Units=1/GPa)
#
#
# Indices 1 2 3 4 5 6 
#
# 1 0.009907 -0.001786 -0.003315 0.005304 0.004744 0.001990
# 2 -0.001786 0.009036 -0.003653 0.000870 0.002447 0.001448
# 3 -0.003315 -0.003653 0.015624 0.001071 -0.001209 -0.000169
# 4 0.005304 0.000870 0.001071 0.053339 0.014553 0.013359
# 5 0.004744 0.002447 -0.001209 0.014553 0.046440 0.005348
# 6 0.001990 0.001448 -0.000169 0.013359 0.005348 0.043348
#
#
# Mechanical properties :
#
#
# Convention : Reuss Voigt Hill
#
# Bulk Modulus (GPa) = 58.62095 68.43355 63.52725
# Shear Modulus (GPa) = 24.88928 29.84883 27.36905
#
# Velocity S-wave (km/s) = 3.56915 3.90861 3.74273
# Velocity P-wave (km/s) = 6.85482 7.44281 7.15486
#
# Compressibility (1/GPa) = 0.01705875
#
# Stress axis : x y z
#
# Youngs Moduli (GPa) = 100.93425 110.66428 64.00565
#
# Poissons Ratio (x) = 0.19766 0.21217
# Poissons Ratio (y) = 0.18028 0.23384
# Poissons Ratio (z) = 0.33458 0.40430
#
# Static dielectric constant tensor:
#      x y z
#    x 1.536920 -0.021710 -0.024930 
#    y -0.021710 1.696810 -0.007720 
#    z -0.024930 -0.007720 1.664710 
# 
# From -- ./inp_files/485181.got.cif
#   From: 2010.05.17/outbox.cif.g08.bks.cpg/sg2_243_cif.got.tgz:485181.got - 2010.06.03 11:33:40.
