data_PCOD9077822
_publ_section_title
;
Structure prediction by ZEFSAII (Michael W. Deem and Ramdas Pophale) SiO2 
 PCOD9077822
Probable space group: P -1
;
_chemical_formula_sum "Si O2"
_cell_formula_units_Z 16
_cell_length_a 13.213872
_cell_length_b 10.679194
_cell_length_c 14.052317
_cell_angle_alpha 58.265006
_cell_angle_beta 144.403473
_cell_angle_gamma 142.940095
_cell_volume 651.513275
_symmetry_space_group_name_H-M "P -1"
_symmetry_group_IT_number 2
_symmetry_cell_setting 'triclinic'
loop_
_space_group_symop_operation_xyz
x,y,z
-x,-y,-z
loop_
_atom_site_type_symbol
_atom_site_label
_atom_site_fract_x
_atom_site_fract_y
_atom_site_fract_z
Si Si1 0.734700 0.557520 0.743829
Si Si2 0.744708 0.391351 0.428700
Si Si3 0.992813 0.746108 0.059517
Si Si4 0.489539 0.070330 0.604775
Si Si5 0.168010 0.857668 0.611500
Si Si6 0.016507 0.972862 0.296088
Si Si7 0.311198 0.244608 0.040069
Si Si8 0.770435 0.579267 0.561701
O O1 0.744728 0.478032 0.683131
O O2 0.433984 0.415305 0.587847
O O3 0.905016 0.807474 0.739369
O O4 0.853331 0.588927 0.922649
O O5 0.649551 0.166349 0.446277
O O6 0.048312 0.628685 0.570276
O O7 0.661673 0.418454 0.453222
O O8 0.600141 0.386101 0.236066
O O9 0.792472 0.680961 0.010079
O O10 0.210501 0.772647 0.253797
O O11 0.144770 0.992300 0.044723
O O12 0.271667 0.052240 0.415431
O O13 0.450378 0.044215 0.703083
O O14 0.069354 0.799384 0.667805
O O15 0.009155 0.891037 0.425850
O O16 0.761332 0.783791 0.113814
#
# Coordination Sequence:
#
# PCOD9077822 Si02
#       8
#     2   2   2   2   2   2   2   2
#     4  10  18  35  52  77  86 127 175 206 221 281
#     4   9  16  32  52  68  98 129 163 188 238 298
#     4   9  16  29  49  68 102 123 162 197 238 280
#     4   9  18  31  49  74 101 130 149 197 251 292
#     4   8  18  33  46  76  97 134 150 195 248 287
#     4   9  20  30  48  79 101 117 163 198 253 276
#     4   9  16  28  47  75  94 128 156 205 236 277
#     4   9  19  32  56  67  95 132 167 195 235 284
#
# _framework density 24.558211
#
# number of rings (size 3 to 8) (size 9 to 14) (size 15 to 20)
#    1.500    1.500    1.250    0.375    1.750    1.500 
#    0.000    0.625    0.000    4.500    0.000    0.000 
#    0.000    0.000    0.000    0.000    0.000    0.000 
#
# Total GULP energy -89099.337174 kJ/mol
# GULP energy per Si atom -5568.708573 kJ/mol
# Density = 2.450232 g / cm^3
# Si number density = 24.558211 Si / 1000 Ang^3
#
#
#
# Elastic Constant Matrix: (Units=GPa)
#
#
# Indices 1 2 3 4 5 6 
#
# 1 96.9187 -0.8641 35.1876 1.0304 7.5449 8.5409
# 2 -0.8641 28.2809 0.7327 -8.3735 3.0737 11.8289
# 3 35.1876 0.7327 78.9220 13.4838 -4.8723 -3.6232
# 4 1.0304 -8.3735 13.4838 19.3086 -5.2399 3.4289
# 5 7.5449 3.0737 -4.8723 -5.2399 30.1132 0.0015
# 6 8.5409 11.8289 -3.6232 3.4289 0.0015 26.7300
#
#
#
# Elastic Compliance Matrix: (Units=1/GPa)
#
#
# Indices 1 2 3 4 5 6 
#
# 1 0.015047 0.009094 -0.009391 0.010544 -0.004383 -0.011458
# 2 0.009094 0.066148 -0.014280 0.044252 -0.003639 -0.039790
# 3 -0.009391 -0.014280 0.021770 -0.022670 0.003387 0.015179
# 4 0.010544 0.044252 -0.022670 0.094552 0.005628 -0.038154
# 5 -0.004383 -0.003639 0.003387 0.005628 0.036205 0.002746
# 6 -0.011458 -0.039790 0.015179 -0.038154 0.002746 0.065632
#
#
# Mechanical properties :
#
#
# Convention : Reuss Voigt Hill
#
# Bulk Modulus (GPa) = 13.54846 30.47044 22.00945
# Shear Modulus (GPa) = 14.15975 26.50139 20.33057
#
# Velocity S-wave (km/s) = 2.40381 3.28857 2.88036
# Velocity P-wave (km/s) = 3.63775 5.18208 4.47701
#
# Compressibility (1/GPa) = 0.07380915
#
# Stress axis : x y z
#
# Youngs Moduli (GPa) = 66.45646 15.11760 45.93535
#
# Poissons Ratio (x) = -0.13748 0.43140
# Poissons Ratio (y) = -0.60434 0.65597
# Poissons Ratio (z) = 0.62412 0.21588
#
# Static dielectric constant tensor:
#      x y z
#    x 2.063800 -0.023340 -0.078070 
#    y -0.023340 2.119790 0.033940 
#    z -0.078070 0.033940 1.935310 
# 
# From -- ./inp_files/531072.got.cif
#   From: 2010.05.17/outbox.cif.g08.bks.cpg/sg2_266_cif.got.tgz:531072.got - 2010.06.03 11:33:40.
