data_PCOD9077018
_publ_section_title
;
Structure prediction by ZEFSAII (Michael W. Deem and Ramdas Pophale) SiO2 
 PCOD9077018
Probable space group: P -1
;
_chemical_formula_sum "Si O2"
_cell_formula_units_Z 14
_cell_length_a 14.155892
_cell_length_b 13.403690
_cell_length_c 13.508697
_cell_angle_alpha 45.102186
_cell_angle_beta 21.219147
_cell_angle_gamma 44.225879
_cell_volume 639.752311
_symmetry_space_group_name_H-M "P -1"
_symmetry_group_IT_number 2
_symmetry_cell_setting 'triclinic'
loop_
_space_group_symop_operation_xyz
x,y,z
-x,-y,-z
loop_
_atom_site_type_symbol
_atom_site_label
_atom_site_fract_x
_atom_site_fract_y
_atom_site_fract_z
Si Si1 0.495237 0.048679 0.326372
Si Si2 0.066270 0.836418 0.688031
Si Si3 0.755595 0.158528 0.804745
Si Si4 0.446168 0.686100 0.805936
Si Si5 0.442233 0.172887 0.915183
Si Si6 0.069112 0.852144 0.896297
Si Si7 0.824212 0.414810 0.667341
O O1 0.431615 0.179412 0.374989
O O2 0.258598 0.965453 0.614475
O O3 0.572183 0.107428 0.104141
O O4 0.777953 0.939819 0.153598
O O5 0.365846 0.802693 0.378698
O O6 0.043508 0.787988 0.857245
O O7 0.955224 0.011781 0.675384
O O8 0.864579 0.779471 0.851846
O O9 0.555522 0.230624 0.862839
O O10 0.918367 0.270740 0.611581
O O11 0.218381 0.740494 0.909900
O O12 0.653433 0.539618 0.676922
O O13 0.335668 0.643378 0.048223
O O14 0.500000 0.000000 0.000000
O O15 0.000000 0.500000 0.500000
#
# Coordination Sequence:
#
# PCOD9077018 Si02
#       7
#     2   2   2   2   2   2   2
#     4  10  22  34  58  88 114 147 191 231 289 344
#     4  10  20  33  55  89 113 138 186 233 290 341
#     4   9  19  36  58  83 118 148 186 234 285 332
#     4  10  23  38  55  81 116 150 195 233 277 338
#     4  10  18  34  54  86 113 144 178 237 289 333
#     4  11  21  36  59  86 114 152 180 239 295 332
#     4  10  23  41  56  83 112 157 197 230 267 344
#
# _framework density 21.883469000000002
#
# number of rings (size 3 to 8) (size 9 to 14) (size 15 to 20)
#    0.000    2.000    0.000    5.143    8.000    1.143 
#   10.286    0.000    0.000    1.714    0.000    0.000 
#    0.000    0.000    0.000    0.000    0.000    0.000 
#
# Total GULP energy -78176.767648 kJ/mol
# GULP energy per Si atom -5584.054832 kJ/mol
# Density = 2.183366 g / cm^3
# Si number density = 21.883469 Si / 1000 Ang^3
#
#
#
# Elastic Constant Matrix: (Units=GPa)
#
#
# Indices 1 2 3 4 5 6 
#
# 1 94.9612 36.5082 1.9767 -9.0082 -12.4227 -12.9465
# 2 36.5082 45.4746 3.9177 4.4887 -0.6485 -11.3136
# 3 1.9767 3.9177 82.3620 -2.5329 -5.2170 5.7331
# 4 -9.0082 4.4887 -2.5329 9.2902 -0.4721 -2.7658
# 5 -12.4227 -0.6485 -5.2170 -0.4721 36.7850 -2.6811
# 6 -12.9465 -11.3136 5.7331 -2.7658 -2.6811 26.4331
#
#
#
# Elastic Compliance Matrix: (Units=1/GPa)
#
#
# Indices 1 2 3 4 5 6 
#
# 1 0.024497 -0.021554 0.001657 0.037238 0.009133 0.007236
# 2 -0.021554 0.044763 -0.003675 -0.042648 -0.007252 0.004201
# 3 0.001657 -0.003675 0.012791 0.006188 0.002194 -0.002666
# 4 0.037238 -0.042648 0.006188 0.172321 0.016248 0.018321
# 5 0.009133 -0.007252 0.002194 0.016248 0.031080 0.005746
# 6 0.007236 0.004201 -0.002666 0.018321 0.005746 0.046251
#
#
# Mechanical properties :
#
#
# Convention : Reuss Voigt Hill
#
# Bulk Modulus (GPa) = 28.64835 34.17811 31.41323
# Shear Modulus (GPa) = 12.80465 26.52800 19.66632
#
# Velocity S-wave (km/s) = 2.42157 3.48550 3.00106
# Velocity P-wave (km/s) = 4.57585 5.64362 5.13755
#
# Compressibility (1/GPa) = 0.03490602
#
# Stress axis : x y z
#
# Youngs Moduli (GPa) = 40.82215 22.33994 78.17756
#
# Poissons Ratio (x) = 0.48153 -0.12957
# Poissons Ratio (y) = 0.87990 0.28732
# Poissons Ratio (z) = -0.06766 0.08211
#
# Static dielectric constant tensor:
#      x y z
#    x 1.887410 0.016320 -0.034150 
#    y 0.016320 1.845500 -0.000760 
#    z -0.034150 -0.000760 1.823400 
# 
# From -- ./inp_files/367058.got.cif
#   From: 2010.05.17/outbox.cif.g08.bks.cpg/sg2_184_cif.got.tgz:367058.got - 2010.06.03 11:33:40.
