data_PCOD9077431
_publ_section_title
;
Structure prediction by ZEFSAII (Michael W. Deem and Ramdas Pophale) SiO2 
 PCOD9077431
Probable space group: P -1
;
_chemical_formula_sum "Si O2"
_cell_formula_units_Z 16
_cell_length_a 15.729674
_cell_length_b 10.919624
_cell_length_c 9.410496
_cell_angle_alpha 109.905356
_cell_angle_beta 129.335580
_cell_angle_gamma 109.632492
_cell_volume 765.683311
_symmetry_space_group_name_H-M "P -1"
_symmetry_group_IT_number 2
_symmetry_cell_setting 'triclinic'
loop_
_space_group_symop_operation_xyz
x,y,z
-x,-y,-z
loop_
_atom_site_type_symbol
_atom_site_label
_atom_site_fract_x
_atom_site_fract_y
_atom_site_fract_z
Si Si1 0.518298 0.648872 0.487260
Si Si2 0.139912 0.141473 0.085152
Si Si3 0.976347 0.823962 0.596877
Si Si4 0.107564 0.373154 0.265806
Si Si5 0.586623 0.209729 0.366688
Si Si6 0.375330 0.386388 0.958420
Si Si7 0.151006 0.745043 0.260037
Si Si8 0.734398 0.006474 0.234355
O O1 0.500000 0.500000 0.500000
O O2 0.452317 0.712808 0.528218
O O3 0.717380 0.837928 0.746547
O O4 0.444830 0.540537 0.216938
O O5 0.197483 0.336915 0.259011
O O6 0.057166 0.037875 0.806735
O O7 0.000000 0.000000 0.000000
O O8 0.933117 0.705640 0.648426
O O9 0.800742 0.704984 0.298575
O O10 0.110640 0.871869 0.661750
O O11 0.253309 0.612724 0.497461
O O12 0.930914 0.240653 0.945004
O O13 0.667417 0.163041 0.524083
O O14 0.418161 0.051052 0.027830
O O15 0.343949 0.207831 0.900934
O O16 0.500000 0.500000 0.000000
O O17 0.184547 0.857663 0.484003
O O18 0.000000 0.500000 0.000000
#
# Coordination Sequence:
#
# PCOD9077431 Si02
#       8
#     2   2   2   2   2   2   2   2
#     4  12  21  38  66  94 130 172 211 265 331 393
#     4  10  18  34  59  89 127 163 199 259 327 383
#     4  11  23  37  63 100 131 167 215 272 328 386
#     4  10  21  41  64  90 133 175 214 265 325 387
#     4  11  22  42  67  92 131 175 224 266 326 388
#     4  12  25  40  65 104 138 170 209 268 341 399
#     4  10  25  43  69  91 127 183 227 269 322 384
#     4  12  23  43  67  97 132 169 223 273 325 394
#
# _framework density 20.896366
#
# number of rings (size 3 to 8) (size 9 to 14) (size 15 to 20)
#    0.000    1.000    3.750    3.750    3.500    1.000 
#    0.000    3.125    2.750    0.000    0.000    0.000 
#    0.000    0.000    0.000    0.000    0.000    0.000 
#
# Total GULP energy -89140.726393 kJ/mol
# GULP energy per Si atom -5571.295400 kJ/mol
# Density = 2.084881 g / cm^3
# Si number density = 20.896366 Si / 1000 Ang^3
#
#
#
# Elastic Constant Matrix: (Units=GPa)
#
#
# Indices 1 2 3 4 5 6 
#
# 1 135.7780 36.1139 63.8357 -10.4018 10.6082 -0.5258
# 2 36.1139 28.0944 6.6759 -0.7861 7.9632 9.4304
# 3 63.8357 6.6759 150.9803 -11.0499 1.1071 10.7313
# 4 -10.4018 -0.7861 -11.0499 30.6658 -5.5473 2.0400
# 5 10.6082 7.9632 1.1071 -5.5473 52.3481 6.4568
# 6 -0.5258 9.4304 10.7313 2.0400 6.4568 22.8623
#
#
#
# Elastic Compliance Matrix: (Units=1/GPa)
#
#
# Indices 1 2 3 4 5 6 
#
# 1 0.018040 -0.026020 -0.007406 0.001580 -0.001202 0.014823
# 2 -0.026020 0.079928 0.010066 -0.001128 -0.002598 -0.037459
# 3 -0.007406 0.010066 0.010150 0.002257 0.001181 -0.009622
# 4 0.001580 -0.001128 0.002257 0.034995 0.004109 -0.004841
# 5 -0.001202 -0.002598 0.001181 0.004109 0.020864 -0.005769
# 6 0.014823 -0.037459 -0.009622 -0.004841 -0.005769 0.066110
#
#
# Mechanical properties :
#
#
# Convention : Reuss Voigt Hill
#
# Bulk Modulus (GPa) = 16.28706 58.67819 37.48262
# Shear Modulus (GPa) = 16.81954 35.05707 25.93831
#
# Velocity S-wave (km/s) = 2.84016 4.10037 3.52701
# Velocity P-wave (km/s) = 4.30888 7.11048 5.87900
#
# Compressibility (1/GPa) = 0.06139845
#
# Stress axis : x y z
#
# Youngs Moduli (GPa) = 55.43225 12.51121 98.52185
#
# Poissons Ratio (x) = 0.32555 0.72966
# Poissons Ratio (y) = 1.44236 -0.99176
# Poissons Ratio (z) = 0.41053 -0.12594
#
# Static dielectric constant tensor:
#      x y z
#    x 1.765870 -0.042610 0.029970 
#    y -0.042610 1.914630 0.114710 
#    z 0.029970 0.114710 1.975150 
# 
# From -- ./inp_files/223178.got.cif
#   From: 2010.05.17/outbox.cif.g08.bks.cpg/sg2_112_cif.got.tgz:223178.got - 2010.06.03 11:33:40.
