data_PCOD9077780
_publ_section_title
;
Structure prediction by ZEFSAII (Michael W. Deem and Ramdas Pophale) SiO2 
 PCOD9077780
Probable space group: P -1
;
_chemical_formula_sum "Si O2"
_cell_formula_units_Z 16
_cell_length_a 7.138154
_cell_length_b 8.515183
_cell_length_c 17.094606
_cell_angle_alpha 140.189286
_cell_angle_beta 88.380447
_cell_angle_gamma 104.927050
_cell_volume 618.180063
_symmetry_space_group_name_H-M "P -1"
_symmetry_group_IT_number 2
_symmetry_cell_setting 'triclinic'
loop_
_space_group_symop_operation_xyz
x,y,z
-x,-y,-z
loop_
_atom_site_type_symbol
_atom_site_label
_atom_site_fract_x
_atom_site_fract_y
_atom_site_fract_z
Si Si1 0.555717 0.697969 0.705736
Si Si2 0.829235 0.195251 0.528290
Si Si3 0.980442 0.685823 0.643948
Si Si4 0.159046 0.645597 0.160289
Si Si5 0.557681 0.250258 0.934788
Si Si6 0.173283 0.168077 0.731114
Si Si7 0.420032 0.397253 0.145688
Si Si8 0.600670 0.868837 0.553742
O O1 0.772262 0.736035 0.679114
O O2 0.584936 0.660688 0.784632
O O3 0.400017 0.426660 0.566117
O O4 0.482592 0.941678 0.793525
O O5 0.977718 0.498571 0.646369
O O6 0.638130 0.192811 0.476938
O O7 0.927159 0.020123 0.412820
O O8 0.718699 0.046062 0.547984
O O9 0.000000 0.500000 0.500000
O O10 0.136373 0.976435 0.732483
O O11 0.221651 0.654858 0.072654
O O12 0.221987 0.433374 0.126634
O O13 0.937396 0.630930 0.176436
O O14 0.301039 0.934455 0.302246
O O15 0.500000 0.500000 0.000000
O O16 0.494124 0.229799 0.018767
O O17 0.400387 0.320418 0.761719
#
# Coordination Sequence:
#
# PCOD9077780 Si02
#       8
#     2   2   2   2   2   2   2   2
#     4  11  20  42  69  97 127 178 220 263 334 396
#     4   9  17  35  57  94 130 171 205 250 322 406
#     4   9  19  33  60  95 138 163 207 258 324 400
#     4  11  22  39  63 100 133 167 210 274 328 390
#     4  10  24  43  65  96 127 173 230 275 319 380
#     4  11  20  38  62  94 129 173 215 260 323 388
#     4  11  23  43  72  89 131 181 223 268 321 382
#     4  10  18  34  65  92 131 167 206 264 334 389
#
# _framework density 25.882422999999999
#
# number of rings (size 3 to 8) (size 9 to 14) (size 15 to 20)
#    0.000    1.750    3.750    1.875    0.000    1.500 
#    0.000    1.250    5.500    2.250    0.000    0.000 
#    0.000    0.000    0.000    0.000    0.000    0.000 
#
# Total GULP energy -89251.318914 kJ/mol
# GULP energy per Si atom -5578.207432 kJ/mol
# Density = 2.582351 g / cm^3
# Si number density = 25.882423 Si / 1000 Ang^3
#
#
#
# Elastic Constant Matrix: (Units=GPa)
#
#
# Indices 1 2 3 4 5 6 
#
# 1 108.3918 45.8063 22.9962 -6.8028 -33.2891 3.9690
# 2 45.8063 136.7096 31.5737 -9.9679 -15.8665 19.3423
# 3 22.9962 31.5737 127.5508 -9.3468 -30.8111 -9.2269
# 4 -6.8028 -9.9679 -9.3468 49.0158 3.2110 -5.5515
# 5 -33.2891 -15.8665 -30.8111 3.2110 33.3410 -6.4207
# 6 3.9690 19.3423 -9.2269 -5.5515 -6.4207 19.7746
#
#
#
# Elastic Compliance Matrix: (Units=1/GPa)
#
#
# Indices 1 2 3 4 5 6 
#
# 1 0.016382 -0.005569 0.004012 0.001867 0.019320 0.010829
# 2 -0.005569 0.011481 -0.004696 -0.000536 -0.007236 -0.014803
# 3 0.004012 -0.004696 0.013990 0.003027 0.017663 0.016901
# 4 0.001867 -0.000536 0.003027 0.021886 0.004034 0.009016
# 5 0.019320 -0.007236 0.017663 0.004034 0.068476 0.034808
# 6 0.010829 -0.014803 0.016901 0.009016 0.034808 0.084595
#
#
# Mechanical properties :
#
#
# Convention : Reuss Voigt Hill
#
# Bulk Modulus (GPa) = 34.07528 63.71160 48.89344
# Shear Modulus (GPa) = 20.91180 38.57802 29.74491
#
# Velocity S-wave (km/s) = 2.84554 3.86490 3.39371
# Velocity P-wave (km/s) = 4.89797 6.67726 5.85559
#
# Compressibility (1/GPa) = 0.02934678
#
# Stress axis : x y z
#
# Youngs Moduli (GPa) = 61.04143 87.10061 71.47924
#
# Poissons Ratio (x) = 0.48510 -0.28678
# Poissons Ratio (y) = 0.33997 0.33566
# Poissons Ratio (z) = -0.24490 0.40902
#
# Static dielectric constant tensor:
#      x y z
#    x 2.122950 -0.066890 0.058320 
#    y -0.066890 2.109330 -0.000720 
#    z 0.058320 -0.000720 2.152970 
# 
# From -- ./inp_files/557651.got.cif
#   From: 2010.05.17/outbox.cif.g08.bks.cpg/sg2_279_cif.got.tgz:557651.got - 2010.06.03 11:33:40.
