data_PCOD9077695
_publ_section_title
;
Structure prediction by ZEFSAII (Michael W. Deem and Ramdas Pophale) SiO2 
 PCOD9077695
Probable space group: P -1
;
_chemical_formula_sum "Si O2"
_cell_formula_units_Z 15
_cell_length_a 14.052065
_cell_length_b 11.387484
_cell_length_c 11.110006
_cell_angle_alpha 116.176267
_cell_angle_beta 29.669993
_cell_angle_gamma 135.367190
_cell_volume 531.998214
_symmetry_space_group_name_H-M "P -1"
_symmetry_group_IT_number 2
_symmetry_cell_setting 'triclinic'
loop_
_space_group_symop_operation_xyz
x,y,z
-x,-y,-z
loop_
_atom_site_type_symbol
_atom_site_label
_atom_site_fract_x
_atom_site_fract_y
_atom_site_fract_z
Si Si1 0.649972 0.436168 0.335519
Si Si2 0.393560 0.848656 0.892830
Si Si3 0.514853 0.919876 0.323187
Si Si4 0.658107 0.731491 0.153488
Si Si5 0.436963 0.241778 0.142055
Si Si6 0.941048 0.643504 0.900230
Si Si7 0.133467 0.335972 0.447022
Si Si8 0.000000 0.500000 0.500000
O O1 0.500000 0.500000 0.500000
O O2 0.575143 0.262566 0.276765
O O3 0.556334 0.362918 0.540360
O O4 0.952988 0.622481 0.020566
O O5 0.594848 0.907799 0.811712
O O6 0.439455 0.984375 0.807171
O O7 0.083467 0.717585 0.235069
O O8 0.728652 0.908087 0.103241
O O9 0.189448 0.696094 0.578634
O O10 0.500000 0.000000 0.500000
O O11 0.459550 0.552874 0.200158
O O12 0.923419 0.782212 0.934716
O O13 0.183828 0.206610 0.358717
O O14 0.638854 0.432873 0.094950
O O15 0.662974 0.330087 0.830264
O O16 0.026997 0.355461 0.454024
#
# Coordination Sequence:
#
# PCOD9077695 Si02
#       8
#     2   2   2   2   2   2   2   1
#     4   9  17  34  53  74 103 145 192 226 263 314
#     4  10  21  35  50  82 114 148 184 226 267 322
#     4  12  23  33  49  79 117 153 190 224 264 309
#     4  10  20  36  53  76 106 151 186 224 272 320
#     4   9  19  39  61  84 107 143 179 227 279 330
#     4   9  21  36  53  76 109 147 187 224 267 326
#     4  10  21  36  62  82 109 141 182 228 282 333
#     4  10  18  34  62  96 110 118 174 242 292 330
#
# _framework density 28.195582999999999
#
# number of rings (size 3 to 8) (size 9 to 14) (size 15 to 20)
#    0.000    2.133    1.333    3.600    1.867    2.667 
#    0.000    0.000    0.000   12.800    0.000   22.400 
#    0.000    0.000    0.000    0.000    0.000    0.000 
#
# Total GULP energy -83574.719371 kJ/mol
# GULP energy per Si atom -5571.647958 kJ/mol
# Density = 2.813141 g / cm^3
# Si number density = 28.195583 Si / 1000 Ang^3
#
#
#
# Elastic Constant Matrix: (Units=GPa)
#
#
# Indices 1 2 3 4 5 6 
#
# 1 154.7866 59.5672 54.6899 -11.0016 10.9673 -56.2010
# 2 59.5672 124.9422 14.1559 7.6590 10.0520 -46.6001
# 3 54.6899 14.1559 110.8461 18.0172 10.3197 -6.2099
# 4 -11.0016 7.6590 18.0172 37.4534 -7.6961 6.4744
# 5 10.9673 10.0520 10.3197 -7.6961 54.1672 -14.2262
# 6 -56.2010 -46.6001 -6.2099 6.4744 -14.2262 66.6714
#
#
#
# Elastic Compliance Matrix: (Units=1/GPa)
#
#
# Indices 1 2 3 4 5 6 
#
# 1 0.013642 -0.003177 -0.007249 0.007189 0.002443 0.008427
# 2 -0.003177 0.012085 0.001327 -0.005315 -0.000979 0.006200
# 3 -0.007249 0.001327 0.014080 -0.009296 -0.003773 -0.003774
# 4 0.007189 -0.005315 -0.009296 0.035762 0.006207 -0.000669
# 5 0.002443 -0.000979 -0.003773 0.006207 0.021039 0.004910
# 6 0.008427 0.006200 -0.003774 -0.000669 0.004910 0.027197
#
#
# Mechanical properties :
#
#
# Convention : Reuss Voigt Hill
#
# Bulk Modulus (GPa) = 46.27930 71.93342 59.10636
# Shear Modulus (GPa) = 33.51095 49.13587 41.32341
#
# Velocity S-wave (km/s) = 3.45123 4.17907 3.83247
# Velocity P-wave (km/s) = 5.68600 6.98955 6.37120
#
# Compressibility (1/GPa) = 0.02160793
#
# Stress axis : x y z
#
# Youngs Moduli (GPa) = 73.30350 82.74799 71.02514
#
# Poissons Ratio (x) = 0.26287 0.51486
# Poissons Ratio (y) = 0.23287 -0.09422
# Poissons Ratio (z) = 0.53137 -0.10977
#
# Static dielectric constant tensor:
#      x y z
#    x 2.187490 0.230210 -0.013130 
#    y 0.230210 2.735740 -0.131670 
#    z -0.013130 -0.131670 2.143860 
# 
# From -- ./inp_files/258410.got.cif
#   From: 2010.05.17/outbox.cif.g08.bks.cpg/sg2_130_cif.got.tgz:258410.got - 2010.06.03 11:33:40.
