data_PCOD9077159
_publ_section_title
;
Structure prediction by ZEFSAII (Michael W. Deem and Ramdas Pophale) SiO2 
 PCOD9077159
Probable space group: P -1
;
_chemical_formula_sum "Si O2"
_cell_formula_units_Z 16
_cell_length_a 9.221419
_cell_length_b 17.814526
_cell_length_c 4.857767
_cell_angle_alpha 98.261309
_cell_angle_beta 90.463188
_cell_angle_gamma 123.281963
_cell_volume 656.543320
_symmetry_space_group_name_H-M "P -1"
_symmetry_group_IT_number 2
_symmetry_cell_setting 'triclinic'
loop_
_space_group_symop_operation_xyz
x,y,z
-x,-y,-z
loop_
_atom_site_type_symbol
_atom_site_label
_atom_site_fract_x
_atom_site_fract_y
_atom_site_fract_z
Si Si1 0.297140 0.968410 0.523749
Si Si2 0.657135 0.850950 0.551554
Si Si3 0.815851 0.149068 0.036038
Si Si4 0.646651 0.683640 0.321820
Si Si5 0.074103 0.338559 0.408216
Si Si6 0.431219 0.783772 0.013767
Si Si7 0.917805 0.558472 0.075848
Si Si8 0.592314 0.385935 0.219672
O O1 0.247608 0.937997 0.819870
O O2 0.500000 0.000000 0.500000
O O3 0.264862 0.045734 0.476257
O O4 0.177155 0.879840 0.286564
O O5 0.733233 0.791697 0.432197
O O6 0.477908 0.799291 0.342302
O O7 0.608550 0.834113 0.862233
O O8 0.978401 0.239925 0.211492
O O9 0.668625 0.170845 0.048544
O O10 0.767844 0.653389 0.419491
O O11 0.471748 0.630202 0.478157
O O12 0.580234 0.655730 0.995585
O O13 0.977733 0.358239 0.660145
O O14 0.108657 0.405840 0.192412
O O15 0.338103 0.678470 0.880263
O O16 0.735000 0.487232 0.186888
O O17 0.000000 0.500000 0.000000
#
# Coordination Sequence:
#
# PCOD9077159 Si02
#       8
#     2   2   2   2   2   2   2   2
#     4  12  21  36  61  95 126 157 213 266 315 374
#     4  10  20  35  59  88 122 157 203 266 302 364
#     4  12  23  37  59  91 128 165 206 254 334 372
#     4  10  23  43  63  92 127 171 223 248 309 373
#     4  12  27  44  64  90 134 175 205 263 314 387
#     4  10  18  34  56  87 121 154 198 258 320 367
#     4  12  26  45  68  98 130 160 212 264 329 378
#     4  10  22  39  67  92 121 168 214 266 306 365
#
# _framework density 24.370058
#
# number of rings (size 3 to 8) (size 9 to 14) (size 15 to 20)
#    0.000    1.000    2.500    4.500    0.000    6.000 
#    0.000    1.250    0.000    0.000    0.000    0.000 
#    0.000    0.000    0.000    0.000    0.000    0.000 
#
# Total GULP energy -89542.831308 kJ/mol
# GULP energy per Si atom -5596.426957 kJ/mol
# Density = 2.431459 g / cm^3
# Si number density = 24.370058 Si / 1000 Ang^3
#
#
#
# Elastic Constant Matrix: (Units=GPa)
#
#
# Indices 1 2 3 4 5 6 
#
# 1 31.5078 34.9038 5.0370 2.3666 1.6310 -18.5410
# 2 34.9038 141.7341 20.0923 -9.8591 14.0922 -35.1328
# 3 5.0370 20.0923 93.0217 -8.6325 3.0417 -6.4271
# 4 2.3666 -9.8591 -8.6325 53.6046 -3.4175 0.4739
# 5 1.6310 14.0922 3.0417 -3.4175 15.7655 -4.6157
# 6 -18.5410 -35.1328 -6.4271 0.4739 -4.6157 26.8603
#
#
#
# Elastic Compliance Matrix: (Units=1/GPa)
#
#
# Indices 1 2 3 4 5 6 
#
# 1 0.059178 -0.007743 0.000054 -0.003710 0.009478 0.032428
# 2 -0.007743 0.012199 -0.001188 0.001880 -0.006795 0.009127
# 3 0.000054 -0.001188 0.011236 0.001550 -0.000464 0.001065
# 4 -0.003710 0.001880 0.001550 0.019587 0.002767 0.000399
# 5 0.009478 -0.006795 -0.000464 0.002767 0.072106 0.009886
# 6 0.032428 0.009127 0.001065 0.000399 0.009886 0.073498
#
#
# Mechanical properties :
#
#
# Convention : Reuss Voigt Hill
#
# Bulk Modulus (GPa) = 15.41798 42.92553 29.17176
# Shear Modulus (GPa) = 17.41065 32.99477 25.20271
#
# Velocity S-wave (km/s) = 2.67578 3.68354 3.21934
# Velocity P-wave (km/s) = 3.98582 5.97859 5.08086
#
# Compressibility (1/GPa) = 0.06485932
#
# Stress axis : x y z
#
# Youngs Moduli (GPa) = 16.89811 81.97068 88.99598
#
# Poissons Ratio (x) = 0.63472 -0.00484
# Poissons Ratio (y) = 0.13085 0.10577
# Poissons Ratio (z) = -0.00092 0.09742
#
# Static dielectric constant tensor:
#      x y z
#    x 1.946400 0.019240 -0.000700 
#    y 0.019240 1.965920 0.064020 
#    z -0.000700 0.064020 1.888800 
# 
# From -- ./inp_files/76191.got.cif
#   From: 2010.05.17/outbox.cif.g08.bks.cpg/sg2_39_cif.got.tgz:76191.got - 2010.06.03 11:33:40.
