data_PCOD9077171
_publ_section_title
;
Structure prediction by ZEFSAII (Michael W. Deem and Ramdas Pophale) SiO2 
 PCOD9077171
Probable space group: P -1
;
_chemical_formula_sum "Si O2"
_cell_formula_units_Z 14
_cell_length_a 23.264769
_cell_length_b 15.342009
_cell_length_c 13.567384
_cell_angle_alpha 18.148300
_cell_angle_beta 22.791097
_cell_angle_gamma 27.410766
_cell_volume 581.557021
_symmetry_space_group_name_H-M "P -1"
_symmetry_group_IT_number 2
_symmetry_cell_setting 'triclinic'
loop_
_space_group_symop_operation_xyz
x,y,z
-x,-y,-z
loop_
_atom_site_type_symbol
_atom_site_label
_atom_site_fract_x
_atom_site_fract_y
_atom_site_fract_z
Si Si1 0.309524 0.659733 0.784881
Si Si2 0.300673 0.079758 0.519425
Si Si3 0.999236 0.637571 0.244851
Si Si4 0.631053 0.721611 0.226288
Si Si5 0.076588 0.115858 0.158285
Si Si6 0.047830 0.298805 0.341789
Si Si7 0.378951 0.861741 0.029129
O O1 0.471123 0.726241 0.420446
O O2 0.296020 0.797116 0.767949
O O3 0.159578 0.765492 0.850827
O O4 0.310359 0.326021 0.157289
O O5 0.154171 0.162362 0.725437
O O6 0.456218 0.085411 0.324122
O O7 0.000000 0.500000 0.500000
O O8 0.002262 0.393450 0.421804
O O9 0.960390 0.551094 0.144931
O O10 0.635236 0.463875 0.575261
O O11 0.776131 0.684308 0.969908
O O12 0.637303 0.993471 0.992622
O O13 0.249180 0.005726 0.011846
O O14 0.000654 0.982764 0.327589
O O15 0.000000 0.000000 0.500000
#
# Coordination Sequence:
#
# PCOD9077171 Si02
#       7
#     2   2   2   2   2   2   2
#     4   9  19  34  60  82 113 154 192 240 293 337
#     4   9  19  36  59  83 110 158 199 231 285 347
#     4  10  23  43  61  84 121 161 199 243 285 339
#     4  10  18  34  56  91 116 147 192 236 293 357
#     4  12  22  39  61  90 123 153 188 243 305 350
#     4  12  24  36  61  93 118 155 201 234 290 363
#     4  10  19  35  60  84 119 152 186 240 298 341
#
# _framework density 24.073307
#
# number of rings (size 3 to 8) (size 9 to 14) (size 15 to 20)
#    0.000    1.714    2.857    1.714    0.000    5.143 
#    0.000    1.429    0.000   12.000    0.000    0.000 
#    0.000    0.000    0.000    0.000    0.000    0.000 
#
# Total GULP energy -78351.007498 kJ/mol
# GULP energy per Si atom -5596.500536 kJ/mol
# Density = 2.401851 g / cm^3
# Si number density = 24.073307 Si / 1000 Ang^3
#
#
#
# Elastic Constant Matrix: (Units=GPa)
#
#
# Indices 1 2 3 4 5 6 
#
# 1 83.7672 39.9872 12.6308 29.8035 -5.5303 -18.4460
# 2 39.9872 163.6895 21.4075 35.2477 -13.8841 -31.7507
# 3 12.6308 21.4075 47.5609 7.9453 -6.5366 -10.1501
# 4 29.8035 35.2477 7.9453 41.0359 0.7886 -19.5758
# 5 -5.5303 -13.8841 -6.5366 0.7886 30.0315 8.6158
# 6 -18.4460 -31.7507 -10.1501 -19.5758 8.6158 53.3829
#
#
#
# Elastic Compliance Matrix: (Units=1/GPa)
#
#
# Indices 1 2 3 4 5 6 
#
# 1 0.016847 -0.001333 -0.001697 -0.010587 0.002263 0.000458
# 2 -0.001333 0.008351 -0.001779 -0.005023 0.002824 0.001871
# 3 -0.001697 -0.001779 0.023304 -0.000911 0.003416 0.001902
# 4 -0.010587 -0.005023 -0.000911 0.041327 -0.008333 0.009681
# 5 0.002263 0.002824 0.003416 -0.008333 0.037713 -0.006031
# 6 0.000458 0.001871 0.001902 0.009681 -0.006031 0.024889
#
#
# Mechanical properties :
#
#
# Convention : Reuss Voigt Hill
#
# Bulk Modulus (GPa) = 25.71601 49.22984 37.47293
# Shear Modulus (GPa) = 28.56978 39.62286 34.09632
#
# Velocity S-wave (km/s) = 3.44871 4.06140 3.76753
# Velocity P-wave (km/s) = 5.15400 6.51826 5.87586
#
# Compressibility (1/GPa) = 0.03888627
#
# Stress axis : x y z
#
# Youngs Moduli (GPa) = 59.35721 119.74219 42.91061
#
# Poissons Ratio (x) = 0.15962 0.07280
# Poissons Ratio (y) = 0.07912 0.07632
# Poissons Ratio (z) = 0.10071 0.21297
#
# Static dielectric constant tensor:
#      x y z
#    x 1.894670 -0.069180 0.012900 
#    y -0.069180 1.923680 0.012620 
#    z 0.012900 0.012620 1.950450 
# 
# From -- ./inp_files/67629.got.cif
#   From: 2010.05.17/outbox.cif.g08.bks.cpg/sg2_34_cif.got.tgz:67629.got - 2010.06.03 11:33:40.
