data_PCOD9077274
_publ_section_title
;
Structure prediction by ZEFSAII (Michael W. Deem and Ramdas Pophale) SiO2 
 PCOD9077274
Probable space group: P -1
;
_chemical_formula_sum "Si O2"
_cell_formula_units_Z 16
_cell_length_a 9.420603
_cell_length_b 7.775362
_cell_length_c 14.620576
_cell_angle_alpha 63.699364
_cell_angle_beta 134.786663
_cell_angle_gamma 89.045941
_cell_volume 583.371236
_symmetry_space_group_name_H-M "P -1"
_symmetry_group_IT_number 2
_symmetry_cell_setting 'triclinic'
loop_
_space_group_symop_operation_xyz
x,y,z
-x,-y,-z
loop_
_atom_site_type_symbol
_atom_site_label
_atom_site_fract_x
_atom_site_fract_y
_atom_site_fract_z
Si Si1 0.110154 0.619618 0.076856
Si Si2 0.571344 0.193909 0.626618
Si Si3 0.547784 0.197198 0.323301
Si Si4 0.942821 0.522429 0.743170
Si Si5 0.905969 0.420635 0.392829
Si Si6 0.947192 0.957988 0.702862
Si Si7 0.321796 0.972589 0.760774
Si Si8 0.422821 0.762809 0.165516
O O1 0.368754 0.405853 0.252927
O O2 0.988328 0.676050 0.106611
O O3 0.173329 0.790637 0.018202
O O4 0.000000 0.500000 0.000000
O O5 0.321835 0.387088 0.430843
O O6 0.784923 0.120644 0.671929
O O7 0.592708 0.245947 0.728883
O O8 0.544066 0.976448 0.669187
O O9 0.790888 0.086513 0.512105
O O10 0.553349 0.227575 0.208922
O O11 0.082921 0.483330 0.722817
O O12 0.958176 0.720473 0.756340
O O13 0.634507 0.537464 0.267958
O O14 0.000000 0.500000 0.500000
O O15 0.114997 0.161197 0.555559
O O16 0.194881 0.932046 0.797000
O O17 0.489309 0.061592 0.849176
#
# Coordination Sequence:
#
# PCOD9077274 Si02
#       8
#     2   2   2   2   2   2   2   2
#     4  12  26  42  60  82 117 170 212 244 284 339
#     4  10  18  36  60  95 121 152 187 253 315 350
#     4  10  18  36  58  86 120 154 197 244 290 361
#     4  11  20  36  60  92 126 151 200 244 297 357
#     4  10  18  34  57  97 132 150 175 239 327 375
#     4  11  18  31  64  96 123 145 190 248 312 361
#     4  10  20  33  56  93 121 155 181 231 321 371
#     4  10  23  38  56  88 130 153 190 244 302 368
#
# _framework density 27.426791999999999
#
# number of rings (size 3 to 8) (size 9 to 14) (size 15 to 20)
#    0.000    1.500    7.500    1.875    1.750    2.500 
#    0.000    3.125    0.000    0.750    0.000    0.000 
#    0.000    0.000    0.000    0.000    0.000    0.000 
#
# Total GULP energy -89427.837366 kJ/mol
# GULP energy per Si atom -5589.239835 kJ/mol
# Density = 2.736437 g / cm^3
# Si number density = 27.426792 Si / 1000 Ang^3
#
#
#
# Elastic Constant Matrix: (Units=GPa)
#
#
# Indices 1 2 3 4 5 6 
#
# 1 234.0154 41.3942 39.5535 28.6228 -3.6667 0.5394
# 2 41.3942 105.2857 16.9794 23.9555 14.6147 -5.7361
# 3 39.5535 16.9794 47.5846 7.2927 15.7290 11.0894
# 4 28.6228 23.9555 7.2927 33.1617 4.6057 5.8646
# 5 -3.6667 14.6147 15.7290 4.6057 30.6650 11.8406
# 6 0.5394 -5.7361 11.0894 5.8646 11.8406 51.2122
#
#
#
# Elastic Compliance Matrix: (Units=1/GPa)
#
#
# Indices 1 2 3 4 5 6 
#
# 1 0.005949 -0.001204 -0.005530 -0.003747 0.004538 0.000380
# 2 -0.001204 0.013074 -0.001398 -0.007983 -0.006038 0.004090
# 3 -0.005530 -0.001398 0.031710 0.001551 -0.015081 -0.003655
# 4 -0.003747 -0.007983 0.001551 0.039965 -0.001334 -0.005459
# 5 0.004538 -0.006038 -0.015081 -0.001334 0.047134 -0.008203
# 6 0.000380 0.004090 -0.003655 -0.005459 -0.008203 0.023294
#
#
# Mechanical properties :
#
#
# Convention : Reuss Voigt Hill
#
# Bulk Modulus (GPa) = 29.01147 64.74888 46.88017
# Shear Modulus (GPa) = 26.47177 42.27171 34.37174
#
# Velocity S-wave (km/s) = 3.11010 3.93014 3.54392
# Velocity P-wave (km/s) = 4.84745 6.65236 5.82029
#
# Compressibility (1/GPa) = 0.03446913
#
# Stress axis : x y z
#
# Youngs Moduli (GPa) = 168.08655 76.48744 31.53587
#
# Poissons Ratio (x) = 0.09209 0.17439
# Poissons Ratio (y) = 0.20237 0.04410
# Poissons Ratio (z) = 0.92949 0.10695
#
# Static dielectric constant tensor:
#      x y z
#    x 2.138280 0.117460 0.008310 
#    y 0.117460 2.219910 -0.020290 
#    z 0.008310 -0.020290 2.164290 
# 
# From -- ./inp_files/392391.got.cif
#   From: 2010.05.17/outbox.cif.g08.bks.cpg/sg2_197_cif.got.tgz:392391.got - 2010.06.03 11:33:40.
