data_PCOD9077355
_publ_section_title
;
Structure prediction by ZEFSAII (Michael W. Deem and Ramdas Pophale) SiO2 
 PCOD9077355
Probable space group: P -1
;
_chemical_formula_sum "Si O2"
_cell_formula_units_Z 16
_cell_length_a 26.652663
_cell_length_b 8.635055
_cell_length_c 14.352601
_cell_angle_alpha 47.873375
_cell_angle_beta 160.842120
_cell_angle_gamma 139.925423
_cell_volume 676.360081
_symmetry_space_group_name_H-M "P -1"
_symmetry_group_IT_number 2
_symmetry_cell_setting 'triclinic'
loop_
_space_group_symop_operation_xyz
x,y,z
-x,-y,-z
loop_
_atom_site_type_symbol
_atom_site_label
_atom_site_fract_x
_atom_site_fract_y
_atom_site_fract_z
Si Si1 0.046910 0.796683 0.896046
Si Si2 0.680052 0.372746 0.892977
Si Si3 0.631079 0.879070 0.016011
Si Si4 0.299750 0.520624 0.717388
Si Si5 0.385060 0.353665 0.499807
Si Si6 0.149425 0.825135 0.382784
Si Si7 0.970521 0.179543 0.627449
Si Si8 0.822188 0.512638 0.800815
O O1 0.885016 0.640262 0.601396
O O2 0.947234 0.679047 0.866800
O O3 0.203755 0.748758 0.165657
O O4 0.099361 0.075367 0.875591
O O5 0.567718 0.365554 0.789346
O O6 0.651037 0.520844 0.701355
O O7 0.890868 0.530452 0.228822
O O8 0.613351 0.095516 0.853793
O O9 0.660169 0.681897 0.092078
O O10 0.811144 0.045411 0.327576
O O11 0.460284 0.705355 0.853753
O O12 0.262371 0.694146 0.645243
O O13 0.350515 0.475409 0.480382
O O14 0.242754 0.059514 0.383097
O O15 0.127870 0.915964 0.407377
O O16 0.954667 0.629410 0.075370
#
# Coordination Sequence:
#
# PCOD9077355 Si02
#       8
#     2   2   2   2   2   2   2   2
#     4   9  19  33  61  89 122 147 204 247 304 343
#     4  11  23  38  58  92 127 163 191 243 313 360
#     4  10  21  41  61  84 123 161 204 241 306 352
#     4   9  20  38  62  89 112 159 202 260 285 347
#     4  11  21  36  61  89 127 155 196 247 299 365
#     4  11  19  36  64  95 116 150 215 247 298 352
#     4  11  21  37  64  89 119 161 199 256 292 357
#     4  10  18  34  58  92 118 156 193 253 294 354
#
# _framework density 23.656040000000001
#
# number of rings (size 3 to 8) (size 9 to 14) (size 15 to 20)
#    0.000    1.750    3.750    1.500    0.000    0.500 
#    0.000    1.250    2.750    0.000    0.000    0.000 
#    0.000    0.000    0.000    0.000    0.000    0.000 
#
# Total GULP energy -89262.870734 kJ/mol
# GULP energy per Si atom -5578.929421 kJ/mol
# Density = 2.360220 g / cm^3
# Si number density = 23.656040 Si / 1000 Ang^3
#
#
#
# Elastic Constant Matrix: (Units=GPa)
#
#
# Indices 1 2 3 4 5 6 
#
# 1 64.0256 23.2788 15.0871 -15.1172 17.8984 -16.9888
# 2 23.2788 154.8305 18.0624 -8.3989 5.6535 -13.8372
# 3 15.0871 18.0624 33.5367 0.6866 -10.9425 10.6951
# 4 -15.1172 -8.3989 0.6866 21.3903 -1.8028 10.9636
# 5 17.8984 5.6535 -10.9425 -1.8028 21.5383 3.2559
# 6 -16.9888 -13.8372 10.6951 10.9636 3.2559 20.4723
#
#
#
# Elastic Compliance Matrix: (Units=1/GPa)
#
#
# Indices 1 2 3 4 5 6 
#
# 1 -0.012125 -0.008015 0.039529 0.017120 0.041542 -0.051905
# 2 -0.008015 0.005984 0.005978 0.001373 0.009447 -0.007968
# 3 0.039529 0.005978 -0.033682 -0.009591 -0.062850 0.069572
# 4 0.017120 0.001373 -0.009591 0.065298 -0.012043 -0.012908
# 5 0.041542 0.009447 -0.062850 -0.012043 -0.036504 0.085948
# 6 -0.051905 -0.007968 0.069572 -0.012908 0.085948 -0.042715
#
#
# Mechanical properties :
#
#
# Convention : Reuss Voigt Hill
#
# Bulk Modulus (GPa) = 28.44129 40.58327 34.51228
# Shear Modulus (GPa) = -42.73171 25.74447 -8.49362
#
# Velocity S-wave (km/s) = -4.25476 3.30249 -1.89691
# Velocity P-wave (km/s) = 3.47683 5.63336 3.13420
#
# Compressibility (1/GPa) = 0.03516015
#
# Stress axis : x y z
#
# Youngs Moduli (GPa) = -82.47210 167.11859 -29.68909
#
# Poissons Ratio (x) = 1.33952 1.17358
# Poissons Ratio (y) = -0.66104 0.17749
# Poissons Ratio (z) = 3.26004 -0.99911
#
# Static dielectric constant tensor:
#      x y z
#    x 1.875670 -0.004870 0.009600 
#    y -0.004870 2.000860 -0.094440 
#    z 0.009600 -0.094440 1.928420 
# 
# From -- ./inp_files/187875.got.cif
#   From: 2010.05.17/outbox.cif.g08.bks.cpg/sg2_94_cif.got.tgz:187875.got - 2010.06.03 11:33:40.
