data_PCOD9077855
_publ_section_title
;
Structure prediction by ZEFSAII (Michael W. Deem and Ramdas Pophale) SiO2 
 PCOD9077855
Probable space group: P -1
;
_chemical_formula_sum "Si O2"
_cell_formula_units_Z 16
_cell_length_a 11.146344
_cell_length_b 19.235231
_cell_length_c 9.519481
_cell_angle_alpha 128.163680
_cell_angle_beta 61.092582
_cell_angle_gamma 147.370775
_cell_volume 861.972662
_symmetry_space_group_name_H-M "P -1"
_symmetry_group_IT_number 2
_symmetry_cell_setting 'triclinic'
loop_
_space_group_symop_operation_xyz
x,y,z
-x,-y,-z
loop_
_atom_site_type_symbol
_atom_site_label
_atom_site_fract_x
_atom_site_fract_y
_atom_site_fract_z
Si Si1 0.772911 0.467136 0.474050
Si Si2 0.606316 0.459299 0.847572
Si Si3 0.446387 0.371461 0.331433
Si Si4 0.048884 0.764533 0.990582
Si Si5 0.248874 0.015326 0.371318
Si Si6 0.747531 0.260568 0.360142
Si Si7 0.075114 0.070818 0.321134
Si Si8 0.749663 0.766948 0.030447
O O1 0.637884 0.450344 0.654845
O O2 0.655848 0.424380 0.339925
O O3 0.767404 0.362478 0.391178
O O4 0.029009 0.629575 0.535690
O O5 0.860876 0.596240 0.929405
O O6 0.500000 0.500000 0.000000
O O7 0.428858 0.306053 0.833930
O O8 0.500000 0.500000 0.500000
O O9 0.234902 0.222470 0.346968
O O10 0.390030 0.328449 0.146968
O O11 0.229817 0.808390 0.847432
O O12 0.906299 0.763481 0.979542
O O13 0.157722 0.875822 0.190953
O O14 0.508217 0.139709 0.417216
O O15 0.215520 0.070528 0.333238
O O16 0.089455 0.965258 0.522695
O O17 0.917832 0.934774 0.135404
#
# Coordination Sequence:
#
# PCOD9077855 Si02
#       8
#     2   2   2   2   2   2   2   2
#     4  10  21  34  58  83 112 153 193 235 279 341
#     4   9  17  32  54  83 116 142 189 235 281 322
#     4  12  23  36  58  88 119 149 188 237 289 346
#     4   9  19  31  57  88 113 149 191 235 280 341
#     4  10  19  34  61  85 115 143 192 245 283 335
#     4  10  18  35  54  84 115 148 191 239 279 330
#     4  10  22  36  57  89 115 147 190 238 297 333
#     4  10  21  36  57  86 120 151 180 241 294 340
#
# _framework density 18.562072000000001
#
# number of rings (size 3 to 8) (size 9 to 14) (size 15 to 20)
#    0.000    2.000    1.250    3.750    7.000    0.000 
#    0.000    0.000    0.000   15.000    0.000    0.000 
#    0.000    0.000    0.000    0.000    0.000    0.000 
#
# Total GULP energy -89202.216915 kJ/mol
# GULP energy per Si atom -5575.138557 kJ/mol
# Density = 1.851982 g / cm^3
# Si number density = 18.562072 Si / 1000 Ang^3
#
#
#
# Elastic Constant Matrix: (Units=GPa)
#
#
# Indices 1 2 3 4 5 6 
#
# 1 44.5731 18.7755 25.1556 3.5095 7.3366 14.7113
# 2 18.7755 84.9618 16.0023 10.0152 -2.5781 12.0149
# 3 25.1556 16.0023 81.4749 17.1010 1.5938 10.9806
# 4 3.5095 10.0152 17.1010 29.6186 3.1782 -6.2576
# 5 7.3366 -2.5781 1.5938 3.1782 29.5379 5.0635
# 6 14.7113 12.0149 10.9806 -6.2576 5.0635 28.8303
#
#
#
# Elastic Compliance Matrix: (Units=1/GPa)
#
#
# Indices 1 2 3 4 5 6 
#
# 1 0.033485 -0.004633 -0.007966 0.000603 -0.006497 -0.010850
# 2 -0.004633 0.014396 0.000680 -0.006419 0.004091 -0.006006
# 3 -0.007966 0.000680 0.017663 -0.011091 0.003295 -0.005932
# 4 0.000603 -0.006419 -0.011091 0.047012 -0.008299 0.018253
# 5 -0.006497 0.004091 0.003295 -0.008299 0.037931 -0.008108
# 6 -0.010850 -0.006006 -0.005932 0.018253 -0.008108 0.050370
#
#
# Mechanical properties :
#
#
# Convention : Reuss Voigt Hill
#
# Bulk Modulus (GPa) = 23.97804 36.76407 30.37105
# Shear Modulus (GPa) = 20.95584 27.66911 24.31248
#
# Velocity S-wave (km/s) = 3.36365 3.86505 3.62303
# Velocity P-wave (km/s) = 5.29446 6.30612 5.82230
#
# Compressibility (1/GPa) = 0.04170483
#
# Stress axis : x y z
#
# Youngs Moduli (GPa) = 29.86393 69.46362 56.61707
#
# Poissons Ratio (x) = 0.32185 0.45101
# Poissons Ratio (y) = 0.13837 -0.03849
# Poissons Ratio (z) = 0.23789 -0.04722
#
# Static dielectric constant tensor:
#      x y z
#    x 1.649180 -0.011530 -0.010250 
#    y -0.011530 1.688700 0.027750 
#    z -0.010250 0.027750 1.648220 
# 
# From -- ./inp_files/271268.got.cif
#   From: 2010.05.17/outbox.cif.g08.bks.cpg/sg2_136_cif.got.tgz:271268.got - 2010.06.03 11:33:40.
