data_PCOD9077761
_publ_section_title
;
Structure prediction by ZEFSAII (Michael W. Deem and Ramdas Pophale) SiO2 
 PCOD9077761
Probable space group: P -1
;
_chemical_formula_sum "Si O2"
_cell_formula_units_Z 15
_cell_length_a 7.675007
_cell_length_b 27.489343
_cell_length_c 7.868645
_cell_angle_alpha 140.046911
_cell_angle_beta 53.921494
_cell_angle_gamma 146.904433
_cell_volume 575.347920
_symmetry_space_group_name_H-M "P -1"
_symmetry_group_IT_number 2
_symmetry_cell_setting 'triclinic'
loop_
_space_group_symop_operation_xyz
x,y,z
-x,-y,-z
loop_
_atom_site_type_symbol
_atom_site_label
_atom_site_fract_x
_atom_site_fract_y
_atom_site_fract_z
Si Si1 0.827616 0.730695 0.422239
Si Si2 0.516060 0.260313 0.773910
Si Si3 0.244686 0.429994 0.802726
Si Si4 0.211126 0.986485 0.922781
Si Si5 0.243673 0.351772 0.111212
Si Si6 0.500000 0.000000 0.500000
Si Si7 0.631007 0.271565 0.357046
Si Si8 0.752903 0.904879 0.207312
O O1 0.845715 0.683224 0.448792
O O2 0.056817 0.863657 0.636618
O O3 0.459027 0.663201 0.431844
O O4 0.918551 0.709580 0.143839
O O5 0.496146 0.220781 0.487920
O O6 0.376680 0.165526 0.735088
O O7 0.897864 0.376134 0.891022
O O8 0.337596 0.294371 0.975089
O O9 0.439532 0.518156 0.774210
O O10 0.500000 0.500000 0.000000
O O11 0.531374 0.060610 0.826440
O O12 0.122773 0.975701 0.140861
O O13 0.000000 0.000000 0.000000
O O14 0.989772 0.335736 0.313601
O O15 0.692454 0.978341 0.417669
O O16 0.451003 0.191789 0.081985
#
# Coordination Sequence:
#
# PCOD9077761 Si02
#       8
#     2   2   2   2   2   1   2   2
#     4   9  19  37  60  87 120 157 204 250 299 360
#     4  11  23  39  60  88 122 159 203 248 298 361
#     4  10  20  37  61  87 120 163 203 249 303 353
#     4   9  18  32  57  89 114 148 193 240 297 355
#     4  10  21  37  57  85 124 160 201 253 299 353
#     4  10  18  34  64  92 118 152 198 250 302 360
#     4  10  22  39  61  88 118 163 207 247 300 356
#     4  10  21  39  62  87 119 159 201 248 303 357
#
# _framework density 26.071180999999999
#
# number of rings (size 3 to 8) (size 9 to 14) (size 15 to 20)
#    0.000    2.133    0.000    3.600    0.000    4.267 
#    0.000    4.667    0.000   48.000    0.000    0.000 
#    0.000    0.000    0.000    0.000    0.000    0.000 
#
# Total GULP energy -83501.676873 kJ/mol
# GULP energy per Si atom -5566.778458 kJ/mol
# Density = 2.601184 g / cm^3
# Si number density = 26.071181 Si / 1000 Ang^3
#
#
#
# Elastic Constant Matrix: (Units=GPa)
#
#
# Indices 1 2 3 4 5 6 
#
# 1 94.3279 36.3465 37.9107 -18.1036 -4.5006 -11.8935
# 2 36.3465 101.9125 34.4966 -22.7287 -14.1832 -15.4251
# 3 37.9107 34.4966 85.5666 -34.2779 6.9745 -0.7153
# 4 -18.1036 -22.7287 -34.2779 56.0034 16.1793 -9.0171
# 5 -4.5006 -14.1832 6.9745 16.1793 43.4298 2.3274
# 6 -11.8935 -15.4251 -0.7153 -9.0171 2.3274 49.9428
#
#
#
# Elastic Compliance Matrix: (Units=1/GPa)
#
#
# Indices 1 2 3 4 5 6 
#
# 1 0.014126 -0.002695 -0.005053 0.000467 0.001088 0.002493
# 2 -0.002695 0.013564 -0.003887 0.001696 0.003949 0.003614
# 3 -0.005053 -0.003887 0.021542 0.013022 -0.010143 0.000728
# 4 0.000467 0.001696 0.013022 0.031788 -0.013717 0.007200
# 5 0.001088 0.003949 -0.010143 -0.013717 0.031306 -0.002602
# 6 0.002493 0.003614 0.000728 0.007200 -0.002602 0.023164
#
#
# Mechanical properties :
#
#
# Convention : Reuss Voigt Hill
#
# Bulk Modulus (GPa) = 38.51643 55.47941 46.99792
# Shear Modulus (GPa) = 29.86610 41.41207 35.63908
#
# Velocity S-wave (km/s) = 3.38828 3.98983 3.70130
# Velocity P-wave (km/s) = 5.48752 6.52312 6.02761
#
# Compressibility (1/GPa) = 0.02596295
#
# Stress axis : x y z
#
# Youngs Moduli (GPa) = 70.78949 73.72534 46.42140
#
# Poissons Ratio (x) = 0.19867 0.23457
# Poissons Ratio (y) = 0.19076 0.18043
# Poissons Ratio (z) = 0.35770 0.28655
#
# Static dielectric constant tensor:
#      x y z
#    x 2.082300 0.083180 0.027340 
#    y 0.083180 2.481060 -0.091620 
#    z 0.027340 -0.091620 2.163380 
# 
# From -- ./inp_files/227896.got.cif
#   From: 2010.05.17/outbox.cif.g08.bks.cpg/sg2_114_cif.got.tgz:227896.got - 2010.06.03 11:33:40.
