data_PCOD9077109
_publ_section_title
;
Structure prediction by ZEFSAII (Michael W. Deem and Ramdas Pophale) SiO2 
 PCOD9077109
Probable space group: P -1
;
_chemical_formula_sum "Si O2"
_cell_formula_units_Z 14
_cell_length_a 7.820583
_cell_length_b 12.084520
_cell_length_c 14.402690
_cell_angle_alpha 129.784917
_cell_angle_beta 69.740303
_cell_angle_gamma 70.418659
_cell_volume 623.415191
_symmetry_space_group_name_H-M "P -1"
_symmetry_group_IT_number 2
_symmetry_cell_setting 'triclinic'
loop_
_space_group_symop_operation_xyz
x,y,z
-x,-y,-z
loop_
_atom_site_type_symbol
_atom_site_label
_atom_site_fract_x
_atom_site_fract_y
_atom_site_fract_z
Si Si1 0.261674 0.243631 0.290970
Si Si2 0.302049 0.936915 0.022311
Si Si3 0.295427 0.752221 0.634643
Si Si4 0.487927 0.961526 0.679782
Si Si5 0.921911 0.809387 0.371246
Si Si6 0.385494 0.295576 0.964827
Si Si7 0.032284 0.929817 0.586637
O O1 0.311795 0.132432 0.318042
O O2 0.000000 0.500000 0.500000
O O3 0.208003 0.160612 0.176318
O O4 0.528011 0.173431 0.164702
O O5 0.519692 0.775268 0.981148
O O6 0.001210 0.040377 0.141593
O O7 0.500000 0.500000 0.500000
O O8 0.426483 0.830687 0.634621
O O9 0.178459 0.777866 0.569019
O O10 0.653841 0.898021 0.520646
O O11 0.272096 0.222090 0.890382
O O12 0.846012 0.984861 0.410172
O O13 0.081142 0.797281 0.418820
O O14 0.135981 0.565423 0.154869
O O15 0.686813 0.158961 0.787058
#
# Coordination Sequence:
#
# PCOD9077109 Si02
#       7
#     2   2   2   2   2   2   2
#     4  10  18  34  56  79 109 149 197 245 286 334
#     4   9  20  34  54  81 111 152 199 237 282 345
#     4  11  23  40  57  84 128 165 194 240 295 354
#     4  10  22  34  54  87 120 154 195 234 291 361
#     4  10  19  39  66  87 112 150 198 252 295 337
#     4   9  18  36  59  87 116 147 196 252 294 341
#     4   9  21  39  63  90 112 149 203 244 291 355
#
# _framework density 22.456944
#
# number of rings (size 3 to 8) (size 9 to 14) (size 15 to 20)
#    0.000    2.286    0.000    3.000    0.000    4.571 
#    0.000    6.429    0.000    0.000    0.000    0.000 
#    0.000    0.000    0.000    0.000    0.000    0.000 
#
# Total GULP energy -78025.742959 kJ/mol
# GULP energy per Si atom -5573.267354 kJ/mol
# Density = 2.240583 g / cm^3
# Si number density = 22.456944 Si / 1000 Ang^3
#
#
#
# Elastic Constant Matrix: (Units=GPa)
#
#
# Indices 1 2 3 4 5 6 
#
# 1 92.3928 29.6353 23.2974 7.7295 2.3990 28.7367
# 2 29.6353 103.3196 38.5418 -11.2726 -8.0558 15.4140
# 3 23.2974 38.5418 119.6955 4.5147 12.2011 14.1718
# 4 7.7295 -11.2726 4.5147 27.7871 15.1672 -0.2187
# 5 2.3990 -8.0558 12.2011 15.1672 23.3066 -3.7805
# 6 28.7367 15.4140 14.1718 -0.2187 -3.7805 42.5373
#
#
#
# Elastic Compliance Matrix: (Units=1/GPa)
#
#
# Indices 1 2 3 4 5 6 
#
# 1 0.015337 -0.003477 -0.000556 -0.005433 -0.000411 -0.008981
# 2 -0.003477 0.013105 -0.004019 0.004928 0.003669 -0.000709
# 3 -0.000556 -0.004019 0.010844 0.001225 -0.008213 -0.002505
# 4 -0.005433 0.004928 0.001225 0.059771 -0.037528 -0.001551
# 5 -0.000411 0.003669 -0.008213 -0.037528 0.074250 0.008090
# 6 -0.008981 -0.000709 -0.002505 -0.001551 0.008090 0.031378
#
#
# Mechanical properties :
#
#
# Convention : Reuss Voigt Hill
#
# Bulk Modulus (GPa) = 43.13430 55.37298 49.25364
# Shear Modulus (GPa) = 21.88030 33.65510 27.76770
#
# Velocity S-wave (km/s) = 3.12480 3.87544 3.52019
# Velocity P-wave (km/s) = 5.68053 6.68852 6.20503
#
# Compressibility (1/GPa) = 0.02318340
#
# Stress axis : x y z
#
# Youngs Moduli (GPa) = 65.20148 76.30806 92.21494
#
# Poissons Ratio (x) = 0.26532 0.05123
# Poissons Ratio (y) = 0.22670 0.37060
# Poissons Ratio (z) = 0.03622 0.30667
#
# Static dielectric constant tensor:
#      x y z
#    x 2.355680 0.418850 0.610090 
#    y 0.418850 2.273410 0.610250 
#    z 0.610090 0.610250 2.769990 
# 
# From -- ./inp_files/135493.got.cif
#   From: 2010.05.17/outbox.cif.g08.bks.cpg/sg2_68_cif.got.tgz:135493.got - 2010.06.03 11:33:40.
