data_PCOD9077383
_publ_section_title
;
Structure prediction by ZEFSAII (Michael W. Deem and Ramdas Pophale) SiO2 
 PCOD9077383
Probable space group: P -1
;
_chemical_formula_sum "Si O2"
_cell_formula_units_Z 14
_cell_length_a 8.033148
_cell_length_b 9.116409
_cell_length_c 9.226107
_cell_angle_alpha 102.038622
_cell_angle_beta 66.756911
_cell_angle_gamma 71.924340
_cell_volume 546.164403
_symmetry_space_group_name_H-M "P -1"
_symmetry_group_IT_number 2
_symmetry_cell_setting 'triclinic'
loop_
_space_group_symop_operation_xyz
x,y,z
-x,-y,-z
loop_
_atom_site_type_symbol
_atom_site_label
_atom_site_fract_x
_atom_site_fract_y
_atom_site_fract_z
Si Si1 0.922393 0.782260 0.422595
Si Si2 0.654647 0.061976 0.740756
Si Si3 0.705451 0.974462 0.259005
Si Si4 0.970437 0.349273 0.060749
Si Si5 0.685506 0.327541 0.941905
Si Si6 0.610180 0.287662 0.530364
Si Si7 0.815651 0.495936 0.430767
O O1 0.746125 0.873896 0.379019
O O2 0.888442 0.633839 0.476921
O O3 0.121874 0.720029 0.242473
O O4 0.873919 0.922677 0.590973
O O5 0.499342 0.984662 0.749017
O O6 0.641190 0.166107 0.910680
O O7 0.591965 0.204158 0.667859
O O8 0.713764 0.142631 0.343937
O O9 0.871192 0.835253 0.074490
O O10 0.973909 0.379834 0.234744
O O11 0.761678 0.356000 0.076491
O O12 0.000000 0.500000 0.000000
O O13 0.500000 0.500000 0.000000
O O14 0.742080 0.387885 0.533954
O O15 0.390169 0.402274 0.569534
#
# Coordination Sequence:
#
# PCOD9077383 Si02
#       7
#     2   2   2   2   2   2   2
#     4  10  19  35  56  81 108 145 183 225 263 322
#     4  11  19  36  56  87 109 139 185 224 277 321
#     4  10  18  34  59  82 107 143 187 226 267 319
#     4  11  20  36  58  80 108 144 186 229 264 326
#     4  11  22  32  56  85 110 141 181 231 273 315
#     4  10  20  33  56  86 110 144 179 230 267 327
#     4  11  19  34  57  84 111 140 188 222 274 314
#
# _framework density 25.633309000000001
#
# number of rings (size 3 to 8) (size 9 to 14) (size 15 to 20)
#    0.000    1.429    5.714    3.000    0.000    0.571 
#    0.000    0.714    0.000    0.857    0.000    0.000 
#    0.000    0.000    0.000    0.000    0.000    0.000 
#
# Total GULP energy -78305.165524 kJ/mol
# GULP energy per Si atom -5593.226109 kJ/mol
# Density = 2.557497 g / cm^3
# Si number density = 25.633309 Si / 1000 Ang^3
#
#
#
# Elastic Constant Matrix: (Units=GPa)
#
#
# Indices 1 2 3 4 5 6 
#
# 1 96.9376 4.4207 3.2225 19.4968 3.6572 25.5632
# 2 4.4207 53.2482 8.1744 6.5765 6.7481 9.3414
# 3 3.2225 8.1744 88.1252 42.4530 8.4177 -4.3746
# 4 19.4968 6.5765 42.4530 47.2322 1.9064 3.0691
# 5 3.6572 6.7481 8.4177 1.9064 39.0716 12.9129
# 6 25.5632 9.3414 -4.3746 3.0691 12.9129 40.6214
#
#
#
# Elastic Compliance Matrix: (Units=1/GPa)
#
#
# Indices 1 2 3 4 5 6 
#
# 1 0.013923 0.000727 0.002588 -0.007673 0.001179 -0.008445
# 2 0.000727 0.020117 -0.001118 -0.001732 -0.001721 -0.004526
# 3 0.002588 -0.001118 0.022106 -0.020847 -0.005194 0.004235
# 4 -0.007673 -0.001732 -0.020847 0.043260 0.003903 -0.001527
# 5 0.001179 -0.001721 -0.005194 0.003903 0.030288 -0.010829
# 6 -0.008445 -0.004526 0.004235 -0.001527 -0.010829 0.034987
#
#
# Mechanical properties :
#
#
# Convention : Reuss Voigt Hill
#
# Bulk Modulus (GPa) = 16.51840 29.99404 23.25622
# Shear Modulus (GPa) = 27.70579 40.21794 33.96187
#
# Velocity S-wave (km/s) = 3.29120 3.96532 3.64388
# Velocity P-wave (km/s) = 4.57173 5.71766 5.17650
#
# Compressibility (1/GPa) = 0.06053854
#
# Stress axis : x y z
#
# Youngs Moduli (GPa) = 71.82581 49.70823 45.23691
#
# Poissons Ratio (x) = -0.03612 -0.11708
# Poissons Ratio (y) = -0.05219 0.05059
# Poissons Ratio (z) = -0.18590 0.05559
#
# Static dielectric constant tensor:
#      x y z
#    x 2.131620 -0.019300 -0.025200 
#    y -0.019300 2.054780 0.003390 
#    z -0.025200 0.003390 2.020330 
# 
# From -- ./inp_files/182322.got.cif
#   From: 2010.05.17/outbox.cif.g08.bks.cpg/sg2_92_cif.got.tgz:182322.got - 2010.06.03 11:33:40.
