data_PCOD9077262
_publ_section_title
;
Structure prediction by ZEFSAII (Michael W. Deem and Ramdas Pophale) SiO2 
 PCOD9077262
Probable space group: P -1
;
_chemical_formula_sum "Si O2"
_cell_formula_units_Z 16
_cell_length_a 12.158770
_cell_length_b 12.510942
_cell_length_c 9.495101
_cell_angle_alpha 128.022845
_cell_angle_beta 130.342224
_cell_angle_gamma 56.115149
_cell_volume 836.371432
_symmetry_space_group_name_H-M "P -1"
_symmetry_group_IT_number 2
_symmetry_cell_setting 'triclinic'
loop_
_space_group_symop_operation_xyz
x,y,z
-x,-y,-z
loop_
_atom_site_type_symbol
_atom_site_label
_atom_site_fract_x
_atom_site_fract_y
_atom_site_fract_z
Si Si1 0.049836 0.857544 0.513945
Si Si2 0.786254 0.333520 0.022987
Si Si3 0.856293 0.771706 0.840153
Si Si4 0.128419 0.930103 0.940991
Si Si5 0.635822 0.514898 0.811632
Si Si6 0.118384 0.352594 0.937016
Si Si7 0.830452 0.534499 0.444034
Si Si8 0.304466 0.614116 0.551306
O O1 0.046086 0.890026 0.703085
O O2 0.223260 0.772958 0.570785
O O3 0.957768 0.750908 0.295380
O O4 0.000000 0.000000 0.500000
O O5 0.770855 0.207852 0.010744
O O6 0.751642 0.475163 0.203519
O O7 0.961350 0.284532 0.077151
O O8 0.684071 0.376759 0.836883
O O9 0.789649 0.692888 0.597895
O O10 0.825229 0.719873 0.926234
O O11 0.803018 0.940234 0.930847
O O12 0.000000 0.000000 0.000000
O O13 0.462014 0.592007 0.741702
O O14 0.666498 0.471560 0.638782
O O15 0.749763 0.609590 0.010503
O O16 0.000000 0.500000 0.000000
O O17 0.805425 0.443234 0.484163
O O18 0.000000 0.500000 0.500000
#
# Coordination Sequence:
#
# PCOD9077262 Si02
#       8
#     2   2   2   2   2   2   2   2
#     4  12  23  39  65  93 122 164 215 264 309 376
#     4  10  20  35  58  87 120 163 206 251 314 371
#     4  10  18  34  57  91 121 153 203 267 307 351
#     4  10  22  36  55  91 128 158 198 267 318 362
#     4  11  24  38  64  93 129 169 204 263 319 376
#     4  12  20  36  66  94 120 157 226 262 301 368
#     4  10  20  35  62  90 120 157 211 270 306 358
#     4  11  23  42  60  94 130 162 210 261 324 372
#
# _framework density 19.130255999999999
#
# number of rings (size 3 to 8) (size 9 to 14) (size 15 to 20)
#    0.000    1.250    6.250    0.000    3.500    0.500 
#    0.000    0.625    0.000    0.750    0.000    0.000 
#    0.000    0.000    0.000    0.000    0.000    0.000 
#
# Total GULP energy -89184.363563 kJ/mol
# GULP energy per Si atom -5574.022723 kJ/mol
# Density = 1.908672 g / cm^3
# Si number density = 19.130256 Si / 1000 Ang^3
#
#
#
# Elastic Constant Matrix: (Units=GPa)
#
#
# Indices 1 2 3 4 5 6 
#
# 1 65.6359 46.7629 30.5204 -5.7638 -7.2408 10.1756
# 2 46.7629 133.6395 57.2070 -2.5629 15.8608 20.2332
# 3 30.5204 57.2070 95.2185 16.6224 -7.2598 4.5678
# 4 -5.7638 -2.5629 16.6224 34.3665 -4.0216 -4.3738
# 5 -7.2408 15.8608 -7.2598 -4.0216 26.0656 -5.4523
# 6 10.1756 20.2332 4.5678 -4.3738 -5.4523 27.6355
#
#
#
# Elastic Compliance Matrix: (Units=1/GPa)
#
#
# Indices 1 2 3 4 5 6 
#
# 1 0.024796 -0.009261 -0.002593 0.006478 0.013157 0.001700
# 2 -0.009261 0.018942 -0.009367 0.000528 -0.019268 -0.012628
# 3 -0.002593 -0.009367 0.018947 -0.008441 0.010070 0.005332
# 4 0.006478 0.000528 -0.008441 0.035669 0.005761 0.005405
# 5 0.013157 -0.019268 0.010070 0.005761 0.061767 0.020696
# 6 0.001700 -0.012628 0.005332 0.005405 0.020696 0.048862
#
#
# Mechanical properties :
#
#
# Convention : Reuss Voigt Hill
#
# Bulk Modulus (GPa) = 49.40330 62.60825 56.00578
# Shear Modulus (GPa) = 19.36679 28.28042 23.82361
#
# Velocity S-wave (km/s) = 3.18522 3.84905 3.53276
# Velocity P-wave (km/s) = 6.27760 7.24927 6.78086
#
# Compressibility (1/GPa) = 0.02024156
#
# Stress axis : x y z
#
# Youngs Moduli (GPa) = 40.32841 52.79224 52.77963
#
# Poissons Ratio (x) = 0.48892 0.13687
# Poissons Ratio (y) = 0.37349 0.49441
# Poissons Ratio (z) = 0.10458 0.49453
#
# Static dielectric constant tensor:
#      x y z
#    x 1.684880 0.003510 -0.020780 
#    y 0.003510 1.664030 0.007010 
#    z -0.020780 0.007010 1.727530 
# 
# From -- ./inp_files/260364.got.cif
#   From: 2010.05.17/outbox.cif.g08.bks.cpg/sg2_131_cif.got.tgz:260364.got - 2010.06.03 11:33:40.
