data_PCOD9077609
_publ_section_title
;
Structure prediction by ZEFSAII (Michael W. Deem and Ramdas Pophale) SiO2 
 PCOD9077609
Probable space group: P -1
;
_chemical_formula_sum "Si O2"
_cell_formula_units_Z 14
_cell_length_a 18.645501
_cell_length_b 7.409256
_cell_length_c 22.468723
_cell_angle_alpha 42.602691
_cell_angle_beta 163.814797
_cell_angle_gamma 132.727160
_cell_volume 579.018013
_symmetry_space_group_name_H-M "P -1"
_symmetry_group_IT_number 2
_symmetry_cell_setting 'triclinic'
loop_
_space_group_symop_operation_xyz
x,y,z
-x,-y,-z
loop_
_atom_site_type_symbol
_atom_site_label
_atom_site_fract_x
_atom_site_fract_y
_atom_site_fract_z
Si Si1 0.605096 0.525236 0.923955
Si Si2 0.124351 0.634229 0.423812
Si Si3 0.266676 0.864473 0.276226
Si Si4 0.799936 0.415993 0.313295
Si Si5 0.541544 0.757898 0.404355
Si Si6 0.093453 0.160869 0.425057
Si Si7 0.954583 0.999481 0.100936
O O1 0.380702 0.571427 0.684259
O O2 0.470522 0.525008 0.881614
O O3 0.789096 0.757927 0.009090
O O4 0.804245 0.246385 0.148182
O O5 0.167801 0.415105 0.458405
O O6 0.876435 0.569841 0.279399
O O7 0.036752 0.922193 0.252298
O O8 0.476341 0.887093 0.385990
O O9 0.304143 0.541817 0.392067
O O10 0.213174 0.986943 0.269923
O O11 0.000000 0.000000 0.000000
O O12 0.000000 0.500000 0.500000
O O13 0.870190 0.094896 0.440982
O O14 0.714360 0.903894 0.461764
O O15 0.263482 0.749075 0.151211
#
# Coordination Sequence:
#
# PCOD9077609 Si02
#       7
#     2   2   2   2   2   2   2
#     4  10  21  39  58  81 121 156 197 241 288 344
#     4  10  22  38  57  88 119 154 199 246 288 339
#     4   9  18  33  61  91 113 149 196 235 290 353
#     4  10  22  40  57  86 119 159 201 240 291 345
#     4  10  18  34  61  90 113 153 195 234 293 355
#     4  11  21  39  61  87 118 155 201 240 294 344
#     4  10  19  37  60  85 116 154 194 240 288 345
#
# _framework density 24.178868999999999
#
# number of rings (size 3 to 8) (size 9 to 14) (size 15 to 20)
#    0.000    2.000    4.286    0.429    0.000    4.571 
#    7.714    0.000    0.000   11.143    0.000    0.000 
#    0.000    0.000    0.000    0.000    0.000    0.000 
#
# Total GULP energy -78111.631439 kJ/mol
# GULP energy per Si atom -5579.402246 kJ/mol
# Density = 2.412384 g / cm^3
# Si number density = 24.178869 Si / 1000 Ang^3
#
#
#
# Elastic Constant Matrix: (Units=GPa)
#
#
# Indices 1 2 3 4 5 6 
#
# 1 162.2968 9.7405 70.8564 0.9093 4.5529 18.2406
# 2 9.7405 26.1539 31.3344 5.4477 7.2928 5.3570
# 3 70.8564 31.3344 167.3364 -1.4326 -5.5067 0.8627
# 4 0.9093 5.4477 -1.4326 35.9295 -11.4506 -0.0926
# 5 4.5529 7.2928 -5.5067 -11.4506 37.0055 -0.9612
# 6 18.2406 5.3570 0.8627 -0.0926 -0.9612 29.1974
#
#
#
# Elastic Compliance Matrix: (Units=1/GPa)
#
#
# Indices 1 2 3 4 5 6 
#
# 1 0.008809 0.005462 -0.004866 -0.002479 -0.003820 -0.006495
# 2 0.005462 0.069055 -0.016070 -0.018572 -0.022846 -0.016418
# 3 -0.004866 -0.016070 0.011300 0.005337 0.007252 0.005910
# 4 -0.002479 -0.018572 0.005337 0.036055 0.016057 0.005442
# 5 -0.003820 -0.022846 0.007252 0.016057 0.038242 0.007674
# 6 -0.006495 -0.016418 0.005910 0.005442 0.007674 0.041415
#
#
# Mechanical properties :
#
#
# Convention : Reuss Voigt Hill
#
# Bulk Modulus (GPa) = 17.17759 64.40551 40.79155
# Shear Modulus (GPa) = 19.59009 36.68355 28.13682
#
# Velocity S-wave (km/s) = 2.84952 3.89932 3.41500
# Velocity P-wave (km/s) = 4.23629 6.85331 5.69710
#
# Compressibility (1/GPa) = 0.05821538
#
# Stress axis : x y z
#
# Youngs Moduli (GPa) = 113.51450 14.48112 88.49904
#
# Poissons Ratio (x) = -0.07909 0.43067
# Poissons Ratio (y) = -0.61996 1.42215
# Poissons Ratio (z) = 0.55241 0.23271
#
# Static dielectric constant tensor:
#      x y z
#    x 1.956440 0.002460 -0.000020 
#    y 0.002460 1.922680 -0.008720 
#    z -0.000020 -0.008720 1.969910 
# 
# From -- ./inp_files/315314.got.cif
#   From: 2010.05.17/outbox.cif.g08.bks.cpg/sg2_158_cif.got.tgz:315314.got - 2010.06.03 11:33:40.
