data_PCOD9077470
_publ_section_title
;
Structure prediction by ZEFSAII (Michael W. Deem and Ramdas Pophale) SiO2 
 PCOD9077470
Probable space group: P -1
;
_chemical_formula_sum "Si O2"
_cell_formula_units_Z 16
_cell_length_a 12.174120
_cell_length_b 11.324263
_cell_length_c 9.337549
_cell_angle_alpha 108.977992
_cell_angle_beta 121.374805
_cell_angle_gamma 46.153524
_cell_volume 791.334446
_symmetry_space_group_name_H-M "P -1"
_symmetry_group_IT_number 2
_symmetry_cell_setting 'triclinic'
loop_
_space_group_symop_operation_xyz
x,y,z
-x,-y,-z
loop_
_atom_site_type_symbol
_atom_site_label
_atom_site_fract_x
_atom_site_fract_y
_atom_site_fract_z
Si Si1 0.985632 0.877911 0.523663
Si Si2 0.742311 0.207890 0.123317
Si Si3 0.563864 0.865986 0.329120
Si Si4 0.090852 0.160680 0.838955
Si Si5 0.905986 0.255060 0.024213
Si Si6 0.625043 0.632233 0.026893
Si Si7 0.611301 0.856077 0.901723
Si Si8 0.756963 0.944114 0.642966
O O1 0.956971 0.799728 0.344400
O O2 0.830626 0.970681 0.566061
O O3 0.154023 0.765600 0.689971
O O4 0.000000 0.000000 0.500000
O O5 0.816393 0.192049 0.010871
O O6 0.790130 0.036124 0.132898
O O7 0.543161 0.343222 0.054510
O O8 0.624575 0.733671 0.195494
O O9 0.710881 0.834500 0.510555
O O10 0.472446 0.043676 0.261577
O O11 0.414778 0.900887 0.337845
O O12 0.199365 0.210399 0.982420
O O13 0.933330 0.234905 0.865033
O O14 0.789398 0.444367 0.062113
O O15 0.091255 0.151510 0.178349
O O16 0.607600 0.717118 0.897905
O O17 0.500000 0.000000 0.000000
#
# Coordination Sequence:
#
# PCOD9077470 Si02
#       8
#     2   2   2   2   2   2   2   2
#     4   9  20  32  57  85 110 143 187 243 276 319
#     4  10  20  38  59  80 113 154 197 230 275 338
#     4  10  20  36  62  82 112 148 193 238 273 339
#     4  11  19  38  60  86 110 149 197 233 284 327
#     4  11  23  37  57  87 120 150 186 233 286 346
#     4  11  22  36  59  86 118 153 184 233 293 334
#     4  10  18  34  60  83 108 147 188 236 271 337
#     4  10  20  38  58  86 112 145 195 233 282 332
#
# _framework density 20.219010000000001
#
# number of rings (size 3 to 8) (size 9 to 14) (size 15 to 20)
#    0.000    1.750    3.750    2.250    1.750    3.000 
#    0.000    0.625    5.500    0.000    0.000    0.000 
#    0.000    0.000    0.000    0.000    0.000    0.000 
#
# Total GULP energy -89272.310600 kJ/mol
# GULP energy per Si atom -5579.519412 kJ/mol
# Density = 2.017299 g / cm^3
# Si number density = 20.219010 Si / 1000 Ang^3
#
#
#
# Elastic Constant Matrix: (Units=GPa)
#
#
# Indices 1 2 3 4 5 6 
#
# 1 113.5402 7.4958 15.9174 -4.5136 -12.3847 -4.1011
# 2 7.4958 54.6190 9.2402 0.7549 -1.5223 -5.2355
# 3 15.9174 9.2402 46.2016 7.7683 -10.3063 -1.8073
# 4 -4.5136 0.7549 7.7683 9.8194 -5.1378 -4.2992
# 5 -12.3847 -1.5223 -10.3063 -5.1378 36.5111 5.0112
# 6 -4.1011 -5.2355 -1.8073 -4.2992 5.0112 17.6875
#
#
#
# Elastic Compliance Matrix: (Units=1/GPa)
#
#
# Indices 1 2 3 4 5 6 
#
# 1 0.010461 -0.000359 -0.004636 0.011933 0.003384 0.003787
# 2 -0.000359 0.019659 -0.004462 0.004277 -0.000861 0.006563
# 3 -0.004636 -0.004462 0.029035 -0.025756 0.003739 -0.006749
# 4 0.011933 0.004277 -0.025756 0.149167 0.013295 0.033892
# 5 0.003384 -0.000861 0.003739 0.013295 0.032107 -0.004953
# 6 0.003787 0.006563 -0.006749 0.033892 -0.004953 0.068309
#
#
# Mechanical properties :
#
#
# Convention : Reuss Voigt Hill
#
# Bulk Modulus (GPa) = 24.85048 31.07414 27.96231
# Shear Modulus (GPa) = 14.65993 24.91743 19.78868
#
# Velocity S-wave (km/s) = 2.69561 3.51433 3.13184
# Velocity P-wave (km/s) = 4.69103 5.64531 5.19015
#
# Compressibility (1/GPa) = 0.04024068
#
# Stress axis : x y z
#
# Youngs Moduli (GPa) = 95.59016 50.86759 34.44178
#
# Poissons Ratio (x) = 0.01826 0.15966
# Poissons Ratio (y) = 0.03432 0.15369
# Poissons Ratio (z) = 0.44311 0.22699
#
# Static dielectric constant tensor:
#      x y z
#    x 1.769980 0.013890 -0.008070 
#    y 0.013890 1.697430 0.008380 
#    z -0.008070 0.008380 1.774100 
# 
# From -- ./inp_files/252492.got.cif
#   From: 2010.05.17/outbox.cif.g08.bks.cpg/sg2_127_cif.got.tgz:252492.got - 2010.06.03 11:33:40.
