data_PCOD9077556
_publ_section_title
;
Structure prediction by ZEFSAII (Michael W. Deem and Ramdas Pophale) SiO2 
 PCOD9077556
Probable space group: P -1
;
_chemical_formula_sum "Si O2"
_cell_formula_units_Z 15
_cell_length_a 9.347937
_cell_length_b 10.714967
_cell_length_c 14.481917
_cell_angle_alpha 148.998343
_cell_angle_beta 126.638912
_cell_angle_gamma 58.769578
_cell_volume 599.416869
_symmetry_space_group_name_H-M "P -1"
_symmetry_group_IT_number 2
_symmetry_cell_setting 'triclinic'
loop_
_space_group_symop_operation_xyz
x,y,z
-x,-y,-z
loop_
_atom_site_type_symbol
_atom_site_label
_atom_site_fract_x
_atom_site_fract_y
_atom_site_fract_z
Si Si1 0.330349 0.523103 0.885403
Si Si2 0.000000 0.000000 0.000000
Si Si3 0.848392 0.892210 0.547282
Si Si4 0.217412 0.320235 0.139474
Si Si5 0.827374 0.638561 0.560043
Si Si6 0.578731 0.785177 0.025449
Si Si7 0.262549 0.723132 0.566359
Si Si8 0.147333 0.612104 0.044304
O O1 0.248634 0.263808 0.666984
O O2 0.500000 0.500000 0.000000
O O3 0.392909 0.668664 0.912033
O O4 0.198910 0.676968 0.997418
O O5 0.135458 0.101563 0.028617
O O6 0.094001 0.190882 0.223966
O O7 0.762254 0.784266 0.539190
O O8 0.059993 0.833505 0.575803
O O9 0.819981 0.174631 0.734909
O O10 0.261756 0.547631 0.366336
O O11 0.372193 0.230280 0.072889
O O12 0.060892 0.415234 0.069507
O O13 0.701820 0.450646 0.442730
O O14 0.000000 0.500000 0.500000
O O15 0.603318 0.056083 0.244258
O O16 0.731886 0.619256 0.030348
#
# Coordination Sequence:
#
# PCOD9077556 Si02
#       8
#     2   1   2   2   2   2   2   2
#     4  10  25  43  58  85 127 168 203 246 307 365
#     4  10  18  34  60  94 122 144 198 258 298 350
#     4  11  20  38  65  90 118 163 210 246 297 372
#     4  11  20  36  64  93 117 157 202 254 299 354
#     4   9  18  32  58  89 120 152 198 246 300 351
#     4  11  24  40  57  91 128 155 201 256 307 355
#     4  10  21  35  61  92 123 154 199 253 304 356
#     4  11  22  39  64  89 118 162 207 246 305 361
#
# _framework density 25.024321
#
# number of rings (size 3 to 8) (size 9 to 14) (size 15 to 20)
#    0.000    1.600    4.000    1.200    0.000    5.867 
#    0.000    0.667    0.000    2.400    0.000    0.000 
#    0.000    0.000    0.000    0.000    0.000    0.000 
#
# Total GULP energy -83611.895082 kJ/mol
# GULP energy per Si atom -5574.126339 kJ/mol
# Density = 2.496736 g / cm^3
# Si number density = 25.024321 Si / 1000 Ang^3
#
#
#
# Elastic Constant Matrix: (Units=GPa)
#
#
# Indices 1 2 3 4 5 6 
#
# 1 96.9505 21.5662 40.6340 4.4402 -3.9732 33.7337
# 2 21.5662 55.6670 29.5467 14.2115 -1.3032 7.9107
# 3 40.6340 29.5467 169.7245 13.0662 1.7143 10.1075
# 4 4.4402 14.2115 13.0662 39.1527 4.3969 6.2775
# 5 -3.9732 -1.3032 1.7143 4.3969 33.2723 1.3440
# 6 33.7337 7.9107 10.1075 6.2775 1.3440 40.0728
#
#
#
# Elastic Compliance Matrix: (Units=1/GPa)
#
#
# Indices 1 2 3 4 5 6 
#
# 1 0.016903 -0.003694 -0.002811 0.002227 0.002258 -0.013216
# 2 -0.003694 0.022544 -0.002527 -0.007148 0.001502 0.000366
# 3 -0.002811 -0.002527 0.007029 -0.001243 -0.000685 0.001310
# 4 0.002227 -0.007148 -0.001243 0.029452 -0.003655 -0.004642
# 5 0.002258 0.001502 -0.000685 -0.003655 0.031002 -0.002492
# 6 -0.013216 0.000366 0.001310 -0.004642 -0.002492 0.036488
#
#
# Mechanical properties :
#
#
# Convention : Reuss Voigt Hill
#
# Bulk Modulus (GPa) = 35.19543 56.20399 45.69971
# Shear Modulus (GPa) = 29.24743 37.87257 33.56000
#
# Velocity S-wave (km/s) = 3.42242 3.89450 3.66607
# Velocity P-wave (km/s) = 5.45090 6.53692 6.01846
#
# Compressibility (1/GPa) = 0.02841278
#
# Stress axis : x y z
#
# Youngs Moduli (GPa) = 59.15968 44.35688 142.25995
#
# Poissons Ratio (x) = 0.16387 0.39989
# Poissons Ratio (y) = 0.21856 0.35947
# Poissons Ratio (z) = 0.16630 0.11208
#
# Static dielectric constant tensor:
#      x y z
#    x 1.962880 0.075390 0.009490 
#    y 0.075390 2.169080 0.035400 
#    z 0.009490 0.035400 1.893760 
# 
# From -- ./inp_files/307022.got.cif
#   From: 2010.05.17/outbox.cif.g08.bks.cpg/sg2_154_cif.got.tgz:307022.got - 2010.06.03 11:33:40.
