data_PCOD9077797
_publ_section_title
;
Structure prediction by ZEFSAII (Michael W. Deem and Ramdas Pophale) SiO2 
 PCOD9077797
Probable space group: P -1
;
_chemical_formula_sum "Si O2"
_cell_formula_units_Z 15
_cell_length_a 14.350463
_cell_length_b 7.326442
_cell_length_c 5.452748
_cell_angle_alpha 96.172690
_cell_angle_beta 108.197544
_cell_angle_gamma 108.071233
_cell_volume 504.317544
_symmetry_space_group_name_H-M "P -1"
_symmetry_group_IT_number 2
_symmetry_cell_setting 'triclinic'
loop_
_space_group_symop_operation_xyz
x,y,z
-x,-y,-z
loop_
_atom_site_type_symbol
_atom_site_label
_atom_site_fract_x
_atom_site_fract_y
_atom_site_fract_z
Si Si1 0.861928 0.448826 0.022058
Si Si2 0.892540 0.666620 0.577477
Si Si3 0.710239 0.021180 0.332305
Si Si4 0.717209 0.748191 0.678239
Si Si5 0.889388 0.058943 0.161421
Si Si6 0.500000 0.000000 0.500000
Si Si7 0.358517 0.679578 0.959656
Si Si8 0.535852 0.680184 0.826373
O O1 0.911680 0.578747 0.322476
O O2 0.872098 0.237540 0.026880
O O3 0.739515 0.419480 0.954811
O O4 0.900104 0.539457 0.801607
O O5 0.774805 0.670162 0.502646
O O6 0.986355 0.878740 0.709817
O O7 0.829914 0.058019 0.366884
O O8 0.692099 0.218527 0.273833
O O9 0.688413 0.933426 0.573310
O O10 0.629627 0.844970 0.081481
O O11 0.609437 0.609737 0.693353
O O12 0.817876 0.853193 0.952565
O O13 0.489893 0.806982 0.631295
O O14 0.442390 0.856559 0.201048
O O15 0.431393 0.569084 0.889292
#
# Coordination Sequence:
#
# PCOD9077797 Si02
#       8
#     2   2   2   2   2   1   2   2
#     4  11  28  46  71 101 143 182 233 279 351 417
#     4  12  28  48  68 102 145 188 221 290 351 415
#     4   9  20  36  64 103 130 165 225 291 336 395
#     4  11  24  41  70 101 140 175 237 283 345 409
#     4  10  24  44  75  99 130 182 241 288 336 405
#     4  10  18  34  66  98 126 168 232 298 324 392
#     4  10  21  38  66 100 134 174 234 287 338 399
#     4  10  19  34  61  97 130 170 219 286 340 390
#
# _framework density 29.743167
#
# number of rings (size 3 to 8) (size 9 to 14) (size 15 to 20)
#    0.000    1.600    0.000    5.200   11.200    0.533 
#    0.000    1.333    0.000    0.000    0.000    0.000 
#    0.000    0.000    0.000    0.000    0.000    0.000 
#
# Total GULP energy -83881.625770 kJ/mol
# GULP energy per Si atom -5592.108385 kJ/mol
# Density = 2.967547 g / cm^3
# Si number density = 29.743167 Si / 1000 Ang^3
#
#
#
# Elastic Constant Matrix: (Units=GPa)
#
#
# Indices 1 2 3 4 5 6 
#
# 1 195.9321 34.3442 35.5190 -2.3553 1.0177 43.9410
# 2 34.3442 119.9590 37.3713 5.1571 4.3892 19.8281
# 3 35.5190 37.3713 120.7559 2.5592 -5.1803 8.9557
# 4 -2.3553 5.1571 2.5592 46.6354 5.9637 -4.6882
# 5 1.0177 4.3892 -5.1803 5.9637 42.0344 -4.3015
# 6 43.9410 19.8281 8.9557 -4.6882 -4.3015 51.4946
#
#
#
# Elastic Compliance Matrix: (Units=1/GPa)
#
#
# Indices 1 2 3 4 5 6 
#
# 1 0.006648 -0.000559 -0.001428 0.000051 -0.000826 -0.005274
# 2 -0.000559 0.009964 -0.002731 -0.001098 -0.001526 -0.003112
# 3 -0.001428 -0.002731 0.009573 -0.000434 0.001633 0.000702
# 4 0.000051 -0.001098 -0.000434 0.022181 -0.002858 0.002235
# 5 -0.000826 -0.001526 0.001633 -0.002858 0.024865 0.002825
# 6 -0.005274 -0.003112 0.000702 0.002235 0.002825 0.025436
#
#
# Mechanical properties :
#
#
# Convention : Reuss Voigt Hill
#
# Bulk Modulus (GPa) = 59.69764 72.34623 66.02194
# Shear Modulus (GPa) = 43.98051 49.99373 46.98712
#
# Velocity S-wave (km/s) = 3.84953 4.10426 3.97893
# Velocity P-wave (km/s) = 6.31451 6.84371 6.58443
#
# Compressibility (1/GPa) = 0.01675108
#
# Stress axis : x y z
#
# Youngs Moduli (GPa) = 150.41499 100.35716 104.45516
#
# Poissons Ratio (x) = 0.05608 0.14916
# Poissons Ratio (y) = 0.08406 0.28524
# Poissons Ratio (z) = 0.21479 0.27405
#
# Static dielectric constant tensor:
#      x y z
#    x 2.591280 -0.010240 0.025500 
#    y -0.010240 2.251630 -0.036140 
#    z 0.025500 -0.036140 2.379090 
# 
# From -- ./inp_files/88989.got.cif
#   From: 2010.05.17/outbox.cif.g08.bks.cpg/sg2_45_cif.got.tgz:88989.got - 2010.06.03 11:33:40.
