data_PCOD9077267
_publ_section_title
;
Structure prediction by ZEFSAII (Michael W. Deem and Ramdas Pophale) SiO2 
 PCOD9077267
Probable space group: P -1
;
_chemical_formula_sum "Si O2"
_cell_formula_units_Z 12
_cell_length_a 11.278251
_cell_length_b 8.508790
_cell_length_c 11.931826
_cell_angle_alpha 82.865526
_cell_angle_beta 138.788387
_cell_angle_gamma 65.219367
_cell_volume 464.607238
_symmetry_space_group_name_H-M "P -1"
_symmetry_group_IT_number 2
_symmetry_cell_setting 'triclinic'
loop_
_space_group_symop_operation_xyz
x,y,z
-x,-y,-z
loop_
_atom_site_type_symbol
_atom_site_label
_atom_site_fract_x
_atom_site_fract_y
_atom_site_fract_z
Si Si1 0.598432 0.888171 0.413048
Si Si2 0.582361 0.672139 0.968895
Si Si3 0.971695 0.179174 0.896871
Si Si4 0.993554 0.777568 0.525425
Si Si5 0.692908 0.623112 0.789228
Si Si6 0.015220 0.650532 0.311397
O O1 0.755140 0.834461 0.415542
O O2 0.780360 0.607381 0.594300
O O3 0.274173 0.059851 0.146403
O O4 0.564692 0.072188 0.445374
O O5 0.746792 0.426792 0.181961
O O6 0.725422 0.742172 0.103151
O O7 0.662494 0.598900 0.900858
O O8 0.232422 0.926262 0.700120
O O9 0.707671 0.456282 0.741346
O O10 0.975049 0.191964 0.763988
O O11 0.000000 0.000000 0.000000
O O12 0.109020 0.623470 0.505978
O O13 0.000000 0.500000 0.000000
#
# Coordination Sequence:
#
# PCOD9077267 Si02
#       6
#     2   2   2   2   2   2
#     4   9  19  35  58  85 110 148 191 248 286 337
#     4  10  18  34  57  92 115 148 187 253 300 336
#     4  11  23  38  55  82 121 159 193 232 293 358
#     4  10  20  32  61  97 117 140 194 258 302 334
#     4   9  17  37  55  84 114 151 197 241 287 344
#     4  11  20  33  59  89 118 145 193 247 296 340
#
# _framework density 25.828267
#
# number of rings (size 3 to 8) (size 9 to 14) (size 15 to 20)
#    0.000    2.000    5.000    2.500    2.333    1.333 
#    9.000    0.000    0.000    5.000    0.000    1.167 
#    0.000    0.000    0.000    0.000    0.000    0.000 
#
# Total GULP energy -66906.428384 kJ/mol
# GULP energy per Si atom -5575.535699 kJ/mol
# Density = 2.576948 g / cm^3
# Si number density = 25.828267 Si / 1000 Ang^3
#
#
#
# Elastic Constant Matrix: (Units=GPa)
#
#
# Indices 1 2 3 4 5 6 
#
# 1 104.2061 62.2917 58.7816 -3.8509 -28.2210 3.3997
# 2 62.2917 56.0948 38.1138 -39.2091 -13.3798 -37.2789
# 3 58.7816 38.1138 151.1373 -25.1752 -13.8625 -0.8404
# 4 -3.8509 -39.2091 -25.1752 43.8988 4.9763 -11.4031
# 5 -28.2210 -13.3798 -13.8625 4.9763 58.8527 -3.0263
# 6 3.3997 -37.2789 -0.8404 -11.4031 -3.0263 19.1335
#
#
#
# Elastic Compliance Matrix: (Units=1/GPa)
#
#
# Indices 1 2 3 4 5 6 
#
# 1 0.009803 0.005036 -0.003558 0.005918 0.005137 0.012253
# 2 0.005036 -0.005595 -0.002382 -0.010711 0.000552 -0.018197
# 3 -0.003558 -0.002382 0.008891 0.002072 -0.000455 -0.002456
# 4 0.005918 -0.010711 0.002072 0.011015 -0.000832 -0.015397
# 5 0.005137 0.000552 -0.000455 -0.000832 0.019686 0.002759
# 6 0.012253 -0.018197 -0.002456 -0.015397 0.002759 0.005785
#
#
# Mechanical properties :
#
#
# Convention : Reuss Voigt Hill
#
# Bulk Modulus (GPa) = 88.57114 69.97918 79.27516
# Shear Modulus (GPa) = 90.65224 34.52708 62.58966
#
# Velocity S-wave (km/s) = 5.93079 3.66019 4.92804
# Velocity P-wave (km/s) = 9.01475 6.70936 7.94611
#
# Compressibility (1/GPa) = 0.01129036
#
# Stress axis : x y z
#
# Youngs Moduli (GPa) = 102.00808 -178.72427 112.47662
#
# Poissons Ratio (x) = 0.90001 0.40014
# Poissons Ratio (y) = -0.51369 0.26796
# Poissons Ratio (z) = 0.36290 -0.42578
#
# Static dielectric constant tensor:
#      x y z
#    x 2.006240 0.082040 -0.056150 
#    y 0.082040 2.127930 -0.093350 
#    z -0.056150 -0.093350 2.137350 
# 
# From -- ./inp_files/47910.got.cif
#   From: 2010.05.17/outbox.cif.g08.bks.cpg/sg2_24_cif.got.tgz:47910.got - 2010.06.03 11:33:40.
