data_PCOD9077655
_publ_section_title
;
Structure prediction by ZEFSAII (Michael W. Deem and Ramdas Pophale) SiO2 
 PCOD9077655
Probable space group: P -1
;
_chemical_formula_sum "Si O2"
_cell_formula_units_Z 16
_cell_length_a 9.660626
_cell_length_b 8.062972
_cell_length_c 10.849990
_cell_angle_alpha 85.997364
_cell_angle_beta 107.663382
_cell_angle_gamma 48.914569
_cell_volume 562.723274
_symmetry_space_group_name_H-M "P -1"
_symmetry_group_IT_number 2
_symmetry_cell_setting 'triclinic'
loop_
_space_group_symop_operation_xyz
x,y,z
-x,-y,-z
loop_
_atom_site_type_symbol
_atom_site_label
_atom_site_fract_x
_atom_site_fract_y
_atom_site_fract_z
Si Si1 0.946695 0.358379 0.011096
Si Si2 0.557859 0.862418 0.152844
Si Si3 0.006585 0.683232 0.691431
Si Si4 0.474526 0.595732 0.351062
Si Si5 0.976872 0.061316 0.695816
Si Si6 0.192276 0.933855 0.983366
Si Si7 0.236241 0.427647 0.436439
Si Si8 0.538383 0.717020 0.759522
O O1 0.705119 0.521387 0.919214
O O2 0.065591 0.205975 0.927465
O O3 0.033944 0.253546 0.175933
O O4 0.000000 0.500000 0.000000
O O5 0.778028 0.592437 0.228641
O O6 0.544440 0.036563 0.229318
O O7 0.500000 0.000000 0.000000
O O8 0.396561 0.831542 0.113307
O O9 0.859489 0.676951 0.579601
O O10 0.983460 0.889777 0.624260
O O11 0.500000 0.500000 0.500000
O O12 0.225329 0.799374 0.276058
O O13 0.599359 0.664338 0.405750
O O14 0.565382 0.375995 0.299814
O O15 0.929627 0.283242 0.617658
O O16 0.187924 0.879085 0.845527
O O17 0.000000 0.000000 0.000000
O O18 0.345136 0.339807 0.335706
#
# Coordination Sequence:
#
# PCOD9077655 Si02
#       8
#     2   2   2   2   2   2   2   2
#     4  12  17  34  59  85 115 161 208 251 307 371
#     4  12  24  37  58  93 135 174 204 243 321 399
#     4  12  23  35  59  90 126 167 199 254 322 382
#     4   8  18  36  64  91 112 158 220 275 302 353
#     4  10  20  35  59  90 122 152 211 263 314 360
#     4  12  22  36  58  90 128 161 205 263 311 369
#     4  10  20  41  66  88 117 162 222 271 306 359
#     4  10  18  34  62  86 119 160 213 254 305 370
#
# _framework density 28.433160000000001
#
# number of rings (size 3 to 8) (size 9 to 14) (size 15 to 20)
#    0.000    1.500    7.500    0.750    0.000    1.000 
#    0.000    0.625    0.000    6.750    0.000    0.000 
#    0.000    0.000    0.000    0.000    0.000    0.000 
#
# Total GULP energy -89135.736037 kJ/mol
# GULP energy per Si atom -5570.983502 kJ/mol
# Density = 2.836844 g / cm^3
# Si number density = 28.433160 Si / 1000 Ang^3
#
#
#
# Elastic Constant Matrix: (Units=GPa)
#
#
# Indices 1 2 3 4 5 6 
#
# 1 82.4009 34.0480 24.0593 29.0758 26.5660 6.0347
# 2 34.0480 171.5141 48.1720 47.8384 14.9931 24.7418
# 3 24.0593 48.1720 183.3156 32.7037 44.4200 -2.0854
# 4 29.0758 47.8384 32.7037 57.9924 4.5320 15.2180
# 5 26.5660 14.9931 44.4200 4.5320 61.4497 15.2804
# 6 6.0347 24.7418 -2.0854 15.2180 15.2804 41.2980
#
#
#
# Elastic Compliance Matrix: (Units=1/GPa)
#
#
# Indices 1 2 3 4 5 6 
#
# 1 0.018360 -0.001429 0.002187 -0.009958 -0.009824 0.005588
# 2 -0.001429 0.008156 -0.001416 -0.004374 0.000830 -0.003444
# 3 0.002187 -0.001416 0.008514 -0.005678 -0.007813 0.005942
# 4 -0.009958 -0.004374 -0.005678 0.031266 0.010016 -0.011438
# 5 -0.009824 0.000830 -0.007813 0.010016 0.028646 -0.013746
# 6 0.005588 -0.003444 0.005942 -0.011438 -0.013746 0.035062
#
#
# Mechanical properties :
#
#
# Convention : Reuss Voigt Hill
#
# Bulk Modulus (GPa) = 29.66098 72.19879 50.92989
# Shear Modulus (GPa) = 35.07377 54.21144 44.64261
#
# Velocity S-wave (km/s) = 3.51601 4.37123 3.96673
# Velocity P-wave (km/s) = 5.19014 7.13614 6.23947
#
# Compressibility (1/GPa) = 0.03371433
#
# Stress axis : x y z
#
# Youngs Moduli (GPa) = 54.46730 122.60880 117.45392
#
# Poissons Ratio (x) = 0.17515 -0.25681
# Poissons Ratio (y) = 0.07781 0.16627
# Poissons Ratio (z) = -0.11909 0.17357
#
# Static dielectric constant tensor:
#      x y z
#    x 2.394530 -0.016810 0.017130 
#    y -0.016810 2.079450 -0.207710 
#    z 0.017130 -0.207710 2.293880 
# 
# From -- ./inp_files/514523.got.cif
#   From: 2010.05.17/outbox.cif.g08.bks.cpg/sg2_258_cif.got.tgz:514523.got - 2010.06.03 11:33:40.
