data_PCOD9077668
_publ_section_title
;
Structure prediction by ZEFSAII (Michael W. Deem and Ramdas Pophale) SiO2 
 PCOD9077668
Probable space group: P -1
;
_chemical_formula_sum "Si O2"
_cell_formula_units_Z 12
_cell_length_a 8.335467
_cell_length_b 7.802458
_cell_length_c 7.690613
_cell_angle_alpha 77.599003
_cell_angle_beta 74.821220
_cell_angle_gamma 94.908497
_cell_volume 466.098491
_symmetry_space_group_name_H-M "P -1"
_symmetry_group_IT_number 2
_symmetry_cell_setting 'triclinic'
loop_
_space_group_symop_operation_xyz
x,y,z
-x,-y,-z
loop_
_atom_site_type_symbol
_atom_site_label
_atom_site_fract_x
_atom_site_fract_y
_atom_site_fract_z
Si Si1 0.031548 0.103417 0.787825
Si Si2 0.844428 0.513106 0.170923
Si Si3 0.680831 0.658720 0.726992
Si Si4 0.612296 0.881782 0.393511
Si Si5 0.465456 0.314991 0.890426
Si Si6 0.945796 0.304234 0.471316
O O1 0.099940 0.302692 0.785958
O O2 0.192228 0.030304 0.679282
O O3 0.905828 0.148258 0.660280
O O4 0.000000 0.000000 0.000000
O O5 0.671380 0.549469 0.128217
O O6 0.820371 0.350476 0.348058
O O7 0.000000 0.500000 0.000000
O O8 0.615718 0.706777 0.547312
O O9 0.641056 0.444970 0.801933
O O10 0.879449 0.725657 0.664925
O O11 0.584767 0.748817 0.887349
O O12 0.557560 0.827772 0.224520
O O13 0.500000 0.000000 0.500000
O O14 0.000000 0.500000 0.500000
#
# Coordination Sequence:
#
# PCOD9077668 Si02
#       6
#     2   2   2   2   2   2
#     4   9  20  38  58  85 123 157 198 252 304 361
#     4  10  18  34  62  89 120 149 203 250 307 359
#     4  10  20  38  63  90 123 152 206 258 302 360
#     4  10  22  39  60  84 128 163 199 250 308 362
#     4  10  21  37  64  93 119 157 204 256 304 360
#     4   9  18  35  60  88 119 157 195 255 304 362
#
# _framework density 25.745629999999998
#
# number of rings (size 3 to 8) (size 9 to 14) (size 15 to 20)
#    0.000    2.333    1.667    1.500    0.000    2.000 
#    3.000    0.833    7.333    0.000    0.000    0.000 
#    0.000    0.000    0.000    0.000    0.000    0.000 
#
# Total GULP energy -67028.205989 kJ/mol
# GULP energy per Si atom -5585.683832 kJ/mol
# Density = 2.568703 g / cm^3
# Si number density = 25.745630 Si / 1000 Ang^3
#
#
#
# Elastic Constant Matrix: (Units=GPa)
#
#
# Indices 1 2 3 4 5 6 
#
# 1 55.9544 10.0676 14.9813 -5.1362 -0.3791 -14.7853
# 2 10.0676 103.3618 36.2757 9.8128 1.8360 -15.0716
# 3 14.9813 36.2757 160.8414 -11.8716 6.6150 -17.4120
# 4 -5.1362 9.8128 -11.8716 53.2983 -6.6747 -2.3213
# 5 -0.3791 1.8360 6.6150 -6.6747 36.4414 10.1054
# 6 -14.7853 -15.0716 -17.4120 -2.3213 10.1054 27.2361
#
#
#
# Elastic Compliance Matrix: (Units=1/GPa)
#
#
# Indices 1 2 3 4 5 6 
#
# 1 0.021509 -0.000333 -0.000291 0.002268 -0.002764 0.012525
# 2 -0.000333 0.011525 -0.002083 -0.002657 -0.002206 0.005458
# 3 -0.000291 -0.002083 0.007417 0.001935 -0.002104 0.004377
# 4 0.002268 -0.002657 0.001935 0.020358 0.003096 0.001585
# 5 -0.002764 -0.002206 -0.002104 0.003096 0.032913 -0.016014
# 6 0.012525 0.005458 0.004377 0.001585 -0.016014 0.055410
#
#
# Mechanical properties :
#
#
# Convention : Reuss Voigt Hill
#
# Bulk Modulus (GPa) = 28.54111 49.20076 38.87093
# Shear Modulus (GPa) = 30.07970 40.65070 35.36520
#
# Velocity S-wave (km/s) = 3.42181 3.97789 3.71028
# Velocity P-wave (km/s) = 5.16929 6.34429 5.78669
#
# Compressibility (1/GPa) = 0.03503718
#
# Stress axis : x y z
#
# Youngs Moduli (GPa) = 46.49324 86.76509 134.81935
#
# Poissons Ratio (x) = 0.02887 0.03928
# Poissons Ratio (y) = 0.01547 0.28082
# Poissons Ratio (z) = 0.01355 0.18073
#
# Static dielectric constant tensor:
#      x y z
#    x 2.151760 -0.015990 0.011440 
#    y -0.015990 2.030580 0.023640 
#    z 0.011440 0.023640 2.250940 
# 
# From -- ./inp_files/157168.got.cif
#   From: 2010.05.17/outbox.cif.g08.bks.cpg/sg2_79_cif.got.tgz:157168.got - 2010.06.03 11:33:40.
