data_PCOD9077462
_publ_section_title
;
Structure prediction by ZEFSAII (Michael W. Deem and Ramdas Pophale) SiO2 
 PCOD9077462
Probable space group: P -1
;
_chemical_formula_sum "Si O2"
_cell_formula_units_Z 13
_cell_length_a 18.161895
_cell_length_b 8.947231
_cell_length_c 22.106390
_cell_angle_alpha 147.460819
_cell_angle_beta 15.044032
_cell_angle_gamma 143.958660
_cell_volume 501.127197
_symmetry_space_group_name_H-M "P -1"
_symmetry_group_IT_number 2
_symmetry_cell_setting 'triclinic'
loop_
_space_group_symop_operation_xyz
x,y,z
-x,-y,-z
loop_
_atom_site_type_symbol
_atom_site_label
_atom_site_fract_x
_atom_site_fract_y
_atom_site_fract_z
Si Si1 0.500000 0.500000 0.000000
Si Si2 0.298498 0.824889 0.453185
Si Si3 0.828717 0.219838 0.325129
Si Si4 0.185052 0.759351 0.834476
Si Si5 0.329734 0.649350 0.054515
Si Si6 0.085050 0.909147 0.521684
Si Si7 0.539941 0.597280 0.602972
O O1 0.465676 0.663853 0.017491
O O2 0.182988 0.625836 0.315425
O O3 0.177102 0.864951 0.629753
O O4 0.550236 0.042237 0.319281
O O5 0.093179 0.879853 0.577635
O O6 0.449500 0.520234 0.221347
O O7 0.550740 0.388343 0.578950
O O8 0.076920 0.436228 0.194101
O O9 0.911927 0.960177 0.127353
O O10 0.262255 0.618760 0.789664
O O11 0.212883 0.531448 0.682463
O O12 0.184220 0.924685 0.235345
O O13 0.361965 0.098764 0.353835
#
# Coordination Sequence:
#
# PCOD9077462 Si02
#       7
#     1   2   2   2   2   2   2
#     4  10  18  34  60  78  92 132 178 210 258 310
#     4   9  19  33  52  80 106 134 172 204 245 304
#     4  10  19  33  54  77 105 139 168 205 253 298
#     4   9  18  34  51  74 109 139 169 208 243 294
#     4   9  19  35  54  76 105 133 165 212 257 302
#     4   9  18  34  54  75 103 135 168 212 259 301
#     4   9  18  33  52  75 105 139 171 206 252 299
#
# _framework density 25.941517999999999
#
# number of rings (size 3 to 8) (size 9 to 14) (size 15 to 20)
#    0.000    2.769    0.000    1.846    0.000    1.846 
#    0.000   10.000    0.000   16.615    0.000    0.000 
#    0.000    0.000    0.000    0.000    0.000    0.000 
#
# Total GULP energy -72511.989959 kJ/mol
# GULP energy per Si atom -5577.845381 kJ/mol
# Density = 2.588247 g / cm^3
# Si number density = 25.941518 Si / 1000 Ang^3
#
#
#
# Elastic Constant Matrix: (Units=GPa)
#
#
# Indices 1 2 3 4 5 6 
#
# 1 111.7958 10.2161 49.8922 9.1937 -9.7543 -24.3001
# 2 10.2161 77.6388 41.8489 -7.6915 -7.9591 -5.3325
# 3 49.8922 41.8489 72.8320 11.1261 -18.8137 -22.0148
# 4 9.1937 -7.6915 11.1261 33.1120 -11.7177 -8.9664
# 5 -9.7543 -7.9591 -18.8137 -11.7177 44.6339 13.6407
# 6 -24.3001 -5.3325 -22.0148 -8.9664 13.6407 31.6491
#
#
#
# Elastic Compliance Matrix: (Units=1/GPa)
#
#
# Indices 1 2 3 4 5 6 
#
# 1 0.014712 0.004959 -0.012223 0.001790 -0.002127 0.005053
# 2 0.004959 0.023338 -0.019040 0.009885 0.000739 -0.003022
# 3 -0.012223 -0.019040 0.038623 -0.009761 0.004761 0.009455
# 4 0.001790 0.009885 -0.009761 0.038895 0.006943 0.004276
# 5 -0.002127 0.000739 0.004761 0.006943 0.028503 -0.008515
# 6 0.005053 -0.003022 0.009455 0.004276 -0.008515 0.046425
#
#
# Mechanical properties :
#
#
# Convention : Reuss Voigt Hill
#
# Bulk Modulus (GPa) = 41.55412 51.79789 46.67601
# Shear Modulus (GPa) = 19.91036 32.56629 26.23833
#
# Velocity S-wave (km/s) = 2.77340 3.54697 3.18377
# Velocity P-wave (km/s) = 5.12921 6.06508 5.61667
#
# Compressibility (1/GPa) = 0.02406500
#
# Stress axis : x y z
#
# Youngs Moduli (GPa) = 67.97028 42.84903 25.89150
#
# Poissons Ratio (x) = -0.21249 0.31648
# Poissons Ratio (y) = -0.33707 0.49296
# Poissons Ratio (z) = 0.83082 0.81583
#
# Static dielectric constant tensor:
#      x y z
#    x 2.046940 -0.003660 -0.035000 
#    y -0.003660 2.147560 0.007300 
#    z -0.035000 0.007300 2.018540 
# 
# From -- ./inp_files/32282.got.cif
#   From: 2010.05.17/outbox.cif.g08.bks.cpg/sg2_17_cif.got.tgz:32282.got - 2010.06.03 11:33:40.
