data_PCOD9077958
_publ_section_title
;
Structure prediction by ZEFSAII (Michael W. Deem and Ramdas Pophale) SiO2 
 PCOD9077958
Probable space group: P -1
;
_chemical_formula_sum "Si O2"
_cell_formula_units_Z 16
_cell_length_a 15.721457
_cell_length_b 10.001567
_cell_length_c 11.800295
_cell_angle_alpha 136.378813
_cell_angle_beta 48.012619
_cell_angle_gamma 142.046348
_cell_volume 765.915858
_symmetry_space_group_name_H-M "P -1"
_symmetry_group_IT_number 2
_symmetry_cell_setting 'triclinic'
loop_
_space_group_symop_operation_xyz
x,y,z
-x,-y,-z
loop_
_atom_site_type_symbol
_atom_site_label
_atom_site_fract_x
_atom_site_fract_y
_atom_site_fract_z
Si Si1 0.640437 0.818164 0.692554
Si Si2 0.160859 0.140641 0.268895
Si Si3 0.909580 0.595293 0.171947
Si Si4 0.098044 0.207101 0.130152
Si Si5 0.316594 0.378251 0.698381
Si Si6 0.812412 0.112430 0.384049
Si Si7 0.126902 0.535222 0.635739
Si Si8 0.799105 0.317363 0.755477
O O1 0.712644 0.821192 0.746341
O O2 0.472535 0.618781 0.721806
O O3 0.693694 0.738626 0.488771
O O4 0.689969 0.087153 0.787522
O O5 0.165579 0.142883 0.128747
O O6 0.147762 0.351449 0.443780
O O7 0.020386 0.880628 0.270949
O O8 0.800852 0.571568 0.163767
O O9 0.825326 0.449175 0.269277
O O10 0.000000 0.500000 0.000000
O O11 0.204010 0.455858 0.122135
O O12 0.978771 0.220536 0.307179
O O13 0.000000 0.000000 0.000000
O O14 0.278250 0.172518 0.695589
O O15 0.795102 0.217125 0.349841
O O16 0.780497 0.212765 0.581595
O O17 0.958971 0.421206 0.717036
#
# Coordination Sequence:
#
# PCOD9077958 Si02
#       8
#     2   2   2   2   2   2   2   2
#     4  10  21  37  65  89 126 164 201 253 306 370
#     4  12  20  38  60  91 115 165 204 254 304 358
#     4  12  25  37  60  94 126 156 206 262 305 354
#     4  11  22  33  58  90 125 153 204 261 306 356
#     4  10  21  40  61  94 125 159 207 254 306 362
#     4  10  19  35  59  85 121 158 199 254 309 358
#     4  11  19  35  60  89 119 154 206 258 296 359
#     4  10  18  35  56  90 119 157 201 246 314 360
#
# _framework density 20.890022999999999
#
# number of rings (size 3 to 8) (size 9 to 14) (size 15 to 20)
#    0.000    1.250    6.250    1.875    3.500    0.000 
#    0.000    2.500    0.000    0.750    0.000    0.000 
#    0.000    0.000    0.000    0.000    0.000    0.000 
#
# Total GULP energy -89399.944092 kJ/mol
# GULP energy per Si atom -5587.496506 kJ/mol
# Density = 2.084248 g / cm^3
# Si number density = 20.890023 Si / 1000 Ang^3
#
#
#
# Elastic Constant Matrix: (Units=GPa)
#
#
# Indices 1 2 3 4 5 6 
#
# 1 113.6822 73.7041 31.7320 9.4207 17.5384 -25.3112
# 2 73.7041 162.6695 29.0649 19.5615 -2.8891 -30.4733
# 3 31.7320 29.0649 51.1264 8.5584 4.1975 -12.3689
# 4 9.4207 19.5615 8.5584 12.8805 -2.1544 -2.3138
# 5 17.5384 -2.8891 4.1975 -2.1544 27.3181 -6.5566
# 6 -25.3112 -30.4733 -12.3689 -2.3138 -6.5566 42.1134
#
#
#
# Elastic Compliance Matrix: (Units=1/GPa)
#
#
# Indices 1 2 3 4 5 6 
#
# 1 0.016281 -0.006159 -0.005198 -0.000333 -0.009789 0.002260
# 2 -0.006159 0.011206 -0.000075 -0.010725 0.005418 0.004640
# 3 -0.005198 -0.000075 0.025905 -0.012782 -0.000794 0.003604
# 4 -0.000333 -0.010725 -0.012782 0.103141 0.008026 -0.004798
# 5 -0.009789 0.005418 -0.000794 0.008026 0.045497 0.005328
# 6 0.002260 0.004640 0.003604 -0.004798 0.005328 0.030085
#
#
# Mechanical properties :
#
#
# Convention : Reuss Voigt Hill
#
# Bulk Modulus (GPa) = 32.75584 66.27559 49.51571
# Shear Modulus (GPa) = 18.85680 29.32754 24.09217
#
# Velocity S-wave (km/s) = 3.00771 3.75093 3.39969
# Velocity P-wave (km/s) = 5.27029 7.11014 6.25820
#
# Compressibility (1/GPa) = 0.03052891
#
# Stress axis : x y z
#
# Youngs Moduli (GPa) = 61.42094 89.23453 38.60260
#
# Poissons Ratio (x) = 0.54956 0.20065
# Poissons Ratio (y) = 0.37827 0.00291
# Poissons Ratio (z) = 0.31925 0.00673
#
# Static dielectric constant tensor:
#      x y z
#    x 1.743810 -0.048390 0.019590 
#    y -0.048390 1.731170 0.000080 
#    z 0.019590 0.000080 1.839310 
# 
# From -- ./inp_files/357403.got.cif
#   From: 2010.05.17/outbox.cif.g08.bks.cpg/sg2_179_cif.got.tgz:357403.got - 2010.06.03 11:33:40.
