data_PCOD9077421
_publ_section_title
;
Structure prediction by ZEFSAII (Michael W. Deem and Ramdas Pophale) SiO2 
 PCOD9077421
Probable space group: P -1
;
_chemical_formula_sum "Si O2"
_cell_formula_units_Z 16
_cell_length_a 10.268993
_cell_length_b 7.960427
_cell_length_c 9.241624
_cell_angle_alpha 74.623039
_cell_angle_beta 106.495747
_cell_angle_gamma 67.213526
_cell_volume 604.718770
_symmetry_space_group_name_H-M "P -1"
_symmetry_group_IT_number 2
_symmetry_cell_setting 'triclinic'
loop_
_space_group_symop_operation_xyz
x,y,z
-x,-y,-z
loop_
_atom_site_type_symbol
_atom_site_label
_atom_site_fract_x
_atom_site_fract_y
_atom_site_fract_z
Si Si1 0.876606 0.211150 0.034838
Si Si2 0.165753 0.631706 0.311477
Si Si3 0.454686 0.263391 0.579450
Si Si4 0.307482 0.302907 0.819593
Si Si5 0.333626 0.951746 0.532851
Si Si6 0.565247 0.620317 0.901618
Si Si7 0.999355 0.410010 0.179456
Si Si8 0.879359 0.904025 0.320244
O O1 0.895151 0.196405 0.871152
O O2 0.730723 0.443815 0.935674
O O3 0.020802 0.203164 0.171602
O O4 0.828200 0.084191 0.149057
O O5 0.348163 0.486823 0.429840
O O6 0.106722 0.474682 0.285353
O O7 0.062119 0.745931 0.391997
O O8 0.422001 0.299937 0.731500
O O9 0.628629 0.134491 0.598084
O O10 0.383287 0.121948 0.534760
O O11 0.155726 0.504420 0.787536
O O12 0.223489 0.191513 0.749039
O O13 0.407053 0.233715 0.014592
O O14 0.452009 0.758518 0.710030
O O15 0.169597 0.033608 0.544641
O O16 0.500000 0.500000 0.000000
O O17 0.000000 0.500000 0.000000
#
# Coordination Sequence:
#
# PCOD9077421 Si02
#       8
#     2   2   2   2   2   2   2   2
#     4  10  18  34  59  88 120 148 198 248 287 334
#     4  10  19  35  61  84 117 160 191 236 297 343
#     4  10  21  38  60  85 122 155 194 237 290 354
#     4   9  21  36  59  89 114 149 201 242 286 346
#     4  10  21  37  59  87 115 157 194 237 291 348
#     4  11  20  38  65  84 113 156 196 243 296 339
#     4   8  17  32  56  87 112 150 198 238 280 340
#     4  10  20  34  58  91 118 149 196 249 286 336
#
# _framework density 26.458579
#
# number of rings (size 3 to 8) (size 9 to 14) (size 15 to 20)
#    0.000    2.250    2.500    0.375    0.000    6.500 
#    0.000    0.625    2.750    4.500    0.000    0.000 
#    0.000    0.000    0.000    0.000    0.000    0.000 
#
# Total GULP energy -89271.877003 kJ/mol
# GULP energy per Si atom -5579.492313 kJ/mol
# Density = 2.639836 g / cm^3
# Si number density = 26.458579 Si / 1000 Ang^3
#
#
#
# Elastic Constant Matrix: (Units=GPa)
#
#
# Indices 1 2 3 4 5 6 
#
# 1 85.1216 39.7438 32.8648 15.7850 -22.6806 -38.1675
# 2 39.7438 89.4320 37.7281 13.5645 -9.2076 -19.5434
# 3 32.8648 37.7281 99.4406 8.5749 -23.9074 -26.2996
# 4 15.7850 13.5645 8.5749 45.0307 -13.0151 -9.2771
# 5 -22.6806 -9.2076 -23.9074 -13.0151 35.1183 9.1553
# 6 -38.1675 -19.5434 -26.2996 -9.2771 9.1553 54.3726
#
#
#
# Elastic Compliance Matrix: (Units=1/GPa)
#
#
# Indices 1 2 3 4 5 6 
#
# 1 0.022850 -0.006629 0.000652 -0.000736 0.010020 0.012160
# 2 -0.006629 0.015987 -0.004931 -0.003014 -0.004280 -0.001086
# 3 0.000652 -0.004931 0.014906 0.001926 0.008751 0.004750
# 4 -0.000736 -0.003014 0.001926 0.026110 0.009136 0.002248
# 5 0.010020 -0.004280 0.008751 0.009136 0.042072 0.004203
# 6 0.012160 -0.001086 0.004750 0.002248 0.004203 0.028510
#
#
# Mechanical properties :
#
#
# Convention : Reuss Voigt Hill
#
# Bulk Modulus (GPa) = 31.32243 54.96308 43.14276
# Shear Modulus (GPa) = 27.33824 37.81481 32.57652
#
# Velocity S-wave (km/s) = 3.21790 3.78459 3.51269
# Velocity P-wave (km/s) = 5.06661 6.31790 5.72653
#
# Compressibility (1/GPa) = 0.03192600
#
# Stress axis : x y z
#
# Youngs Moduli (GPa) = 43.76372 62.55067 67.08801
#
# Poissons Ratio (x) = 0.41465 -0.04372
# Poissons Ratio (y) = 0.29011 0.33081
# Poissons Ratio (z) = -0.02852 0.30844
#
# Static dielectric constant tensor:
#      x y z
#    x 2.177000 -0.038070 0.003220 
#    y -0.038070 2.127990 0.009210 
#    z 0.003220 0.009210 2.092050 
# 
# From -- ./inp_files/243025.got.cif
#   From: 2010.05.17/outbox.cif.g08.bks.cpg/sg2_122_cif.got.tgz:243025.got - 2010.06.03 11:33:40.
