data_PCOD9077503
_publ_section_title
;
Structure prediction by ZEFSAII (Michael W. Deem and Ramdas Pophale) SiO2 
 PCOD9077503
Probable space group: P -1
;
_chemical_formula_sum "Si O2"
_cell_formula_units_Z 16
_cell_length_a 15.524712
_cell_length_b 8.324508
_cell_length_c 17.907214
_cell_angle_alpha 43.958056
_cell_angle_beta 150.694691
_cell_angle_gamma 134.709528
_cell_volume 766.458706
_symmetry_space_group_name_H-M "P -1"
_symmetry_group_IT_number 2
_symmetry_cell_setting 'triclinic'
loop_
_space_group_symop_operation_xyz
x,y,z
-x,-y,-z
loop_
_atom_site_type_symbol
_atom_site_label
_atom_site_fract_x
_atom_site_fract_y
_atom_site_fract_z
Si Si1 0.398436 0.008126 0.207628
Si Si2 0.679918 0.922600 0.347778
Si Si3 0.035802 0.036193 0.324740
Si Si4 0.923136 0.437668 0.879601
Si Si5 0.694711 0.041608 0.552126
Si Si6 0.290819 0.929209 0.846410
Si Si7 0.507855 0.396803 0.365952
Si Si8 0.240526 0.402469 0.028746
O O1 0.546365 0.021332 0.380792
O O2 0.283001 0.201712 0.074053
O O3 0.516182 0.041344 0.210130
O O4 0.263486 0.752524 0.192273
O O5 0.847792 0.003261 0.502456
O O6 0.599725 0.641183 0.392147
O O7 0.735252 0.973693 0.287473
O O8 0.088327 0.314541 0.249843
O O9 0.828912 0.977602 0.212586
O O10 0.108696 0.911115 0.351793
O O11 0.000000 0.500000 0.000000
O O12 0.062061 0.332750 0.968191
O O13 0.657418 0.247842 0.508180
O O14 0.641295 0.789883 0.638095
O O15 0.232190 0.643800 0.899620
O O16 0.500000 0.000000 0.000000
O O17 0.406923 0.458073 0.195009
#
# Coordination Sequence:
#
# PCOD9077503 Si02
#       8
#     2   2   2   2   2   2   2   2
#     4  10  21  35  58  86 118 149 189 237 292 350
#     4  11  21  38  62  81 113 154 200 235 288 339
#     4  10  22  38  58  86 116 149 193 239 287 343
#     4  11  21  34  59  89 122 153 187 230 295 356
#     4   9  19  35  57  87 120 145 186 236 292 349
#     4  11  23  40  62  80 112 157 202 244 283 335
#     4  10  18  34  60  86 116 153 183 233 292 351
#     4  10  21  37  55  85 119 151 192 240 287 341
#
# _framework density 20.875226000000001
#
# number of rings (size 3 to 8) (size 9 to 14) (size 15 to 20)
#    0.000    1.750    1.250    3.750    1.750    2.500 
#    0.000    3.125    2.750    0.000    0.000    0.000 
#    0.000    0.000    0.000    0.000    0.000    0.000 
#
# Total GULP energy -89390.006903 kJ/mol
# GULP energy per Si atom -5586.875431 kJ/mol
# Density = 2.082771 g / cm^3
# Si number density = 20.875226 Si / 1000 Ang^3
#
#
#
# Elastic Constant Matrix: (Units=GPa)
#
#
# Indices 1 2 3 4 5 6 
#
# 1 137.5860 23.4022 32.6133 -2.0794 37.9651 15.2821
# 2 23.4022 26.8646 3.0103 1.7974 11.6956 6.9832
# 3 32.6133 3.0103 47.6433 -4.8807 16.1753 13.1028
# 4 -2.0794 1.7974 -4.8807 23.9074 8.2452 1.4241
# 5 37.9651 11.6956 16.1753 8.2452 39.7923 1.1118
# 6 15.2821 6.9832 13.1028 1.4241 1.1118 25.6762
#
#
#
# Elastic Compliance Matrix: (Units=1/GPa)
#
#
# Indices 1 2 3 4 5 6 
#
# 1 0.012012 -0.005290 -0.003191 0.004260 -0.009382 -0.003912
# 2 -0.005290 0.050572 0.009725 0.003477 -0.014067 -0.015152
# 3 -0.003191 0.009725 0.034218 0.012514 -0.015807 -0.018217
# 4 0.004260 0.003477 0.012514 0.052333 -0.020685 -0.011874
# 5 -0.009382 -0.014067 -0.015807 -0.020685 0.048466 0.016525
# 6 -0.003912 -0.015152 -0.018217 -0.011874 0.016525 0.054635
#
#
# Mechanical properties :
#
#
# Convention : Reuss Voigt Hill
#
# Bulk Modulus (GPa) = 10.07142 36.68284 23.37713
# Shear Modulus (GPa) = 17.67755 28.07972 22.87864
#
# Velocity S-wave (km/s) = 2.91317 3.67157 3.31414
# Velocity P-wave (km/s) = 4.01877 5.96527 5.08601
#
# Compressibility (1/GPa) = 0.09929083
#
# Stress axis : x y z
#
# Youngs Moduli (GPa) = 83.24950 19.77365 29.22476
#
# Poissons Ratio (x) = 0.10460 0.09325
# Poissons Ratio (y) = 0.44038 -0.28421
# Poissons Ratio (z) = 0.26563 -0.19230
#
# Static dielectric constant tensor:
#      x y z
#    x 1.782760 -0.005700 0.026690 
#    y -0.005700 1.710660 -0.003830 
#    z 0.026690 -0.003830 1.757760 
# 
# From -- ./inp_files/185798.got.cif
#   From: 2010.05.17/outbox.cif.g08.bks.cpg/sg2_93_cif.got.tgz:185798.got - 2010.06.03 11:33:40.
