data_PCOD9077688
_publ_section_title
;
Structure prediction by ZEFSAII (Michael W. Deem and Ramdas Pophale) SiO2 
 PCOD9077688
Probable space group: P -1
;
_chemical_formula_sum "Si O2"
_cell_formula_units_Z 16
_cell_length_a 16.977915
_cell_length_b 11.152014
_cell_length_c 16.807487
_cell_angle_alpha 124.112592
_cell_angle_beta 33.259919
_cell_angle_gamma 150.060088
_cell_volume 697.925789
_symmetry_space_group_name_H-M "P -1"
_symmetry_group_IT_number 2
_symmetry_cell_setting 'triclinic'
loop_
_space_group_symop_operation_xyz
x,y,z
-x,-y,-z
loop_
_atom_site_type_symbol
_atom_site_label
_atom_site_fract_x
_atom_site_fract_y
_atom_site_fract_z
Si Si1 0.871042 0.606177 0.529872
Si Si2 0.924214 0.325506 0.335091
Si Si3 0.403610 0.223703 0.520133
Si Si4 0.465011 0.839430 0.759332
Si Si5 0.205592 0.160580 0.155241
Si Si6 0.079632 0.238660 0.621290
Si Si7 0.454506 0.765324 0.181857
Si Si8 0.805709 0.313054 0.904623
O O1 0.816473 0.394050 0.466244
O O2 0.856842 0.701701 0.503571
O O3 0.665423 0.432864 0.716383
O O4 0.209956 0.907517 0.385343
O O5 0.199230 0.544343 0.246332
O O6 0.040651 0.432061 0.186342
O O7 0.682269 0.991516 0.433892
O O8 0.574172 0.314387 0.332252
O O9 0.614273 0.516011 0.499429
O O10 0.087932 0.015792 0.689014
O O11 0.492725 0.021178 0.761989
O O12 0.255788 0.680656 0.953121
O O13 0.162152 0.083108 0.256242
O O14 0.251794 0.046196 0.031528
O O15 0.980295 0.315226 0.756250
O O16 0.500000 0.500000 0.000000
O O17 0.500000 0.000000 0.000000
#
# Coordination Sequence:
#
# PCOD9077688 Si02
#       8
#     2   2   2   2   2   2   2   2
#     4  10  19  35  66  96 125 161 214 263 306 367
#     4  10  18  34  62  93 126 156 205 255 320 359
#     4  12  25  41  62  97 133 168 200 262 328 379
#     4  11  19  37  66  96 127 160 215 258 311 377
#     4  12  24  43  68  88 123 178 219 248 308 390
#     4  11  25  42  62  94 137 162 204 265 327 365
#     4  11  18  38  66  95 116 166 223 256 293 373
#     4  11  19  35  66  98 126 159 211 269 305 361
#
# _framework density 22.925073000000001
#
# number of rings (size 3 to 8) (size 9 to 14) (size 15 to 20)
#    0.000    1.000    8.750    1.125    0.000    2.500 
#    0.000    4.375    0.000    0.000    0.000    0.000 
#    0.000    0.000    0.000    0.000    0.000    0.000 
#
# Total GULP energy -89444.079167 kJ/mol
# GULP energy per Si atom -5590.254948 kJ/mol
# Density = 2.287289 g / cm^3
# Si number density = 22.925073 Si / 1000 Ang^3
#
#
#
# Elastic Constant Matrix: (Units=GPa)
#
#
# Indices 1 2 3 4 5 6 
#
# 1 151.1270 42.3187 60.9046 -7.5439 49.1505 -23.0243
# 2 42.3187 56.6161 22.6912 -12.4061 7.6934 -17.2771
# 3 60.9046 22.6912 102.3324 -0.7490 29.9832 4.5596
# 4 -7.5439 -12.4061 -0.7490 22.0335 -6.1452 9.2989
# 5 49.1505 7.6934 29.9832 -6.1452 56.1025 -10.2569
# 6 -23.0243 -17.2771 4.5596 9.2989 -10.2569 24.4958
#
#
#
# Elastic Compliance Matrix: (Units=1/GPa)
#
#
# Indices 1 2 3 4 5 6 
#
# 1 0.013757 -0.005527 -0.005196 -0.004236 -0.007429 0.008498
# 2 -0.005527 0.030982 -0.006802 0.010280 0.008574 0.017611
# 3 -0.005196 -0.006802 0.016937 -0.000325 -0.006418 -0.015398
# 4 -0.004236 0.010280 -0.000325 0.058237 0.005871 -0.016320
# 5 -0.007429 0.008574 -0.006418 0.005871 0.029097 0.010215
# 6 0.008498 0.017611 -0.015398 -0.016320 0.010215 0.074571
#
#
# Mechanical properties :
#
#
# Convention : Reuss Voigt Hill
#
# Bulk Modulus (GPa) = 37.55600 62.43382 49.99491
# Shear Modulus (GPa) = 18.69115 32.80376 25.74745
#
# Velocity S-wave (km/s) = 2.85847 3.78684 3.35492
# Velocity P-wave (km/s) = 5.22610 6.81273 6.07146
#
# Compressibility (1/GPa) = 0.02662691
#
# Stress axis : x y z
#
# Youngs Moduli (GPa) = 72.68768 32.27691 59.04311
#
# Poissons Ratio (x) = 0.17838 0.30677
# Poissons Ratio (y) = 0.40171 0.40164
# Poissons Ratio (z) = 0.37766 0.21956
#
# Static dielectric constant tensor:
#      x y z
#    x 1.892660 -0.009870 0.010170 
#    y -0.009870 1.891360 0.006440 
#    z 0.010170 0.006440 1.875290 
# 
# From -- ./inp_files/575968.got.cif
#   From: 2010.05.17/outbox.cif.g08.bks.cpg/sg2_288_cif.got.tgz:575968.got - 2010.06.03 11:33:40.
