data_PCOD9077894
_publ_section_title
;
Structure prediction by ZEFSAII (Michael W. Deem and Ramdas Pophale) SiO2 
 PCOD9077894
Probable space group: P -1
;
_chemical_formula_sum "Si O2"
_cell_formula_units_Z 16
_cell_length_a 13.122889
_cell_length_b 5.293412
_cell_length_c 9.671973
_cell_angle_alpha 93.502505
_cell_angle_beta 92.252428
_cell_angle_gamma 95.473505
_cell_volume 666.860632
_symmetry_space_group_name_H-M "P -1"
_symmetry_group_IT_number 2
_symmetry_cell_setting 'triclinic'
loop_
_space_group_symop_operation_xyz
x,y,z
-x,-y,-z
loop_
_atom_site_type_symbol
_atom_site_label
_atom_site_fract_x
_atom_site_fract_y
_atom_site_fract_z
Si Si1 0.331362 0.353720 0.844089
Si Si2 0.606345 0.448639 0.433594
Si Si3 0.756566 0.822699 0.571306
Si Si4 0.063443 0.400166 0.288730
Si Si5 0.209926 0.492813 0.065112
Si Si6 0.671938 0.973344 0.831068
Si Si7 0.434155 0.874179 0.831110
Si Si8 0.090445 0.831642 0.539414
O O1 0.355958 0.360836 0.683476
O O2 0.407051 0.604751 0.897698
O O3 0.362255 0.083194 0.882674
O O4 0.222558 0.417567 0.901887
O O5 0.500000 0.500000 0.500000
O O6 0.700167 0.539112 0.541287
O O7 0.589095 0.193184 0.334715
O O8 0.857701 0.801127 0.668798
O O9 0.681230 0.972004 0.663856
O O10 0.804481 0.987964 0.451235
O O11 0.100801 0.464384 0.137412
O O12 0.089258 0.625115 0.409691
O O13 0.947772 0.295982 0.321391
O O14 0.283890 0.290885 0.128054
O O15 0.258752 0.778627 0.104994
O O16 0.552028 0.971830 0.854117
O O17 0.000000 0.000000 0.500000
#
# Coordination Sequence:
#
# PCOD9077894 Si02
#       8
#     2   2   2   2   2   2   2   2
#     4  10  23  39  54  79 109 158 191 233 277 325
#     4  10  22  39  54  80 113 158 197 234 266 326
#     4  10  18  35  55  84 113 150 188 231 280 336
#     4   9  19  32  56  86 113 141 177 236 292 341
#     4  11  22  36  57  82 115 145 186 233 289 343
#     4  11  21  34  57  83 109 149 190 236 285 325
#     4  10  22  39  51  81 109 151 198 234 272 320
#     4   9  17  33  54  85 114 137 180 228 298 342
#
# _framework density 23.993017999999999
#
# number of rings (size 3 to 8) (size 9 to 14) (size 15 to 20)
#    0.750    1.250    2.500    1.500    0.000    4.500 
#    0.000    0.000    0.000    0.750    0.000    8.750 
#    0.000    0.000    0.000    0.000    0.000    0.000 
#
# Total GULP energy -89089.283321 kJ/mol
# GULP energy per Si atom -5568.080208 kJ/mol
# Density = 2.393841 g / cm^3
# Si number density = 23.993018 Si / 1000 Ang^3
#
#
#
# Elastic Constant Matrix: (Units=GPa)
#
#
# Indices 1 2 3 4 5 6 
#
# 1 35.3792 7.0074 32.4753 -3.6211 -20.9183 6.8973
# 2 7.0074 105.0946 19.6567 9.3523 -12.8630 -1.5828
# 3 32.4753 19.6567 112.9241 3.0459 -47.2136 4.5988
# 4 -3.6211 9.3523 3.0459 30.7873 3.6870 -11.1118
# 5 -20.9183 -12.8630 -47.2136 3.6870 39.7809 -1.0756
# 6 6.8973 -1.5828 4.5988 -11.1118 -1.0756 26.6797
#
#
#
# Elastic Compliance Matrix: (Units=1/GPa)
#
#
# Indices 1 2 3 4 5 6 
#
# 1 0.045370 -0.000088 -0.005547 0.000281 0.016949 -0.009978
# 2 -0.000088 0.010299 -0.000244 -0.003791 0.003325 -0.000769
# 3 -0.005547 -0.000244 0.019380 -0.006290 0.020488 -0.003715
# 4 0.000281 -0.003791 -0.006290 0.042170 -0.011969 0.017867
# 5 0.016949 0.003325 0.020488 -0.011969 0.060273 -0.010271
# 6 -0.009978 -0.000769 -0.003715 0.017867 -0.010271 0.047683
#
#
# Mechanical properties :
#
#
# Convention : Reuss Voigt Hill
#
# Bulk Modulus (GPa) = 15.79986 41.29742 28.54864
# Shear Modulus (GPa) = 19.37750 32.40013 25.88882
#
# Velocity S-wave (km/s) = 2.84497 3.67876 3.28840
# Velocity P-wave (km/s) = 4.17028 5.94088 5.13251
#
# Compressibility (1/GPa) = 0.06329170
#
# Stress axis : x y z
#
# Youngs Moduli (GPa) = 22.04106 97.09267 51.59906
#
# Poissons Ratio (x) = 0.00858 0.28622
# Poissons Ratio (y) = 0.00195 0.01257
# Poissons Ratio (z) = 0.12226 0.02365
#
# Static dielectric constant tensor:
#      x y z
#    x 1.877550 0.010190 0.030840 
#    y 0.010190 1.962600 -0.056850 
#    z 0.030840 -0.056850 2.321550 
# 
# From -- ./inp_files/92826.got.cif
#   From: 2010.05.17/outbox.cif.g08.bks.cpg/sg2_47_cif.got.tgz:92826.got - 2010.06.03 11:33:40.
