data_PCOD9077031
_publ_section_title
;
Structure prediction by ZEFSAII (Michael W. Deem and Ramdas Pophale) SiO2 
 PCOD9077031
Probable space group: P -1
;
_chemical_formula_sum "Si O2"
_cell_formula_units_Z 14
_cell_length_a 14.447661
_cell_length_b 13.496882
_cell_length_c 9.747423
_cell_angle_alpha 123.448491
_cell_angle_beta 68.989212
_cell_angle_gamma 151.728430
_cell_volume 711.406392
_symmetry_space_group_name_H-M "P -1"
_symmetry_group_IT_number 2
_symmetry_cell_setting 'triclinic'
loop_
_space_group_symop_operation_xyz
x,y,z
-x,-y,-z
loop_
_atom_site_type_symbol
_atom_site_label
_atom_site_fract_x
_atom_site_fract_y
_atom_site_fract_z
Si Si1 0.204576 0.840939 0.220954
Si Si2 0.891705 0.962088 0.227401
Si Si3 0.191580 0.562386 0.064040
Si Si4 0.255227 0.347185 0.509469
Si Si5 0.641815 0.753532 0.433992
Si Si6 0.054007 0.879169 0.978590
Si Si7 0.534610 0.810580 0.896202
O O1 0.979746 0.630687 0.114416
O O2 0.289124 0.039607 0.415186
O O3 0.358160 0.992032 0.123094
O O4 0.199710 0.711033 0.201792
O O5 0.674574 0.746079 0.255331
O O6 0.918780 0.062545 0.150866
O O7 0.044425 0.170394 0.423281
O O8 0.962594 0.901787 0.115167
O O9 0.410085 0.745313 0.031843
O O10 0.102842 0.390818 0.104198
O O11 0.408071 0.492043 0.409641
O O12 0.236056 0.204303 0.493056
O O13 0.369353 0.556013 0.710323
O O14 0.277441 0.074380 0.064907
#
# Coordination Sequence:
#
# PCOD9077031 Si02
#       7
#     2   2   2   2   2   2   2
#     4   9  19  32  54  84 103 131 180 216 254 309
#     4  11  21  36  53  76 109 140 169 216 262 307
#     4  10  18  34  55  76 108 140 170 216 259 301
#     4  10  19  32  56  81 102 132 174 212 262 315
#     4  10  19  33  53  79 106 132 170 221 260 302
#     4  10  23  35  51  79 107 138 178 208 257 320
#     4  10  19  35  56  81 106 134 171 219 261 302
#
# _framework density 19.679328000000002
#
# number of rings (size 3 to 8) (size 9 to 14) (size 15 to 20)
#    0.000    2.000    0.000    6.000    0.000    1.143 
#    0.000    4.286    0.000    4.286    0.000    0.000 
#    0.000    0.000    0.000    0.000    0.000    0.000 
#
# Total GULP energy -78168.926719 kJ/mol
# GULP energy per Si atom -5583.494766 kJ/mol
# Density = 1.963454 g / cm^3
# Si number density = 19.679328 Si / 1000 Ang^3
#
#
#
# Elastic Constant Matrix: (Units=GPa)
#
#
# Indices 1 2 3 4 5 6 
#
# 1 62.3051 51.7449 13.7497 -8.0676 -13.0695 -21.3384
# 2 51.7449 113.3240 40.1809 -22.0791 -17.4197 -20.8573
# 3 13.7497 40.1809 31.6919 -7.4269 -9.5702 -10.4605
# 4 -8.0676 -22.0791 -7.4269 34.5425 4.2020 -7.4826
# 5 -13.0695 -17.4197 -9.5702 4.2020 17.5872 -4.2780
# 6 -21.3384 -20.8573 -10.4605 -7.4826 -4.2780 37.8206
#
#
#
# Elastic Compliance Matrix: (Units=1/GPa)
#
#
# Indices 1 2 3 4 5 6 
#
# 1 0.039171 -0.015029 0.020159 0.005425 0.029691 0.023820
# 2 -0.015029 0.025945 -0.024477 0.008005 -0.000561 0.000579
# 3 0.020159 -0.024477 0.073396 0.005623 0.034987 0.023246
# 4 0.005425 0.008005 0.005623 0.039206 0.010011 0.017920
# 5 0.029691 -0.000561 0.034987 0.010011 0.104731 0.039946
# 6 0.023820 0.000579 0.023246 0.017920 0.039946 0.054692
#
#
# Mechanical properties :
#
#
# Convention : Reuss Voigt Hill
#
# Bulk Modulus (GPa) = 10.01805 46.51911 28.26858
# Shear Modulus (GPa) = 12.22170 24.76643 18.49406
#
# Velocity S-wave (km/s) = 2.49478 3.55138 3.06889
# Velocity P-wave (km/s) = 3.66063 6.36446 5.19165
#
# Compressibility (1/GPa) = 0.09981984
#
# Stress axis : x y z
#
# Youngs Moduli (GPa) = 25.52900 38.54271 13.62463
#
# Poissons Ratio (x) = 0.57925 -0.27466
# Poissons Ratio (y) = 0.38367 0.33349
# Poissons Ratio (z) = -0.51464 0.94340
#
# Static dielectric constant tensor:
#      x y z
#    x 1.690050 0.021430 -0.008730 
#    y 0.021430 1.713880 -0.003050 
#    z -0.008730 -0.003050 1.676030 
# 
# From -- ./inp_files/273672.got.cif
#   From: 2010.05.17/outbox.cif.g08.bks.cpg/sg2_137_cif.got.tgz:273672.got - 2010.06.03 11:33:40.
