data_PCOD9077214
_publ_section_title
;
Structure prediction by ZEFSAII (Michael W. Deem and Ramdas Pophale) SiO2 
 PCOD9077214
Probable space group: P -1
;
_chemical_formula_sum "Si O2"
_cell_formula_units_Z 16
_cell_length_a 7.195259
_cell_length_b 13.567490
_cell_length_c 12.725102
_cell_angle_alpha 46.316161
_cell_angle_beta 58.575719
_cell_angle_gamma 39.861913
_cell_volume 575.680860
_symmetry_space_group_name_H-M "P -1"
_symmetry_group_IT_number 2
_symmetry_cell_setting 'triclinic'
loop_
_space_group_symop_operation_xyz
x,y,z
-x,-y,-z
loop_
_atom_site_type_symbol
_atom_site_label
_atom_site_fract_x
_atom_site_fract_y
_atom_site_fract_z
Si Si1 0.705393 0.544365 0.019003
Si Si2 0.984438 0.733469 0.464533
Si Si3 0.341742 0.779708 0.462447
Si Si4 0.265728 0.047051 0.948994
Si Si5 0.361738 0.718273 0.203796
Si Si6 0.861714 0.611908 0.292734
Si Si7 0.931200 0.186685 0.276257
Si Si8 0.479111 0.109918 0.245118
O O1 0.500893 0.621200 0.124373
O O2 0.804420 0.348854 0.112961
O O3 0.558057 0.712654 0.859742
O O4 0.000000 0.500000 0.000000
O O5 0.215916 0.696707 0.506893
O O6 0.172752 0.680329 0.341998
O O7 0.921472 0.603141 0.604760
O O8 0.699719 0.942271 0.379766
O O9 0.660653 0.688468 0.399753
O O10 0.293657 0.784848 0.596400
O O11 0.129398 0.983034 0.326593
O O12 0.059228 0.264572 0.843045
O O13 0.415762 0.961244 0.854258
O O14 0.500000 0.000000 0.000000
O O15 0.166806 0.936924 0.092283
O O16 0.631821 0.657899 0.238251
O O17 0.162272 0.172900 0.292428
#
# Coordination Sequence:
#
# PCOD9077214 Si02
#       8
#     2   2   2   2   2   2   2   2
#     4   9  18  33  56  79 103 142 189 226 261 327
#     4  11  22  34  56  84 120 142 176 234 283 326
#     4  10  20  35  58  82 108 147 186 227 271 323
#     4   9  18  33  54  77 108 141 180 224 266 324
#     4   9  18  34  56  81 110 145 185 226 272 326
#     4  10  18  34  57  83 109 146 186 221 272 333
#     4  10  19  36  59  79 105 146 194 224 264 332
#     4  10  21  36  54  84 112 144 180 229 284 322
#
# _framework density 27.793175999999999
#
# number of rings (size 3 to 8) (size 9 to 14) (size 15 to 20)
#    0.000    2.250    1.250    3.000    0.000    3.000 
#    0.000    0.625    2.750    0.000    0.000    0.000 
#    0.000    0.000    0.000    0.000    0.000    0.000 
#
# Total GULP energy -89602.580702 kJ/mol
# GULP energy per Si atom -5600.161294 kJ/mol
# Density = 2.772992 g / cm^3
# Si number density = 27.793176 Si / 1000 Ang^3
#
#
#
# Elastic Constant Matrix: (Units=GPa)
#
#
# Indices 1 2 3 4 5 6 
#
# 1 101.3041 26.8817 14.9635 -5.1859 10.7102 -16.1379
# 2 26.8817 64.9198 66.3578 -10.8592 -16.0270 -11.0748
# 3 14.9635 66.3578 172.8920 -63.5147 -21.7860 -2.2807
# 4 -5.1859 -10.8592 -63.5147 80.4387 5.7391 -5.7199
# 5 10.7102 -16.0270 -21.7860 5.7391 37.6679 -7.0431
# 6 -16.1379 -11.0748 -2.2807 -5.7199 -7.0431 27.5657
#
#
#
# Elastic Compliance Matrix: (Units=1/GPa)
#
#
# Indices 1 2 3 4 5 6 
#
# 1 0.012883 -0.007693 0.001916 0.001951 -0.005448 0.003622
# 2 -0.007693 0.037220 -0.014426 -0.006988 0.012817 0.011081
# 3 0.001916 -0.014426 0.014701 0.009676 0.000078 -0.001430
# 4 0.001951 -0.006988 0.009676 0.019498 -0.000323 0.003099
# 5 -0.005448 0.012817 0.000078 -0.000323 0.035706 0.011022
# 6 0.003622 0.011081 -0.001430 0.003099 0.011022 0.046190
#
#
# Mechanical properties :
#
#
# Convention : Reuss Voigt Hill
#
# Bulk Modulus (GPa) = 40.98879 61.72465 51.35672
# Shear Modulus (GPa) = 23.28441 44.52867 33.90654
#
# Velocity S-wave (km/s) = 2.89757 4.00702 3.49658
# Velocity P-wave (km/s) = 5.09651 6.60796 5.90082
#
# Compressibility (1/GPa) = 0.02439692
#
# Stress axis : x y z
#
# Youngs Moduli (GPa) = 77.62341 26.86734 68.02434
#
# Poissons Ratio (x) = 0.20670 -0.13032
# Poissons Ratio (y) = 0.59719 0.98129
# Poissons Ratio (z) = -0.14871 0.38758
#
# Static dielectric constant tensor:
#      x y z
#    x 2.116310 0.018580 0.039030 
#    y 0.018580 2.150730 -0.060590 
#    z 0.039030 -0.060590 2.207710 
# 
# From -- ./inp_files/415548.got.cif
#   From: 2010.05.17/outbox.cif.g08.bks.cpg/sg2_208_cif.got.tgz:415548.got - 2010.06.03 11:33:40.
