data_PCOD9077819
_publ_section_title
;
Structure prediction by ZEFSAII (Michael W. Deem and Ramdas Pophale) SiO2 
 PCOD9077819
Probable space group: P -1
;
_chemical_formula_sum "Si O2"
_cell_formula_units_Z 14
_cell_length_a 18.270683
_cell_length_b 11.714554
_cell_length_c 5.611909
_cell_angle_alpha 137.431376
_cell_angle_beta 49.674226
_cell_angle_gamma 144.331271
_cell_volume 470.143223
_symmetry_space_group_name_H-M "P -1"
_symmetry_group_IT_number 2
_symmetry_cell_setting 'triclinic'
loop_
_space_group_symop_operation_xyz
x,y,z
-x,-y,-z
loop_
_atom_site_type_symbol
_atom_site_label
_atom_site_fract_x
_atom_site_fract_y
_atom_site_fract_z
Si Si1 0.822584 0.387598 0.940340
Si Si2 0.054036 0.799795 0.135005
Si Si3 0.596002 0.009061 0.551796
Si Si4 0.888162 0.878826 0.860685
Si Si5 0.262431 0.561215 0.293114
Si Si6 0.463098 0.592222 0.419000
Si Si7 0.314871 0.159782 0.285083
O O1 0.708467 0.137102 0.708777
O O2 0.817837 0.494621 0.863972
O O3 0.781859 0.387584 0.299209
O O4 0.974856 0.538416 0.870680
O O5 0.116744 0.949101 0.995520
O O6 0.168101 0.947409 0.309782
O O7 0.941300 0.800138 0.441613
O O8 0.604924 0.205779 0.718100
O O9 0.470323 0.788140 0.596055
O O10 0.642038 0.929536 0.135988
O O11 0.761871 0.657673 0.905693
O O12 0.000000 0.000000 0.000000
O O13 0.333590 0.370251 0.455813
O O14 0.576260 0.716903 0.559600
O O15 0.500000 0.500000 0.000000
#
# Coordination Sequence:
#
# PCOD9077819 Si02
#       7
#     2   2   2   2   2   2   2
#     4   9  18  33  51  85 110 152 175 229 270 343
#     4  10  21  33  54  82 115 146 189 224 282 328
#     4   9  18  33  56  79 112 148 183 226 275 338
#     4  10  18  35  52  76 112 152 183 231 268 338
#     4   9  18  32  55  78 112 146 192 213 282 324
#     4   9  19  36  54  76 108 146 190 231 282 323
#     4  10  20  35  55  82 110 147 186 235 274 338
#
# _framework density 29.778161000000001
#
# number of rings (size 3 to 8) (size 9 to 14) (size 15 to 20)
#    0.857    1.714    1.429    0.857    0.000    2.857 
#    0.000    3.571    0.000    0.857    0.000   23.000 
#    0.000    0.000    0.000    0.000    0.000    0.000 
#
# Total GULP energy -78237.126535 kJ/mol
# GULP energy per Si atom -5588.366181 kJ/mol
# Density = 2.971038 g / cm^3
# Si number density = 29.778161 Si / 1000 Ang^3
#
#
#
# Elastic Constant Matrix: (Units=GPa)
#
#
# Indices 1 2 3 4 5 6 
#
# 1 124.4671 42.9733 46.0305 -2.7960 25.7432 8.9397
# 2 42.9733 242.2583 46.0715 33.9050 -8.7676 -17.0056
# 3 46.0305 46.0715 185.1968 -5.6874 50.2959 22.3650
# 4 -2.7960 33.9050 -5.6874 59.0812 6.8502 5.4819
# 5 25.7432 -8.7676 50.2959 6.8502 51.6062 -2.9327
# 6 8.9397 -17.0056 22.3650 5.4819 -2.9327 55.3813
#
#
#
# Elastic Compliance Matrix: (Units=1/GPa)
#
#
# Indices 1 2 3 4 5 6 
#
# 1 0.010635 -0.002958 0.000513 0.003385 -0.006958 -0.003536
# 2 -0.002958 0.006766 -0.003700 -0.005686 0.007270 0.004997
# 3 0.000513 -0.003700 0.010438 0.005169 -0.012118 -0.006588
# 4 0.003385 -0.005686 0.005169 0.022807 -0.011130 -0.007227
# 5 -0.006958 0.007270 -0.012118 -0.011130 0.038017 0.011364
# 6 -0.003536 0.004997 -0.006588 -0.007227 0.011364 0.024139
#
#
# Mechanical properties :
#
#
# Convention : Reuss Voigt Hill
#
# Bulk Modulus (GPa) = 64.31577 91.34143 77.82860
# Shear Modulus (GPa) = 38.38016 61.00352 49.69184
#
# Velocity S-wave (km/s) = 3.59398 4.53106 4.08945
# Velocity P-wave (km/s) = 6.23437 7.62329 6.96355
#
# Compressibility (1/GPa) = 0.01554829
#
# Stress axis : x y z
#
# Youngs Moduli (GPa) = 94.03156 147.80144 95.80312
#
# Poissons Ratio (x) = 0.43716 -0.04915
# Poissons Ratio (y) = 0.27812 0.35452
# Poissons Ratio (z) = -0.04824 0.54694
#
# Static dielectric constant tensor:
#      x y z
#    x 2.330380 -0.119790 -0.018020 
#    y -0.119790 2.390690 0.079450 
#    z -0.018020 0.079450 2.432810 
# 
# From -- ./inp_files/123957.got.cif
#   From: 2010.05.17/outbox.cif.g08.bks.cpg/sg2_62_cif.got.tgz:123957.got - 2010.06.03 11:33:40.
