data_PCOD9077390
_publ_section_title
;
Structure prediction by ZEFSAII (Michael W. Deem and Ramdas Pophale) SiO2 
 PCOD9077390
Probable space group: P -1
;
_chemical_formula_sum "Si O2"
_cell_formula_units_Z 15
_cell_length_a 9.127909
_cell_length_b 9.040768
_cell_length_c 14.338135
_cell_angle_alpha 133.056401
_cell_angle_beta 56.725461
_cell_angle_gamma 87.656933
_cell_volume 529.922313
_symmetry_space_group_name_H-M "P -1"
_symmetry_group_IT_number 2
_symmetry_cell_setting 'triclinic'
loop_
_space_group_symop_operation_xyz
x,y,z
-x,-y,-z
loop_
_atom_site_type_symbol
_atom_site_label
_atom_site_fract_x
_atom_site_fract_y
_atom_site_fract_z
Si Si1 0.500000 0.000000 0.500000
Si Si2 0.171630 0.928203 0.675674
Si Si3 0.054016 0.779231 0.811719
Si Si4 0.399006 0.388110 0.868612
Si Si5 0.388802 0.141659 0.258940
Si Si6 0.878746 0.714187 0.001417
Si Si7 0.557600 0.219720 0.074042
Si Si8 0.116876 0.020698 0.377716
O O1 0.386225 0.879248 0.533412
O O2 0.450563 0.161622 0.683966
O O3 0.046116 0.199739 0.903183
O O4 0.005996 0.970624 0.668639
O O5 0.233258 0.708625 0.638262
O O6 0.069608 0.581154 0.793136
O O7 0.811382 0.953468 0.912805
O O8 0.000000 0.000000 0.000000
O O9 0.164434 0.485710 0.045988
O O10 0.422229 0.571974 0.880580
O O11 0.606877 0.242002 0.809912
O O12 0.617389 0.999114 0.183106
O O13 0.158748 0.231332 0.431667
O O14 0.369693 0.336989 0.274010
O O15 0.481263 0.893366 0.048747
O O16 0.000000 0.000000 0.500000
#
# Coordination Sequence:
#
# PCOD9077390 Si02
#       8
#     1   2   2   2   2   2   2   2
#     4  10  20  38  58  80 116 158 188 242 292 336
#     4  10  18  34  59  83 113 158 195 230 291 343
#     4   9  17  34  59  84 117 149 188 234 293 347
#     4  10  21  36  61  89 117 151 199 237 292 348
#     4   9  19  36  60  84 117 155 190 234 299 347
#     4   8  18  33  56  85 114 148 183 233 293 349
#     4  10  19  36  63  87 118 154 189 243 296 348
#     4  11  20  35  60  87 114 161 198 238 284 349
#
# _framework density 28.306034
#
# number of rings (size 3 to 8) (size 9 to 14) (size 15 to 20)
#    0.000    2.400    2.667    0.000    0.000    2.133 
#    0.000    6.667   11.733   28.800    0.000    0.000 
#    0.000    0.000    0.000    0.000    0.000    0.000 
#
# Total GULP energy -83584.905647 kJ/mol
# GULP energy per Si atom -5572.327043 kJ/mol
# Density = 2.824161 g / cm^3
# Si number density = 28.306034 Si / 1000 Ang^3
#
#
#
# Elastic Constant Matrix: (Units=GPa)
#
#
# Indices 1 2 3 4 5 6 
#
# 1 177.9256 62.3442 37.8049 -15.2383 8.6883 4.1535
# 2 62.3442 217.3415 61.2434 -94.0803 -19.8894 27.9531
# 3 37.8049 61.2434 86.6768 -37.6594 19.0677 3.4056
# 4 -15.2383 -94.0803 -37.6594 76.7773 3.3498 -11.2012
# 5 8.6883 -19.8894 19.0677 3.3498 39.0263 -15.3024
# 6 4.1535 27.9531 3.4056 -11.2012 -15.3024 44.1242
#
#
#
# Elastic Compliance Matrix: (Units=1/GPa)
#
#
# Indices 1 2 3 4 5 6 
#
# 1 0.006875 -0.002957 -0.001825 -0.003082 -0.001912 -0.000079
# 2 -0.002957 0.013030 -0.003857 0.012896 0.007349 -0.001856
# 3 -0.001825 -0.003857 0.020092 0.005020 -0.012604 -0.002032
# 4 -0.003082 0.012896 0.005020 0.030621 0.002296 0.000303
# 5 -0.001912 0.007349 -0.012604 0.002296 0.040058 0.010973
# 6 -0.000079 -0.001856 -0.002032 0.000303 0.010973 0.027886
#
#
# Mechanical properties :
#
#
# Convention : Reuss Voigt Hill
#
# Bulk Modulus (GPa) = 44.01605 89.41432 66.71519
# Shear Modulus (GPa) = 30.59741 53.35565 41.97653
#
# Velocity S-wave (km/s) = 3.29135 4.34632 3.85509
# Velocity P-wave (km/s) = 5.47976 7.53952 6.59060
#
# Compressibility (1/GPa) = 0.02271898
#
# Stress axis : x y z
#
# Youngs Moduli (GPa) = 145.44584 76.74891 49.77103
#
# Poissons Ratio (x) = 0.22694 0.09081
# Poissons Ratio (y) = 0.43008 0.19198
# Poissons Ratio (z) = 0.26539 0.29605
#
# Static dielectric constant tensor:
#      x y z
#    x 2.139010 0.033530 -0.052710 
#    y 0.033530 2.335810 -0.043830 
#    z -0.052710 -0.043830 2.216690 
# 
# From -- ./inp_files/493597.got.cif
#   From: 2010.05.17/outbox.cif.g08.bks.cpg/sg2_247_cif.got.tgz:493597.got - 2010.06.03 11:33:40.
