data_PCOD9077101
_publ_section_title
;
Structure prediction by ZEFSAII (Michael W. Deem and Ramdas Pophale) SiO2 
 PCOD9077101
Probable space group: P -1
;
_chemical_formula_sum "Si O2"
_cell_formula_units_Z 16
_cell_length_a 8.692405
_cell_length_b 12.256273
_cell_length_c 20.569804
_cell_angle_alpha 26.843682
_cell_angle_beta 41.572371
_cell_angle_gamma 36.673323
_cell_volume 586.711295
_symmetry_space_group_name_H-M "P -1"
_symmetry_group_IT_number 2
_symmetry_cell_setting 'triclinic'
loop_
_space_group_symop_operation_xyz
x,y,z
-x,-y,-z
loop_
_atom_site_type_symbol
_atom_site_label
_atom_site_fract_x
_atom_site_fract_y
_atom_site_fract_z
Si Si1 0.730026 0.922232 0.895941
Si Si2 0.222033 0.168481 0.706136
Si Si3 0.886947 0.034581 0.405431
Si Si4 0.498546 0.713175 0.968949
Si Si5 0.286795 0.803280 0.759398
Si Si6 0.959248 0.553423 0.135114
Si Si7 0.595698 0.388480 0.608624
Si Si8 0.994212 0.489293 0.298709
O O1 0.549195 0.857488 0.938715
O O2 0.025526 0.761187 0.859775
O O3 0.642612 0.239278 0.742898
O O4 0.763260 0.799925 0.022242
O O5 0.381048 0.334826 0.547269
O O6 0.978156 0.390824 0.704606
O O7 0.326534 0.932452 0.853531
O O8 0.200155 0.037506 0.715698
O O9 0.168898 0.839660 0.387001
O O10 0.849141 0.835760 0.574202
O O11 0.687996 0.121544 0.361919
O O12 0.890652 0.300382 0.292405
O O13 0.763188 0.560079 0.926139
O O14 0.478616 0.458896 0.144682
O O15 0.000972 0.625597 0.156337
O O16 0.316170 0.439630 0.643939
#
# Coordination Sequence:
#
# PCOD9077101 Si02
#       8
#     2   2   2   2   2   2   2   2
#     4  10  19  35  61  80 107 141 190 226 262 317
#     4  11  22  36  57  83 115 141 182 227 275 323
#     4  10  18  34  56  78 107 145 187 221 264 316
#     4  11  18  38  61  81 106 145 191 226 260 323
#     4  10  20  34  60  87 102 142 193 227 261 320
#     4  11  19  34  57  85 108 141 186 230 267 319
#     4  10  20  35  54  80 111 145 182 224 264 321
#     4  11  22  32  54  86 115 142 179 225 281 325
#
# _framework density 27.270652999999999
#
# number of rings (size 3 to 8) (size 9 to 14) (size 15 to 20)
#    0.000    1.500    5.000    3.750    0.000    5.000 
#    0.000    2.500    0.000    6.000    0.000    0.000 
#    0.000    0.000    0.000    0.000    0.000    0.000 
#
# Total GULP energy -89480.290324 kJ/mol
# GULP energy per Si atom -5592.518145 kJ/mol
# Density = 2.720858 g / cm^3
# Si number density = 27.270653 Si / 1000 Ang^3
#
#
#
# Elastic Constant Matrix: (Units=GPa)
#
#
# Indices 1 2 3 4 5 6 
#
# 1 84.1915 8.6429 28.3631 -8.6443 25.7883 20.3794
# 2 8.6429 66.5861 4.6524 -4.1052 0.2977 5.1833
# 3 28.3631 4.6524 181.7423 -3.2373 35.9855 4.0390
# 4 -8.6443 -4.1052 -3.2373 39.8415 4.0508 10.9514
# 5 25.7883 0.2977 35.9855 4.0508 42.8869 -2.9056
# 6 20.3794 5.1833 4.0390 10.9514 -2.9056 37.6684
#
#
#
# Elastic Compliance Matrix: (Units=1/GPa)
#
#
# Indices 1 2 3 4 5 6 
#
# 1 0.021361 -0.000861 0.000201 0.010392 -0.015048 -0.015642
# 2 -0.000861 0.015435 -0.000231 0.001957 0.000272 -0.002181
# 3 0.000201 -0.000231 0.006744 0.001664 -0.006054 -0.001751
# 4 0.010392 0.001957 0.001664 0.033506 -0.011957 -0.016734
# 5 -0.015048 0.000272 -0.006054 -0.011957 0.039609 0.015285
# 6 -0.015642 -0.002181 -0.001751 -0.016734 0.015285 0.041542
#
#
# Mechanical properties :
#
#
# Convention : Reuss Voigt Hill
#
# Bulk Modulus (GPa) = 23.94801 46.20409 35.07605
# Shear Modulus (GPa) = 28.75217 43.47011 36.11114
#
# Velocity S-wave (km/s) = 3.25056 3.99686 3.64287
# Velocity P-wave (km/s) = 4.78423 6.18703 5.53029
#
# Compressibility (1/GPa) = 0.04175712
#
# Stress axis : x y z
#
# Youngs Moduli (GPa) = 46.81409 64.78658 148.27744
#
# Poissons Ratio (x) = 0.05579 -0.02976
# Poissons Ratio (y) = 0.04031 0.03430
# Poissons Ratio (z) = -0.00940 0.01499
#
# Static dielectric constant tensor:
#      x y z
#    x 2.170670 -0.046580 -0.053280 
#    y -0.046580 2.161930 0.079630 
#    z -0.053280 0.079630 2.262720 
# 
# From -- ./inp_files/282920.got.cif
#   From: 2010.05.17/outbox.cif.g08.bks.cpg/sg2_142_cif.got.tgz:282920.got - 2010.06.03 11:33:40.
