data_PCOD9077883
_publ_section_title
;
Structure prediction by ZEFSAII (Michael W. Deem and Ramdas Pophale) SiO2 
 PCOD9077883
Probable space group: P -1
;
_chemical_formula_sum "Si O2"
_cell_formula_units_Z 16
_cell_length_a 12.187835
_cell_length_b 26.613628
_cell_length_c 10.932088
_cell_angle_alpha 139.508126
_cell_angle_beta 39.062051
_cell_angle_gamma 156.209951
_cell_volume 883.761666
_symmetry_space_group_name_H-M "P -1"
_symmetry_group_IT_number 2
_symmetry_cell_setting 'triclinic'
loop_
_space_group_symop_operation_xyz
x,y,z
-x,-y,-z
loop_
_atom_site_type_symbol
_atom_site_label
_atom_site_fract_x
_atom_site_fract_y
_atom_site_fract_z
Si Si1 0.610190 0.454174 0.271304
Si Si2 0.681612 0.206902 0.058347
Si Si3 0.819093 0.712061 0.877830
Si Si4 0.531283 0.024092 0.164262
Si Si5 0.337016 0.111285 0.411738
Si Si6 0.358466 0.625801 0.291837
Si Si7 0.893041 0.417996 0.108281
Si Si8 0.782569 0.568073 0.815586
O O1 0.500000 0.500000 0.500000
O O2 0.353016 0.337437 0.189008
O O3 0.695598 0.417732 0.227460
O O4 0.896476 0.549848 0.114101
O O5 0.416446 0.124104 0.225403
O O6 0.712392 0.285185 0.078945
O O7 0.956551 0.311932 0.103329
O O8 0.645147 0.105932 0.858361
O O9 0.819412 0.621649 0.752236
O O10 0.137035 0.856690 0.867712
O O11 0.637298 0.688145 0.098814
O O12 0.413112 0.068683 0.359130
O O13 0.500000 0.000000 0.000000
O O14 0.538805 0.254037 0.536680
O O15 0.000000 0.000000 0.500000
O O16 0.260426 0.538812 0.331082
O O17 0.107067 0.529173 0.230860
O O18 0.500000 0.500000 0.000000
#
# Coordination Sequence:
#
# PCOD9077883 Si02
#       8
#     2   2   2   2   2   2   2   2
#     4  10  22  38  62  84 113 149 200 246 292 340
#     4  10  20  37  55  80 118 154 183 232 285 344
#     4  10  18  35  55  81 107 153 188 228 294 338
#     4  10  19  34  55  75 116 153 184 219 276 353
#     4  11  22  32  51  87 121 155 185 224 288 353
#     4   9  19  32  53  82 117 141 183 235 288 349
#     4   9  21  41  58  86 114 152 191 249 293 330
#     4   9  17  29  54  80 107 140 179 221 288 348
#
# _framework density 18.104429
#
# number of rings (size 3 to 8) (size 9 to 14) (size 15 to 20)
#    0.000    2.250    2.500    2.250    3.500    3.000 
#    2.250    0.625    0.000    0.750    0.000    0.000 
#    0.000    0.000    0.000    0.000    0.000    0.000 
#
# Total GULP energy -89090.158562 kJ/mol
# GULP energy per Si atom -5568.134910 kJ/mol
# Density = 1.806322 g / cm^3
# Si number density = 18.104429 Si / 1000 Ang^3
#
#
#
# Elastic Constant Matrix: (Units=GPa)
#
#
# Indices 1 2 3 4 5 6 
#
# 1 115.3438 56.5875 30.6670 7.6957 -31.1193 -9.8650
# 2 56.5875 124.2820 29.9274 9.8574 -26.5240 -7.0915
# 3 30.6670 29.9274 73.1043 9.2469 -25.5610 -8.6974
# 4 7.6957 9.8574 9.2469 34.8604 -6.1924 -13.4603
# 5 -31.1193 -26.5240 -25.5610 -6.1924 25.9845 3.4077
# 6 -9.8650 -7.0915 -8.6974 -13.4603 3.4077 31.9347
#
#
#
# Elastic Compliance Matrix: (Units=1/GPa)
#
#
# Indices 1 2 3 4 5 6 
#
# 1 0.014146 -0.003574 0.000496 0.001267 0.013718 0.002781
# 2 -0.003574 0.011274 -0.000820 -0.001059 0.006159 0.000072
# 3 0.000496 -0.000820 0.021333 -0.000664 0.020145 0.003352
# 4 0.001267 -0.001059 -0.000664 0.035524 0.006378 0.014268
# 5 0.013718 0.006159 0.020145 0.006378 0.081875 0.005043
# 6 0.002781 0.000072 0.003352 0.014268 0.005043 0.038578
#
#
# Mechanical properties :
#
#
# Convention : Reuss Voigt Hill
#
# Bulk Modulus (GPa) = 25.66968 60.78820 43.22894
# Shear Modulus (GPa) = 22.37038 31.59247 26.98142
#
# Velocity S-wave (km/s) = 3.51897 4.18187 3.86466
# Velocity P-wave (km/s) = 5.54259 7.54763 6.62144
#
# Compressibility (1/GPa) = 0.03895647
#
# Stress axis : x y z
#
# Youngs Moduli (GPa) = 70.69260 88.70271 46.87581
#
# Poissons Ratio (x) = 0.31706 -0.02326
# Poissons Ratio (y) = 0.25269 0.03843
# Poissons Ratio (z) = -0.03509 0.07272
#
# Static dielectric constant tensor:
#      x y z
#    x 1.645430 -0.021130 -0.062060 
#    y -0.021130 1.606900 0.000020 
#    z -0.062060 0.000020 1.742730 
# 
# From -- ./inp_files/305068.got.cif
#   From: 2010.05.17/outbox.cif.g08.bks.cpg/sg2_153_cif.got.tgz:305068.got - 2010.06.03 11:33:40.
