data_PCOD9077238
_publ_section_title
;
Structure prediction by ZEFSAII (Michael W. Deem and Ramdas Pophale) SiO2 
 PCOD9077238
Probable space group: P -1
;
_chemical_formula_sum "Si O2"
_cell_formula_units_Z 16
_cell_length_a 8.434459
_cell_length_b 7.814230
_cell_length_c 16.573226
_cell_angle_alpha 47.357896
_cell_angle_beta 134.774742
_cell_angle_gamma 119.626031
_cell_volume 570.087366
_symmetry_space_group_name_H-M "P -1"
_symmetry_group_IT_number 2
_symmetry_cell_setting 'triclinic'
loop_
_space_group_symop_operation_xyz
x,y,z
-x,-y,-z
loop_
_atom_site_type_symbol
_atom_site_label
_atom_site_fract_x
_atom_site_fract_y
_atom_site_fract_z
Si Si1 0.568526 0.732388 0.001661
Si Si2 0.351026 0.595153 0.137302
Si Si3 0.526467 0.101567 0.634796
Si Si4 0.011384 0.502201 0.755552
Si Si5 0.946810 0.856591 0.881503
Si Si6 0.846109 0.019045 0.252999
Si Si7 0.893559 0.201956 0.451166
Si Si8 0.487949 0.488175 0.611294
O O1 0.481154 0.686606 0.075903
O O2 0.835745 0.715028 0.099313
O O3 0.500000 0.500000 0.000000
O O4 0.423354 0.949689 0.852066
O O5 0.200569 0.369275 0.129867
O O6 0.518519 0.543048 0.286187
O O7 0.153877 0.769443 0.035116
O O8 0.398829 0.271478 0.595566
O O9 0.592072 0.268449 0.529767
O O10 0.744349 0.012039 0.785860
O O11 0.364059 0.893091 0.612320
O O12 0.081891 0.731075 0.760500
O O13 0.070113 0.569051 0.662579
O O14 0.750885 0.486431 0.683784
O O15 0.064918 0.971188 0.808891
O O16 0.979433 0.822827 0.410856
O O17 0.000000 0.000000 0.500000
#
# Coordination Sequence:
#
# PCOD9077238 Si02
#       8
#     2   2   2   2   2   2   2   2
#     4   9  19  32  59  90 114 148 194 250 304 349
#     4  10  20  38  61  91 122 156 203 257 298 359
#     4  11  23  38  60  88 125 168 201 244 308 360
#     4  10  18  36  59  88 117 154 199 249 296 356
#     4  10  20  34  61  90 116 154 211 252 292 359
#     4   9  17  33  54  90 114 144 196 264 289 345
#     4  10  18  34  57  85 113 152 204 252 287 349
#     4  11  23  40  59  88 133 160 198 249 305 366
#
# _framework density 28.065874999999998
#
# number of rings (size 3 to 8) (size 9 to 14) (size 15 to 20)
#    0.000    2.000    3.750    0.750    1.750    3.500 
#    0.000    0.000    5.500    3.750    0.000    0.000 
#    0.000    0.000    0.000    0.000    0.000    0.000 
#
# Total GULP energy -89626.017074 kJ/mol
# GULP energy per Si atom -5601.626067 kJ/mol
# Density = 2.800200 g / cm^3
# Si number density = 28.065875 Si / 1000 Ang^3
#
#
#
# Elastic Constant Matrix: (Units=GPa)
#
#
# Indices 1 2 3 4 5 6 
#
# 1 99.4825 18.9953 22.1742 5.4692 9.6935 3.1751
# 2 18.9953 91.7391 28.5097 3.4318 4.2418 6.6409
# 3 22.1742 28.5097 81.2860 14.2794 15.3804 6.8400
# 4 5.4692 3.4318 14.2794 41.8410 -5.6750 8.3979
# 5 9.6935 4.2418 15.3804 -5.6750 62.3987 13.0476
# 6 3.1751 6.6409 6.8400 8.3979 13.0476 31.5791
#
#
#
# Elastic Compliance Matrix: (Units=1/GPa)
#
#
# Indices 1 2 3 4 5 6 
#
# 1 0.010972 -0.001561 -0.002097 -0.000843 -0.001246 0.000418
# 2 -0.001561 0.012607 -0.004205 0.001210 0.001019 -0.002326
# 3 -0.002097 -0.004205 0.016015 -0.005539 -0.003997 0.000751
# 4 -0.000843 0.001210 -0.005539 0.028392 0.005867 -0.008944
# 5 -0.001246 0.001019 -0.003997 0.005867 0.019519 -0.008848
# 6 0.000418 -0.002326 0.000751 -0.008944 -0.008848 0.037985
#
#
# Mechanical properties :
#
#
# Convention : Reuss Voigt Hill
#
# Bulk Modulus (GPa) = 41.89860 45.76289 43.83074
# Shear Modulus (GPa) = 33.51812 40.68566 37.10189
#
# Velocity S-wave (km/s) = 3.45956 3.81156 3.63982
# Velocity P-wave (km/s) = 5.56050 5.97591 5.77195
#
# Compressibility (1/GPa) = 0.02386715
#
# Stress axis : x y z
#
# Youngs Moduli (GPa) = 91.14195 79.32338 62.44023
#
# Poissons Ratio (x) = 0.12385 0.13092
# Poissons Ratio (y) = 0.14230 0.26258
# Poissons Ratio (z) = 0.19110 0.33357
#
# Static dielectric constant tensor:
#      x y z
#    x 2.168360 0.031050 -0.019010 
#    y 0.031050 2.320750 0.023460 
#    z -0.019010 0.023460 2.212480 
# 
# From -- ./inp_files/556926.got.cif
#   From: 2010.05.17/outbox.cif.g08.bks.cpg/sg2_279_cif.got.tgz:556926.got - 2010.06.03 11:33:40.
