data_PCOD9077428
_publ_section_title
;
Structure prediction by ZEFSAII (Michael W. Deem and Ramdas Pophale) SiO2 
 PCOD9077428
Probable space group: P -1
;
_chemical_formula_sum "Si O2"
_cell_formula_units_Z 12
_cell_length_a 5.564110
_cell_length_b 10.805725
_cell_length_c 11.255788
_cell_angle_alpha 47.765535
_cell_angle_beta 89.562742
_cell_angle_gamma 86.972696
_cell_volume 500.008047
_symmetry_space_group_name_H-M "P -1"
_symmetry_group_IT_number 2
_symmetry_cell_setting 'triclinic'
loop_
_space_group_symop_operation_xyz
x,y,z
-x,-y,-z
loop_
_atom_site_type_symbol
_atom_site_label
_atom_site_fract_x
_atom_site_fract_y
_atom_site_fract_z
Si Si1 0.461859 0.313575 0.664824
Si Si2 0.418535 0.584350 0.166082
Si Si3 0.754272 0.008314 0.917886
Si Si4 0.831734 0.377403 0.234280
Si Si5 0.985983 0.258661 0.071949
Si Si6 0.921975 0.619753 0.532991
O O1 0.500000 0.500000 0.500000
O O2 0.396971 0.342587 0.785469
O O3 0.260366 0.247425 0.620613
O O4 0.699778 0.191493 0.742080
O O5 0.548376 0.432063 0.191369
O O6 0.231375 0.496421 0.306707
O O7 0.276217 0.728720 0.999493
O O8 0.825435 0.876853 0.898239
O O9 0.500000 0.000000 0.000000
O O10 0.000000 0.000000 0.000000
O O11 0.938691 0.249451 0.218341
O O12 0.891194 0.324886 0.404240
O O13 0.928820 0.556806 0.079079
O O14 0.000000 0.500000 0.500000
#
# Coordination Sequence:
#
# PCOD9077428 Si02
#       6
#     2   2   2   2   2   2
#     4  10  21  38  63  94 127 172 223 276 335 401
#     4  10  18  34  59  89 120 162 219 270 325 392
#     4  12  26  44  68 101 139 175 229 290 340 399
#     4  10  20  37  60  92 128 172 219 271 335 408
#     4  10  22  37  60  92 130 170 218 278 338 397
#     4  10  20  32  57  89 120 161 220 265 318 396
#
# _framework density 23.999611999999999
#
# number of rings (size 3 to 8) (size 9 to 14) (size 15 to 20)
#    0.000    1.667    3.333    1.500    2.333    0.000 
#    0.000    0.833    0.000    4.000    0.000    0.000 
#    0.000    0.000    0.000    0.000    0.000    0.000 
#
# Total GULP energy -66849.006615 kJ/mol
# GULP energy per Si atom -5570.750551 kJ/mol
# Density = 2.394499 g / cm^3
# Si number density = 23.999612 Si / 1000 Ang^3
#
#
#
# Elastic Constant Matrix: (Units=GPa)
#
#
# Indices 1 2 3 4 5 6 
#
# 1 87.3438 45.0434 33.5512 7.5301 19.4353 -31.5650
# 2 45.0434 165.9875 47.7378 6.0492 3.8974 -48.9734
# 3 33.5512 47.7378 93.4221 1.9306 27.1525 -17.9846
# 4 7.5301 6.0492 1.9306 39.7099 -10.5035 -2.4511
# 5 19.4353 3.8974 27.1525 -10.5035 35.7013 -3.7019
# 6 -31.5650 -48.9734 -17.9846 -2.4511 -3.7019 32.1294
#
#
#
# Elastic Compliance Matrix: (Units=1/GPa)
#
#
# Indices 1 2 3 4 5 6 
#
# 1 0.021607 0.000917 -0.001116 -0.005728 -0.010589 0.020343
# 2 0.000917 0.011925 -0.003999 0.000070 0.003044 0.017196
# 3 -0.001116 -0.003999 0.017081 -0.003376 -0.012875 0.000629
# 4 -0.005728 0.000070 -0.003376 0.029942 0.014125 -0.003498
# 5 -0.010589 0.003044 -0.012875 0.014125 0.046715 -0.006511
# 6 0.020343 0.017196 0.000629 -0.003498 -0.006511 0.076656
#
#
# Mechanical properties :
#
#
# Convention : Reuss Voigt Hill
#
# Bulk Modulus (GPa) = 23.68678 66.60203 45.14440
# Shear Modulus (GPa) = 22.08537 36.20286 29.14412
#
# Velocity S-wave (km/s) = 3.03683 3.88813 3.48854
# Velocity P-wave (km/s) = 4.71037 6.92591 5.92266
#
# Compressibility (1/GPa) = 0.04221765
#
# Stress axis : x y z
#
# Youngs Moduli (GPa) = 46.28203 83.85619 58.54417
#
# Poissons Ratio (x) = -0.07691 0.06533
# Poissons Ratio (y) = -0.04245 0.23411
# Poissons Ratio (z) = 0.05165 0.33533
#
# Static dielectric constant tensor:
#      x y z
#    x 2.338390 0.058320 0.024480 
#    y 0.058320 1.993000 0.001430 
#    z 0.024480 0.001430 2.011270 
# 
# From -- ./inp_files/361040.got.cif
#   From: 2010.05.17/outbox.cif.g08.bks.cpg/sg2_181_cif.got.tgz:361040.got - 2010.06.03 11:33:40.
