data_PCOD9077488
_publ_section_title
;
Structure prediction by ZEFSAII (Michael W. Deem and Ramdas Pophale) SiO2 
 PCOD9077488
Probable space group: P -1
;
_chemical_formula_sum "Si O2"
_cell_formula_units_Z 14
_cell_length_a 10.141958
_cell_length_b 13.049546
_cell_length_c 17.129321
_cell_angle_alpha 137.767191
_cell_angle_beta 126.929402
_cell_angle_gamma 29.164576
_cell_volume 735.294800
_symmetry_space_group_name_H-M "P -1"
_symmetry_group_IT_number 2
_symmetry_cell_setting 'triclinic'
loop_
_space_group_symop_operation_xyz
x,y,z
-x,-y,-z
loop_
_atom_site_type_symbol
_atom_site_label
_atom_site_fract_x
_atom_site_fract_y
_atom_site_fract_z
Si Si1 0.200056 0.859751 0.417994
Si Si2 0.545203 0.846660 0.262656
Si Si3 0.154689 0.562945 0.169418
Si Si4 0.191339 0.376875 0.241204
Si Si5 0.678042 0.644685 0.555808
Si Si6 0.242452 0.086044 0.433625
Si Si7 0.578900 0.817359 0.084184
O O1 0.164404 0.734604 0.284321
O O2 0.493643 0.663981 0.452946
O O3 0.164382 0.029018 0.443028
O O4 0.000000 0.000000 0.500000
O O5 0.529845 0.790128 0.138414
O O6 0.863226 0.610775 0.267418
O O7 0.440543 0.099228 0.358802
O O8 0.349660 0.921877 0.301520
O O9 0.240579 0.423521 0.203396
O O10 0.847369 0.728881 0.136927
O O11 0.344756 0.363104 0.054757
O O12 0.322897 0.365248 0.355817
O O13 0.326356 0.110579 0.136685
O O14 0.987662 0.383123 0.494760
O O15 0.500000 0.000000 0.500000
#
# Coordination Sequence:
#
# PCOD9077488 Si02
#       7
#     2   2   2   2   2   2   2
#     4  12  25  38  57  92 131 151 190 249 300 357
#     4  10  20  36  59  89 110 149 207 246 277 350
#     4  10  21  38  55  89 120 157 199 244 293 354
#     4  10  18  34  60  85 114 151 202 240 291 349
#     4  11  21  36  61  87 122 156 192 247 297 350
#     4  12  23  39  61  89 120 161 203 235 296 365
#     4   9  20  37  63  81 116 159 203 245 291 345
#
# _framework density 19.039982999999999
#
# number of rings (size 3 to 8) (size 9 to 14) (size 15 to 20)
#    0.000    1.429    2.857    4.286    0.000    3.429 
#    0.000    0.714    0.000    1.714    0.000    0.000 
#    0.000    0.000    0.000    0.000    0.000    0.000 
#
# Total GULP energy -78138.675672 kJ/mol
# GULP energy per Si atom -5581.333977 kJ/mol
# Density = 1.899665 g / cm^3
# Si number density = 19.039983 Si / 1000 Ang^3
#
#
#
# Elastic Constant Matrix: (Units=GPa)
#
#
# Indices 1 2 3 4 5 6 
#
# 1 99.3604 29.6699 45.5719 7.2054 -23.2190 13.0691
# 2 29.6699 111.0014 36.8021 16.5714 -5.5994 1.5062
# 3 45.5719 36.8021 123.0471 9.5326 -17.8746 -0.7740
# 4 7.2054 16.5714 9.5326 23.8613 -5.6517 -6.5986
# 5 -23.2190 -5.5994 -17.8746 -5.6517 33.3994 1.0885
# 6 13.0691 1.5062 -0.7740 -6.5986 1.0885 25.1458
#
#
#
# Elastic Compliance Matrix: (Units=1/GPa)
#
#
# Indices 1 2 3 4 5 6 
#
# 1 0.015819 -0.002034 -0.003896 -0.002345 0.008475 -0.009202
# 2 -0.002034 0.011334 -0.002373 -0.007185 -0.001951 -0.001495
# 3 -0.003896 -0.002373 0.010672 -0.000203 0.002495 0.002334
# 4 -0.002345 -0.007185 -0.000203 0.053259 0.005567 0.015378
# 5 0.008475 -0.001951 0.002495 0.005567 0.037926 -0.004392
# 6 -0.009202 -0.001495 0.002334 0.015378 -0.004392 0.048938
#
#
# Mechanical properties :
#
#
# Convention : Reuss Voigt Hill
#
# Bulk Modulus (GPa) = 47.12435 61.94410 54.53422
# Shear Modulus (GPa) = 24.79835 31.23899 28.01867
#
# Velocity S-wave (km/s) = 3.61284 4.05496 3.84027
# Velocity P-wave (km/s) = 6.49673 7.38430 6.95469
#
# Compressibility (1/GPa) = 0.02122045
#
# Stress axis : x y z
#
# Youngs Moduli (GPa) = 63.21336 88.23201 93.70127
#
# Poissons Ratio (x) = 0.17950 0.36502
# Poissons Ratio (y) = 0.12860 0.22231
# Poissons Ratio (z) = 0.24625 0.20934
#
# Static dielectric constant tensor:
#      x y z
#    x 1.695650 0.012590 -0.036450 
#    y 0.012590 1.674740 -0.011140 
#    z -0.036450 -0.011140 1.674580 
# 
# From -- ./inp_files/68108.got.cif
#   From: 2010.05.17/outbox.cif.g08.bks.cpg/sg2_35_cif.got.tgz:68108.got - 2010.06.03 11:33:40.
