data_PCOD9077454
_publ_section_title
;
Structure prediction by ZEFSAII (Michael W. Deem and Ramdas Pophale) SiO2 
 PCOD9077454
Probable space group: P -1
;
_chemical_formula_sum "Si O2"
_cell_formula_units_Z 14
_cell_length_a 13.032714
_cell_length_b 15.099742
_cell_length_c 11.815517
_cell_angle_alpha 136.974383
_cell_angle_beta 32.273359
_cell_angle_gamma 152.710058
_cell_volume 567.273195
_symmetry_space_group_name_H-M "P -1"
_symmetry_group_IT_number 2
_symmetry_cell_setting 'triclinic'
loop_
_space_group_symop_operation_xyz
x,y,z
-x,-y,-z
loop_
_atom_site_type_symbol
_atom_site_label
_atom_site_fract_x
_atom_site_fract_y
_atom_site_fract_z
Si Si1 0.685471 0.380662 0.898485
Si Si2 0.550486 0.951109 0.524679
Si Si3 0.236756 0.521047 0.440537
Si Si4 0.332922 0.309698 0.605275
Si Si5 0.047847 0.832727 0.981876
Si Si6 0.153750 0.225152 0.131436
Si Si7 0.307688 0.592995 0.829013
O O1 0.403170 0.258787 0.974659
O O2 0.609512 0.316601 0.039664
O O3 0.864031 0.605944 0.945705
O O4 0.907760 0.389633 0.649258
O O5 0.391781 0.733291 0.466381
O O6 0.500000 0.000000 0.500000
O O7 0.376314 0.949593 0.777224
O O8 0.887530 0.093645 0.344686
O O9 0.397157 0.545606 0.424251
O O10 0.260277 0.427904 0.233246
O O11 0.270169 0.417844 0.709465
O O12 0.446943 0.267474 0.364784
O O13 0.064245 0.145914 0.784750
O O14 0.047621 0.151556 0.033838
O O15 0.000000 0.500000 0.000000
#
# Coordination Sequence:
#
# PCOD9077454 Si02
#       7
#     2   2   2   2   2   2   2
#     4  10  20  34  59  95 117 160 213 253 310 367
#     4   9  22  40  59  89 129 169 211 248 301 379
#     4  11  21  38  63  89 123 171 201 247 326 358
#     4  10  20  34  61  93 116 165 209 246 314 370
#     4   9  19  38  57  86 127 161 200 252 306 371
#     4  11  21  41  60  90 134 157 207 265 295 379
#     4  10  18  34  59  94 124 151 215 263 296 374
#
# _framework density 24.679468
#
# number of rings (size 3 to 8) (size 9 to 14) (size 15 to 20)
#    0.000    2.000    4.286    0.429    0.000    5.143 
#    2.571    1.429    0.000    1.714    0.000    0.000 
#    0.000    0.000    0.000    0.000    0.000    0.000 
#
# Total GULP energy -78397.171929 kJ/mol
# GULP energy per Si atom -5599.797995 kJ/mol
# Density = 2.462330 g / cm^3
# Si number density = 24.679468 Si / 1000 Ang^3
#
#
#
# Elastic Constant Matrix: (Units=GPa)
#
#
# Indices 1 2 3 4 5 6 
#
# 1 101.8824 25.0902 80.4569 -2.3859 -3.2900 -14.6326
# 2 25.0902 75.2347 34.1538 1.6277 -6.4272 -3.2450
# 3 80.4569 34.1538 261.2890 -8.1688 -4.4371 -8.7614
# 4 -2.3859 1.6277 -8.1688 40.0159 0.0234 -5.9668
# 5 -3.2900 -6.4272 -4.4371 0.0234 57.0805 3.8434
# 6 -14.6326 -3.2450 -8.7614 -5.9668 3.8434 20.1748
#
#
#
# Elastic Compliance Matrix: (Units=1/GPa)
#
#
# Indices 1 2 3 4 5 6 
#
# 1 0.014932 -0.002894 -0.003867 0.001595 -0.000388 0.009231
# 2 -0.002894 0.014867 -0.001089 -0.001119 0.001476 -0.000792
# 3 -0.003867 -0.001089 0.005169 0.000792 0.000091 -0.000518
# 4 0.001595 -0.001119 0.000792 0.026684 -0.000612 0.009329
# 5 -0.000388 0.001476 0.000091 -0.000612 0.017913 -0.003598
# 6 0.009231 -0.000792 -0.000518 0.009329 -0.003598 0.059354
#
#
# Mechanical properties :
#
#
# Convention : Reuss Voigt Hill
#
# Bulk Modulus (GPa) = 51.89521 79.75645 65.82583
# Shear Modulus (GPa) = 31.04796 43.36792 37.20794
#
# Velocity S-wave (km/s) = 3.55075 4.19650 3.88706
# Velocity P-wave (km/s) = 6.15498 7.47448 6.84659
#
# Compressibility (1/GPa) = 0.01926960
#
# Stress axis : x y z
#
# Youngs Moduli (GPa) = 66.96922 67.26211 193.45676
#
# Poissons Ratio (x) = 0.19465 0.74808
# Poissons Ratio (y) = 0.19380 0.21062
# Poissons Ratio (z) = 0.25896 0.07323
#
# Static dielectric constant tensor:
#      x y z
#    x 1.925390 -0.022950 0.035690 
#    y -0.022950 2.079130 -0.019280 
#    z 0.035690 -0.019280 2.011440 
# 
# From -- ./inp_files/534360.got.cif
#   From: 2010.05.17/outbox.cif.g08.bks.cpg/sg2_268_cif.got.tgz:534360.got - 2010.06.03 11:33:40.
