data_PCOD9077418
_publ_section_title
;
Structure prediction by ZEFSAII (Michael W. Deem and Ramdas Pophale) SiO2 
 PCOD9077418
Probable space group: P -1
;
_chemical_formula_sum "Si O2"
_cell_formula_units_Z 16
_cell_length_a 20.595297
_cell_length_b 5.602499
_cell_length_c 19.279598
_cell_angle_alpha 132.386510
_cell_angle_beta 158.448075
_cell_angle_gamma 55.127254
_cell_volume 590.943085
_symmetry_space_group_name_H-M "P -1"
_symmetry_group_IT_number 2
_symmetry_cell_setting 'triclinic'
loop_
_space_group_symop_operation_xyz
x,y,z
-x,-y,-z
loop_
_atom_site_type_symbol
_atom_site_label
_atom_site_fract_x
_atom_site_fract_y
_atom_site_fract_z
Si Si1 0.731228 0.713897 0.840422
Si Si2 0.310249 0.583065 0.042668
Si Si3 0.328579 0.437344 0.398229
Si Si4 0.281375 0.637352 0.660394
Si Si5 0.706646 0.815977 0.306927
Si Si6 0.031066 0.171756 0.780635
Si Si7 0.896039 0.549504 0.317507
Si Si8 0.697976 0.808037 0.523100
O O1 0.546317 0.440434 0.613035
O O2 0.758033 0.760894 0.794277
O O3 0.673896 0.031226 0.878856
O O4 0.913381 0.709031 0.062584
O O5 0.498270 0.582084 0.266157
O O6 0.149099 0.463520 0.911571
O O7 0.242792 0.391212 0.868353
O O8 0.258108 0.271885 0.369444
O O9 0.304842 0.812698 0.427090
O O10 0.384965 0.461573 0.785384
O O11 0.199824 0.352191 0.467037
O O12 0.100491 0.716936 0.531329
O O13 0.388930 0.961443 0.793163
O O14 0.827452 0.646493 0.341961
O O15 0.830203 0.081319 0.532606
O O16 0.099872 0.839560 0.760586
#
# Coordination Sequence:
#
# PCOD9077418 Si02
#       8
#     2   2   2   2   2   2   2   2
#     4   9  20  33  58  91 115 150 200 241 283 329
#     4  10  20  35  60  88 119 149 190 250 284 339
#     4  10  21  37  59  85 120 157 193 235 283 357
#     4  11  22  39  60  86 116 156 193 237 291 352
#     4  11  23  39  65  84 111 155 204 239 278 344
#     4  10  18  34  59  88 116 142 193 253 283 325
#     4  10  22  38  62  87 110 154 203 242 278 340
#     4  11  23  39  59  87 123 155 186 235 305 344
#
# _framework density 27.075368000000001
#
# number of rings (size 3 to 8) (size 9 to 14) (size 15 to 20)
#    0.000    1.750    2.500    2.625    3.500    1.500 
#    0.000    1.250    0.000   19.500    0.000    0.000 
#    0.000    0.000    0.000    0.000    0.000    0.000 
#
# Total GULP energy -89347.727516 kJ/mol
# GULP energy per Si atom -5584.232970 kJ/mol
# Density = 2.701374 g / cm^3
# Si number density = 27.075368 Si / 1000 Ang^3
#
#
#
# Elastic Constant Matrix: (Units=GPa)
#
#
# Indices 1 2 3 4 5 6 
#
# 1 118.6615 31.7788 40.4002 -15.6606 -36.9120 19.9386
# 2 31.7788 104.8617 7.3945 1.2530 -8.3348 30.9899
# 3 40.4002 7.3945 133.7427 4.9842 -27.7435 14.7923
# 4 -15.6606 1.2530 4.9842 15.0150 -1.3196 -11.0896
# 5 -36.9120 -8.3348 -27.7435 -1.3196 52.2921 -7.0595
# 6 19.9386 30.9899 14.7923 -11.0896 -7.0595 50.1205
#
#
#
# Elastic Compliance Matrix: (Units=1/GPa)
#
#
# Indices 1 2 3 4 5 6 
#
# 1 0.016787 -0.005670 -0.004081 0.023672 0.010010 0.004680
# 2 -0.005670 0.014446 0.002275 -0.016459 -0.002438 -0.011333
# 3 -0.004081 0.002275 0.009922 -0.011234 0.001795 -0.004944
# 4 0.023672 -0.016459 -0.011234 0.122427 0.015722 0.033378
# 5 0.010010 -0.002438 0.001795 0.015722 0.027741 0.004382
# 6 0.004680 -0.011333 -0.004944 0.033378 0.004382 0.034559
#
#
# Mechanical properties :
#
#
# Convention : Reuss Voigt Hill
#
# Bulk Modulus (GPa) = 38.16155 57.37922 47.77039
# Shear Modulus (GPa) = 20.03461 41.99834 31.01648
#
# Velocity S-wave (km/s) = 2.72317 3.94275 3.38829
# Velocity P-wave (km/s) = 4.90027 6.47808 5.74361
#
# Compressibility (1/GPa) = 0.02620438
#
# Stress axis : x y z
#
# Youngs Moduli (GPa) = 59.57058 69.22096 100.78803
#
# Poissons Ratio (x) = 0.39247 0.41129
# Poissons Ratio (y) = 0.33775 -0.22931
# Poissons Ratio (z) = 0.24309 -0.15749
#
# Static dielectric constant tensor:
#      x y z
#    x 2.174840 -0.002330 -0.003580 
#    y -0.002330 2.224450 -0.033600 
#    z -0.003580 -0.033600 2.107850 
# 
# From -- ./inp_files/75692.got.cif
#   From: 2010.05.17/outbox.cif.g08.bks.cpg/sg2_38_cif.got.tgz:75692.got - 2010.06.03 11:33:40.
