data_PCOD9077346
_publ_section_title
;
Structure prediction by ZEFSAII (Michael W. Deem and Ramdas Pophale) SiO2 
 PCOD9077346
Probable space group: P -1
;
_chemical_formula_sum "Si O2"
_cell_formula_units_Z 14
_cell_length_a 12.681170
_cell_length_b 9.633529
_cell_length_c 14.513653
_cell_angle_alpha 119.551135
_cell_angle_beta 49.668251
_cell_angle_gamma 154.655133
_cell_volume 555.256863
_symmetry_space_group_name_H-M "P -1"
_symmetry_group_IT_number 2
_symmetry_cell_setting 'triclinic'
loop_
_space_group_symop_operation_xyz
x,y,z
-x,-y,-z
loop_
_atom_site_type_symbol
_atom_site_label
_atom_site_fract_x
_atom_site_fract_y
_atom_site_fract_z
Si Si1 0.928364 0.613619 0.180502
Si Si2 0.905444 0.607776 0.831848
Si Si3 0.294810 0.426663 0.553059
Si Si4 0.343283 0.372183 0.313826
Si Si5 0.548519 0.832491 0.205693
Si Si6 0.833428 0.892643 0.927601
Si Si7 0.554232 0.242858 0.100382
O O1 0.703892 0.426958 0.327896
O O2 0.746102 0.357897 0.112323
O O3 0.065092 0.916761 0.159325
O O4 0.222378 0.843087 0.138103
O O5 0.700910 0.344029 0.775564
O O6 0.986831 0.879283 0.855280
O O7 0.689663 0.386876 0.969283
O O8 0.220462 0.846628 0.751466
O O9 0.500000 0.500000 0.500000
O O10 0.392593 0.536763 0.428270
O O11 0.966635 0.024274 0.616390
O O12 0.374668 0.519652 0.257641
O O13 0.537646 0.410923 0.199746
O O14 0.797723 0.003927 0.055248
O O15 0.500000 0.500000 0.000000
#
# Coordination Sequence:
#
# PCOD9077346 Si02
#       7
#     2   2   2   2   2   2   2
#     4  11  19  25  33  39  48  53  63  66  75  79
#     4  11  17  24  32  45  50  51  56  64  81  85
#     4  10  19  28  31  35  44  58  64  69  69  79
#     4  10  20  26  31  38  46  54  63  67  74  78
#     4  11  19  24  34  43  48  52  57  68  76  86
#     4  10  15  23  31  41  46  49  55  65  77  81
#     4  11  16  26  33  42  48  54  56  69  74  86
#
# _framework density 25.213554999999999
#
# number of rings (size 3 to 8) (size 9 to 14) (size 15 to 20)
#    0.000    1.429    7.143    3.857    2.000    0.000 
#    0.000    0.000    0.000    0.000    0.000    0.000 
#    0.000    0.000    0.000    0.000    0.000    0.000 
#
# Total GULP energy -78022.201654 kJ/mol
# GULP energy per Si atom -5573.014404 kJ/mol
# Density = 2.515617 g / cm^3
# Si number density = 25.213555 Si / 1000 Ang^3
#
#
#
# Elastic Constant Matrix: (Units=GPa)
#
#
# Indices 1 2 3 4 5 6 
#
# 1 85.7953 59.5785 54.9958 10.1424 -5.6616 20.9301
# 2 59.5785 110.6192 1.4689 3.4462 1.9358 40.5589
# 3 54.9958 1.4689 103.4445 14.0038 39.5134 -0.9947
# 4 10.1424 3.4462 14.0038 16.2890 17.0608 9.3142
# 5 -5.6616 1.9358 39.5134 17.0608 24.5593 2.4217
# 6 20.9301 40.5589 -0.9947 9.3142 2.4217 62.2152
#
#
#
# Elastic Compliance Matrix: (Units=1/GPa)
#
#
# Indices 1 2 3 4 5 6 
#
# 1 0.000667 0.000513 0.008770 0.030443 -0.034787 -0.003622
# 2 0.000513 0.011220 -0.005957 -0.014344 0.019393 -0.006190
# 3 0.008770 -0.005957 -0.000167 -0.034160 0.025994 0.005033
# 4 0.030443 -0.014344 -0.034160 0.049229 0.029894 -0.009970
# 5 -0.034787 0.019393 0.025994 0.029894 -0.031045 -0.003791
# 6 -0.003622 -0.006190 0.005033 -0.009970 -0.003791 0.023047
#
#
# Mechanical properties :
#
#
# Convention : Reuss Voigt Hill
#
# Bulk Modulus (GPa) = 54.43500 59.10504 56.77002
# Shear Modulus (GPa) = 95.37502 32.86709 64.12105
#
# Velocity S-wave (km/s) = 6.15703 3.61439 5.04840
# Velocity P-wave (km/s) = 8.49599 6.39617 7.51973
#
# Compressibility (1/GPa) = 0.01837053
#
# Stress axis : x y z
#
# Youngs Moduli (GPa) = 1498.72454 89.12635 -5978.36838
#
# Poissons Ratio (x) = -0.04568 52.42959
# Poissons Ratio (y) = -0.76810 -35.61381
# Poissons Ratio (z) = -13.14364 0.53094
#
# Static dielectric constant tensor:
#      x y z
#    x 2.236420 0.620590 -0.003730 
#    y 0.620590 3.948250 0.156740 
#    z -0.003730 0.156740 2.104060 
# 
# From -- ./inp_files/534870.got.cif
#   From: 2010.05.17/outbox.cif.g08.bks.cpg/sg2_268_cif.got.tgz:534870.got - 2010.06.03 11:33:40.
