data_PCOD9077001
_publ_section_title
;
Structure prediction by ZEFSAII (Michael W. Deem and Ramdas Pophale) SiO2 
 PCOD9077001
Probable space group: P -1
;
_chemical_formula_sum "Si O2"
_cell_formula_units_Z 14
_cell_length_a 13.933382
_cell_length_b 11.324530
_cell_length_c 10.201348
_cell_angle_alpha 128.254743
_cell_angle_beta 140.426923
_cell_angle_gamma 36.996863
_cell_volume 617.062140
_symmetry_space_group_name_H-M "P -1"
_symmetry_group_IT_number 2
_symmetry_cell_setting 'triclinic'
loop_
_space_group_symop_operation_xyz
x,y,z
-x,-y,-z
loop_
_atom_site_type_symbol
_atom_site_label
_atom_site_fract_x
_atom_site_fract_y
_atom_site_fract_z
Si Si1 0.584100 0.800491 0.873123
Si Si2 0.743323 0.464939 0.118461
Si Si3 0.017511 0.857151 0.621358
Si Si4 0.954820 0.576420 0.270637
Si Si5 0.376540 0.684829 0.741655
Si Si6 0.801604 0.146826 0.811105
Si Si7 0.605448 0.684822 0.525504
O O1 0.813697 0.631795 0.037921
O O2 0.462525 0.738907 0.761159
O O3 0.576144 0.795543 0.704671
O O4 0.500000 0.000000 0.000000
O O5 0.835936 0.317750 0.236668
O O6 0.139942 0.458662 0.735229
O O7 0.509584 0.630585 0.976245
O O8 0.765935 0.344817 0.931005
O O9 0.926594 0.771078 0.398546
O O10 0.156247 0.861371 0.675446
O O11 0.858395 0.057709 0.665863
O O12 0.188356 0.396725 0.377797
O O13 0.370896 0.513060 0.572101
O O14 0.609200 0.177531 0.676606
O O15 0.000000 0.000000 0.000000
#
# Coordination Sequence:
#
# PCOD9077001 Si02
#       7
#     2   2   2   2   2   2   2
#     4  11  22  37  55  81 110 140 182 231 267 310
#     4   9  18  34  55  80 110 141 176 220 268 323
#     4  10  18  34  54  80 109 140 176 223 267 316
#     4  10  21  35  55  82 109 144 182 217 268 324
#     4   9  20  35  56  79 104 144 185 216 267 326
#     4   9  19  35  55  79 108 140 180 223 265 316
#     4  10  20  38  56  75 109 149 179 218 268 323
#
# _framework density 22.688153
#
# number of rings (size 3 to 8) (size 9 to 14) (size 15 to 20)
#    0.000    2.286    0.000    2.571    0.000    2.286 
#    0.000   10.714    0.000    0.000    0.000    0.000 
#    0.000    0.000    0.000    0.000    0.000    0.000 
#
# Total GULP energy -78030.309938 kJ/mol
# GULP energy per Si atom -5573.593567 kJ/mol
# Density = 2.263651 g / cm^3
# Si number density = 22.688153 Si / 1000 Ang^3
#
#
#
# Elastic Constant Matrix: (Units=GPa)
#
#
# Indices 1 2 3 4 5 6 
#
# 1 61.6551 16.1917 35.1367 -1.3283 30.9817 -16.5950
# 2 16.1917 39.4898 26.9770 -19.1839 10.7547 -18.9783
# 3 35.1367 26.9770 120.9627 -21.1078 17.4462 -13.9546
# 4 -1.3283 -19.1839 -21.1078 35.8267 -5.3035 -1.8307
# 5 30.9817 10.7547 17.4462 -5.3035 39.0249 -7.3368
# 6 -16.5950 -18.9783 -13.9546 -1.8307 -7.3368 30.1460
#
#
#
# Elastic Compliance Matrix: (Units=1/GPa)
#
#
# Indices 1 2 3 4 5 6 
#
# 1 0.034043 -0.003099 -0.006215 -0.007038 -0.022862 0.007921
# 2 -0.003099 0.064817 -0.002637 0.034748 -0.002078 0.039483
# 3 -0.006215 -0.002637 0.011502 0.005391 0.001424 0.000917
# 4 -0.007038 0.034748 0.005391 0.051489 0.005282 0.024909
# 5 -0.022862 -0.002078 0.001424 0.005282 0.044015 -0.002201
# 6 0.007921 0.039483 0.000917 0.024909 -0.002201 0.063790
#
#
# Mechanical properties :
#
#
# Convention : Reuss Voigt Hill
#
# Bulk Modulus (GPa) = 11.56609 42.07984 26.82296
# Shear Modulus (GPa) = 15.50982 30.58633 23.04808
#
# Velocity S-wave (km/s) = 2.61743 3.67566 3.19072
# Velocity P-wave (km/s) = 3.77406 6.04990 5.04206
#
# Compressibility (1/GPa) = 0.08645966
#
# Stress axis : x y z
#
# Youngs Moduli (GPa) = 29.37439 15.42816 86.94501
#
# Poissons Ratio (x) = 0.04782 0.54033
# Poissons Ratio (y) = 0.09104 0.22927
# Poissons Ratio (z) = 0.18255 0.04068
#
# Static dielectric constant tensor:
#      x y z
#    x 1.821600 -0.035040 -0.030020 
#    y -0.035040 1.998680 -0.097930 
#    z -0.030020 -0.097930 1.917440 
# 
# From -- ./inp_files/465652.got.cif
#   From: 2010.05.17/outbox.cif.g08.bks.cpg/sg2_233_cif.got.tgz:465652.got - 2010.06.03 11:33:40.
