data_PCOD9077739
_publ_section_title
;
Structure prediction by ZEFSAII (Michael W. Deem and Ramdas Pophale) SiO2 
 PCOD9077739
Probable space group: P -1
;
_chemical_formula_sum "Si O2"
_cell_formula_units_Z 12
_cell_length_a 11.703450
_cell_length_b 10.405906
_cell_length_c 12.315220
_cell_angle_alpha 78.750204
_cell_angle_beta 144.675809
_cell_angle_gamma 125.518409
_cell_volume 568.511625
_symmetry_space_group_name_H-M "P -1"
_symmetry_group_IT_number 2
_symmetry_cell_setting 'triclinic'
loop_
_space_group_symop_operation_xyz
x,y,z
-x,-y,-z
loop_
_atom_site_type_symbol
_atom_site_label
_atom_site_fract_x
_atom_site_fract_y
_atom_site_fract_z
Si Si1 0.797375 0.013701 0.395335
Si Si2 0.348684 0.699364 0.953230
Si Si3 0.387245 0.438760 0.797501
Si Si4 0.768469 0.972708 0.630099
Si Si5 0.742585 0.261979 0.561111
Si Si6 0.394094 0.176707 0.111150
O O1 0.722297 0.936616 0.471943
O O2 0.502247 0.885065 0.116362
O O3 0.000000 0.000000 0.500000
O O4 0.033855 0.249023 0.547225
O O5 0.488092 0.780526 0.927637
O O6 0.003749 0.496295 0.710932
O O7 0.465485 0.623281 0.115087
O O8 0.493557 0.624146 0.797147
O O9 0.500000 0.500000 0.000000
O O10 0.476965 0.806297 0.501376
O O11 0.855636 0.169268 0.684775
O O12 0.041155 0.013509 0.865608
O O13 0.541687 0.153178 0.314897
#
# Coordination Sequence:
#
# PCOD9077739 Si02
#       6
#     2   2   2   2   2   2
#     4  10  18  34  64  82 108 158 184 226 290 337
#     4  10  19  35  58  86 113 148 189 232 283 331
#     4   9  15  31  59  79 105 142 189 225 267 324
#     4  11  21  40  58  82 118 148 190 233 285 332
#     4  11  24  35  58  90 112 148 192 236 278 332
#     4  11  19  38  61  82 113 151 193 232 274 335
#
# _framework density 21.107748000000001
#
# number of rings (size 3 to 8) (size 9 to 14) (size 15 to 20)
#    0.000    1.667    6.667    2.000    0.000    0.667 
#    0.000    3.333    0.000    4.000    0.000    0.000 
#    0.000    0.000    0.000    0.000    0.000    0.000 
#
# Total GULP energy -66926.736970 kJ/mol
# GULP energy per Si atom -5577.228081 kJ/mol
# Density = 2.105971 g / cm^3
# Si number density = 21.107748 Si / 1000 Ang^3
#
#
#
# Elastic Constant Matrix: (Units=GPa)
#
#
# Indices 1 2 3 4 5 6 
#
# 1 96.7845 9.6476 44.8844 16.6896 8.1129 30.1150
# 2 9.6476 21.1105 10.6523 -1.2446 6.7976 -2.6307
# 3 44.8844 10.6523 131.2911 11.5108 0.6914 6.9702
# 4 16.6896 -1.2446 11.5108 27.2375 -3.5690 3.7589
# 5 8.1129 6.7976 0.6914 -3.5690 32.1120 4.6060
# 6 30.1150 -2.6307 6.9702 3.7589 4.6060 24.4526
#
#
#
# Elastic Compliance Matrix: (Units=1/GPa)
#
#
# Indices 1 2 3 4 5 6 
#
# 1 0.024464 -0.012671 -0.004979 -0.009575 -0.000363 -0.028533
# 2 -0.012671 0.061902 -0.002498 0.006640 -0.012600 0.024330
# 3 -0.004979 -0.002498 0.009468 -0.001378 0.000972 0.003194
# 4 -0.009575 0.006640 -0.001378 0.043410 0.005113 0.005263
# 5 -0.000363 -0.012600 0.000972 0.005113 0.035695 -0.008696
# 6 -0.028533 0.024330 0.003194 0.005263 -0.008696 0.078572
#
#
# Mechanical properties :
#
#
# Convention : Reuss Voigt Hill
#
# Bulk Modulus (GPa) = 18.00605 42.17276 30.08941
# Shear Modulus (GPa) = 16.00924 29.02720 22.51822
#
# Velocity S-wave (km/s) = 2.75699 3.71238 3.26977
# Velocity P-wave (km/s) = 4.32247 6.19668 5.34240
#
# Compressibility (1/GPa) = 0.05553689
#
# Stress axis : x y z
#
# Youngs Moduli (GPa) = 40.87610 16.15461 105.62196
#
# Poissons Ratio (x) = 0.20470 0.52592
# Poissons Ratio (y) = 0.51795 0.26384
# Poissons Ratio (z) = 0.20353 0.04035
#
# Static dielectric constant tensor:
#      x y z
#    x 1.802610 -0.077990 0.000490 
#    y -0.077990 1.806890 0.016350 
#    z 0.000490 0.016350 1.833280 
# 
# From -- ./inp_files/162149.got.cif
#   From: 2010.05.17/outbox.cif.g08.bks.cpg/sg2_82_cif.got.tgz:162149.got - 2010.06.03 11:33:40.
