data_PCOD9077601
_publ_section_title
;
Structure prediction by ZEFSAII (Michael W. Deem and Ramdas Pophale) SiO2 
 PCOD9077601
Probable space group: P -1
;
_chemical_formula_sum "Si O2"
_cell_formula_units_Z 16
_cell_length_a 24.654076
_cell_length_b 15.018239
_cell_length_c 20.593229
_cell_angle_alpha 159.426142
_cell_angle_beta 17.450719
_cell_angle_gamma 161.830342
_cell_volume 675.824907
_symmetry_space_group_name_H-M "P -1"
_symmetry_group_IT_number 2
_symmetry_cell_setting 'triclinic'
loop_
_space_group_symop_operation_xyz
x,y,z
-x,-y,-z
loop_
_atom_site_type_symbol
_atom_site_label
_atom_site_fract_x
_atom_site_fract_y
_atom_site_fract_z
Si Si1 0.074940 0.943167 0.710011
Si Si2 0.010010 0.151418 0.689166
Si Si3 0.693040 0.323625 0.676690
Si Si4 0.799589 0.789122 0.038133
Si Si5 0.710328 0.225197 0.828258
Si Si6 0.748596 0.707483 0.373157
Si Si7 0.210224 0.836004 0.170072
Si Si8 0.400265 0.459360 0.196746
O O1 0.266182 0.934718 0.522609
O O2 0.926435 0.628549 0.627306
O O3 0.909001 0.925207 0.938079
O O4 0.144959 0.207334 0.760195
O O5 0.150213 0.374646 0.740057
O O6 0.155330 0.068164 0.423485
O O7 0.924725 0.282670 0.822511
O O8 0.807415 0.839111 0.738333
O O9 0.641315 0.349275 0.678173
O O10 0.526763 0.342141 0.927799
O O11 0.758094 0.468158 0.886308
O O12 0.552225 0.681694 0.233139
O O13 0.000000 0.000000 0.000000
O O14 0.781857 0.013656 0.573396
O O15 0.815720 0.358789 0.869569
O O16 0.457039 0.016634 0.989490
O O17 0.500000 0.500000 0.500000
#
# Coordination Sequence:
#
# PCOD9077601 Si02
#       8
#     2   2   2   2   2   2   2   2
#     4  10  20  36  58  88 116 150 199 237 292 352
#     4  10  19  36  58  89 119 156 195 242 287 345
#     4   9  18  33  63  88 111 157 189 241 296 351
#     4  11  24  39  62  87 119 156 194 242 292 349
#     4  10  20  40  62  85 117 157 199 239 290 345
#     4  11  23  39  63  88 118 155 194 243 292 347
#     4   9  20  34  61  86 115 163 199 231 288 351
#     4  10  18  34  61  88 119 148 197 238 298 342
#
# _framework density 23.674772000000001
#
# number of rings (size 3 to 8) (size 9 to 14) (size 15 to 20)
#    0.000    2.000    2.500    2.250    1.750    3.000 
#    0.000    2.500    0.000    0.000    0.000    0.000 
#    0.000    0.000    0.000    0.000    0.000    0.000 
#
# Total GULP energy -89169.447602 kJ/mol
# GULP energy per Si atom -5573.090475 kJ/mol
# Density = 2.362089 g / cm^3
# Si number density = 23.674772 Si / 1000 Ang^3
#
#
#
# Elastic Constant Matrix: (Units=GPa)
#
#
# Indices 1 2 3 4 5 6 
#
# 1 147.7064 23.3605 -4.3103 -15.2288 -24.8672 11.8498
# 2 23.3605 28.9985 0.9059 -9.0311 -0.0118 0.8732
# 3 -4.3103 0.9059 60.5375 -14.1354 -0.5180 -9.2048
# 4 -15.2288 -9.0311 -14.1354 25.8845 -7.5150 -6.1937
# 5 -24.8672 -0.0118 -0.5180 -7.5150 49.3988 -14.6500
# 6 11.8498 0.8732 -9.2048 -6.1937 -14.6500 34.9910
#
#
#
# Elastic Compliance Matrix: (Units=1/GPa)
#
#
# Indices 1 2 3 4 5 6 
#
# 1 0.009416 -0.005403 0.002799 0.007443 0.006398 0.001679
# 2 -0.005403 0.043299 0.003216 0.015101 0.001013 0.004692
# 3 0.002799 0.003216 0.023579 0.021129 0.008581 0.012507
# 4 0.007443 0.015101 0.021129 0.072227 0.022311 0.024787
# 5 0.006398 0.001013 0.008581 0.022311 0.032128 0.017466
# 6 0.001679 0.004692 0.012507 0.024787 0.017466 0.042883
#
#
# Mechanical properties :
#
#
# Convention : Reuss Voigt Hill
#
# Bulk Modulus (GPa) = 12.90041 30.79496 21.84768
# Shear Modulus (GPa) = 20.14926 36.54062 28.34494
#
# Velocity S-wave (km/s) = 2.92050 3.93293 3.46390
# Velocity P-wave (km/s) = 4.10284 5.80169 5.02459
#
# Compressibility (1/GPa) = 0.07751690
#
# Stress axis : x y z
#
# Youngs Moduli (GPa) = 106.19960 23.09541 42.41146
#
# Poissons Ratio (x) = 0.12478 -0.11871
# Poissons Ratio (y) = 0.57379 -0.13638
# Poissons Ratio (z) = -0.29727 -0.07427
#
# Static dielectric constant tensor:
#      x y z
#    x 2.027340 0.086610 -0.041540 
#    y 0.086610 1.951290 0.028390 
#    z -0.041540 0.028390 1.931500 
# 
# From -- ./inp_files/329312.got.cif
#   From: 2010.05.17/outbox.cif.g08.bks.cpg/sg2_165_cif.got.tgz:329312.got - 2010.06.03 11:33:40.
