data_PCOD9077150
_publ_section_title
;
Structure prediction by ZEFSAII (Michael W. Deem and Ramdas Pophale) SiO2 
 PCOD9077150
Probable space group: P -1
;
_chemical_formula_sum "Si O2"
_cell_formula_units_Z 14
_cell_length_a 12.317141
_cell_length_b 9.232769
_cell_length_c 8.675566
_cell_angle_alpha 79.136365
_cell_angle_beta 66.258822
_cell_angle_gamma 128.485214
_cell_volume 558.688844
_symmetry_space_group_name_H-M "P -1"
_symmetry_group_IT_number 2
_symmetry_cell_setting 'triclinic'
loop_
_space_group_symop_operation_xyz
x,y,z
-x,-y,-z
loop_
_atom_site_type_symbol
_atom_site_label
_atom_site_fract_x
_atom_site_fract_y
_atom_site_fract_z
Si Si1 0.804745 0.931697 0.539482
Si Si2 0.151605 0.257153 0.040941
Si Si3 0.593405 0.021025 0.639924
Si Si4 0.777527 0.978859 0.901511
Si Si5 0.810742 0.315705 0.743570
Si Si6 0.345353 0.514736 0.172357
Si Si7 0.808900 0.394293 0.184709
O O1 0.657286 0.916820 0.582316
O O2 0.974075 0.106948 0.286839
O O3 0.851497 0.017756 0.675359
O O4 0.735727 0.696400 0.635492
O O5 0.330578 0.440311 0.020573
O O6 0.153100 0.089238 0.019355
O O7 0.166657 0.406472 0.886156
O O8 0.642063 0.100650 0.771571
O O9 0.730661 0.262535 0.419068
O O10 0.374679 0.826687 0.768836
O O11 0.834457 0.199424 0.867380
O O12 0.231257 0.557417 0.215707
O O13 0.552309 0.751022 0.065110
O O14 0.000000 0.500000 0.500000
O O15 0.000000 0.500000 0.000000
#
# Coordination Sequence:
#
# PCOD9077150 Si02
#       7
#     2   2   2   2   2   2   2
#     4  10  18  34  56  85 117 148 192 245 288 347
#     4  11  19  34  59  87 114 149 200 241 291 342
#     4  10  22  41  60  90 119 152 202 243 289 345
#     4  10  20  33  52  86 117 151 191 239 294 348
#     4  11  22  38  58  87 123 155 184 240 307 362
#     4  11  20  33  57  87 118 151 184 242 305 356
#     4  11  22  38  64  87 114 158 204 251 276 336
#
# _framework density 25.058672999999999
#
# number of rings (size 3 to 8) (size 9 to 14) (size 15 to 20)
#    0.000    1.429    1.429    9.000    0.000    0.000 
#    0.000    0.000    0.000   12.857    0.000    0.000 
#    0.000    0.000    0.000    0.000    0.000    0.000 
#
# Total GULP energy -78348.013717 kJ/mol
# GULP energy per Si atom -5596.286694 kJ/mol
# Density = 2.500164 g / cm^3
# Si number density = 25.058673 Si / 1000 Ang^3
#
#
#
# Elastic Constant Matrix: (Units=GPa)
#
#
# Indices 1 2 3 4 5 6 
#
# 1 190.1662 45.4990 78.5360 -20.8568 20.6266 -54.2008
# 2 45.4990 76.5516 30.7966 -22.5356 3.3918 -31.0153
# 3 78.5360 30.7966 162.3274 -29.3303 15.3907 -31.2520
# 4 -20.8568 -22.5356 -29.3303 30.4814 -9.2924 5.0800
# 5 20.6266 3.3918 15.3907 -9.2924 59.6394 -17.2396
# 6 -54.2008 -31.0153 -31.2520 5.0800 -17.2396 61.6958
#
#
#
# Elastic Compliance Matrix: (Units=1/GPa)
#
#
# Indices 1 2 3 4 5 6 
#
# 1 0.008253 -0.001526 -0.002490 0.001138 -0.000506 0.004987
# 2 -0.001526 0.022249 0.000956 0.015978 0.004472 0.010263
# 3 -0.002490 0.000956 0.008914 0.007291 0.000305 0.002293
# 4 0.001138 0.015978 0.007291 0.053132 0.008168 0.010633
# 5 -0.000506 0.004472 0.000305 0.008168 0.019858 0.006834
# 6 0.004987 0.010263 0.002293 0.010633 0.006834 0.027945
#
#
# Mechanical properties :
#
#
# Convention : Reuss Voigt Hill
#
# Bulk Modulus (GPa) = 30.03329 82.07871 56.05600
# Shear Modulus (GPa) = 31.73250 48.64423 40.18836
#
# Velocity S-wave (km/s) = 3.56241 4.41070 4.00906
# Velocity P-wave (km/s) = 5.37887 7.66582 6.62182
#
# Compressibility (1/GPa) = 0.03329639
#
# Stress axis : x y z
#
# Youngs Moduli (GPa) = 121.16965 44.94646 112.18885
#
# Poissons Ratio (x) = 0.06857 0.27931
# Poissons Ratio (y) = 0.18485 -0.10724
# Poissons Ratio (z) = 0.30167 -0.04296
#
# Static dielectric constant tensor:
#      x y z
#    x 2.081460 0.003330 0.004030 
#    y 0.003330 1.997020 -0.019390 
#    z 0.004030 -0.019390 1.995800 
# 
# From -- ./inp_files/423253.got.cif
#   From: 2010.05.17/outbox.cif.g08.bks.cpg/sg2_212_cif.got.tgz:423253.got - 2010.06.03 11:33:40.
