data_PCOD9077148
_publ_section_title
;
Structure prediction by ZEFSAII (Michael W. Deem and Ramdas Pophale) SiO2 
 PCOD9077148
Probable space group: P -1
;
_chemical_formula_sum "Si O2"
_cell_formula_units_Z 16
_cell_length_a 21.066568
_cell_length_b 8.692455
_cell_length_c 11.961713
_cell_angle_alpha 109.596654
_cell_angle_beta 29.905449
_cell_angle_gamma 132.154787
_cell_volume 603.494023
_symmetry_space_group_name_H-M "P -1"
_symmetry_group_IT_number 2
_symmetry_cell_setting 'triclinic'
loop_
_space_group_symop_operation_xyz
x,y,z
-x,-y,-z
loop_
_atom_site_type_symbol
_atom_site_label
_atom_site_fract_x
_atom_site_fract_y
_atom_site_fract_z
Si Si1 0.986708 0.169840 0.306174
Si Si2 0.541687 0.119911 0.847334
Si Si3 0.111041 0.807041 0.312858
Si Si4 0.308916 0.963899 0.694829
Si Si5 0.310133 0.409249 0.330867
Si Si6 0.208278 0.640968 0.949443
Si Si7 0.387459 0.294795 0.857983
Si Si8 0.355729 0.123434 0.434908
O O1 0.038445 0.312215 0.380817
O O2 0.918073 0.918629 0.387513
O O3 0.770132 0.983850 0.516375
O O4 0.151932 0.398864 0.014834
O O5 0.710544 0.443479 0.667774
O O6 0.600146 0.022390 0.666277
O O7 0.500000 0.000000 0.000000
O O8 0.327191 0.977422 0.091164
O O9 0.082892 0.627465 0.226589
O O10 0.186711 0.045212 0.186470
O O11 0.533535 0.096267 0.366778
O O12 0.360509 0.146330 0.759624
O O13 0.241862 0.008078 0.702651
O O14 0.157533 0.669181 0.913730
O O15 0.405088 0.540541 0.341720
O O16 0.500000 0.500000 0.000000
O O17 0.448753 0.542051 0.787019
#
# Coordination Sequence:
#
# PCOD9077148 Si02
#       8
#     2   2   2   2   2   2   2   2
#     4  11  21  36  59  88 117 146 187 242 285 334
#     4  11  18  30  58  88 113 147 190 229 276 341
#     4  10  18  35  58  85 115 149 186 231 284 346
#     4  10  21  39  60  79 114 154 197 230 273 349
#     4  10  18  34  56  85 115 148 186 225 285 343
#     4  10  22  37  59  85 112 154 193 232 284 335
#     4   9  19  34  60  86 107 150 194 226 280 342
#     4  11  21  34  60  88 111 149 192 237 279 330
#
# _framework density 26.512274000000001
#
# number of rings (size 3 to 8) (size 9 to 14) (size 15 to 20)
#    0.000    1.750    5.000    1.500    1.750    0.500 
#    0.000    2.500    8.250    1.500    0.000    0.000 
#    0.000    0.000    0.000    0.000    0.000    0.000 
#
# Total GULP energy -89235.017829 kJ/mol
# GULP energy per Si atom -5577.188614 kJ/mol
# Density = 2.645193 g / cm^3
# Si number density = 26.512274 Si / 1000 Ang^3
#
#
#
# Elastic Constant Matrix: (Units=GPa)
#
#
# Indices 1 2 3 4 5 6 
#
# 1 108.3879 35.1537 33.6900 -1.2875 29.8823 -21.6492
# 2 35.1537 109.3826 46.1943 -27.9378 28.1829 -23.8054
# 3 33.6900 46.1943 83.9059 -34.9940 38.6344 -16.6912
# 4 -1.2875 -27.9378 -34.9940 53.4436 -18.7455 26.2998
# 5 29.8823 28.1829 38.6344 -18.7455 41.8583 -6.2932
# 6 -21.6492 -23.8054 -16.6912 26.2998 -6.2932 40.8670
#
#
#
# Elastic Compliance Matrix: (Units=1/GPa)
#
#
# Indices 1 2 3 4 5 6 
#
# 1 0.016328 -0.001341 -0.003308 -0.012956 -0.011537 0.013079
# 2 -0.001341 0.013277 -0.004034 0.001112 -0.003133 0.004178
# 3 -0.003308 -0.004034 0.026350 0.011382 -0.014584 -0.002911
# 4 -0.012956 0.001112 0.011382 0.045466 0.014046 -0.028663
# 5 -0.011537 -0.003133 -0.014584 0.014046 0.051736 -0.014965
# 6 0.013079 0.004178 -0.002911 -0.028663 -0.014965 0.048785
#
#
# Mechanical properties :
#
#
# Convention : Reuss Voigt Hill
#
# Bulk Modulus (GPa) = 25.91280 59.08361 42.49820
# Shear Modulus (GPa) = 21.53589 39.67635 30.60612
#
# Velocity S-wave (km/s) = 2.85318 3.87269 3.40135
# Velocity P-wave (km/s) = 4.54415 6.50621 5.61160
#
# Compressibility (1/GPa) = 0.03859097
#
# Stress axis : x y z
#
# Youngs Moduli (GPa) = 61.24333 75.31643 37.95042
#
# Poissons Ratio (x) = 0.10100 0.12552
# Poissons Ratio (y) = 0.08213 0.15309
# Poissons Ratio (z) = 0.20256 0.30382
#
# Static dielectric constant tensor:
#      x y z
#    x 2.212450 0.111480 0.190370 
#    y 0.111480 2.396370 0.229030 
#    z 0.190370 0.229030 2.567760 
# 
# From -- ./inp_files/473927.got.cif
#   From: 2010.05.17/outbox.cif.g08.bks.cpg/sg2_237_cif.got.tgz:473927.got - 2010.06.03 11:33:40.
