data_PCOD9077634
_publ_section_title
;
Structure prediction by ZEFSAII (Michael W. Deem and Ramdas Pophale) SiO2 
 PCOD9077634
Probable space group: P -1
;
_chemical_formula_sum "Si O2"
_cell_formula_units_Z 16
_cell_length_a 5.404605
_cell_length_b 14.510680
_cell_length_c 18.806055
_cell_angle_alpha 38.043214
_cell_angle_beta 57.684138
_cell_angle_gamma 79.916994
_cell_volume 677.076223
_symmetry_space_group_name_H-M "P -1"
_symmetry_group_IT_number 2
_symmetry_cell_setting 'triclinic'
loop_
_space_group_symop_operation_xyz
x,y,z
-x,-y,-z
loop_
_atom_site_type_symbol
_atom_site_label
_atom_site_fract_x
_atom_site_fract_y
_atom_site_fract_z
Si Si1 0.366019 0.295722 0.533764
Si Si2 0.680107 0.330813 0.860933
Si Si3 0.308031 0.904424 0.333115
Si Si4 0.260967 0.489543 0.775985
Si Si5 0.746125 0.864620 0.679586
Si Si6 0.707529 0.204467 0.328008
Si Si7 0.653372 0.979287 0.093990
Si Si8 0.959112 0.367716 0.647955
O O1 0.613432 0.216063 0.553765
O O2 0.533168 0.461761 0.358678
O O3 0.024895 0.179020 0.613497
O O4 0.259824 0.327136 0.608878
O O5 0.381376 0.376097 0.871063
O O6 0.922705 0.416325 0.703656
O O7 0.884005 0.398996 0.861334
O O8 0.587555 0.134620 0.987674
O O9 0.279673 0.038956 0.306397
O O10 0.611439 0.975128 0.188078
O O11 0.364166 0.670100 0.687798
O O12 0.398896 0.774387 0.747196
O O13 0.914468 0.750790 0.744743
O O14 0.000000 0.000000 0.500000
O O15 0.500000 0.000000 0.500000
O O16 0.374654 0.803203 0.213596
O O17 0.000000 0.000000 0.000000
O O18 0.000000 0.500000 0.500000
#
# Coordination Sequence:
#
# PCOD9077634 Si02
#       8
#     2   2   2   2   2   2   2   2
#     4  11  22  38  62  98 138 172 230 296 354 393
#     4  12  26  44  67  98 144 191 235 283 359 433
#     4  11  23  40  67 101 135 183 237 295 342 423
#     4  12  24  40  68  99 141 180 233 291 362 419
#     4  10  18  34  61  94 135 165 222 288 364 404
#     4  10  20  36  60  95 133 172 215 287 360 420
#     4  11  26  48  72 100 148 201 242 279 356 436
#     4  11  24  45  69 104 140 183 241 305 348 407
#
# _framework density 23.631018000000001
#
# number of rings (size 3 to 8) (size 9 to 14) (size 15 to 20)
#    0.000    1.000    1.250    7.125    1.750    4.500 
#    0.000    0.000    0.000    4.500    0.000    0.000 
#    0.000    0.000    0.000    0.000    0.000    0.000 
#
# Total GULP energy -89466.156059 kJ/mol
# GULP energy per Si atom -5591.634754 kJ/mol
# Density = 2.357723 g / cm^3
# Si number density = 23.631018 Si / 1000 Ang^3
#
#
#
# Elastic Constant Matrix: (Units=GPa)
#
#
# Indices 1 2 3 4 5 6 
#
# 1 167.4203 59.5427 26.7887 -17.7446 27.3193 -0.8135
# 2 59.5427 123.1770 22.1409 -11.2784 3.0073 1.0166
# 3 26.7887 22.1409 64.8150 -20.9677 9.1577 -1.5657
# 4 -17.7446 -11.2784 -20.9677 35.6890 -5.1024 6.4561
# 5 27.3193 3.0073 9.1577 -5.1024 29.6591 -6.4047
# 6 -0.8135 1.0166 -1.5657 6.4561 -6.4047 45.4668
#
#
#
# Elastic Compliance Matrix: (Units=1/GPa)
#
#
# Indices 1 2 3 4 5 6 
#
# 1 0.008846 -0.003781 -0.000719 0.001916 -0.007452 -0.001104
# 2 -0.003781 0.010319 -0.002249 0.000520 0.003221 0.000004
# 3 -0.000719 -0.002249 0.020449 0.010629 -0.003879 -0.001314
# 4 0.001916 0.000520 0.010629 0.036255 0.000114 -0.004743
# 5 -0.007452 0.003221 -0.003879 0.000114 0.042693 0.005659
# 6 -0.001104 0.000004 -0.001314 -0.004743 0.005659 0.023400
#
#
# Mechanical properties :
#
#
# Convention : Reuss Voigt Hill
#
# Bulk Modulus (GPa) = 38.29013 63.59523 50.94268
# Shear Modulus (GPa) = 30.45712 38.62563 34.54138
#
# Velocity S-wave (km/s) = 3.59397 4.04732 3.82736
# Velocity P-wave (km/s) = 5.78452 6.98650 6.41373
#
# Compressibility (1/GPa) = 0.02611639
#
# Stress axis : x y z
#
# Youngs Moduli (GPa) = 113.04304 96.90770 48.90278
#
# Poissons Ratio (x) = 0.36636 0.03516
# Poissons Ratio (y) = 0.42736 0.11000
# Poissons Ratio (z) = 0.08127 0.21798
#
# Static dielectric constant tensor:
#      x y z
#    x 1.974710 -0.005040 0.017560 
#    y -0.005040 1.905770 -0.022140 
#    z 0.017560 -0.022140 1.904190 
# 
# From -- ./inp_files/77743.got.cif
#   From: 2010.05.17/outbox.cif.g08.bks.cpg/sg2_39_cif.got.tgz:77743.got - 2010.06.03 11:33:40.
