data_PCOD9077555
_publ_section_title
;
Structure prediction by ZEFSAII (Michael W. Deem and Ramdas Pophale) SiO2 
 PCOD9077555
Probable space group: P -1
;
_chemical_formula_sum "Si O2"
_cell_formula_units_Z 11
_cell_length_a 5.162854
_cell_length_b 10.091648
_cell_length_c 8.532438
_cell_angle_alpha 113.727185
_cell_angle_beta 91.285157
_cell_angle_gamma 86.938741
_cell_volume 406.396195
_symmetry_space_group_name_H-M "P -1"
_symmetry_group_IT_number 2
_symmetry_cell_setting 'triclinic'
loop_
_space_group_symop_operation_xyz
x,y,z
-x,-y,-z
loop_
_atom_site_type_symbol
_atom_site_label
_atom_site_fract_x
_atom_site_fract_y
_atom_site_fract_z
Si Si1 0.000000 0.000000 0.500000
Si Si2 0.116823 0.717281 0.563803
Si Si3 0.750888 0.024294 0.115934
Si Si4 0.757617 0.422567 0.038156
Si Si5 0.375890 0.392524 0.597353
Si Si6 0.553085 0.153201 0.744376
O O1 0.074555 0.834611 0.479488
O O2 0.743877 0.019796 0.628604
O O3 0.834040 0.660815 0.552599
O O4 0.233644 0.815100 0.744288
O O5 0.336065 0.598162 0.460207
O O6 0.701552 0.920370 0.217009
O O7 0.500000 0.000000 0.000000
O O8 0.000000 0.000000 0.000000
O O9 0.716265 0.255380 0.912280
O O10 0.500000 0.500000 0.000000
O O11 0.746082 0.471511 0.242090
O O12 0.000000 0.500000 0.000000
O O13 0.430599 0.263755 0.666445
#
# Coordination Sequence:
#
# PCOD9077555 Si02
#       6
#     1   2   2   2   2   2
#     4  10  18  34  60  94 118 146 188 250 318 352
#     4  11  21  37  59  85 119 150 196 249 299 354
#     4  12  26  41  58  84 123 170 207 240 288 356
#     4  10  20  35  58  91 124 152 186 242 315 371
#     4  10  20  36  62  91 116 147 189 251 314 355
#     4  10  22  38  63  94 128 157 198 250 305 366
#
# _framework density 27.067186
#
# number of rings (size 3 to 8) (size 9 to 14) (size 15 to 20)
#    0.000    1.455    0.000    7.636    0.000    8.727 
#    0.000    0.000    0.000    6.545    0.000    0.000 
#    0.000    0.000    0.000    0.000    0.000    0.000 
#
# Total GULP energy -61429.436469 kJ/mol
# GULP energy per Si atom -5584.494224 kJ/mol
# Density = 2.700558 g / cm^3
# Si number density = 27.067186 Si / 1000 Ang^3
#
#
#
# Elastic Constant Matrix: (Units=GPa)
#
#
# Indices 1 2 3 4 5 6 
#
# 1 215.7828 68.5184 51.8251 16.2518 -16.7565 29.1367
# 2 68.5184 176.3174 31.7819 13.7041 -12.2296 22.3973
# 3 51.8251 31.7819 106.5396 32.7856 -6.5785 18.9808
# 4 16.2518 13.7041 32.7856 48.5309 7.2752 -1.0701
# 5 -16.7565 -12.2296 -6.5785 7.2752 58.3267 -0.5763
# 6 29.1367 22.3973 18.9808 -1.0701 -0.5763 53.8968
#
#
#
# Elastic Compliance Matrix: (Units=1/GPa)
#
#
# Indices 1 2 3 4 5 6 
#
# 1 0.005986 -0.001626 -0.001853 -0.000518 0.001216 -0.001905
# 2 -0.001626 0.006784 -0.000464 -0.001254 0.001042 -0.001791
# 3 -0.001853 -0.000464 0.014066 -0.009146 0.002059 -0.003919
# 4 -0.000518 -0.001254 -0.009146 0.028147 -0.004909 0.004528
# 5 0.001216 0.001042 0.002059 -0.004909 0.018540 -0.001714
# 6 -0.001905 -0.001791 -0.003919 0.004528 -0.001714 0.021780
#
#
# Mechanical properties :
#
#
# Convention : Reuss Voigt Hill
#
# Bulk Modulus (GPa) = 52.76831 89.21007 70.98919
# Shear Modulus (GPa) = 45.65998 55.25184 50.45591
#
# Velocity S-wave (km/s) = 4.11166 4.52296 4.32220
# Velocity P-wave (km/s) = 6.48680 7.76573 7.15490
#
# Compressibility (1/GPa) = 0.01895077
#
# Stress axis : x y z
#
# Youngs Moduli (GPa) = 167.04987 147.40302 71.09524
#
# Poissons Ratio (x) = 0.23963 0.13175
# Poissons Ratio (y) = 0.27157 0.03298
# Poissons Ratio (z) = 0.30956 0.06837
#
# Static dielectric constant tensor:
#      x y z
#    x 1.993770 0.024020 -0.094980 
#    y 0.024020 2.165790 -0.130780 
#    z -0.094980 -0.130780 2.073240 
# 
# From -- ./inp_files/129418.got.cif
#   From: 2010.05.17/outbox.cif.g08.bks.cpg/sg2_65_cif.got.tgz:129418.got - 2010.06.03 11:33:40.
