data_PCOD9077020
_publ_section_title
;
Structure prediction by ZEFSAII (Michael W. Deem and Ramdas Pophale) SiO2 
 PCOD9077020
Probable space group: P -1
;
_chemical_formula_sum "Si O2"
_cell_formula_units_Z 13
_cell_length_a 10.638476
_cell_length_b 11.645562
_cell_length_c 16.740717
_cell_angle_alpha 142.793029
_cell_angle_beta 24.080796
_cell_angle_gamma 142.563873
_cell_volume 492.561491
_symmetry_space_group_name_H-M "P -1"
_symmetry_group_IT_number 2
_symmetry_cell_setting 'triclinic'
loop_
_space_group_symop_operation_xyz
x,y,z
-x,-y,-z
loop_
_atom_site_type_symbol
_atom_site_label
_atom_site_fract_x
_atom_site_fract_y
_atom_site_fract_z
Si Si1 0.347691 0.729957 0.145710
Si Si2 0.371446 0.055573 0.417481
Si Si3 0.971565 0.665553 0.832829
Si Si4 0.084461 0.297764 0.822240
Si Si5 0.768729 0.891530 0.843310
Si Si6 0.500000 0.000000 0.500000
Si Si7 0.239953 0.502776 0.432838
O O1 0.137164 0.505240 0.132993
O O2 0.194517 0.876740 0.364834
O O3 0.653611 0.719451 0.017922
O O4 0.496014 0.819182 0.026333
O O5 0.195256 0.227633 0.633920
O O6 0.717407 0.156310 0.232411
O O7 0.411737 0.973291 0.437343
O O8 0.092484 0.556656 0.628569
O O9 0.428236 0.330235 0.688023
O O10 0.817718 0.110687 0.904216
O O11 0.000000 0.500000 0.000000
O O12 0.713282 0.714304 0.713724
O O13 0.115096 0.915933 0.697261
O O14 0.000000 0.500000 0.500000
#
# Coordination Sequence:
#
# PCOD9077020 Si02
#       7
#     2   2   2   2   2   1   2
#     4  11  21  32  53  89 124 155 189 249 315 357
#     4  10  20  37  57  81 121 156 199 251 299 357
#     4  10  20  32  51  87 126 151 188 239 310 369
#     4  10  24  42  63  86 117 166 212 248 299 363
#     4  11  21  36  58  87 121 157 203 254 302 355
#     4  10  18  34  54  86 116 158 196 240 308 354
#     4  11  20  39  64  93 121 153 203 255 301 365
#
# _framework density 26.392644000000001
#
# number of rings (size 3 to 8) (size 9 to 14) (size 15 to 20)
#    0.000    1.538    3.077    4.154    0.000    1.846 
#    0.000    0.769    0.000    4.615    0.000    0.000 
#    0.000    0.000    0.000    0.000    0.000    0.000 
#
# Total GULP energy -72581.218123 kJ/mol
# GULP energy per Si atom -5583.170625 kJ/mol
# Density = 2.633257 g / cm^3
# Si number density = 26.392644 Si / 1000 Ang^3
#
#
#
# Elastic Constant Matrix: (Units=GPa)
#
#
# Indices 1 2 3 4 5 6 
#
# 1 54.7548 15.3058 23.5156 -1.5233 -2.8664 -3.6246
# 2 15.3058 187.5803 41.6376 -9.9071 13.3949 -8.9867
# 3 23.5156 41.6376 105.6820 12.6477 5.5813 -7.1491
# 4 -1.5233 -9.9071 12.6477 68.2271 7.2841 2.7192
# 5 -2.8664 13.3949 5.5813 7.2841 42.0446 -5.2343
# 6 -3.6246 -8.9867 -7.1491 2.7192 -5.2343 35.6348
#
#
#
# Elastic Compliance Matrix: (Units=1/GPa)
#
#
# Indices 1 2 3 4 5 6 
#
# 1 0.020600 -0.000751 -0.004425 0.000881 0.002238 0.001280
# 2 -0.000751 0.006142 -0.002288 0.001475 -0.001882 0.000625
# 3 -0.004425 -0.002288 0.011788 -0.002621 -0.000501 0.001464
# 4 0.000881 0.001475 -0.002621 0.015766 -0.003006 -0.001709
# 5 0.002238 -0.001882 -0.000501 -0.003006 0.025577 0.003639
# 6 0.001280 0.000625 0.001464 -0.001709 0.003639 0.029309
#
#
# Mechanical properties :
#
#
# Convention : Reuss Voigt Hill
#
# Bulk Modulus (GPa) = 42.36808 56.54834 49.45821
# Shear Modulus (GPa) = 37.88572 47.01851 42.45212
#
# Velocity S-wave (km/s) = 3.79286 4.22536 4.01494
# Velocity P-wave (km/s) = 5.93876 6.72883 6.34611
#
# Compressibility (1/GPa) = 0.02360268
#
# Stress axis : x y z
#
# Youngs Moduli (GPa) = 48.54405 162.80267 84.83486
#
# Poissons Ratio (x) = 0.12219 0.37540
# Poissons Ratio (y) = 0.03643 0.19410
# Poissons Ratio (z) = 0.21481 0.37248
#
# Static dielectric constant tensor:
#      x y z
#    x 2.095170 0.071780 -0.072050 
#    y 0.071780 1.802590 -0.124340 
#    z -0.072050 -0.124340 2.042810 
# 
# From -- ./inp_files/267340.got.cif
#   From: 2010.05.17/outbox.cif.g08.bks.cpg/sg2_134_cif.got.tgz:267340.got - 2010.06.03 11:33:40.
