data_PCOD9077298
_publ_section_title
;
Structure prediction by ZEFSAII (Michael W. Deem and Ramdas Pophale) SiO2 
 PCOD9077298
Probable space group: P -1
;
_chemical_formula_sum "Si O2"
_cell_formula_units_Z 16
_cell_length_a 20.349500
_cell_length_b 9.514796
_cell_length_c 10.169486
_cell_angle_alpha 70.790029
_cell_angle_beta 143.497966
_cell_angle_gamma 128.491797
_cell_volume 852.470063
_symmetry_space_group_name_H-M "P -1"
_symmetry_group_IT_number 2
_symmetry_cell_setting 'triclinic'
loop_
_space_group_symop_operation_xyz
x,y,z
-x,-y,-z
loop_
_atom_site_type_symbol
_atom_site_label
_atom_site_fract_x
_atom_site_fract_y
_atom_site_fract_z
Si Si1 0.356104 0.632514 0.551156
Si Si2 0.730473 0.533043 0.268629
Si Si3 0.669141 0.998863 0.867094
Si Si4 0.256848 0.603300 0.126285
Si Si5 0.512152 0.553506 0.277553
Si Si6 0.421121 0.240743 0.436802
Si Si7 0.048480 0.370158 0.633073
Si Si8 0.863475 0.954461 0.367059
O O1 0.298779 0.600045 0.615335
O O2 0.502539 0.849881 0.690427
O O3 0.245426 0.567682 0.275218
O O4 0.407067 0.505647 0.652505
O O5 0.848971 0.577154 0.343092
O O6 0.780313 0.735483 0.346124
O O7 0.587941 0.440326 0.982147
O O8 0.736195 0.214336 0.939845
O O9 0.332538 0.039804 0.279261
O O10 0.757464 0.947994 0.099092
O O11 0.413921 0.673213 0.322104
O O12 0.139657 0.434847 0.893595
O O13 0.419285 0.379676 0.290268
O O14 0.612952 0.738894 0.477059
O O15 0.000000 0.500000 0.500000
O O16 0.924469 0.137786 0.501481
O O17 0.000000 0.000000 0.500000
#
# Coordination Sequence:
#
# PCOD9077298 Si02
#       8
#     2   2   2   2   2   2   2   2
#     4  10  21  33  59  85 116 147 173 239 301 333
#     4  11  20  38  56  87 117 145 184 234 293 334
#     4  10  18  34  58  81 115 146 192 228 281 340
#     4  10  19  36  56  82 111 149 196 227 273 339
#     4   9  16  27  52  82 112 137 171 220 284 335
#     4   9  16  28  51  83 108 137 181 233 266 325
#     4  11  22  38  62  80 107 155 200 231 264 333
#     4  10  21  33  57  84 108 149 195 231 264 332
#
# _framework density 18.768986999999999
#
# number of rings (size 3 to 8) (size 9 to 14) (size 15 to 20)
#    0.000    2.250    5.000    1.875    0.000    0.000 
#    0.000    1.875    5.500    0.000    0.000    0.000 
#    0.000    0.000    0.000    0.000    0.000    0.000 
#
# Total GULP energy -89118.706247 kJ/mol
# GULP energy per Si atom -5569.919140 kJ/mol
# Density = 1.872627 g / cm^3
# Si number density = 18.768987 Si / 1000 Ang^3
#
#
#
# Elastic Constant Matrix: (Units=GPa)
#
#
# Indices 1 2 3 4 5 6 
#
# 1 39.5975 23.3550 18.8194 -3.3433 -17.1899 -1.0011
# 2 23.3550 65.6107 24.5730 16.5152 -11.0964 -19.9872
# 3 18.8194 24.5730 93.5705 16.7382 -14.2154 1.0668
# 4 -3.3433 16.5152 16.7382 34.9745 -12.2098 -6.3338
# 5 -17.1899 -11.0964 -14.2154 -12.2098 24.4160 -5.2220
# 6 -1.0011 -19.9872 1.0668 -6.3338 -5.2220 23.4785
#
#
#
# Elastic Compliance Matrix: (Units=1/GPa)
#
#
# Indices 1 2 3 4 5 6 
#
# 1 0.070005 -0.018886 -0.007734 0.042442 0.060003 0.012054
# 2 -0.018886 0.033550 -0.003267 -0.011853 -0.000624 0.024568
# 3 -0.007734 -0.003267 0.014052 -0.008874 -0.004725 -0.007194
# 4 0.042442 -0.011853 -0.008874 0.066767 0.057625 0.022951
# 5 0.060003 -0.000624 -0.004725 0.057625 0.118421 0.044126
# 6 0.012054 0.024568 -0.007194 0.022951 0.044126 0.080353
#
#
# Mechanical properties :
#
#
# Convention : Reuss Voigt Hill
#
# Bulk Modulus (GPa) = 17.29089 36.91930 27.10510
# Shear Modulus (GPa) = 10.81780 25.37588 18.09684
#
# Velocity S-wave (km/s) = 2.40337 3.68096 3.10851
# Velocity P-wave (km/s) = 4.11510 6.14646 5.23035
#
# Compressibility (1/GPa) = 0.05783391
#
# Stress axis : x y z
#
# Youngs Moduli (GPa) = 14.28460 29.80633 71.16313
#
# Poissons Ratio (x) = 0.56292 0.55037
# Poissons Ratio (y) = 0.26978 0.23248
# Poissons Ratio (z) = 0.11048 0.09737
#
# Static dielectric constant tensor:
#      x y z
#    x 1.691700 -0.040970 -0.011180 
#    y -0.040970 1.687310 0.011570 
#    z -0.011180 0.011570 1.660760 
# 
# From -- ./inp_files/343459.got.cif
#   From: 2010.05.17/outbox.cif.g08.bks.cpg/sg2_172_cif.got.tgz:343459.got - 2010.06.03 11:33:40.
