data_PCOD9077332
_publ_section_title
;
Structure prediction by ZEFSAII (Michael W. Deem and Ramdas Pophale) SiO2 
 PCOD9077332
Probable space group: P -1
;
_chemical_formula_sum "Si O2"
_cell_formula_units_Z 16
_cell_length_a 11.089498
_cell_length_b 27.546056
_cell_length_c 11.697091
_cell_angle_alpha 32.537291
_cell_angle_beta 53.578221
_cell_angle_gamma 30.985132
_cell_volume 875.414687
_symmetry_space_group_name_H-M "P -1"
_symmetry_group_IT_number 2
_symmetry_cell_setting 'triclinic'
loop_
_space_group_symop_operation_xyz
x,y,z
-x,-y,-z
loop_
_atom_site_type_symbol
_atom_site_label
_atom_site_fract_x
_atom_site_fract_y
_atom_site_fract_z
Si Si1 0.741545 0.270495 0.071729
Si Si2 0.887504 0.176532 0.425190
Si Si3 0.614212 0.727140 0.675039
Si Si4 0.727529 0.367100 0.344016
Si Si5 0.218222 0.981436 0.218357
Si Si6 0.557433 0.071324 0.278158
Si Si7 0.919893 0.635754 0.908392
Si Si8 0.892393 0.953015 0.113656
O O1 0.524268 0.456748 0.812753
O O2 0.872326 0.224996 0.211797
O O3 0.588613 0.249703 0.210267
O O4 0.964908 0.149771 0.090334
O O5 0.702195 0.319028 0.338938
O O6 0.801791 0.116808 0.578819
O O7 0.185334 0.026341 0.601505
O O8 0.469994 0.865723 0.391991
O O9 0.745736 0.708280 0.748163
O O10 0.857602 0.550975 0.832228
O O11 0.926307 0.346961 0.229658
O O12 0.867438 0.234008 0.621777
O O13 0.204140 0.010153 0.035085
O O14 0.290882 0.257627 0.083560
O O15 0.500000 0.000000 0.500000
O O16 0.655946 0.037364 0.161918
O O17 0.000000 0.000000 0.000000
#
# Coordination Sequence:
#
# PCOD9077332 Si02
#       8
#     2   2   2   2   2   2   2   2
#     4  10  20  33  58  88 116 146 196 240 283 334
#     4  10  18  34  58  87 114 144 194 239 285 327
#     4   9  20  33  59  85 116 150 188 237 284 345
#     4  10  20  35  57  87 112 150 193 243 277 335
#     4  11  20  37  57  83 117 157 188 234 290 346
#     4  11  19  34  59  85 108 147 190 232 281 340
#     4  10  18  36  57  87 112 146 197 236 280 336
#     4  11  22  38  57  85 117 153 190 236 292 342
#
# _framework density 18.277052999999999
#
# number of rings (size 3 to 8) (size 9 to 14) (size 15 to 20)
#    0.000    1.750    5.000    3.375    0.000    0.500 
#    0.000    1.250    0.000    0.000    0.000    0.000 
#    0.000    0.000    0.000    0.000    0.000    0.000 
#
# Total GULP energy -89131.108285 kJ/mol
# GULP energy per Si atom -5570.694268 kJ/mol
# Density = 1.823545 g / cm^3
# Si number density = 18.277053 Si / 1000 Ang^3
#
#
#
# Elastic Constant Matrix: (Units=GPa)
#
#
# Indices 1 2 3 4 5 6 
#
# 1 29.7218 29.1291 19.3259 -11.0955 6.0746 10.5852
# 2 29.1291 126.1778 69.8417 -9.2176 16.2153 24.9784
# 3 19.3259 69.8417 100.1938 -2.5259 18.2349 24.9852
# 4 -11.0955 -9.2176 -2.5259 20.4331 2.5245 -4.6596
# 5 6.0746 16.2153 18.2349 2.5245 28.7640 -1.3722
# 6 10.5852 24.9784 24.9852 -4.6596 -1.3722 16.5837
#
#
#
# Elastic Compliance Matrix: (Units=1/GPa)
#
#
# Indices 1 2 3 4 5 6 
#
# 1 0.060320 -0.006393 0.002896 0.025826 -0.014534 -0.027182
# 2 -0.006393 0.015386 -0.006417 0.000987 -0.003793 -0.009462
# 3 0.002896 -0.006417 0.023643 -0.003600 -0.013093 -0.029899
# 4 0.025826 0.000987 -0.003600 0.065249 -0.009215 0.005024
# 5 -0.014534 -0.003793 -0.013093 -0.009215 0.050816 0.036332
# 6 -0.027182 -0.009462 -0.029899 0.005024 0.036332 0.141366
#
#
# Mechanical properties :
#
#
# Convention : Reuss Voigt Hill
#
# Bulk Modulus (GPa) = 12.57529 54.74298 33.65913
# Shear Modulus (GPa) = 12.40342 22.34259 17.37301
#
# Velocity S-wave (km/s) = 2.60789 3.50013 3.08642
# Velocity P-wave (km/s) = 3.99542 6.80818 5.58188
#
# Compressibility (1/GPa) = 0.07952103
#
# Stress axis : x y z
#
# Youngs Moduli (GPa) = 16.57826 64.99465 42.29560
#
# Poissons Ratio (x) = 0.41550 -0.12248
# Poissons Ratio (y) = 0.10598 0.27141
# Poissons Ratio (z) = -0.04801 0.41707
#
# Static dielectric constant tensor:
#      x y z
#    x 1.586870 0.018790 -0.003090 
#    y 0.018790 1.641760 -0.015110 
#    z -0.003090 -0.015110 1.654480 
# 
# From -- ./inp_files/439659.got.cif
#   From: 2010.05.17/outbox.cif.g08.bks.cpg/sg2_220_cif.got.tgz:439659.got - 2010.06.03 11:33:40.
