data_PCOD9077929
_publ_section_title
;
Structure prediction by ZEFSAII (Michael W. Deem and Ramdas Pophale) SiO2 
 PCOD9077929
Probable space group: P -1
;
_chemical_formula_sum "Si O2"
_cell_formula_units_Z 16
_cell_length_a 5.435545
_cell_length_b 11.138578
_cell_length_c 13.478321
_cell_angle_alpha 119.882458
_cell_angle_beta 70.149938
_cell_angle_gamma 105.211992
_cell_volume 661.141868
_symmetry_space_group_name_H-M "P -1"
_symmetry_group_IT_number 2
_symmetry_cell_setting 'triclinic'
loop_
_space_group_symop_operation_xyz
x,y,z
-x,-y,-z
loop_
_atom_site_type_symbol
_atom_site_label
_atom_site_fract_x
_atom_site_fract_y
_atom_site_fract_z
Si Si1 0.117483 0.662724 0.941412
Si Si2 0.525192 0.421575 0.287082
Si Si3 0.571997 0.084328 0.894128
Si Si4 0.155587 0.634666 0.416713
Si Si5 0.824176 0.266938 0.760624
Si Si6 0.175077 0.676150 0.650943
Si Si7 0.299896 0.396207 0.889475
Si Si8 0.208756 0.160449 0.132554
O O1 0.184444 0.599298 0.801752
O O2 0.251539 0.555582 0.949185
O O3 0.247874 0.813812 0.013016
O O4 0.816759 0.651493 0.007780
O O5 0.440885 0.573301 0.352840
O O6 0.533756 0.353757 0.365988
O O7 0.352221 0.316531 0.195282
O O8 0.662491 0.139884 0.794751
O O9 0.663396 0.935947 0.845331
O O10 0.284873 0.101393 0.989998
O O11 0.110194 0.727093 0.364114
O O12 0.144360 0.712072 0.554640
O O13 0.974089 0.484595 0.388282
O O14 0.598992 0.371651 0.831733
O O15 0.090646 0.313445 0.806243
O O16 0.079644 0.806528 0.779792
#
# Coordination Sequence:
#
# PCOD9077929 Si02
#       8
#     2   2   2   2   2   2   2   2
#     4   9  18  32  53  85 116 154 184 237 292 358
#     4  10  18  35  56  84 114 149 194 245 294 349
#     4   9  20  38  58  80 122 153 198 241 291 351
#     4  10  21  36  57  88 114 150 193 244 305 352
#     4  11  22  39  59  90 123 156 191 248 298 357
#     4  10  21  36  60  82 115 153 196 245 293 354
#     4  10  21  34  55  88 127 152 187 234 309 357
#     4   9  20  40  55  83 112 159 200 237 289 351
#
# _framework density 24.200555999999999
#
# number of rings (size 3 to 8) (size 9 to 14) (size 15 to 20)
#    0.000    2.250    1.250    1.125    1.750    4.500 
#    4.500    2.500    0.000    0.750    0.000    0.000 
#    0.000    0.000    0.000    0.000    0.000    0.000 
#
# Total GULP energy -89069.862226 kJ/mol
# GULP energy per Si atom -5566.866389 kJ/mol
# Density = 2.414547 g / cm^3
# Si number density = 24.200556 Si / 1000 Ang^3
#
#
#
# Elastic Constant Matrix: (Units=GPa)
#
#
# Indices 1 2 3 4 5 6 
#
# 1 66.7547 5.6199 16.8813 -6.4273 3.8155 -19.4050
# 2 5.6199 105.7639 25.2642 -19.4454 0.8555 -29.1386
# 3 16.8813 25.2642 52.3246 -4.9263 3.8361 -14.9708
# 4 -6.4273 -19.4454 -4.9263 34.0663 -14.2978 4.7541
# 5 3.8155 0.8555 3.8361 -14.2978 22.1127 -5.9694
# 6 -19.4050 -29.1386 -14.9708 4.7541 -5.9694 37.9450
#
#
#
# Elastic Compliance Matrix: (Units=1/GPa)
#
#
# Indices 1 2 3 4 5 6 
#
# 1 0.019387 0.004146 -0.004851 0.005371 0.003808 0.011111
# 2 0.004146 0.016033 -0.005137 0.011905 0.010652 0.012590
# 3 -0.004851 -0.005137 0.023999 -0.002417 -0.003955 0.002723
# 4 0.005371 0.011905 -0.002417 0.049606 0.033817 0.010040
# 5 0.003808 0.010652 -0.003955 0.033817 0.070884 0.015481
# 6 0.011111 0.012590 0.002723 0.010040 0.015481 0.043956
#
#
# Mechanical properties :
#
#
# Convention : Reuss Voigt Hill
#
# Bulk Modulus (GPa) = 20.94911 35.59713 28.27312
# Shear Modulus (GPa) = 19.88385 30.62998 25.25692
#
# Velocity S-wave (km/s) = 2.86951 3.56149 3.23406
# Velocity P-wave (km/s) = 4.43329 5.62614 5.06495
#
# Compressibility (1/GPa) = 0.04773473
#
# Stress axis : x y z
#
# Youngs Moduli (GPa) = 51.58025 62.37142 41.66923
#
# Poissons Ratio (x) = -0.25862 0.20216
# Poissons Ratio (y) = -0.21388 0.21405
# Poissons Ratio (z) = 0.25024 0.32040
#
# Static dielectric constant tensor:
#      x y z
#    x 2.100460 0.045140 -0.046690 
#    y 0.045140 2.019750 -0.235260 
#    z -0.046690 -0.235260 2.179690 
# 
# From -- ./inp_files/482923.got.cif
#   From: 2010.05.17/outbox.cif.g08.bks.cpg/sg2_242_cif.got.tgz:482923.got - 2010.06.03 11:33:40.
