data_PCOD9077514
_publ_section_title
;
Structure prediction by ZEFSAII (Michael W. Deem and Ramdas Pophale) SiO2 
 PCOD9077514
Probable space group: P -1
;
_chemical_formula_sum "Si O2"
_cell_formula_units_Z 16
_cell_length_a 16.290594
_cell_length_b 11.525694
_cell_length_c 8.635089
_cell_angle_alpha 68.331709
_cell_angle_beta 93.211419
_cell_angle_gamma 143.841358
_cell_volume 797.681972
_symmetry_space_group_name_H-M "P -1"
_symmetry_group_IT_number 2
_symmetry_cell_setting 'triclinic'
loop_
_space_group_symop_operation_xyz
x,y,z
-x,-y,-z
loop_
_atom_site_type_symbol
_atom_site_label
_atom_site_fract_x
_atom_site_fract_y
_atom_site_fract_z
Si Si1 0.657979 0.432986 0.451038
Si Si2 0.700078 0.004082 0.350133
Si Si3 0.669797 0.689509 0.496922
Si Si4 0.594702 0.115775 0.792037
Si Si5 0.683113 0.379572 0.145215
Si Si6 0.546503 0.441624 0.931542
Si Si7 0.925576 0.493616 0.126306
Si Si8 0.747818 0.087013 0.952969
O O1 0.475285 0.221337 0.497065
O O2 0.730136 0.654347 0.413427
O O3 0.656086 0.326852 0.637101
O O4 0.723165 0.460418 0.287349
O O5 0.757428 0.934672 0.391512
O O6 0.806468 0.245818 0.321212
O O7 0.696069 0.036626 0.152080
O O8 0.500000 0.500000 0.500000
O O9 0.637682 0.599723 0.709756
O O10 0.729799 0.191841 0.805461
O O11 0.472506 0.903336 0.758761
O O12 0.500000 0.000000 0.000000
O O13 0.825265 0.477216 0.054422
O O14 0.644832 0.460607 0.017986
O O15 0.500000 0.500000 0.000000
O O16 0.381817 0.170538 0.000340
O O17 0.075446 0.730741 0.119405
O O18 0.000000 0.500000 0.000000
#
# Coordination Sequence:
#
# PCOD9077514 Si02
#       8
#     2   2   2   2   2   2   2   2
#     4  11  19  34  59  88 122 145 203 257 296 348
#     4  10  18  34  60  87 116 156 197 239 305 352
#     4  10  19  33  58  89 116 153 192 251 303 345
#     4  11  18  34  57  88 115 148 202 252 292 343
#     4  11  23  35  61  92 116 157 203 250 302 348
#     4  11  21  38  63  93 119 151 206 254 294 351
#     4  10  21  39  59  85 124 161 196 240 300 371
#     4  10  20  35  59  86 115 158 195 236 302 358
#
# _framework density 20.058119999999999
#
# number of rings (size 3 to 8) (size 9 to 14) (size 15 to 20)
#    0.000    1.500    5.000    3.375    0.000    0.000 
#    0.000    1.250    0.000    3.750    0.000    0.000 
#    0.000    0.000    0.000    0.000    0.000    0.000 
#
# Total GULP energy -89238.785539 kJ/mol
# GULP energy per Si atom -5577.424096 kJ/mol
# Density = 2.001247 g / cm^3
# Si number density = 20.058120 Si / 1000 Ang^3
#
#
#
# Elastic Constant Matrix: (Units=GPa)
#
#
# Indices 1 2 3 4 5 6 
#
# 1 119.6617 34.3449 25.0840 3.6737 16.2860 0.4203
# 2 34.3449 53.9855 14.2659 3.4618 6.5180 4.6262
# 3 25.0840 14.2659 46.8506 10.7693 14.3035 -4.8076
# 4 3.6737 3.4618 10.7693 16.2026 -3.1624 -7.5806
# 5 16.2860 6.5180 14.3035 -3.1624 32.7714 3.1765
# 6 0.4203 4.6262 -4.8076 -7.5806 3.1765 31.9445
#
#
#
# Elastic Compliance Matrix: (Units=1/GPa)
#
#
# Indices 1 2 3 4 5 6 
#
# 1 0.011139 -0.005952 -0.003377 0.000744 -0.002871 0.000669
# 2 -0.005952 0.023948 -0.003785 -0.003496 -0.000027 -0.004786
# 3 -0.003377 -0.003785 0.034469 -0.023474 -0.015044 0.001705
# 4 0.000744 -0.003496 -0.023474 0.088969 0.017574 0.016329
# 5 -0.002871 -0.000027 -0.015044 0.017574 0.040409 -0.002070
# 6 0.000669 -0.004786 0.001705 0.016329 -0.002070 0.036326
#
#
# Mechanical properties :
#
#
# Convention : Reuss Voigt Hill
#
# Bulk Modulus (GPa) = 23.08009 40.87638 31.97823
# Shear Modulus (GPa) = 18.12054 25.97056 22.04555
#
# Velocity S-wave (km/s) = 3.00892 3.60219 3.31884
# Velocity P-wave (km/s) = 4.85830 6.14200 5.53748
#
# Compressibility (1/GPa) = 0.04332738
#
# Stress axis : x y z
#
# Youngs Moduli (GPa) = 89.77649 41.75723 29.01182
#
# Poissons Ratio (x) = 0.24855 0.09798
# Poissons Ratio (y) = 0.53438 0.10980
# Poissons Ratio (z) = 0.30318 0.15803
#
# Static dielectric constant tensor:
#      x y z
#    x 1.823960 -0.063190 -0.043400 
#    y -0.063190 1.780000 0.025540 
#    z -0.043400 0.025540 1.755170 
# 
# From -- ./inp_files/271371.got.cif
#   From: 2010.05.17/outbox.cif.g08.bks.cpg/sg2_136_cif.got.tgz:271371.got - 2010.06.03 11:33:40.
