data_PCOD9077937
_publ_section_title
;
Structure prediction by ZEFSAII (Michael W. Deem and Ramdas Pophale) SiO2 
 PCOD9077937
Probable space group: P -1
;
_chemical_formula_sum "Si O2"
_cell_formula_units_Z 16
_cell_length_a 16.992666
_cell_length_b 7.168571
_cell_length_c 11.119437
_cell_angle_alpha 118.643610
_cell_angle_beta 33.222909
_cell_angle_gamma 107.319576
_cell_volume 636.093053
_symmetry_space_group_name_H-M "P -1"
_symmetry_group_IT_number 2
_symmetry_cell_setting 'triclinic'
loop_
_space_group_symop_operation_xyz
x,y,z
-x,-y,-z
loop_
_atom_site_type_symbol
_atom_site_label
_atom_site_fract_x
_atom_site_fract_y
_atom_site_fract_z
Si Si1 0.268554 0.075830 0.786368
Si Si2 0.843295 0.636027 0.196565
Si Si3 0.448059 0.785999 0.041689
Si Si4 0.389875 0.676247 0.342337
Si Si5 0.803007 0.498234 0.881212
Si Si6 0.851397 0.512708 0.542810
Si Si7 0.176631 0.105075 0.470084
Si Si8 0.828232 0.204320 0.970256
O O1 0.158599 0.188463 0.852909
O O2 0.366377 0.872224 0.527237
O O3 0.222200 0.970241 0.935009
O O4 0.309923 0.294504 0.853443
O O5 0.772706 0.769401 0.442229
O O6 0.776019 0.436488 0.176783
O O7 0.000000 0.500000 0.000000
O O8 0.518032 0.563853 0.815314
O O9 0.725850 0.131300 0.723778
O O10 0.471957 0.739698 0.138491
O O11 0.500000 0.000000 0.000000
O O12 0.805161 0.509889 0.738874
O O13 0.970730 0.533625 0.708216
O O14 0.789488 0.283658 0.908023
O O15 0.803993 0.758303 0.629482
O O16 0.767765 0.369630 0.519354
O O17 0.004855 0.118882 0.712984
#
# Coordination Sequence:
#
# PCOD9077937 Si02
#       8
#     2   2   2   2   2   2   2   2
#     4  11  21  37  60  91 124 155 196 252 300 366
#     4   9  18  31  50  84 121 146 184 236 308 354
#     4  11  23  40  57  90 120 156 203 261 300 347
#     4  11  24  38  64  92 116 157 209 250 302 351
#     4   9  22  39  56  88 131 163 192 237 306 367
#     4  10  20  40  59  86 128 163 196 243 296 373
#     4  10  18  35  56  85 118 157 192 246 300 346
#     4   9  20  33  55  88 122 158 193 236 302 371
#
# _framework density 25.153551
#
# number of rings (size 3 to 8) (size 9 to 14) (size 15 to 20)
#    0.000    2.000    2.500    1.500    1.750    4.500 
#    2.250    1.875    0.000    3.750    0.000    0.000 
#    0.000    0.000    0.000    0.000    0.000    0.000 
#
# Total GULP energy -89291.803520 kJ/mol
# GULP energy per Si atom -5580.737720 kJ/mol
# Density = 2.509630 g / cm^3
# Si number density = 25.153551 Si / 1000 Ang^3
#
#
#
# Elastic Constant Matrix: (Units=GPa)
#
#
# Indices 1 2 3 4 5 6 
#
# 1 66.1708 35.5077 47.5102 12.3255 3.9341 -29.7525
# 2 35.5077 184.5388 56.1148 -1.0301 -1.8087 -41.9334
# 3 47.5102 56.1148 118.2675 23.0367 8.1096 -24.2081
# 4 12.3255 -1.0301 23.0367 46.9002 -11.6556 4.1032
# 5 3.9341 -1.8087 8.1096 -11.6556 19.7523 -6.1025
# 6 -29.7525 -41.9334 -24.2081 4.1032 -6.1025 34.6091
#
#
#
# Elastic Compliance Matrix: (Units=1/GPa)
#
#
# Indices 1 2 3 4 5 6 
#
# 1 0.032127 0.001809 -0.007174 -0.006999 0.000527 0.025716
# 2 0.001809 0.008560 -0.003515 0.002100 0.006298 0.010330
# 3 -0.007174 -0.003515 0.015132 -0.008070 -0.010072 -0.000660
# 4 -0.006999 0.002100 -0.008070 0.033383 0.021744 -0.009240
# 5 0.000527 0.006298 -0.010072 0.021744 0.071483 0.011065
# 6 0.025716 0.010330 -0.000660 -0.009240 0.011065 0.066103
#
#
# Mechanical properties :
#
#
# Convention : Reuss Voigt Hill
#
# Bulk Modulus (GPa) = 26.27335 71.91582 49.09459
# Shear Modulus (GPa) = 19.43750 35.57529 27.50640
#
# Velocity S-wave (km/s) = 2.78286 3.76483 3.31046
# Velocity P-wave (km/s) = 4.56000 6.89575 5.84573
#
# Compressibility (1/GPa) = 0.03806138
#
# Stress axis : x y z
#
# Youngs Moduli (GPa) = 31.12624 116.81618 66.08370
#
# Poissons Ratio (x) = -0.21136 0.47406
# Poissons Ratio (y) = -0.05632 0.23228
# Poissons Ratio (z) = 0.22329 0.41060
#
# Static dielectric constant tensor:
#      x y z
#    x 2.149670 0.055490 -0.025330 
#    y 0.055490 1.991180 -0.004000 
#    z -0.025330 -0.004000 2.027050 
# 
# From -- ./inp_files/117699.got.cif
#   From: 2010.05.17/outbox.cif.g08.bks.cpg/sg2_59_cif.got.tgz:117699.got - 2010.06.03 11:33:40.
