data_PCOD9077612
_publ_section_title
;
Structure prediction by ZEFSAII (Michael W. Deem and Ramdas Pophale) SiO2 
 PCOD9077612
Probable space group: P -1
;
_chemical_formula_sum "Si O2"
_cell_formula_units_Z 16
_cell_length_a 8.679183
_cell_length_b 11.333070
_cell_length_c 14.235422
_cell_angle_alpha 75.620213
_cell_angle_beta 43.223015
_cell_angle_gamma 106.726679
_cell_volume 657.251144
_symmetry_space_group_name_H-M "P -1"
_symmetry_group_IT_number 2
_symmetry_cell_setting 'triclinic'
loop_
_space_group_symop_operation_xyz
x,y,z
-x,-y,-z
loop_
_atom_site_type_symbol
_atom_site_label
_atom_site_fract_x
_atom_site_fract_y
_atom_site_fract_z
Si Si1 0.696304 0.560623 0.805557
Si Si2 0.749408 0.190032 0.042585
Si Si3 0.207999 0.454187 0.431433
Si Si4 0.019977 0.584166 0.279259
Si Si5 0.859498 0.124110 0.188368
Si Si6 0.829567 0.085935 0.427324
Si Si7 0.945196 0.084612 0.647946
Si Si8 0.295053 0.063800 0.010861
O O1 0.573245 0.474374 0.773376
O O2 0.944112 0.546739 0.719444
O O3 0.871635 0.755434 0.678492
O O4 0.500000 0.500000 0.000000
O O5 0.894158 0.240851 0.071522
O O6 0.377870 0.083876 0.226219
O O7 0.956388 0.346665 0.846717
O O8 0.719560 0.042143 0.042223
O O9 0.000000 0.500000 0.500000
O O10 0.273516 0.495623 0.505699
O O11 0.040216 0.257456 0.545690
O O12 0.353779 0.757279 0.147447
O O13 0.907195 0.159160 0.271764
O O14 0.072532 0.090346 0.075552
O O15 0.477649 0.962211 0.389267
O O16 0.804189 0.930175 0.470156
O O17 0.853241 0.049769 0.806182
#
# Coordination Sequence:
#
# PCOD9077612 Si02
#       8
#     2   2   2   2   2   2   2   2
#     4  11  22  37  58  85 120 157 198 245 299 349
#     4  11  18  32  61  90 116 148 198 247 295 344
#     4  10  20  34  57  90 121 145 186 251 309 344
#     4  10  20  37  61  94 118 148 197 255 302 345
#     4  10  22  36  55  89 120 161 196 234 291 357
#     4  10  23  40  57  84 124 160 199 240 288 357
#     4  10  18  35  60  88 117 147 195 253 292 340
#     4  10  18  34  61  90 122 147 192 244 296 354
#
# _framework density 24.343813000000001
#
# number of rings (size 3 to 8) (size 9 to 14) (size 15 to 20)
#    0.000    1.750    2.500    4.125    0.000    3.000 
#    0.000    0.625    0.000    9.750    0.000    0.000 
#    0.000    0.000    0.000    0.000    0.000    0.000 
#
# Total GULP energy -89158.557130 kJ/mol
# GULP energy per Si atom -5572.409821 kJ/mol
# Density = 2.428841 g / cm^3
# Si number density = 24.343813 Si / 1000 Ang^3
#
#
#
# Elastic Constant Matrix: (Units=GPa)
#
#
# Indices 1 2 3 4 5 6 
#
# 1 102.2374 17.2764 39.2629 6.4803 25.2480 -21.9424
# 2 17.2764 102.1319 38.7714 0.7058 -0.0482 -23.3412
# 3 39.2629 38.7714 91.6526 29.5289 27.2979 -1.3111
# 4 6.4803 0.7058 29.5289 33.5640 -0.2381 8.7925
# 5 25.2480 -0.0482 27.2979 -0.2381 54.2840 -0.2983
# 6 -21.9424 -23.3412 -1.3111 8.7925 -0.2983 22.1476
#
#
#
# Elastic Compliance Matrix: (Units=1/GPa)
#
#
# Indices 1 2 3 4 5 6 
#
# 1 0.018382 0.005240 -0.006942 -0.004106 -0.004935 0.024886
# 2 0.005240 0.018654 -0.011900 0.003073 0.003704 0.022976
# 3 -0.006942 -0.011900 0.029314 -0.021884 -0.011669 -0.009153
# 4 -0.004106 0.003073 -0.021884 0.056226 0.013031 -0.024270
# 5 -0.004935 0.003704 -0.011669 0.013031 0.026610 -0.006492
# 6 0.024886 0.022976 -0.009153 -0.024270 -0.006492 0.103027
#
#
# Mechanical properties :
#
#
# Convention : Reuss Voigt Hill
#
# Bulk Modulus (GPa) = 25.54669 54.07145 39.80907
# Shear Modulus (GPa) = 17.09598 35.37987 26.23792
#
# Velocity S-wave (km/s) = 2.65292 3.81641 3.28656
# Velocity P-wave (km/s) = 4.46104 6.45599 5.54890
#
# Compressibility (1/GPa) = 0.03914401
#
# Stress axis : x y z
#
# Youngs Moduli (GPa) = 54.40111 53.60826 34.11303
#
# Poissons Ratio (x) = -0.28088 0.23683
# Poissons Ratio (y) = -0.28504 0.40595
# Poissons Ratio (z) = 0.37768 0.63795
#
# Static dielectric constant tensor:
#      x y z
#    x 1.991870 -0.008750 0.021790 
#    y -0.008750 1.873810 0.002230 
#    z 0.021790 0.002230 2.049060 
# 
# From -- ./inp_files/500249.got.cif
#   From: 2010.05.17/outbox.cif.g08.bks.cpg/sg2_251_cif.got.tgz:500249.got - 2010.06.03 11:33:40.
