data_PCOD9077277
_publ_section_title
;
Structure prediction by ZEFSAII (Michael W. Deem and Ramdas Pophale) SiO2 
 PCOD9077277
Probable space group: P -1
;
_chemical_formula_sum "Si O2"
_cell_formula_units_Z 14
_cell_length_a 13.710786
_cell_length_b 11.641929
_cell_length_c 7.541043
_cell_angle_alpha 122.296492
_cell_angle_beta 43.932144
_cell_angle_gamma 139.649323
_cell_volume 540.436990
_symmetry_space_group_name_H-M "P -1"
_symmetry_group_IT_number 2
_symmetry_cell_setting 'triclinic'
loop_
_space_group_symop_operation_xyz
x,y,z
-x,-y,-z
loop_
_atom_site_type_symbol
_atom_site_label
_atom_site_fract_x
_atom_site_fract_y
_atom_site_fract_z
Si Si1 0.729135 0.655586 0.292660
Si Si2 0.643145 0.886944 0.484393
Si Si3 0.001780 0.022466 0.303857
Si Si4 0.564732 0.252895 0.691925
Si Si5 0.295777 0.379778 0.295790
Si Si6 0.043518 0.470212 0.725014
Si Si7 0.347036 0.702625 0.002848
O O1 0.373154 0.288417 0.632248
O O2 0.665150 0.639893 0.568966
O O3 0.940561 0.838314 0.154669
O O4 0.701605 0.486752 0.125592
O O5 0.584363 0.894662 0.372094
O O6 0.842771 0.020488 0.425097
O O7 0.477731 0.833430 0.782299
O O8 0.202843 0.204534 0.155907
O O9 0.000000 0.000000 0.500000
O O10 0.581199 0.429940 0.805416
O O11 0.542736 0.206868 0.886577
O O12 0.773659 0.342712 0.435725
O O13 0.114926 0.361796 0.557265
O O14 0.855013 0.359375 0.773557
O O15 0.000000 0.500000 0.000000
#
# Coordination Sequence:
#
# PCOD9077277 Si02
#       7
#     2   2   2   2   2   2   2
#     4   9  18  31  55  77 109 137 170 220 258 318
#     4  10  20  35  55  80 111 140 171 228 260 315
#     4   8  18  34  57  74 108 149 171 210 268 322
#     4  10  22  32  58  82 106 139 180 225 260 314
#     4   9  17  36  54  78 105 141 180 210 267 317
#     4  10  18  34  58  77 108 139 176 228 258 312
#     4  12  19  34  55  86 107 137 180 222 271 301
#
# _framework density 25.904961
#
# number of rings (size 3 to 8) (size 9 to 14) (size 15 to 20)
#    1.714    0.571    4.286    0.857    0.000    0.571 
#    0.000    1.429    6.286    0.857    0.000    0.000 
#    0.000    0.000    0.000    0.000    0.000    0.000 
#
# Total GULP energy -78072.134343 kJ/mol
# GULP energy per Si atom -5576.581024 kJ/mol
# Density = 2.584600 g / cm^3
# Si number density = 25.904961 Si / 1000 Ang^3
#
#
#
# Elastic Constant Matrix: (Units=GPa)
#
#
# Indices 1 2 3 4 5 6 
#
# 1 109.5538 23.8299 12.6784 5.3488 9.8426 42.5757
# 2 23.8299 116.3869 23.8886 -11.9077 6.8114 23.8259
# 3 12.6784 23.8886 47.6976 -6.9556 3.9190 12.6288
# 4 5.3488 -11.9077 -6.9556 28.5083 13.7140 -3.2531
# 5 9.8426 6.8114 3.9190 13.7140 38.2235 9.3141
# 6 42.5757 23.8259 12.6288 -3.2531 9.3141 44.0717
#
#
#
# Elastic Compliance Matrix: (Units=1/GPa)
#
#
# Indices 1 2 3 4 5 6 
#
# 1 0.015358 -0.000619 -0.000819 -0.006090 0.002120 -0.015164
# 2 -0.000619 0.010705 -0.003479 0.004371 -0.002126 -0.003420
# 3 -0.000819 -0.003479 0.024923 0.005829 -0.002985 -0.003408
# 4 -0.006090 0.004371 0.005829 0.050343 -0.020271 0.009850
# 5 0.002120 -0.002126 -0.002985 -0.020271 0.035792 -0.009104
# 6 -0.015164 -0.003420 -0.003408 0.009850 -0.009104 0.042816
#
#
# Mechanical properties :
#
#
# Convention : Reuss Voigt Hill
#
# Bulk Modulus (GPa) = 24.30100 43.82581 34.06341
# Shear Modulus (GPa) = 24.57131 36.37680 30.47406
#
# Velocity S-wave (km/s) = 3.08314 3.75139 3.43356
# Velocity P-wave (km/s) = 4.69846 5.97650 5.37560
#
# Compressibility (1/GPa) = 0.04115056
#
# Stress axis : x y z
#
# Youngs Moduli (GPa) = 65.11444 93.41720 40.12312
#
# Poissons Ratio (x) = 0.05783 0.03288
# Poissons Ratio (y) = 0.04031 0.13959
# Poissons Ratio (z) = 0.05335 0.32500
#
# Static dielectric constant tensor:
#      x y z
#    x 2.054300 0.013550 -0.038520 
#    y 0.013550 2.157610 0.001090 
#    z -0.038520 0.001090 2.083190 
# 
# From -- ./inp_files/336335.got.cif
#   From: 2010.05.17/outbox.cif.g08.bks.cpg/sg2_169_cif.got.tgz:336335.got - 2010.06.03 11:33:40.
