data_PCOD9077010
_publ_section_title
;
Structure prediction by ZEFSAII (Michael W. Deem and Ramdas Pophale) SiO2 
 PCOD9077010
Probable space group: P -1
;
_chemical_formula_sum "Si O2"
_cell_formula_units_Z 16
_cell_length_a 10.877482
_cell_length_b 12.522037
_cell_length_c 8.831088
_cell_angle_alpha 76.906509
_cell_angle_beta 140.324292
_cell_angle_gamma 120.654836
_cell_volume 629.786021
_symmetry_space_group_name_H-M "P -1"
_symmetry_group_IT_number 2
_symmetry_cell_setting 'triclinic'
loop_
_space_group_symop_operation_xyz
x,y,z
-x,-y,-z
loop_
_atom_site_type_symbol
_atom_site_label
_atom_site_fract_x
_atom_site_fract_y
_atom_site_fract_z
Si Si1 0.672156 0.242656 0.988395
Si Si2 0.986184 0.223107 0.695278
Si Si3 0.150973 0.280988 0.515779
Si Si4 0.513246 0.832103 0.857909
Si Si5 0.075462 0.481442 0.745226
Si Si6 0.739077 0.010263 0.756924
Si Si7 0.397895 0.587137 0.630576
Si Si8 0.625381 0.773379 0.529272
O O1 0.487500 0.150502 0.968671
O O2 0.728271 0.383786 0.047661
O O3 0.908559 0.252963 0.234826
O O4 0.585660 0.222250 0.743868
O O5 0.736787 0.194840 0.417900
O O6 0.093365 0.208500 0.647232
O O7 0.137711 0.374955 0.829954
O O8 0.935817 0.143243 0.825936
O O9 0.318787 0.439353 0.643123
O O10 0.246027 0.232218 0.492687
O O11 0.708347 0.960153 0.915640
O O12 0.497199 0.702517 0.815534
O O13 0.000000 0.500000 0.500000
O O14 0.846028 0.430670 0.638558
O O15 0.749355 0.902667 0.703323
O O16 0.500000 0.000000 0.500000
O O17 0.549588 0.651165 0.605145
#
# Coordination Sequence:
#
# PCOD9077010 Si02
#       8
#     2   2   2   2   2   2   2   2
#     4  10  19  35  60  86 112 141 186 234 280 322
#     4   9  15  30  55  80 103 150 192 214 266 340
#     4  10  19  34  55  79 120 149 173 227 295 325
#     4   8  14  31  56  76 104 151 185 219 275 326
#     4  10  14  30  60  80 105 154 184 216 277 332
#     4   9  19  35  58  80 106 151 193 224 273 337
#     4   9  16  32  54  78 113 147 182 221 274 333
#     4  11  23  34  55  90 112 141 189 234 274 331
#
# _framework density 25.405453999999999
#
# number of rings (size 3 to 8) (size 9 to 14) (size 15 to 20)
#    0.000    2.500    5.000    1.125    0.000    2.500 
#    0.000    8.125    0.000   18.000    0.000    0.000 
#    0.000    0.000    0.000    0.000    0.000    0.000 
#
# Total GULP energy -89441.969873 kJ/mol
# GULP energy per Si atom -5590.123117 kJ/mol
# Density = 2.534763 g / cm^3
# Si number density = 25.405454 Si / 1000 Ang^3
#
#
#
# Elastic Constant Matrix: (Units=GPa)
#
#
# Indices 1 2 3 4 5 6 
#
# 1 142.6155 45.6641 14.7244 -11.7401 -5.9283 15.9781
# 2 45.6641 86.8875 12.6444 -17.1335 -15.5705 22.8494
# 3 14.7244 12.6444 90.1024 -10.0693 3.7702 13.0718
# 4 -11.7401 -17.1335 -10.0693 17.9404 -1.3620 -5.7392
# 5 -5.9283 -15.5705 3.7702 -1.3620 27.1428 -14.1158
# 6 15.9781 22.8494 13.0718 -5.7392 -14.1158 39.9882
#
#
#
# Elastic Compliance Matrix: (Units=1/GPa)
#
#
# Indices 1 2 3 4 5 6 
#
# 1 0.008542 -0.004106 -0.000515 0.000959 -0.000938 -0.001092
# 2 -0.004106 0.019307 -0.000137 0.015045 0.008837 -0.004068
# 3 -0.000515 -0.000137 0.012574 0.004818 -0.004074 -0.004573
# 4 0.000959 0.015045 0.004818 0.076397 0.014965 0.005693
# 5 -0.000938 0.008837 -0.004074 0.014965 0.051936 0.017138
# 6 -0.001092 -0.004068 -0.004573 0.005693 0.017138 0.036130
#
#
# Mechanical properties :
#
#
# Convention : Reuss Voigt Hill
#
# Bulk Modulus (GPa) = 32.35434 51.74123 42.04779
# Shear Modulus (GPa) = 22.25140 33.45245 27.85193
#
# Velocity S-wave (km/s) = 2.96269 3.63263 3.31463
# Velocity P-wave (km/s) = 4.94633 6.16483 5.58889
#
# Compressibility (1/GPa) = 0.03090775
#
# Stress axis : x y z
#
# Youngs Moduli (GPa) = 117.06741 51.79414 79.52826
#
# Poissons Ratio (x) = 0.21268 0.04095
# Poissons Ratio (y) = 0.48071 0.01087
# Poissons Ratio (z) = 0.06027 0.00708
#
# Static dielectric constant tensor:
#      x y z
#    x 2.028400 0.009670 0.069120 
#    y 0.009670 2.003490 -0.044030 
#    z 0.069120 -0.044030 2.068440 
# 
# From -- ./inp_files/257739.got.cif
#   From: 2010.05.17/outbox.cif.g08.bks.cpg/sg2_129_cif.got.tgz:257739.got - 2010.06.03 11:33:40.
