data_PCOD9077260
_publ_section_title
;
Structure prediction by ZEFSAII (Michael W. Deem and Ramdas Pophale) SiO2 
 PCOD9077260
Probable space group: P -1
;
_chemical_formula_sum "Si O2"
_cell_formula_units_Z 16
_cell_length_a 11.490820
_cell_length_b 21.734130
_cell_length_c 9.136879
_cell_angle_alpha 136.938478
_cell_angle_beta 130.250739
_cell_angle_gamma 28.770982
_cell_volume 749.778904
_symmetry_space_group_name_H-M "P -1"
_symmetry_group_IT_number 2
_symmetry_cell_setting 'triclinic'
loop_
_space_group_symop_operation_xyz
x,y,z
-x,-y,-z
loop_
_atom_site_type_symbol
_atom_site_label
_atom_site_fract_x
_atom_site_fract_y
_atom_site_fract_z
Si Si1 0.344715 0.933716 0.165766
Si Si2 0.555608 0.536061 0.965161
Si Si3 0.031914 0.418401 0.252538
Si Si4 0.905835 0.198917 0.106835
Si Si5 0.740769 0.896260 0.348982
Si Si6 0.253133 0.398168 0.115339
Si Si7 0.782437 0.858348 0.997243
Si Si8 0.206071 0.622642 0.398972
O O1 0.502931 0.942169 0.233349
O O2 0.294764 0.999610 0.399322
O O3 0.513411 0.768367 0.029415
O O4 0.094915 0.040069 0.054915
O O5 0.780865 0.497245 0.117832
O O6 0.500000 0.500000 0.000000
O O7 0.337369 0.698631 0.009878
O O8 0.632913 0.436054 0.717755
O O9 0.192512 0.393054 0.218600
O O10 0.162948 0.270829 0.162525
O O11 0.000000 0.500000 0.500000
O O12 0.822055 0.295321 0.347865
O O13 0.071256 0.174773 0.080346
O O14 0.935489 0.744207 0.325053
O O15 0.840640 0.873856 0.230983
O O16 0.291838 0.487006 0.292021
O O17 0.000000 0.500000 0.000000
O O18 0.500000 0.000000 0.000000
#
# Coordination Sequence:
#
# PCOD9077260 Si02
#       8
#     2   2   2   2   2   2   2   2
#     4  10  20  34  56  90 125 166 207 265 316 377
#     4  12  23  43  66  94 134 169 216 267 318 390
#     4  12  25  41  63  97 128 166 212 269 327 376
#     4  11  23  38  64  92 129 168 218 260 322 380
#     4  10  18  34  57  88 124 159 217 261 307 365
#     4  12  20  38  64  91 133 162 215 270 321 371
#     4  12  20  38  61  96 128 167 214 271 314 377
#     4  11  22  40  65  97 122 172 214 265 316 384
#
# _framework density 21.339624000000001
#
# number of rings (size 3 to 8) (size 9 to 14) (size 15 to 20)
#    0.000    0.750    7.500    1.125    0.000    1.000 
#    0.000    0.625    0.000    4.500    0.000    0.000 
#    0.000    0.000    0.000    0.000    0.000    0.000 
#
# Total GULP energy -89291.686311 kJ/mol
# GULP energy per Si atom -5580.730394 kJ/mol
# Density = 2.129105 g / cm^3
# Si number density = 21.339624 Si / 1000 Ang^3
#
#
#
# Elastic Constant Matrix: (Units=GPa)
#
#
# Indices 1 2 3 4 5 6 
#
# 1 99.9249 26.3764 37.0024 6.2470 -30.3337 13.9423
# 2 26.3764 194.3294 57.5097 21.1690 8.7752 -1.8056
# 3 37.0024 57.5097 107.5007 15.5276 -34.0735 8.8254
# 4 6.2470 21.1690 15.5276 34.0065 -4.1981 0.0766
# 5 -30.3337 8.7752 -34.0735 -4.1981 23.9473 -3.4944
# 6 13.9423 -1.8056 8.8254 0.0766 -3.4944 31.1293
#
#
#
# Elastic Compliance Matrix: (Units=1/GPa)
#
#
# Indices 1 2 3 4 5 6 
#
# 1 0.026822 -0.011852 0.017190 0.002232 0.061613 -0.010663
# 2 -0.011852 0.014918 -0.018621 -0.004403 -0.046841 0.006206
# 3 0.017190 -0.018621 0.041511 0.000133 0.086097 -0.010883
# 4 0.002232 -0.004403 0.000133 0.032958 0.010377 -0.000209
# 5 0.061613 -0.046841 0.086097 0.010377 0.257520 -0.025839
# 6 -0.010663 0.006206 -0.010883 -0.000209 -0.025839 0.037445
#
#
# Mechanical properties :
#
#
# Convention : Reuss Voigt Hill
#
# Bulk Modulus (GPa) = 17.64159 71.50355 44.57257
# Shear Modulus (GPa) = 10.94964 36.54104 23.74534
#
# Velocity S-wave (km/s) = 2.26766 4.14255 3.33939
# Velocity P-wave (km/s) = 3.89119 7.51406 5.98341
#
# Compressibility (1/GPa) = 0.05668422
#
# Stress axis : x y z
#
# Youngs Moduli (GPa) = 37.28237 67.03362 24.08998
#
# Poissons Ratio (x) = 0.79450 -0.41411
# Poissons Ratio (y) = 0.44188 0.44859
# Poissons Ratio (z) = -0.64089 1.24826
#
# Static dielectric constant tensor:
#      x y z
#    x 1.764760 0.016870 -0.013060 
#    y 0.016870 1.756900 -0.038340 
#    z -0.013060 -0.038340 1.754440 
# 
# From -- ./inp_files/283258.got.cif
#   From: 2010.05.17/outbox.cif.g08.bks.cpg/sg2_142_cif.got.tgz:283258.got - 2010.06.03 11:33:40.
