data_PCOD9077884
_publ_section_title
;
Structure prediction by ZEFSAII (Michael W. Deem and Ramdas Pophale) SiO2 
 PCOD9077884
Probable space group: P -1
;
_chemical_formula_sum "Si O2"
_cell_formula_units_Z 16
_cell_length_a 11.468501
_cell_length_b 7.933626
_cell_length_c 14.202937
_cell_angle_alpha 55.804126
_cell_angle_beta 136.734994
_cell_angle_gamma 126.897002
_cell_volume 689.688927
_symmetry_space_group_name_H-M "P -1"
_symmetry_group_IT_number 2
_symmetry_cell_setting 'triclinic'
loop_
_space_group_symop_operation_xyz
x,y,z
-x,-y,-z
loop_
_atom_site_type_symbol
_atom_site_label
_atom_site_fract_x
_atom_site_fract_y
_atom_site_fract_z
Si Si1 0.094124 0.138577 0.662165
Si Si2 0.677014 0.719801 0.711259
Si Si3 0.942821 0.996763 0.101256
Si Si4 0.025214 0.432373 0.764865
Si Si5 0.732881 0.459629 0.457947
Si Si6 0.638645 0.732128 0.476241
Si Si7 0.157118 0.617536 0.128563
Si Si8 0.228598 0.886831 0.666585
O O1 0.203357 0.396680 0.642009
O O2 0.920205 0.123299 0.499309
O O3 0.191385 0.001686 0.702304
O O4 0.085093 0.049496 0.789468
O O5 0.843405 0.861419 0.827383
O O6 0.472414 0.696522 0.623046
O O7 0.715736 0.813436 0.598900
O O8 0.687815 0.476865 0.782776
O O9 0.905903 0.763367 0.108415
O O10 0.823057 0.133243 0.949441
O O11 0.873766 0.356670 0.616085
O O12 0.918396 0.463043 0.786234
O O13 0.182216 0.642172 0.751968
O O14 0.744131 0.644446 0.486623
O O15 0.500000 0.500000 0.500000
O O16 0.599697 0.933544 0.339437
O O17 0.000000 0.500000 0.000000
#
# Coordination Sequence:
#
# PCOD9077884 Si02
#       8
#     2   2   2   2   2   2   2   2
#     4   9  17  32  51  80 105 141 184 222 268 320
#     4  10  18  35  55  81 108 140 186 229 273 316
#     4  11  22  34  54  78 115 152 185 217 265 336
#     4  11  21  34  53  84 115 142 178 224 284 333
#     4   9  19  31  57  83 111 135 174 236 282 318
#     4   9  15  28  52  81 104 132 177 224 269 315
#     4  10  21  36  57  79 102 147 195 233 258 313
#     4   9  16  29  53  77 111 136 176 235 268 317
#
# _framework density 23.198865000000001
#
# number of rings (size 3 to 8) (size 9 to 14) (size 15 to 20)
#    0.000    2.250    2.500    2.625    0.000    2.500 
#    0.000    0.625    0.000    1.500    0.000   12.250 
#    0.000    0.000    0.000    0.000    0.000    0.125 
#
# Total GULP energy -89088.163828 kJ/mol
# GULP energy per Si atom -5568.010239 kJ/mol
# Density = 2.314606 g / cm^3
# Si number density = 23.198865 Si / 1000 Ang^3
#
#
#
# Elastic Constant Matrix: (Units=GPa)
#
#
# Indices 1 2 3 4 5 6 
#
# 1 48.4487 22.4702 26.6659 -10.4067 -21.2996 7.7280
# 2 22.4702 71.4584 36.4350 -34.7013 -5.8900 12.0856
# 3 26.6659 36.4350 96.9528 -23.2244 -13.1643 14.5831
# 4 -10.4067 -34.7013 -23.2244 39.5568 -3.4230 -6.8854
# 5 -21.2996 -5.8900 -13.1643 -3.4230 32.8068 -5.1352
# 6 7.7280 12.0856 14.5831 -6.8854 -5.1352 27.8428
#
#
#
# Elastic Compliance Matrix: (Units=1/GPa)
#
#
# Indices 1 2 3 4 5 6 
#
# 1 0.035332 -0.005403 -0.003814 0.003999 0.020755 -0.000647
# 2 -0.005403 0.028376 -0.003349 0.021059 0.001891 -0.003507
# 3 -0.003814 -0.003349 0.014519 0.004189 0.002627 -0.003572
# 4 0.003999 0.021059 0.004189 0.048799 0.013480 0.002109
# 5 0.020755 0.001891 0.002627 0.013480 0.047401 0.004119
# 6 -0.000647 -0.003507 -0.003572 0.002109 0.004119 0.040770
#
#
# Mechanical properties :
#
#
# Convention : Reuss Voigt Hill
#
# Bulk Modulus (GPa) = 18.83413 43.11137 30.97275
# Shear Modulus (GPa) = 19.37773 28.79385 24.08579
#
# Velocity S-wave (km/s) = 2.89327 3.52685 3.22566
# Velocity P-wave (km/s) = 4.39290 5.93369 5.22045
#
# Compressibility (1/GPa) = 0.05309510
#
# Stress axis : x y z
#
# Youngs Moduli (GPa) = 28.30273 35.24082 68.87479
#
# Poissons Ratio (x) = 0.19042 0.26267
# Poissons Ratio (y) = 0.15293 0.23066
# Poissons Ratio (z) = 0.10794 0.11802
#
# Static dielectric constant tensor:
#      x y z
#    x 2.011310 0.092430 0.005800 
#    y 0.092430 2.067790 -0.028200 
#    z 0.005800 -0.028200 1.897470 
# 
# From -- ./inp_files/514046.got.cif
#   From: 2010.05.17/outbox.cif.g08.bks.cpg/sg2_258_cif.got.tgz:514046.got - 2010.06.03 11:33:40.
