data_PCOD9077181
_publ_section_title
;
Structure prediction by ZEFSAII (Michael W. Deem and Ramdas Pophale) SiO2 
 PCOD9077181
Probable space group: P -1
;
_chemical_formula_sum "Si O2"
_cell_formula_units_Z 16
_cell_length_a 8.972152
_cell_length_b 11.204696
_cell_length_c 23.135885
_cell_angle_alpha 31.219717
_cell_angle_beta 48.507766
_cell_angle_gamma 69.511905
_cell_volume 749.471853
_symmetry_space_group_name_H-M "P -1"
_symmetry_group_IT_number 2
_symmetry_cell_setting 'triclinic'
loop_
_space_group_symop_operation_xyz
x,y,z
-x,-y,-z
loop_
_atom_site_type_symbol
_atom_site_label
_atom_site_fract_x
_atom_site_fract_y
_atom_site_fract_z
Si Si1 0.191698 0.750084 0.980765
Si Si2 0.760759 0.197777 0.178002
Si Si3 0.708857 0.326039 0.770102
Si Si4 0.139430 0.278910 0.660267
Si Si5 0.290876 0.838973 0.667978
Si Si6 0.740668 0.676111 0.515201
Si Si7 0.763951 0.670211 0.261064
Si Si8 0.267220 0.757750 0.079982
O O1 0.315869 0.718304 0.018167
O O2 0.918648 0.480941 0.157340
O O3 0.327852 0.795937 0.865996
O O4 0.191738 0.026896 0.875501
O O5 0.613740 0.135235 0.301129
O O6 0.839696 0.981947 0.242131
O O7 0.000000 0.500000 0.000000
O O8 0.800043 0.568887 0.600401
O O9 0.710764 0.400140 0.806008
O O10 0.878384 0.210749 0.769862
O O11 0.448630 0.077615 0.919120
O O12 0.198690 0.402927 0.529155
O O13 0.289934 0.439597 0.612817
O O14 0.500000 0.000000 0.500000
O O15 0.159613 0.003109 0.636864
O O16 0.454561 0.521973 0.645146
O O17 0.999909 0.685712 0.177000
#
# Coordination Sequence:
#
# PCOD9077181 Si02
#       8
#     2   2   2   2   2   2   2   2
#     4  10  18  34  57  78 108 147 184 229 273 325
#     4   8  17  34  55  81 107 143 182 226 273 329
#     4  10  21  34  52  83 114 150 180 226 278 334
#     4   9  19  34  54  84 115 142 181 230 281 333
#     4  10  21  33  54  85 115 138 179 236 288 324
#     4  11  20  35  56  83 112 144 184 231 285 326
#     4  10  19  32  58  86 107 140 189 237 271 323
#     4  10  20  34  53  82 113 142 191 230 269 324
#
# _framework density 21.348368000000001
#
# number of rings (size 3 to 8) (size 9 to 14) (size 15 to 20)
#    0.000    2.250    1.250    1.875    1.750    0.000 
#    2.250    0.625    0.000    6.750    0.000    0.000 
#    0.000    0.000    0.000    0.000    0.000    0.000 
#
# Total GULP energy -89147.721491 kJ/mol
# GULP energy per Si atom -5571.732593 kJ/mol
# Density = 2.129978 g / cm^3
# Si number density = 21.348368 Si / 1000 Ang^3
#
#
#
# Elastic Constant Matrix: (Units=GPa)
#
#
# Indices 1 2 3 4 5 6 
#
# 1 88.3049 36.1059 19.5953 18.4981 26.5252 44.1546
# 2 36.1059 62.6579 22.0940 13.5451 16.1425 35.4132
# 3 19.5953 22.0940 62.8510 11.4093 19.5447 13.9519
# 4 18.4981 13.5451 11.4093 42.0883 15.7133 12.9510
# 5 26.5252 16.1425 19.5447 15.7133 38.4173 24.3763
# 6 44.1546 35.4132 13.9519 12.9510 24.3763 39.5218
#
#
#
# Elastic Compliance Matrix: (Units=1/GPa)
#
#
# Indices 1 2 3 4 5 6 
#
# 1 0.026883 0.005076 -0.003173 -0.003507 0.004695 -0.035209
# 2 0.005076 0.038807 -0.009183 -0.003979 0.015224 -0.045288
# 3 -0.003173 -0.009183 0.021364 -0.000573 -0.012140 0.011908
# 4 -0.003507 -0.003979 -0.000573 0.029242 -0.010469 0.004561
# 5 0.004695 0.015224 -0.012140 -0.010469 0.055759 -0.045562
# 6 -0.035209 -0.045288 0.011908 0.004561 -0.045562 0.127622
#
#
# Mechanical properties :
#
#
# Convention : Reuss Voigt Hill
#
# Bulk Modulus (GPa) = 13.79447 41.04489 27.41968
# Shear Modulus (GPa) = 14.77534 33.07338 23.92436
#
# Velocity S-wave (km/s) = 2.63365 3.94029 3.35126
# Velocity P-wave (km/s) = 3.96532 6.32211 5.27697
#
# Compressibility (1/GPa) = 0.07249279
#
# Stress axis : x y z
#
# Youngs Moduli (GPa) = 37.19886 25.76876 46.80744
#
# Poissons Ratio (x) = -0.13080 0.14854
# Poissons Ratio (y) = -0.18882 0.42983
# Poissons Ratio (z) = 0.11804 0.23664
#
# Static dielectric constant tensor:
#      x y z
#    x 1.806870 0.054320 0.057150 
#    y 0.054320 1.829150 0.081980 
#    z 0.057150 0.081980 1.849560 
# 
# From -- ./inp_files/260069.got.cif
#   From: 2010.05.17/outbox.cif.g08.bks.cpg/sg2_131_cif.got.tgz:260069.got - 2010.06.03 11:33:40.
