data_PCOD9077970
_publ_section_title
;
Structure prediction by ZEFSAII (Michael W. Deem and Ramdas Pophale) SiO2 
 PCOD9077970
Probable space group: P -1
;
_chemical_formula_sum "Si O2"
_cell_formula_units_Z 16
_cell_length_a 11.492554
_cell_length_b 12.123496
_cell_length_c 12.842900
_cell_angle_alpha 76.245106
_cell_angle_beta 123.988395
_cell_angle_gamma 57.004171
_cell_volume 779.206605
_symmetry_space_group_name_H-M "P -1"
_symmetry_group_IT_number 2
_symmetry_cell_setting 'triclinic'
loop_
_space_group_symop_operation_xyz
x,y,z
-x,-y,-z
loop_
_atom_site_type_symbol
_atom_site_label
_atom_site_fract_x
_atom_site_fract_y
_atom_site_fract_z
Si Si1 0.748299 0.251694 0.691429
Si Si2 0.720068 0.067999 0.872167
Si Si3 0.233039 0.613680 0.836205
Si Si4 0.724426 0.549467 0.308937
Si Si5 0.431049 0.778210 0.788109
Si Si6 0.065274 0.960833 0.387032
Si Si7 0.436231 0.067204 0.129762
Si Si8 0.124097 0.306000 0.725067
O O1 0.500000 0.500000 0.500000
O O2 0.861609 0.147691 0.658364
O O3 0.688260 0.173487 0.736146
O O4 0.978117 0.148723 0.899571
O O5 0.588730 0.034481 0.800153
O O6 0.575364 0.224591 0.864572
O O7 0.206526 0.592736 0.707945
O O8 0.500000 0.500000 0.000000
O O9 0.308717 0.456007 0.982024
O O10 0.016213 0.850743 0.707879
O O11 0.836782 0.587903 0.305277
O O12 0.856881 0.445949 0.510858
O O13 0.313602 0.795205 0.625169
O O14 0.498152 0.864946 0.788965
O O15 0.187391 0.927576 0.712753
O O16 0.663999 0.900219 0.195376
O O17 0.183266 0.248832 0.888118
#
# Coordination Sequence:
#
# PCOD9077970 Si02
#       8
#     2   2   2   2   2   2   2   2
#     4  11  26  45  64  84 118 167 211 254 301 356
#     4  10  24  41  62  91 122 159 208 258 293 363
#     4  10  19  33  55  87 124 156 187 243 301 362
#     4  10  18  35  56  96 126 156 196 241 312 368
#     4  10  20  37  62  94 126 156 189 248 316 368
#     4  10  23  38  61  90 121 160 204 243 301 370
#     4  10  19  35  57  93 128 159 199 249 308 361
#     4   9  19  28  57  90 131 159 184 248 310 364
#
# _framework density 20.533708000000001
#
# number of rings (size 3 to 8) (size 9 to 14) (size 15 to 20)
#    0.000    2.000    1.250    2.250    5.250    5.000 
#    0.000    0.625    0.000    1.500    0.000    0.000 
#    0.000    0.000    0.000    0.000    0.000    0.000 
#
# Total GULP energy -89289.163244 kJ/mol
# GULP energy per Si atom -5580.572703 kJ/mol
# Density = 2.048697 g / cm^3
# Si number density = 20.533708 Si / 1000 Ang^3
#
#
#
# Elastic Constant Matrix: (Units=GPa)
#
#
# Indices 1 2 3 4 5 6 
#
# 1 70.6304 2.2404 13.6402 0.0203 -16.3330 11.4231
# 2 2.2404 46.5951 15.1886 -3.0297 -8.4676 8.6029
# 3 13.6402 15.1886 107.2960 -5.3866 -3.9661 -2.1549
# 4 0.0203 -3.0297 -5.3866 25.6207 -2.0746 -1.6564
# 5 -16.3330 -8.4676 -3.9661 -2.0746 16.2256 -1.8451
# 6 11.4231 8.6029 -2.1549 -1.6564 -1.8451 23.4034
#
#
#
# Elastic Compliance Matrix: (Units=1/GPa)
#
#
# Indices 1 2 3 4 5 6 
#
# 1 0.021756 0.006331 -0.002961 0.001271 0.023359 -0.011287
# 2 0.006331 0.028490 -0.004209 0.003248 0.019239 -0.012203
# 3 -0.002961 -0.004209 0.010388 0.001783 -0.001964 0.003920
# 4 0.001271 0.003248 0.001783 0.040627 0.008823 0.001921
# 5 0.023359 0.019239 -0.001964 0.008823 0.094631 -0.010570
# 6 -0.011287 -0.012203 0.003920 0.001921 -0.010570 0.052388
#
#
# Mechanical properties :
#
#
# Convention : Reuss Voigt Hill
#
# Bulk Modulus (GPa) = 16.96206 31.85112 24.40659
# Shear Modulus (GPa) = 18.54534 25.94678 22.24606
#
# Velocity S-wave (km/s) = 3.00853 3.55860 3.29506
# Velocity P-wave (km/s) = 4.51075 5.69475 5.13697
#
# Compressibility (1/GPa) = 0.05895509
#
# Stress axis : x y z
#
# Youngs Moduli (GPa) = 45.96401 35.10058 96.26594
#
# Poissons Ratio (x) = -0.22222 0.28509
# Poissons Ratio (y) = -0.29099 0.40515
# Poissons Ratio (z) = 0.13612 0.14773
#
# Static dielectric constant tensor:
#      x y z
#    x 1.757530 0.026720 -0.037480 
#    y 0.026720 1.722830 -0.036900 
#    z -0.037480 -0.036900 1.845200 
# 
# From -- ./inp_files/426530.got.cif
#   From: 2010.05.17/outbox.cif.g08.bks.cpg/sg2_214_cif.got.tgz:426530.got - 2010.06.03 11:33:40.
