data_PCOD9077168
_publ_section_title
;
Structure prediction by ZEFSAII (Michael W. Deem and Ramdas Pophale) SiO2 
 PCOD9077168
Probable space group: P -1
;
_chemical_formula_sum "Si O2"
_cell_formula_units_Z 16
_cell_length_a 11.814675
_cell_length_b 9.141473
_cell_length_c 23.751159
_cell_angle_alpha 54.114273
_cell_angle_beta 148.182607
_cell_angle_gamma 103.329666
_cell_volume 854.162885
_symmetry_space_group_name_H-M "P -1"
_symmetry_group_IT_number 2
_symmetry_cell_setting 'triclinic'
loop_
_space_group_symop_operation_xyz
x,y,z
-x,-y,-z
loop_
_atom_site_type_symbol
_atom_site_label
_atom_site_fract_x
_atom_site_fract_y
_atom_site_fract_z
Si Si1 0.218424 0.875129 0.170720
Si Si2 0.118030 0.628690 0.656552
Si Si3 0.853020 0.487661 0.769598
Si Si4 0.644487 0.182031 0.340839
Si Si5 0.201465 0.598938 0.828378
Si Si6 0.281930 0.851884 0.491829
Si Si7 0.127802 0.311403 0.048100
Si Si8 0.152442 0.500730 0.509530
O O1 0.182152 0.700353 0.223832
O O2 0.525757 0.722937 0.309368
O O3 0.156079 0.089349 0.130172
O O4 0.000000 0.000000 0.000000
O O5 0.321438 0.623101 0.700924
O O6 0.226188 0.551424 0.782665
O O7 0.996924 0.512629 0.604086
O O8 0.890366 0.908031 0.501149
O O9 0.543113 0.732340 0.587356
O O10 0.066554 0.493659 0.823577
O O11 0.974890 0.407840 0.902517
O O12 0.584010 0.200994 0.377257
O O13 0.435668 0.224793 0.195348
O O14 0.500000 0.500000 0.000000
O O15 0.969426 0.875598 0.679465
O O16 0.158244 0.714869 0.464934
O O17 0.000000 0.500000 0.000000
O O18 0.000000 0.500000 0.500000
#
# Coordination Sequence:
#
# PCOD9077168 Si02
#       8
#     2   2   2   2   2   2   2   2
#     4   9  21  36  55  88 123 152 188 239 299 349
#     4  10  21  35  59  84 117 153 197 238 297 343
#     4  10  21  39  58  83 122 158 189 240 296 355
#     4  10  18  34  56  90 116 145 191 252 288 344
#     4  11  24  42  59  81 117 163 201 241 290 358
#     4  10  21  37  60  87 116 151 201 242 299 345
#     4  11  19  33  61  91 118 144 195 244 297 348
#     4  11  20  36  61  90 119 153 192 249 299 347
#
# _framework density 18.731791000000001
#
# number of rings (size 3 to 8) (size 9 to 14) (size 15 to 20)
#    0.000    1.750    3.750    1.125    0.000    2.000 
#    0.000    4.375    0.000    0.000    0.000    0.000 
#    0.000    0.000    0.000    0.000    0.000    0.000 
#
# Total GULP energy -89081.165399 kJ/mol
# GULP energy per Si atom -5567.572837 kJ/mol
# Density = 1.868916 g / cm^3
# Si number density = 18.731791 Si / 1000 Ang^3
#
#
#
# Elastic Constant Matrix: (Units=GPa)
#
#
# Indices 1 2 3 4 5 6 
#
# 1 71.0898 24.8591 29.3431 -4.0552 4.9712 13.0070
# 2 24.8591 115.1351 31.5936 1.6012 2.8629 4.7891
# 3 29.3431 31.5936 94.7167 11.3441 1.9805 6.3054
# 4 -4.0552 1.6012 11.3441 31.7532 0.4132 1.6593
# 5 4.9712 2.8629 1.9805 0.4132 14.1495 9.6801
# 6 13.0070 4.7891 6.3054 1.6593 9.6801 26.8494
#
#
#
# Elastic Compliance Matrix: (Units=1/GPa)
#
#
# Indices 1 2 3 4 5 6 
#
# 1 0.018663 -0.002389 -0.005035 0.004705 -0.000295 -0.007617
# 2 -0.002389 0.009920 -0.002585 0.000112 -0.001063 0.000371
# 3 -0.005035 -0.002585 0.013624 -0.005378 0.000689 -0.000215
# 4 0.004705 0.000112 -0.005378 0.034176 0.000309 -0.003260
# 5 -0.000295 -0.001063 0.000689 0.000309 0.093958 -0.033723
# 6 -0.007617 0.000371 -0.000215 -0.003260 -0.033723 0.053279
#
#
# Mechanical properties :
#
#
# Convention : Reuss Voigt Hill
#
# Bulk Modulus (GPa) = 45.06753 50.28146 47.67449
# Shear Modulus (GPa) = 19.91767 27.56015 23.73891
#
# Velocity S-wave (km/s) = 3.26438 3.83992 3.56379
# Velocity P-wave (km/s) = 6.19030 6.82357 6.51463
#
# Compressibility (1/GPa) = 0.02218893
#
# Stress axis : x y z
#
# Youngs Moduli (GPa) = 53.58167 100.80663 73.40089
#
# Poissons Ratio (x) = 0.24085 0.36958
# Poissons Ratio (y) = 0.12802 0.18972
# Poissons Ratio (z) = 0.26979 0.26055
#
# Static dielectric constant tensor:
#      x y z
#    x 1.739130 0.036570 0.102260 
#    y 0.036570 1.681430 0.019950 
#    z 0.102260 0.019950 1.730920 
# 
# From -- ./inp_files/263189.got.cif
#   From: 2010.05.17/outbox.cif.g08.bks.cpg/sg2_132_cif.got.tgz:263189.got - 2010.06.03 11:33:40.
