data_PCOD9077374
_publ_section_title
;
Structure prediction by ZEFSAII (Michael W. Deem and Ramdas Pophale) SiO2 
 PCOD9077374
Probable space group: P -1
;
_chemical_formula_sum "Si O2"
_cell_formula_units_Z 12
_cell_length_a 11.863232
_cell_length_b 19.190486
_cell_length_c 14.439608
_cell_angle_alpha 154.328239
_cell_angle_beta 26.272947
_cell_angle_gamma 156.937324
_cell_volume 511.942741
_symmetry_space_group_name_H-M "P -1"
_symmetry_group_IT_number 2
_symmetry_cell_setting 'triclinic'
loop_
_space_group_symop_operation_xyz
x,y,z
-x,-y,-z
loop_
_atom_site_type_symbol
_atom_site_label
_atom_site_fract_x
_atom_site_fract_y
_atom_site_fract_z
Si Si1 0.555632 0.761630 0.102073
Si Si2 0.596383 0.265134 0.100794
Si Si3 0.056932 0.822570 0.929030
Si Si4 0.204003 0.587793 0.664685
Si Si5 0.152455 0.816810 0.649372
Si Si6 0.250707 0.421601 0.792445
O O1 0.572955 0.958409 0.309510
O O2 0.273227 0.554366 0.021296
O O3 0.712080 0.759739 0.080062
O O4 0.829750 0.800793 0.874036
O O5 0.639140 0.332800 0.255932
O O6 0.650340 0.438298 0.202636
O O7 0.884302 0.249063 0.846635
O O8 0.274860 0.055791 0.067744
O O9 0.082603 0.709379 0.857998
O O10 0.180106 0.779250 0.692007
O O11 0.503297 0.629484 0.435671
O O12 0.929816 0.354346 0.566636
#
# Coordination Sequence:
#
# PCOD9077374 Si02
#       6
#     2   2   2   2   2   2
#     4   8  15  33  58  77 102 151 180 213 271 322
#     4  11  22  37  57  82 111 145 183 223 274 321
#     4  10  18  34  59  80 112 145 177 225 279 318
#     4  11  21  34  59  86 108 141 185 225 271 327
#     4   8  15  31  57  78 103 146 181 213 264 325
#     4  10  21  38  58  78 113 146 180 227 270 320
#
# _framework density 23.440121000000001
#
# number of rings (size 3 to 8) (size 9 to 14) (size 15 to 20)
#    1.000    1.333    1.667    2.500    0.000    0.667 
#    0.000    1.667    3.667    0.000    0.000    0.000 
#    0.000    0.000    0.000    0.000    0.000    0.000 
#
# Total GULP energy -66920.193478 kJ/mol
# GULP energy per Si atom -5576.682790 kJ/mol
# Density = 2.338677 g / cm^3
# Si number density = 23.440121 Si / 1000 Ang^3
#
#
#
# Elastic Constant Matrix: (Units=GPa)
#
#
# Indices 1 2 3 4 5 6 
#
# 1 135.4250 4.2276 28.9261 14.2610 19.4410 6.7620
# 2 4.2276 29.8489 -6.1368 4.7775 -6.3853 13.4288
# 3 28.9261 -6.1368 48.3432 10.8132 15.7081 -4.7856
# 4 14.2610 4.7775 10.8132 13.9197 9.0821 -3.5707
# 5 19.4410 -6.3853 15.7081 9.0821 47.0087 -0.9960
# 6 6.7620 13.4288 -4.7856 -3.5707 -0.9960 28.2260
#
#
#
# Elastic Compliance Matrix: (Units=1/GPa)
#
#
# Indices 1 2 3 4 5 6 
#
# 1 0.009321 0.000550 -0.003974 -0.006914 -0.001203 -0.004086
# 2 0.000550 0.060071 0.010195 -0.045649 0.012660 -0.032311
# 3 -0.003974 0.010195 0.029872 -0.021153 -0.002901 -0.001612
# 4 -0.006914 -0.045649 -0.021153 0.134256 -0.021448 0.036015
# 5 -0.001203 0.012660 -0.002901 -0.021448 0.028435 -0.007937
# 6 -0.004086 -0.032311 -0.001612 0.036015 -0.007937 0.055782
#
#
# Mechanical properties :
#
#
# Convention : Reuss Voigt Hill
#
# Bulk Modulus (GPa) = 8.86481 29.73899 19.30190
# Shear Modulus (GPa) = 14.62855 30.27091 22.44973
#
# Velocity S-wave (km/s) = 2.50087 3.59752 3.09811
# Velocity P-wave (km/s) = 3.48271 5.47458 4.58804
#
# Compressibility (1/GPa) = 0.11280555
#
# Stress axis : x y z
#
# Youngs Moduli (GPa) = 107.28910 16.64686 33.47604
#
# Poissons Ratio (x) = -0.00916 0.13304
# Poissons Ratio (y) = -0.05903 -0.34128
# Poissons Ratio (z) = 0.42640 -0.16971
#
# Static dielectric constant tensor:
#      x y z
#    x 1.858540 -0.001830 0.060910 
#    y -0.001830 1.963100 -0.069090 
#    z 0.060910 -0.069090 1.957200 
# 
# From -- ./inp_files/191710.got.cif
#   From: 2010.05.17/outbox.cif.g08.bks.cpg/sg2_96_cif.got.tgz:191710.got - 2010.06.03 11:33:40.
