data_PCOD9077715
_publ_section_title
;
Structure prediction by ZEFSAII (Michael W. Deem and Ramdas Pophale) SiO2 
 PCOD9077715
Probable space group: P -1
;
_chemical_formula_sum "Si O2"
_cell_formula_units_Z 14
_cell_length_a 10.871845
_cell_length_b 8.192275
_cell_length_c 9.267903
_cell_angle_alpha 129.731432
_cell_angle_beta 88.460373
_cell_angle_gamma 82.662251
_cell_volume 623.207501
_symmetry_space_group_name_H-M "P -1"
_symmetry_group_IT_number 2
_symmetry_cell_setting 'triclinic'
loop_
_space_group_symop_operation_xyz
x,y,z
-x,-y,-z
loop_
_atom_site_type_symbol
_atom_site_label
_atom_site_fract_x
_atom_site_fract_y
_atom_site_fract_z
Si Si1 0.884307 0.302068 0.872660
Si Si2 0.402447 0.039524 0.155167
Si Si3 0.362131 0.632688 0.241960
Si Si4 0.145257 0.184572 0.851285
Si Si5 0.351659 0.514368 0.486692
Si Si6 0.203011 0.818704 0.893407
Si Si7 0.412142 0.215835 0.797881
O O1 0.877958 0.554244 0.969732
O O2 0.880177 0.267011 0.028322
O O3 0.759127 0.244571 0.772615
O O4 0.021046 0.164864 0.754424
O O5 0.329291 0.278294 0.314948
O O6 0.489164 0.983753 0.258822
O O7 0.500000 0.000000 0.000000
O O8 0.309415 0.887336 0.027593
O O9 0.320003 0.641419 0.411661
O O10 0.500629 0.693682 0.268517
O O11 0.390012 0.396458 0.029228
O O12 0.277589 0.155034 0.744536
O O13 0.158895 0.022067 0.898355
O O14 0.500000 0.500000 0.500000
O O15 0.268281 0.624430 0.680747
#
# Coordination Sequence:
#
# PCOD9077715 Si02
#       7
#     2   2   2   2   2   2   2
#     4  10  22  41  68  93 127 178 221 262 326 392
#     4  12  19  38  62  93 130 168 209 267 332 380
#     4  10  20  36  61  92 130 165 209 267 327 379
#     4  10  21  38  65  97 125 171 225 266 317 390
#     4  12  24  37  63 104 133 164 215 277 327 386
#     4  12  23  42  67  95 133 173 217 270 326 388
#     4  10  18  34  63  89 123 167 210 261 321 382
#
# _framework density 22.464428000000002
#
# number of rings (size 3 to 8) (size 9 to 14) (size 15 to 20)
#    0.000    1.143    5.714    1.286    4.000    0.000 
#    2.571    2.143    0.000   19.714    0.000    0.000 
#    0.000    0.000    0.000    0.000    0.000    0.000 
#
# Total GULP energy -77998.293290 kJ/mol
# GULP energy per Si atom -5571.306664 kJ/mol
# Density = 2.241330 g / cm^3
# Si number density = 22.464428 Si / 1000 Ang^3
#
#
#
# Elastic Constant Matrix: (Units=GPa)
#
#
# Indices 1 2 3 4 5 6 
#
# 1 116.0463 52.8059 35.8302 -6.1619 -9.7589 -20.7025
# 2 52.8059 78.8228 11.8026 -10.0255 -12.4059 0.5663
# 3 35.8302 11.8026 86.6989 -1.4221 -4.7285 12.2758
# 4 -6.1619 -10.0255 -1.4221 20.5961 -3.9185 3.6096
# 5 -9.7589 -12.4059 -4.7285 -3.9185 9.3711 -1.1589
# 6 -20.7025 0.5663 12.2758 3.6096 -1.1589 34.0681
#
#
#
# Elastic Compliance Matrix: (Units=1/GPa)
#
#
# Indices 1 2 3 4 5 6 
#
# 1 0.019454 -0.012266 -0.008612 -0.003432 0.000156 0.015497
# 2 -0.012266 0.027712 0.004863 0.018211 0.032685 -0.010485
# 3 -0.008612 0.004863 0.016453 0.004090 0.006063 -0.011470
# 4 -0.003432 0.018211 0.004090 0.067784 0.049787 -0.009350
# 5 0.000156 0.032685 0.006063 0.049787 0.173774 -0.001997
# 6 0.015497 -0.010485 -0.011470 -0.009350 -0.001997 0.044000
#
#
# Mechanical properties :
#
#
# Convention : Reuss Voigt Hill
#
# Bulk Modulus (GPa) = 31.65814 53.60506 42.63160
# Shear Modulus (GPa) = 12.76365 24.88234 18.82299
#
# Velocity S-wave (km/s) = 2.38622 3.33172 2.89779
# Velocity P-wave (km/s) = 4.65996 6.22210 5.49680
#
# Compressibility (1/GPa) = 0.03158746
#
# Stress axis : x y z
#
# Youngs Moduli (GPa) = 51.40448 36.08542 60.77911
#
# Poissons Ratio (x) = 0.44264 0.52342
# Poissons Ratio (y) = 0.63055 -0.29555
# Poissons Ratio (z) = 0.44269 -0.17547
#
# Static dielectric constant tensor:
#      x y z
#    x 1.761440 -0.194270 0.000540 
#    y -0.194270 1.400690 -0.066890 
#    z 0.000540 -0.066890 1.728520 
# 
# From -- ./inp_files/241403.got.cif
#   From: 2010.05.17/outbox.cif.g08.bks.cpg/sg2_121_cif.got.tgz:241403.got - 2010.06.03 11:33:40.
