data_PCOD9077394
_publ_section_title
;
Structure prediction by ZEFSAII (Michael W. Deem and Ramdas Pophale) SiO2 
 PCOD9077394
Probable space group: P -1
;
_chemical_formula_sum "Si O2"
_cell_formula_units_Z 15
_cell_length_a 7.127638
_cell_length_b 21.119473
_cell_length_c 7.404151
_cell_angle_alpha 122.826138
_cell_angle_beta 40.134229
_cell_angle_gamma 124.421243
_cell_volume 579.829684
_symmetry_space_group_name_H-M "P -1"
_symmetry_group_IT_number 2
_symmetry_cell_setting 'triclinic'
loop_
_space_group_symop_operation_xyz
x,y,z
-x,-y,-z
loop_
_atom_site_type_symbol
_atom_site_label
_atom_site_fract_x
_atom_site_fract_y
_atom_site_fract_z
Si Si1 0.099964 0.166306 0.779529
Si Si2 0.491200 0.074047 0.235151
Si Si3 0.170065 0.441619 0.691931
Si Si4 0.217257 0.582806 0.408884
Si Si5 0.775530 0.717718 0.668500
Si Si6 0.500000 0.000000 0.500000
Si Si7 0.426587 0.824083 0.227985
Si Si8 0.170474 0.331199 0.025101
O O1 0.183850 0.100864 0.493238
O O2 0.324723 0.167992 0.784099
O O3 0.167746 0.254076 0.795723
O O4 0.765169 0.143761 0.069012
O O5 0.561240 0.049318 0.345542
O O6 0.500000 0.000000 0.000000
O O7 0.500000 0.500000 0.500000
O O8 0.248456 0.359873 0.555039
O O9 0.926845 0.406881 0.660746
O O10 0.000000 0.500000 0.000000
O O11 0.000000 0.500000 0.500000
O O12 0.138953 0.645203 0.697793
O O13 0.567707 0.596101 0.132788
O O14 0.756078 0.687902 0.849329
O O15 0.099485 0.778630 0.477934
O O16 0.530348 0.767883 0.920086
O O17 0.454035 0.913414 0.288636
#
# Coordination Sequence:
#
# PCOD9077394 Si02
#       8
#     2   2   2   2   2   1   2   2
#     4  10  19  36  60  86 112 152 199 244 292 352
#     4  11  23  38  60  88 122 156 201 250 296 358
#     4  11  21  36  60  82 113 156 195 234 297 361
#     4  11  22  36  58  86 117 147 194 249 292 351
#     4  10  19  34  56  87 115 146 200 244 284 349
#     4  10  22  38  64  88 118 162 200 244 306 360
#     4  10  19  33  58  88 114 145 197 248 286 347
#     4  10  18  34  59  84 109 150 197 239 291 354
#
# _framework density 25.869665999999999
#
# number of rings (size 3 to 8) (size 9 to 14) (size 15 to 20)
#    0.000    1.600    0.000   10.400    0.000    4.800 
#    0.000    0.000   17.600    0.000    0.000    0.000 
#    0.000    0.000    0.000    0.000    0.000    0.000 
#
# Total GULP energy -83507.970164 kJ/mol
# GULP energy per Si atom -5567.198011 kJ/mol
# Density = 2.581079 g / cm^3
# Si number density = 25.869666 Si / 1000 Ang^3
#
#
#
# Elastic Constant Matrix: (Units=GPa)
#
#
# Indices 1 2 3 4 5 6 
#
# 1 56.9754 -5.4631 15.8327 -3.8616 2.2324 0.1947
# 2 -5.4631 175.1305 67.9167 26.9335 -7.0507 -21.7813
# 3 15.8327 67.9167 188.5662 26.2320 -19.2821 -4.8072
# 4 -3.8616 26.9335 26.2320 64.6098 15.2893 3.1184
# 5 2.2324 -7.0507 -19.2821 15.2893 21.6930 -0.0701
# 6 0.1947 -21.7813 -4.8072 3.1184 -0.0701 19.5914
#
#
#
# Elastic Compliance Matrix: (Units=1/GPa)
#
#
# Indices 1 2 3 4 5 6 
#
# 1 0.019068 0.000883 -0.003201 0.003807 -0.007206 -0.000625
# 2 0.000883 0.008452 -0.001914 -0.004067 0.003852 0.009579
# 3 -0.003201 -0.001914 0.008088 -0.005216 0.010575 0.000756
# 4 0.003807 -0.004067 -0.005216 0.025819 -0.024580 -0.010037
# 5 -0.007206 0.003852 0.010575 -0.024580 0.074850 0.011129
# 6 -0.000625 0.009579 0.000756 -0.010037 0.011129 0.063522
#
#
# Mechanical properties :
#
#
# Convention : Reuss Voigt Hill
#
# Bulk Modulus (GPa) = 36.84286 64.13831 50.49058
# Shear Modulus (GPa) = 23.00833 44.00455 33.50644
#
# Velocity S-wave (km/s) = 2.98551 4.12880 3.60280
# Velocity P-wave (km/s) = 5.11439 6.89754 6.07178
#
# Compressibility (1/GPa) = 0.02714230
#
# Stress axis : x y z
#
# Youngs Moduli (GPa) = 52.44326 118.31545 123.64463
#
# Poissons Ratio (x) = -0.10448 0.39584
# Poissons Ratio (y) = -0.04631 0.23671
# Poissons Ratio (z) = 0.16789 0.22651
#
# Static dielectric constant tensor:
#      x y z
#    x 2.102810 0.009420 0.098720 
#    y 0.009420 1.909330 0.123570 
#    z 0.098720 0.123570 2.158840 
# 
# From -- ./inp_files/226428.got.cif
#   From: 2010.05.17/outbox.cif.g08.bks.cpg/sg2_114_cif.got.tgz:226428.got - 2010.06.03 11:33:40.
