data_PCOD9077748
_publ_section_title
;
Structure prediction by ZEFSAII (Michael W. Deem and Ramdas Pophale) SiO2 
 PCOD9077748
Probable space group: P -1
;
_chemical_formula_sum "Si O2"
_cell_formula_units_Z 14
_cell_length_a 7.038894
_cell_length_b 10.555348
_cell_length_c 7.614861
_cell_angle_alpha 107.157667
_cell_angle_beta 99.606732
_cell_angle_gamma 64.355607
_cell_volume 486.835399
_symmetry_space_group_name_H-M "P -1"
_symmetry_group_IT_number 2
_symmetry_cell_setting 'triclinic'
loop_
_space_group_symop_operation_xyz
x,y,z
-x,-y,-z
loop_
_atom_site_type_symbol
_atom_site_label
_atom_site_fract_x
_atom_site_fract_y
_atom_site_fract_z
Si Si1 0.485955 0.186172 0.292341
Si Si2 0.789245 0.875599 0.186894
Si Si3 0.081732 0.462142 0.197236
Si Si4 0.886579 0.265592 0.138346
Si Si5 0.653310 0.375750 0.597704
Si Si6 0.443662 0.755536 0.147759
Si Si7 0.812578 0.929320 0.607920
O O1 0.296041 0.317889 0.218657
O O2 0.030103 0.199498 0.958778
O O3 0.640812 0.240640 0.440024
O O4 0.627298 0.034247 0.157962
O O5 0.656938 0.778117 0.163178
O O6 0.862564 0.908140 0.401486
O O7 0.361882 0.134812 0.400686
O O8 0.905634 0.417431 0.240138
O O9 0.139220 0.592242 0.329355
O O10 0.000000 0.500000 0.000000
O O11 0.999964 0.158442 0.267758
O O12 0.659633 0.273071 0.057434
O O13 0.500000 0.500000 0.500000
O O14 0.559460 0.367050 0.770264
O O15 0.285476 0.907621 0.269173
#
# Coordination Sequence:
#
# PCOD9077748 Si02
#       7
#     2   2   2   2   2   2   2
#     4   9  18  36  61  89 124 167 210 264 323 374
#     4  11  22  42  69  98 130 167 217 271 330 392
#     4  10  20  35  60  89 127 174 211 259 319 377
#     4  11  25  40  65 102 132 168 216 270 330 381
#     4  10  18  34  64  89 122 180 216 251 324 384
#     4  11  20  40  64  94 134 169 212 271 327 383
#     4  10  20  39  64  94 133 165 208 272 327 380
#
# _framework density 28.757152000000001
#
# number of rings (size 3 to 8) (size 9 to 14) (size 15 to 20)
#    0.000    1.714    4.286    1.286    0.000    5.714 
#    0.000    2.143    0.000    6.000    0.000    0.000 
#    0.000    0.000    0.000    0.000    0.000    0.000 
#
# Total GULP energy -78566.186927 kJ/mol
# GULP energy per Si atom -5611.870495 kJ/mol
# Density = 2.869170 g / cm^3
# Si number density = 28.757152 Si / 1000 Ang^3
#
#
#
# Elastic Constant Matrix: (Units=GPa)
#
#
# Indices 1 2 3 4 5 6 
#
# 1 141.0962 40.4788 48.6060 13.7185 21.7613 19.7261
# 2 40.4788 171.2919 52.5486 -10.9416 20.2397 3.6321
# 3 48.6060 52.5486 207.3421 -3.6682 43.8324 20.1142
# 4 13.7185 -10.9416 -3.6682 58.6686 10.2510 8.3339
# 5 21.7613 20.2397 43.8324 10.2510 51.6917 3.8035
# 6 19.7261 3.6321 20.1142 8.3339 3.8035 26.7642
#
#
#
# Elastic Compliance Matrix: (Units=1/GPa)
#
#
# Indices 1 2 3 4 5 6 
#
# 1 0.008966 -0.001634 -0.000851 -0.001430 -0.001757 -0.005051
# 2 -0.001634 0.006823 -0.001078 0.001736 -0.001469 0.000757
# 3 -0.000851 -0.001078 0.006809 0.001907 -0.005061 -0.004218
# 4 -0.001430 0.001736 0.001907 0.019569 -0.005136 -0.005979
# 5 -0.001757 -0.001469 -0.005061 -0.005136 0.025732 0.003240
# 6 -0.005051 0.000757 -0.004218 -0.005979 0.003240 0.045555
#
#
# Mechanical properties :
#
#
# Convention : Reuss Voigt Hill
#
# Bulk Modulus (GPa) = 64.64081 89.22190 76.93136
# Shear Modulus (GPa) = 39.76540 52.63135 46.19838
#
# Velocity S-wave (km/s) = 3.72264 4.28273 4.01247
# Velocity P-wave (km/s) = 6.40346 7.45312 6.94814
#
# Compressibility (1/GPa) = 0.01547010
#
# Stress axis : x y z
#
# Youngs Moduli (GPa) = 111.53547 146.55318 146.87500
#
# Poissons Ratio (x) = 0.23949 0.12505
# Poissons Ratio (y) = 0.18226 0.15838
# Poissons Ratio (z) = 0.09496 0.15803
#
# Static dielectric constant tensor:
#      x y z
#    x 2.224650 0.032120 -0.004700 
#    y 0.032120 2.263930 0.010340 
#    z -0.004700 0.010340 2.195310 
# 
# From -- ./inp_files/254717.got.cif
#   From: 2010.05.17/outbox.cif.g08.bks.cpg/sg2_128_cif.got.tgz:254717.got - 2010.06.03 11:33:40.
