data_PCOD9077677
_publ_section_title
;
Structure prediction by ZEFSAII (Michael W. Deem and Ramdas Pophale) SiO2 
 PCOD9077677
Probable space group: P -1
;
_chemical_formula_sum "Si O2"
_cell_formula_units_Z 15
_cell_length_a 13.400005
_cell_length_b 6.764735
_cell_length_c 8.509008
_cell_angle_alpha 55.132226
_cell_angle_beta 79.349907
_cell_angle_gamma 63.156430
_cell_volume 561.813299
_symmetry_space_group_name_H-M "P -1"
_symmetry_group_IT_number 2
_symmetry_cell_setting 'triclinic'
loop_
_space_group_symop_operation_xyz
x,y,z
-x,-y,-z
loop_
_atom_site_type_symbol
_atom_site_label
_atom_site_fract_x
_atom_site_fract_y
_atom_site_fract_z
Si Si1 0.234693 0.307457 0.311826
Si Si2 0.383927 0.905996 0.233165
Si Si3 0.448821 0.516649 0.834133
Si Si4 0.033751 0.748940 0.985522
Si Si5 0.500000 0.000000 0.500000
Si Si6 0.802401 0.110041 0.273216
Si Si7 0.197099 0.223837 0.884645
Si Si8 0.689303 0.548840 0.474855
O O1 0.247201 0.495395 0.356189
O O2 0.359254 0.127939 0.279589
O O3 0.199771 0.092122 0.500509
O O4 0.139862 0.497467 0.139137
O O5 0.494962 0.747888 0.169569
O O6 0.353954 0.678040 0.422854
O O7 0.289240 0.064503 0.060190
O O8 0.315337 0.628943 0.823640
O O9 0.481122 0.731581 0.644599
O O10 0.500000 0.500000 0.000000
O O11 0.086509 0.839077 0.782290
O O12 0.924835 0.690630 0.041686
O O13 0.000000 0.000000 0.000000
O O14 0.406286 0.153243 0.603635
O O15 0.800688 0.963926 0.176234
O O16 0.228754 0.440325 0.689453
#
# Coordination Sequence:
#
# PCOD9077677 Si02
#       8
#     2   2   2   2   1   2   2   2
#     4  11  24  42  62 101 133 163 223 271 322 389
#     4  11  24  39  68  98 130 172 214 267 328 385
#     4  11  20  37  67  94 130 174 215 258 325 394
#     4  10  23  40  68  91 128 175 218 271 324 379
#     4  10  18  34  62  90 122 172 202 256 318 376
#     4  10  21  40  63  98 131 169 217 268 321 387
#     4  10  20  41  62  92 122 175 220 263 321 383
#     4  10  21  40  64  90 133 167 213 264 325 379
#
# _framework density 26.699261
#
# number of rings (size 3 to 8) (size 9 to 14) (size 15 to 20)
#    0.000    1.600    4.000    1.600    1.867    8.000 
#    0.000    2.000    0.000    0.000    0.000    0.000 
#    0.000    0.000    0.000    0.000    0.000    0.000 
#
# Total GULP energy -83899.527488 kJ/mol
# GULP energy per Si atom -5593.301833 kJ/mol
# Density = 2.663849 g / cm^3
# Si number density = 26.699261 Si / 1000 Ang^3
#
#
#
# Elastic Constant Matrix: (Units=GPa)
#
#
# Indices 1 2 3 4 5 6 
#
# 1 92.9427 30.4243 24.4116 7.0973 -25.7631 9.7850
# 2 30.4243 159.5102 33.6327 26.3770 -13.4146 -2.8609
# 3 24.4116 33.6327 85.7845 -2.4509 -14.3286 7.3879
# 4 7.0973 26.3770 -2.4509 49.1027 -1.7187 1.2477
# 5 -25.7631 -13.4146 -14.3286 -1.7187 45.8940 8.2027
# 6 9.7850 -2.8609 7.3879 1.2477 8.2027 56.6567
#
#
#
# Elastic Compliance Matrix: (Units=1/GPa)
#
#
# Indices 1 2 3 4 5 6 
#
# 1 0.014300 -0.001590 -0.001926 -0.000960 0.007527 -0.003368
# 2 -0.001590 0.007894 -0.002827 -0.004173 0.000178 0.001108
# 3 -0.001926 -0.002827 0.014069 0.002657 0.002965 -0.002132
# 4 -0.000960 -0.004173 0.002657 0.022905 0.000091 -0.000909
# 5 0.007527 0.000178 0.002965 0.000091 0.028021 -0.005737
# 6 -0.003368 0.001108 -0.002132 -0.000909 -0.005737 0.019416
#
#
# Mechanical properties :
#
#
# Convention : Reuss Voigt Hill
#
# Bulk Modulus (GPa) = 42.41713 57.24164 49.82938
# Shear Modulus (GPa) = 39.32358 46.98194 43.15276
#
# Velocity S-wave (km/s) = 3.84192 4.19940 4.02463
# Velocity P-wave (km/s) = 5.96673 6.70814 6.34827
#
# Compressibility (1/GPa) = 0.02357538
#
# Stress axis : x y z
#
# Youngs Moduli (GPa) = 69.92981 126.68566 71.08048
#
# Poissons Ratio (x) = 0.20144 0.13691
# Poissons Ratio (y) = 0.11119 0.20096
# Poissons Ratio (z) = 0.13469 0.35817
#
# Static dielectric constant tensor:
#      x y z
#    x 2.240890 0.057280 0.049390 
#    y 0.057280 2.117200 0.107770 
#    z 0.049390 0.107770 2.070700 
# 
# From -- ./inp_files/327045.got.cif
#   From: 2010.05.17/outbox.cif.g08.bks.cpg/sg2_164_cif.got.tgz:327045.got - 2010.06.03 11:33:40.
