data_PCOD9077669
_publ_section_title
;
Structure prediction by ZEFSAII (Michael W. Deem and Ramdas Pophale) SiO2 
 PCOD9077669
Probable space group: P -1
;
_chemical_formula_sum "Si O2"
_cell_formula_units_Z 14
_cell_length_a 11.202657
_cell_length_b 9.913747
_cell_length_c 8.110958
_cell_angle_alpha 74.684595
_cell_angle_beta 104.582219
_cell_angle_gamma 58.145642
_cell_volume 648.405487
_symmetry_space_group_name_H-M "P -1"
_symmetry_group_IT_number 2
_symmetry_cell_setting 'triclinic'
loop_
_space_group_symop_operation_xyz
x,y,z
-x,-y,-z
loop_
_atom_site_type_symbol
_atom_site_label
_atom_site_fract_x
_atom_site_fract_y
_atom_site_fract_z
Si Si1 0.508314 0.340142 0.225298
Si Si2 0.335200 0.720490 0.213246
Si Si3 0.102669 0.543346 0.435618
Si Si4 0.445056 0.217765 0.563770
Si Si5 0.549834 0.056871 0.154588
Si Si6 0.194171 0.747807 0.515531
Si Si7 0.881719 0.939216 0.196306
O O1 0.398259 0.548507 0.176400
O O2 0.510027 0.229787 0.412271
O O3 0.466420 0.268070 0.083667
O O4 0.689007 0.269631 0.305272
O O5 0.472310 0.736579 0.290542
O O6 0.283007 0.701780 0.381852
O O7 0.192744 0.905972 0.015100
O O8 0.254173 0.374357 0.448705
O O9 0.171702 0.598953 0.580596
O O10 0.000000 0.500000 0.500000
O O11 0.989535 0.731578 0.233030
O O12 0.480882 0.033227 0.682811
O O13 0.735789 0.967686 0.229772
O O14 0.500000 0.000000 0.000000
O O15 0.011991 0.926152 0.358564
#
# Coordination Sequence:
#
# PCOD9077669 Si02
#       7
#     2   2   2   2   2   2   2
#     4  11  22  38  65  89 118 160 206 250 284 361
#     4  11  18  36  65  90 120 152 197 251 302 350
#     4  10  18  34  62  89 121 158 192 239 304 359
#     4  11  19  40  64  90 116 161 205 242 294 362
#     4  12  25  40  58  89 126 161 201 249 304 347
#     4   9  19  36  61  93 114 154 201 243 299 355
#     4  10  21  34  59  89 122 154 192 246 304 348
#
# _framework density 21.591428000000001
#
# number of rings (size 3 to 8) (size 9 to 14) (size 15 to 20)
#    0.857    0.571    5.714    1.714    0.000    1.143 
#    0.000    0.000    3.143    1.714    0.000    0.000 
#    0.000    0.000    0.000    0.000    0.000    0.000 
#
# Total GULP energy -78003.609457 kJ/mol
# GULP energy per Si atom -5571.686390 kJ/mol
# Density = 2.154228 g / cm^3
# Si number density = 21.591428 Si / 1000 Ang^3
#
#
#
# Elastic Constant Matrix: (Units=GPa)
#
#
# Indices 1 2 3 4 5 6 
#
# 1 113.1556 30.5878 11.4855 7.6019 14.7798 27.5767
# 2 30.5878 135.2698 42.7013 4.4370 14.8389 34.7507
# 3 11.4855 42.7013 66.4446 -2.9487 5.0551 14.7569
# 4 7.6019 4.4370 -2.9487 30.4122 0.9790 1.0871
# 5 14.7798 14.8389 5.0551 0.9790 25.4533 -7.1995
# 6 27.5767 34.7507 14.7569 1.0871 -7.1995 31.7693
#
#
#
# Elastic Compliance Matrix: (Units=1/GPa)
#
#
# Indices 1 2 3 4 5 6 
#
# 1 0.015590 0.003905 0.000919 -0.003018 -0.017655 -0.022129
# 2 0.003905 0.015440 -0.004618 -0.002370 -0.016419 -0.021773
# 3 0.000919 -0.004618 0.019495 0.002647 -0.003418 -0.005668
# 4 -0.003018 -0.002370 0.002647 0.034047 0.002239 0.003325
# 5 -0.017655 -0.016419 -0.003418 0.002239 0.074310 0.051636
# 6 -0.022129 -0.021773 -0.005668 0.003325 0.051636 0.088723
#
#
# Mechanical properties :
#
#
# Convention : Reuss Voigt Hill
#
# Bulk Modulus (GPa) = 19.63150 53.82437 36.72793
# Shear Modulus (GPa) = 18.92714 32.86667 25.89691
#
# Velocity S-wave (km/s) = 2.96396 3.90578 3.46700
# Velocity P-wave (km/s) = 4.56349 6.73223 5.75101
#
# Compressibility (1/GPa) = 0.05093855
#
# Stress axis : x y z
#
# Youngs Moduli (GPa) = 64.14279 64.76801 51.29462
#
# Poissons Ratio (x) = -0.25293 -0.04716
# Poissons Ratio (y) = -0.25049 0.23687
# Poissons Ratio (z) = -0.05897 0.29909
#
# Static dielectric constant tensor:
#      x y z
#    x 1.796670 -0.030490 -0.003680 
#    y -0.030490 1.849530 0.034090 
#    z -0.003680 0.034090 1.853260 
# 
# From -- ./inp_files/207072.got.cif
#   From: 2010.05.17/outbox.cif.g08.bks.cpg/sg2_104_cif.got.tgz:207072.got - 2010.06.03 11:33:40.
