data_PCOD9077700
_publ_section_title
;
Structure prediction by ZEFSAII (Michael W. Deem and Ramdas Pophale) SiO2 
 PCOD9077700
Probable space group: P -1
;
_chemical_formula_sum "Si O2"
_cell_formula_units_Z 12
_cell_length_a 5.517139
_cell_length_b 5.170516
_cell_length_c 19.432793
_cell_angle_alpha 59.434869
_cell_angle_beta 75.804071
_cell_angle_gamma 77.462994
_cell_volume 459.905468
_symmetry_space_group_name_H-M "P -1"
_symmetry_group_IT_number 2
_symmetry_cell_setting 'triclinic'
loop_
_space_group_symop_operation_xyz
x,y,z
-x,-y,-z
loop_
_atom_site_type_symbol
_atom_site_label
_atom_site_fract_x
_atom_site_fract_y
_atom_site_fract_z
Si Si1 0.125313 0.316639 0.237419
Si Si2 0.689125 0.252981 0.450441
Si Si3 0.004166 0.861472 0.942968
Si Si4 0.445617 0.239750 0.092582
Si Si5 0.160770 0.856237 0.397887
Si Si6 0.877669 0.747591 0.305995
O O1 0.294380 0.360601 0.154052
O O2 0.997414 0.601502 0.248505
O O3 0.288527 0.106711 0.310750
O O4 0.909385 0.103481 0.257547
O O5 0.730253 0.313865 0.519995
O O6 0.642537 0.565968 0.367646
O O7 0.500000 0.000000 0.500000
O O8 0.924016 0.069993 0.418680
O O9 0.277374 0.915616 0.886794
O O10 0.746594 0.955389 0.907038
O O11 0.000000 0.500000 0.000000
O O12 0.000000 0.000000 0.000000
O O13 0.500000 0.500000 0.000000
O O14 0.057610 0.653038 0.372979
#
# Coordination Sequence:
#
# PCOD9077700 Si02
#       6
#     2   2   2   2   2   2
#     4   9  20  37  60  84 121 162 202 258 313 375
#     4  10  18  34  63  85 115 157 205 248 308 373
#     4  10  22  40  66  98 126 164 216 272 321 383
#     4  10  22  43  70  96 132 173 223 267 325 386
#     4   8  19  37  55  83 122 154 199 252 308 370
#     4   9  19  38  57  83 124 157 201 250 318 366
#
# _framework density 26.092317999999999
#
# number of rings (size 3 to 8) (size 9 to 14) (size 15 to 20)
#    1.000    1.667    0.000    1.000    0.000    6.000 
#    6.000    0.000   11.000    0.000    0.000    0.000 
#    0.000    0.000    0.000    0.000    0.000    0.000 
#
# Total GULP energy -66948.077330 kJ/mol
# GULP energy per Si atom -5579.006444 kJ/mol
# Density = 2.603293 g / cm^3
# Si number density = 26.092318 Si / 1000 Ang^3
#
#
#
# Elastic Constant Matrix: (Units=GPa)
#
#
# Indices 1 2 3 4 5 6 
#
# 1 114.2278 34.2469 34.5952 0.8640 -2.7543 22.6496
# 2 34.2469 175.3812 61.9591 27.8374 -5.0227 16.1579
# 3 34.5952 61.9591 210.2110 19.2834 -25.8967 7.1376
# 4 0.8640 27.8374 19.2834 59.5334 -0.9264 7.4733
# 5 -2.7543 -5.0227 -25.8967 -0.9264 35.3578 -10.3446
# 6 22.6496 16.1579 7.1376 7.4733 -10.3446 31.8975
#
#
#
# Elastic Compliance Matrix: (Units=1/GPa)
#
#
# Indices 1 2 3 4 5 6 
#
# 1 0.011225 -0.001195 -0.001759 0.001974 -0.002991 -0.008404
# 2 -0.001195 0.007106 -0.001724 -0.002498 -0.001030 -0.002114
# 3 -0.001759 -0.001724 0.006200 -0.001434 0.004899 0.002660
# 4 0.001974 -0.002498 -0.001434 0.018992 -0.002212 -0.004983
# 5 -0.002991 -0.001030 0.004899 -0.002212 0.035397 0.013547
# 6 -0.008404 -0.002114 0.002660 -0.004983 0.013547 0.043354
#
#
# Mechanical properties :
#
#
# Convention : Reuss Voigt Hill
#
# Bulk Modulus (GPa) = 65.90207 84.60248 75.25227
# Shear Modulus (GPa) = 36.57967 49.95899 43.26933
#
# Velocity S-wave (km/s) = 3.74830 4.38048 4.07666
# Velocity P-wave (km/s) = 6.63665 7.62099 7.14579
#
# Compressibility (1/GPa) = 0.01517403
#
# Stress axis : x y z
#
# Youngs Moduli (GPa) = 89.08774 140.72754 161.30178
#
# Poissons Ratio (x) = 0.16819 0.28377
# Poissons Ratio (y) = 0.10647 0.27805
# Poissons Ratio (z) = 0.15673 0.24258
#
# Static dielectric constant tensor:
#      x y z
#    x 2.254380 -0.029720 0.013170 
#    y -0.029720 2.061350 -0.080320 
#    z 0.013170 -0.080320 2.066530 
# 
# From -- ./inp_files/580434.got.cif
#   From: 2010.05.17/outbox.cif.g08.bks.cpg/sg2_291_cif.got.tgz:580434.got - 2010.06.03 11:33:40.
