data_PCOD9077868
_publ_section_title
;
Structure prediction by ZEFSAII (Michael W. Deem and Ramdas Pophale) SiO2 
 PCOD9077868
Probable space group: P -1
;
_chemical_formula_sum "Si O2"
_cell_formula_units_Z 16
_cell_length_a 8.286895
_cell_length_b 9.036978
_cell_length_c 14.389918
_cell_angle_alpha 67.739635
_cell_angle_beta 74.053770
_cell_angle_gamma 49.010618
_cell_volume 752.279720
_symmetry_space_group_name_H-M "P -1"
_symmetry_group_IT_number 2
_symmetry_cell_setting 'triclinic'
loop_
_space_group_symop_operation_xyz
x,y,z
-x,-y,-z
loop_
_atom_site_type_symbol
_atom_site_label
_atom_site_fract_x
_atom_site_fract_y
_atom_site_fract_z
Si Si1 0.783360 0.532926 0.449426
Si Si2 0.773810 0.018562 0.947669
Si Si3 0.393959 0.119914 0.850150
Si Si4 0.361766 0.566321 0.171871
Si Si5 0.324435 0.505528 0.713493
Si Si6 0.621922 0.980038 0.322315
Si Si7 0.773710 0.601115 0.638125
Si Si8 0.819409 0.176102 0.194851
O O1 0.669054 0.495635 0.397935
O O2 0.767505 0.503337 0.566942
O O3 0.028665 0.397745 0.408757
O O4 0.699434 0.766018 0.400656
O O5 0.591029 0.052963 0.900716
O O6 0.722509 0.236206 0.920449
O O7 0.997086 0.885686 0.890180
O O8 0.753285 0.922795 0.064936
O O9 0.270674 0.356524 0.788607
O O10 0.474508 0.002625 0.767864
O O11 0.450755 0.591205 0.248556
O O12 0.205650 0.521423 0.244293
O O13 0.581910 0.358383 0.148846
O O14 0.170347 0.722546 0.737219
O O15 0.447039 0.173237 0.366094
O O16 0.810187 0.996628 0.268831
#
# Coordination Sequence:
#
# PCOD9077868 Si02
#       8
#     2   2   2   2   2   2   2   2
#     4  10  20  34  55  79  99 134 172 206 254 301
#     4  10  18  35  55  73 104 136 169 211 248 298
#     4   9  20  34  54  77 102 133 174 207 252 297
#     4   8  18  35  49  76 104 133 164 211 249 296
#     4   8  18  36  50  76 104 131 170 207 248 302
#     4  10  20  37  52  76 105 135 166 211 254 299
#     4  10  20  34  56  75 105 131 170 210 254 301
#     4   9  19  33  53  72 104 137 168 202 257 296
#
# _framework density 21.268685000000001
#
# number of rings (size 3 to 8) (size 9 to 14) (size 15 to 20)
#    0.750    2.000    0.000    1.125    1.750    1.500 
#    0.000    2.500    0.000    2.250    0.000    0.000 
#    0.000    0.000    0.000    0.000    0.000    0.000 
#
# Total GULP energy -89157.456468 kJ/mol
# GULP energy per Si atom -5572.341029 kJ/mol
# Density = 2.122028 g / cm^3
# Si number density = 21.268685 Si / 1000 Ang^3
#
#
#
# Elastic Constant Matrix: (Units=GPa)
#
#
# Indices 1 2 3 4 5 6 
#
# 1 38.9174 5.9219 15.1727 7.0089 -7.2987 -2.2585
# 2 5.9219 54.1194 12.2023 5.5928 -16.2749 -7.3235
# 3 15.1727 12.2023 67.1675 4.5107 -19.8780 -9.4324
# 4 7.0089 5.5928 4.5107 23.4858 2.5415 -7.7323
# 5 -7.2987 -16.2749 -19.8780 2.5415 39.5726 7.1581
# 6 -2.2585 -7.3235 -9.4324 -7.7323 7.1581 12.1218
#
#
#
# Elastic Compliance Matrix: (Units=1/GPa)
#
#
# Indices 1 2 3 4 5 6 
#
# 1 0.030519 -0.000648 -0.005902 -0.011463 0.004847 -0.009473
# 2 -0.000648 0.022249 -0.000452 -0.004027 0.008040 0.005654
# 3 -0.005902 -0.000452 0.019700 0.000843 0.006656 0.010564
# 4 -0.011463 -0.004027 0.000843 0.063642 -0.015752 0.045985
# 5 0.004847 0.008040 0.006656 -0.015752 0.037690 -0.021365
# 6 -0.009473 0.005654 0.010564 0.045985 -0.021365 0.134317
#
#
# Mechanical properties :
#
#
# Convention : Reuss Voigt Hill
#
# Bulk Modulus (GPa) = 17.10456 25.19979 21.15217
# Shear Modulus (GPa) = 14.63658 23.49654 19.06656
#
# Velocity S-wave (km/s) = 2.62616 3.32738 2.99735
# Velocity P-wave (km/s) = 4.15394 5.16101 4.68461
#
# Compressibility (1/GPa) = 0.05846394
#
# Stress axis : x y z
#
# Youngs Moduli (GPa) = 32.76654 44.94492 50.76049
#
# Poissons Ratio (x) = 0.02914 0.29960
# Poissons Ratio (y) = 0.02124 0.02294
# Poissons Ratio (z) = 0.19340 0.02031
#
# Static dielectric constant tensor:
#      x y z
#    x 1.806980 0.012160 0.010650 
#    y 0.012160 1.776270 -0.025710 
#    z 0.010650 -0.025710 1.771220 
# 
# From -- ./inp_files/223582.got.cif
#   From: 2010.05.17/outbox.cif.g08.bks.cpg/sg2_112_cif.got.tgz:223582.got - 2010.06.03 11:33:40.
