data_PCOD9077642
_publ_section_title
;
Structure prediction by ZEFSAII (Michael W. Deem and Ramdas Pophale) SiO2 
 PCOD9077642
Probable space group: P -1
;
_chemical_formula_sum "Si O2"
_cell_formula_units_Z 16
_cell_length_a 21.494502
_cell_length_b 8.695870
_cell_length_c 9.281504
_cell_angle_alpha 48.028021
_cell_angle_beta 33.511997
_cell_angle_gamma 66.690015
_cell_volume 654.390744
_symmetry_space_group_name_H-M "P -1"
_symmetry_group_IT_number 2
_symmetry_cell_setting 'triclinic'
loop_
_space_group_symop_operation_xyz
x,y,z
-x,-y,-z
loop_
_atom_site_type_symbol
_atom_site_label
_atom_site_fract_x
_atom_site_fract_y
_atom_site_fract_z
Si Si1 0.409113 0.880084 0.400325
Si Si2 0.355823 0.277852 0.215189
Si Si3 0.406754 0.039191 0.773125
Si Si4 0.186287 0.558178 0.837688
Si Si5 0.719435 0.331978 0.931465
Si Si6 0.737964 0.772685 0.256750
Si Si7 0.063986 0.732193 0.365240
Si Si8 0.900803 0.106222 0.122987
O O1 0.534126 0.891962 0.227884
O O2 0.439114 0.133682 0.124063
O O3 0.311399 0.694344 0.602215
O O4 0.326924 0.834032 0.736079
O O5 0.358101 0.512392 0.004612
O O6 0.342426 0.291458 0.403715
O O7 0.226859 0.104375 0.514133
O O8 0.348598 0.204859 0.717994
O O9 0.500000 0.000000 0.500000
O O10 0.302823 0.791668 0.102326
O O11 0.125918 0.736891 0.805901
O O12 0.076919 0.361304 0.258149
O O13 0.218192 0.424662 0.734931
O O14 0.865249 0.422296 0.616355
O O15 0.854180 0.012409 0.897663
O O16 0.076416 0.753288 0.156823
O O17 0.000000 0.000000 0.000000
#
# Coordination Sequence:
#
# PCOD9077642 Si02
#       8
#     2   2   2   2   2   2   2   2
#     4  10  20  37  55  86 108 143 192 233 269 327
#     4  10  19  34  57  80 112 144 190 222 274 332
#     4   9  17  37  59  79 111 141 192 231 267 329
#     4  11  21  33  57  82 115 146 180 231 283 324
#     4  10  18  34  62  82 104 146 192 228 266 323
#     4  10  20  37  54  83 114 146 180 234 279 324
#     4  10  19  37  55  81 112 147 192 214 271 348
#     4  10  20  34  54  80 114 149 183 230 266 329
#
# _framework density 24.450223000000001
#
# number of rings (size 3 to 8) (size 9 to 14) (size 15 to 20)
#    0.000    2.000    6.250    1.500    1.750    1.000 
#    0.000    8.125    0.000    0.750    0.000    0.000 
#    0.000    0.000    0.000    0.000    0.000    0.000 
#
# Total GULP energy -89142.967628 kJ/mol
# GULP energy per Si atom -5571.435477 kJ/mol
# Density = 2.439457 g / cm^3
# Si number density = 24.450223 Si / 1000 Ang^3
#
#
#
# Elastic Constant Matrix: (Units=GPa)
#
#
# Indices 1 2 3 4 5 6 
#
# 1 69.9770 33.5598 34.7691 -9.1987 -20.3136 -16.6575
# 2 33.5598 105.9859 0.7446 -18.5551 -1.2628 -19.1299
# 3 34.7691 0.7446 68.1677 2.0183 -11.5808 -5.4021
# 4 -9.1987 -18.5551 2.0183 20.4758 -7.5678 0.2606
# 5 -20.3136 -1.2628 -11.5808 -7.5678 36.8173 -1.3368
# 6 -16.6575 -19.1299 -5.4021 0.2606 -1.3368 40.6049
#
#
#
# Elastic Compliance Matrix: (Units=1/GPa)
#
#
# Indices 1 2 3 4 5 6 
#
# 1 0.033840 -0.005396 -0.013851 0.018297 0.018252 0.009981
# 2 -0.005396 0.013675 0.002765 0.009842 0.000550 0.004552
# 3 -0.013851 0.002765 0.021397 -0.006633 -0.002237 -0.001564
# 4 0.018297 0.009842 -0.006633 0.075456 0.024277 0.011575
# 5 0.018252 0.000550 -0.002237 0.024277 0.041852 0.008671
# 6 0.009981 0.004552 -0.001564 0.011575 0.008671 0.030870
#
#
# Mechanical properties :
#
#
# Convention : Reuss Voigt Hill
#
# Bulk Modulus (GPa) = 27.81673 42.47526 35.14600
# Shear Modulus (GPa) = 19.08145 31.25007 25.16576
#
# Velocity S-wave (km/s) = 2.79663 3.57894 3.21170
# Velocity P-wave (km/s) = 4.67223 5.87267 5.30651
#
# Compressibility (1/GPa) = 0.03594959
#
# Stress axis : x y z
#
# Youngs Moduli (GPa) = 29.55111 73.12375 46.73629
#
# Poissons Ratio (x) = 0.39454 0.64735
# Poissons Ratio (y) = 0.15944 -0.12925
# Poissons Ratio (z) = 0.40931 -0.20222
#
# Static dielectric constant tensor:
#      x y z
#    x 1.959840 -0.009080 -0.069330 
#    y -0.009080 2.048310 -0.081750 
#    z -0.069330 -0.081750 2.118190 
# 
# From -- ./inp_files/308812.got.cif
#   From: 2010.05.17/outbox.cif.g08.bks.cpg/sg2_155_cif.got.tgz:308812.got - 2010.06.03 11:33:40.
