data_PCOD9077209
_publ_section_title
;
Structure prediction by ZEFSAII (Michael W. Deem and Ramdas Pophale) SiO2 
 PCOD9077209
Probable space group: P -1
;
_chemical_formula_sum "Si O2"
_cell_formula_units_Z 14
_cell_length_a 20.786303
_cell_length_b 15.527214
_cell_length_c 9.411854
_cell_angle_alpha 30.356707
_cell_angle_beta 137.805686
_cell_angle_gamma 156.946210
_cell_volume 579.124298
_symmetry_space_group_name_H-M "P -1"
_symmetry_group_IT_number 2
_symmetry_cell_setting 'triclinic'
loop_
_space_group_symop_operation_xyz
x,y,z
-x,-y,-z
loop_
_atom_site_type_symbol
_atom_site_label
_atom_site_fract_x
_atom_site_fract_y
_atom_site_fract_z
Si Si1 0.437839 0.379334 0.754262
Si Si2 0.831939 0.352145 0.133031
Si Si3 0.211574 0.236566 0.097746
Si Si4 0.153593 0.433726 0.520394
Si Si5 0.172903 0.848435 0.882730
Si Si6 0.275378 0.039020 0.262497
Si Si7 0.470954 0.771411 0.392077
O O1 0.311791 0.122974 0.039207
O O2 0.343337 0.186179 0.732440
O O3 0.620759 0.561936 0.825606
O O4 0.442251 0.589035 0.484300
O O5 0.002907 0.697315 0.872829
O O6 0.846604 0.286776 0.405623
O O7 0.637661 0.137114 0.120042
O O8 0.821915 0.193818 0.215260
O O9 0.219401 0.128499 0.123354
O O10 0.204444 0.420047 0.771671
O O11 0.028818 0.917027 0.318576
O O12 0.154343 0.638024 0.229963
O O13 0.300909 0.602855 0.410394
O O14 0.452456 0.236403 0.343793
#
# Coordination Sequence:
#
# PCOD9077209 Si02
#       7
#     2   2   2   2   2   2   2
#     4  11  19  35  59  88 107 137 193 231 264 313
#     4   9  21  41  54  75 114 157 181 206 284 350
#     4  10  18  34  57  82 112 145 183 219 273 336
#     4  11  19  34  58  83 110 152 176 221 284 329
#     4  11  23  35  57  85 112 143 180 235 275 318
#     4   9  16  37  58  79 102 153 179 224 252 350
#     4   9  18  36  59  75 107 151 184 212 264 342
#
# _framework density 24.174429
#
# number of rings (size 3 to 8) (size 9 to 14) (size 15 to 20)
#    0.857    1.143    4.286    0.857    0.000    2.286 
#    0.000    1.429    0.000    4.286    0.000    0.000 
#    0.000    0.000    0.000    0.000    0.000    0.000 
#
# Total GULP energy -78113.991020 kJ/mol
# GULP energy per Si atom -5579.570787 kJ/mol
# Density = 2.411941 g / cm^3
# Si number density = 24.174429 Si / 1000 Ang^3
#
#
#
# Elastic Constant Matrix: (Units=GPa)
#
#
# Indices 1 2 3 4 5 6 
#
# 1 66.5811 45.0948 14.7643 -2.1047 -21.7278 25.7700
# 2 45.0948 135.8056 25.0853 -23.6214 0.5365 29.7543
# 3 14.7643 25.0853 108.1126 5.2448 -20.4193 8.6880
# 4 -2.1047 -23.6214 5.2448 36.4907 3.3031 -13.5369
# 5 -21.7278 0.5365 -20.4193 3.3031 34.3753 -9.3234
# 6 25.7700 29.7543 8.6880 -13.5369 -9.3234 52.2480
#
#
#
# Elastic Compliance Matrix: (Units=1/GPa)
#
#
# Indices 1 2 3 4 5 6 
#
# 1 0.031915 -0.011305 0.003515 -0.011243 0.021065 -0.009042
# 2 -0.011305 0.013811 -0.004110 0.009460 -0.011015 -0.001120
# 3 0.003515 -0.004110 0.011881 -0.005428 0.009576 -0.001066
# 4 -0.011243 0.009460 -0.005428 0.037990 -0.011740 0.008808
# 5 0.021065 -0.011015 0.009576 -0.011740 0.049412 0.000066
# 6 -0.009042 -0.001120 -0.001066 0.008808 0.000066 0.026709
#
#
# Mechanical properties :
#
#
# Convention : Reuss Voigt Hill
#
# Bulk Modulus (GPa) = 29.57910 53.37647 41.47779
# Shear Modulus (GPa) = 24.17970 39.65977 31.91973
#
# Velocity S-wave (km/s) = 3.16605 4.05479 3.63766
# Velocity P-wave (km/s) = 5.06236 6.63697 5.90241
#
# Compressibility (1/GPa) = 0.03380765
#
# Stress axis : x y z
#
# Youngs Moduli (GPa) = 31.33337 72.40666 84.16943
#
# Poissons Ratio (x) = 0.81852 -0.29587
# Poissons Ratio (y) = 0.35421 0.34594
# Poissons Ratio (z) = -0.11014 0.29760
#
# Static dielectric constant tensor:
#      x y z
#    x 1.926480 0.052350 -0.045500 
#    y 0.052350 1.986830 0.022300 
#    z -0.045500 0.022300 2.025360 
# 
# From -- ./inp_files/475334.got.cif
#   From: 2010.05.17/outbox.cif.g08.bks.cpg/sg2_238_cif.got.tgz:475334.got - 2010.06.03 11:33:40.
