data_PCOD9077738
_publ_section_title
;
Structure prediction by ZEFSAII (Michael W. Deem and Ramdas Pophale) SiO2 
 PCOD9077738
Probable space group: P -1
;
_chemical_formula_sum "Si O2"
_cell_formula_units_Z 11
_cell_length_a 14.009063
_cell_length_b 8.280309
_cell_length_c 9.707266
_cell_angle_alpha 65.606124
_cell_angle_beta 153.156904
_cell_angle_gamma 123.117348
_cell_volume 417.523698
_symmetry_space_group_name_H-M "P -1"
_symmetry_group_IT_number 2
_symmetry_cell_setting 'triclinic'
loop_
_space_group_symop_operation_xyz
x,y,z
-x,-y,-z
loop_
_atom_site_type_symbol
_atom_site_label
_atom_site_fract_x
_atom_site_fract_y
_atom_site_fract_z
Si Si1 0.873215 0.210150 0.155452
Si Si2 0.339483 0.164200 0.816686
Si Si3 0.047890 0.798854 0.035033
Si Si4 0.884470 0.115225 0.618219
Si Si5 0.500000 0.500000 0.500000
Si Si6 0.726014 0.480692 0.063961
O O1 0.134287 0.235269 0.514057
O O2 0.853875 0.260068 0.953498
O O3 0.715929 0.983988 0.075842
O O4 0.799898 0.347887 0.104685
O O5 0.587907 0.348569 0.060931
O O6 0.301740 0.029727 0.677339
O O7 0.780891 0.653009 0.780775
O O8 0.036392 0.998460 0.898668
O O9 0.192505 0.837957 0.348900
O O10 0.053626 0.317018 0.692615
O O11 0.546257 0.520719 0.720407
#
# Coordination Sequence:
#
# PCOD9077738 Si02
#       6
#     2   2   2   2   1   2
#     4  10  21  38  64  86 116 156 198 233 290 352
#     4  10  21  43  59  83 125 154 186 247 289 338
#     4   9  18  38  58  85 116 154 191 242 286 339
#     4   9  19  35  63  82 118 153 191 239 292 339
#     4  10  18  34  64  76 116 156 182 232 300 326
#     4  11  21  37  63  87 115 160 191 235 297 345
#
# _framework density 26.34581
#
# number of rings (size 3 to 8) (size 9 to 14) (size 15 to 20)
#    0.000    2.182    3.636    0.545    0.000    3.636 
#    0.000   12.727    0.000    0.000    0.000    0.000 
#    0.000    0.000    0.000    0.000    0.000    0.000 
#
# Total GULP energy -61369.840800 kJ/mol
# GULP energy per Si atom -5579.076436 kJ/mol
# Density = 2.628585 g / cm^3
# Si number density = 26.345810 Si / 1000 Ang^3
#
#
#
# Elastic Constant Matrix: (Units=GPa)
#
#
# Indices 1 2 3 4 5 6 
#
# 1 146.1019 41.9845 27.3317 8.6541 -4.6769 26.9889
# 2 41.9845 139.5610 23.8143 22.5268 24.3065 33.0154
# 3 27.3317 23.8143 84.2659 22.7669 -1.2188 6.7581
# 4 8.6541 22.5268 22.7669 16.3620 6.6743 4.2227
# 5 -4.6769 24.3065 -1.2188 6.6743 39.9798 0.6572
# 6 26.9889 33.0154 6.7581 4.2227 0.6572 44.8995
#
#
#
# Elastic Compliance Matrix: (Units=1/GPa)
#
#
# Indices 1 2 3 4 5 6 
#
# 1 0.008434 -0.001877 -0.002288 0.001448 0.001874 -0.003509
# 2 -0.001877 0.012224 0.001374 -0.013912 -0.005177 -0.006683
# 3 -0.002288 0.001374 0.020838 -0.031678 0.004818 0.000137
# 4 0.001448 -0.013912 -0.031678 0.128659 -0.013854 0.002231
# 5 0.001874 -0.005177 0.004818 -0.013854 0.030793 0.002807
# 6 -0.003509 -0.006683 0.000137 0.002231 0.002807 0.029024
#
#
# Mechanical properties :
#
#
# Convention : Reuss Voigt Hill
#
# Bulk Modulus (GPa) = 27.84342 61.79885 44.82113
# Shear Modulus (GPa) = 20.20001 38.70149 29.45075
#
# Velocity S-wave (km/s) = 2.77199 3.83689 3.34706
# Velocity P-wave (km/s) = 4.56471 6.56785 5.65567
#
# Compressibility (1/GPa) = 0.03591513
#
# Stress axis : x y z
#
# Youngs Moduli (GPa) = 118.56337 81.80913 47.98829
#
# Poissons Ratio (x) = 0.15354 0.10979
# Poissons Ratio (y) = 0.22253 -0.06594
# Poissons Ratio (z) = 0.27125 -0.11241
#
# Static dielectric constant tensor:
#      x y z
#    x 2.139020 -0.041530 -0.021750 
#    y -0.041530 2.074710 -0.102020 
#    z -0.021750 -0.102020 2.059100 
# 
# From -- ./inp_files/230261.got.cif
#   From: 2010.05.17/outbox.cif.g08.bks.cpg/sg2_116_cif.got.tgz:230261.got - 2010.06.03 11:33:40.
