data_PCOD9077931
_publ_section_title
;
Structure prediction by ZEFSAII (Michael W. Deem and Ramdas Pophale) SiO2 
 PCOD9077931
Probable space group: P -1
;
_chemical_formula_sum "Si O2"
_cell_formula_units_Z 14
_cell_length_a 11.152480
_cell_length_b 7.283719
_cell_length_c 9.403694
_cell_angle_alpha 71.504859
_cell_angle_beta 42.424483
_cell_angle_gamma 74.550361
_cell_volume 488.088073
_symmetry_space_group_name_H-M "P -1"
_symmetry_group_IT_number 2
_symmetry_cell_setting 'triclinic'
loop_
_space_group_symop_operation_xyz
x,y,z
-x,-y,-z
loop_
_atom_site_type_symbol
_atom_site_label
_atom_site_fract_x
_atom_site_fract_y
_atom_site_fract_z
Si Si1 0.334721 0.345873 0.231184
Si Si2 0.112246 0.206948 0.706671
Si Si3 0.829536 0.224031 0.296118
Si Si4 0.106084 0.436446 0.162158
Si Si5 0.452120 0.203311 0.573669
Si Si6 0.201538 0.739333 0.365856
Si Si7 0.387559 0.975034 0.960165
O O1 0.182628 0.241479 0.478075
O O2 0.333271 0.563616 0.240181
O O3 0.508247 0.213382 0.151103
O O4 0.286210 0.365471 0.100342
O O5 0.933067 0.332845 0.869773
O O6 0.275397 0.293694 0.632364
O O7 0.114816 0.977437 0.778284
O O8 0.008030 0.339242 0.139054
O O9 0.639789 0.309714 0.378646
O O10 0.763756 0.180248 0.527138
O O11 0.972008 0.373027 0.419440
O O12 0.500000 0.000000 0.500000
O O13 0.390411 0.140772 0.800681
O O14 0.202090 0.907922 0.206012
O O15 0.500000 0.000000 0.000000
#
# Coordination Sequence:
#
# PCOD9077931 Si02
#       7
#     2   2   2   2   2   2   2
#     4  11  20  37  58  85 120 151 193 245 284 348
#     4  10  18  35  56  84 119 146 195 239 281 340
#     4   9  18  34  55  90 107 150 193 233 288 328
#     4   9  21  37  57  89 114 154 195 240 283 347
#     4  10  19  35  57  87 119 151 192 241 288 340
#     4   9  19  34  55  86 116 146 197 235 294 327
#     4  12  20  37  58  89 116 149 198 242 288 342
#
# _framework density 28.683346
#
# number of rings (size 3 to 8) (size 9 to 14) (size 15 to 20)
#    0.857    1.143    4.286    2.143    0.000    1.143 
#    2.571    0.000    0.000    4.286    0.000    0.000 
#    0.000    0.000    0.000    0.000    0.000    0.000 
#
# Total GULP energy -78186.973024 kJ/mol
# GULP energy per Si atom -5584.783787 kJ/mol
# Density = 2.861806 g / cm^3
# Si number density = 28.683346 Si / 1000 Ang^3
#
#
#
# Elastic Constant Matrix: (Units=GPa)
#
#
# Indices 1 2 3 4 5 6 
#
# 1 141.3178 43.9657 16.7041 7.6088 9.8893 -13.1571
# 2 43.9657 89.4110 6.2021 2.7953 3.0473 5.3590
# 3 16.7041 6.2021 92.2069 -5.9318 12.7109 -1.2799
# 4 7.6088 2.7953 -5.9318 36.9785 -5.7912 6.4583
# 5 9.8893 3.0473 12.7109 -5.7912 37.6654 0.3184
# 6 -13.1571 5.3590 -1.2799 6.4583 0.3184 48.2098
#
#
#
# Elastic Compliance Matrix: (Units=1/GPa)
#
#
# Indices 1 2 3 4 5 6 
#
# 1 0.009219 -0.004496 -0.001205 -0.002663 -0.002088 0.003355
# 2 -0.004496 0.013553 -0.000140 0.000400 0.000216 -0.002792
# 3 -0.001205 -0.000140 0.011637 0.001636 -0.003346 -0.000201
# 4 -0.002663 0.000400 0.001636 0.029374 0.004671 -0.004694
# 5 -0.002088 0.000216 -0.003346 0.004671 0.028940 -0.001500
# 6 0.003355 -0.002792 -0.000201 -0.004694 -0.001500 0.022602
#
#
# Mechanical properties :
#
#
# Convention : Reuss Voigt Hill
#
# Bulk Modulus (GPa) = 44.00153 50.74217 47.37185
# Shear Modulus (GPa) = 37.15196 41.64166 39.39681
#
# Velocity S-wave (km/s) = 3.60286 3.81435 3.71011
# Velocity P-wave (km/s) = 5.71674 6.09326 5.90800
#
# Compressibility (1/GPa) = 0.02272648
#
# Stress axis : x y z
#
# Youngs Moduli (GPa) = 108.46710 73.78693 85.93621
#
# Poissons Ratio (x) = 0.33178 0.10352
# Poissons Ratio (y) = 0.48772 0.01202
# Poissons Ratio (z) = 0.13066 0.01032
#
# Static dielectric constant tensor:
#      x y z
#    x 2.332810 0.040110 -0.043550 
#    y 0.040110 2.221090 0.032400 
#    z -0.043550 0.032400 2.277640 
# 
# From -- ./inp_files/238206.got.cif
#   From: 2010.05.17/outbox.cif.g08.bks.cpg/sg2_120_cif.got.tgz:238206.got - 2010.06.03 11:33:40.
