data_PCOD9077903
_publ_section_title
;
Structure prediction by ZEFSAII (Michael W. Deem and Ramdas Pophale) SiO2 
 PCOD9077903
Probable space group: P -1
;
_chemical_formula_sum "Si O2"
_cell_formula_units_Z 16
_cell_length_a 11.726802
_cell_length_b 5.046525
_cell_length_c 11.892821
_cell_angle_alpha 102.961428
_cell_angle_beta 120.389918
_cell_angle_gamma 95.468609
_cell_volume 573.106485
_symmetry_space_group_name_H-M "P -1"
_symmetry_group_IT_number 2
_symmetry_cell_setting 'triclinic'
loop_
_space_group_symop_operation_xyz
x,y,z
-x,-y,-z
loop_
_atom_site_type_symbol
_atom_site_label
_atom_site_fract_x
_atom_site_fract_y
_atom_site_fract_z
Si Si1 0.774527 0.021428 0.379813
Si Si2 0.037628 0.342096 0.636637
Si Si3 0.834632 0.098065 0.870043
Si Si4 0.587014 0.267096 0.165717
Si Si5 0.344237 0.788962 0.037567
Si Si6 0.037935 0.148611 0.265041
Si Si7 0.533462 0.720416 0.338384
Si Si8 0.716599 0.500084 0.688607
O O1 0.668530 0.973078 0.426692
O O2 0.839085 0.756438 0.368338
O O3 0.905322 0.277104 0.484152
O O4 0.683873 0.070518 0.235128
O O5 0.053884 0.642478 0.728814
O O6 0.989151 0.099487 0.683533
O O7 0.964725 0.007781 0.872082
O O8 0.726594 0.792240 0.789213
O O9 0.803723 0.231323 0.984468
O O10 0.798712 0.306601 0.777301
O O11 0.585980 0.463468 0.291284
O O12 0.429509 0.090862 0.062638
O O13 0.639862 0.392223 0.081578
O O14 0.431424 0.750579 0.187806
O O15 0.191653 0.359778 0.357835
O O16 0.441425 0.663424 0.397751
#
# Coordination Sequence:
#
# PCOD9077903 Si02
#       8
#     2   2   2   2   2   2   2   2
#     4  10  26  38  57  85 119 153 203 250 291 343
#     4  11  24  42  62  84 112 165 203 248 292 340
#     4   9  16  33  55  91 112 151 187 237 285 356
#     4  10  18  35  55  86 119 159 193 234 298 355
#     4   9  18  31  58  87 124 153 188 232 302 361
#     4  10  19  38  65  85 110 153 211 236 298 348
#     4  10  19  35  57  89 125 152 189 243 298 356
#     4   9  17  33  58  86 118 147 189 238 293 346
#
# _framework density 27.918019000000001
#
# number of rings (size 3 to 8) (size 9 to 14) (size 15 to 20)
#    0.750    1.500    2.500    0.375    3.500    1.000 
#    0.000    1.250    0.000    1.500    0.000    0.000 
#    0.000    0.000    0.000    0.000    0.000    0.000 
#
# Total GULP energy -89321.873991 kJ/mol
# GULP energy per Si atom -5582.617124 kJ/mol
# Density = 2.785448 g / cm^3
# Si number density = 27.918019 Si / 1000 Ang^3
#
#
#
# Elastic Constant Matrix: (Units=GPa)
#
#
# Indices 1 2 3 4 5 6 
#
# 1 153.8219 6.3771 -5.1404 -14.4370 -33.2268 -7.0798
# 2 6.3771 122.7681 13.0894 -14.1432 -16.2471 -23.2099
# 3 -5.1404 13.0894 73.1094 -11.7605 -11.2794 -17.7453
# 4 -14.4370 -14.1432 -11.7605 27.5734 1.3786 6.3309
# 5 -33.2268 -16.2471 -11.2794 1.3786 34.4935 8.6507
# 6 -7.0798 -23.2099 -17.7453 6.3309 8.6507 45.1625
#
#
#
# Elastic Compliance Matrix: (Units=1/GPa)
#
#
# Indices 1 2 3 4 5 6 
#
# 1 0.009406 0.001379 0.003166 0.006338 0.010353 0.000556
# 2 0.001379 0.009997 0.000883 0.005049 0.005118 0.004013
# 3 0.003166 0.000883 0.017463 0.007977 0.007541 0.005249
# 4 0.006338 0.005049 0.007977 0.045438 0.009651 -0.001495
# 5 0.010353 0.005118 0.007541 0.009651 0.044103 -0.002584
# 6 0.000556 0.004013 0.005249 -0.001495 -0.002584 0.027059
#
#
# Mechanical properties :
#
#
# Convention : Reuss Voigt Hill
#
# Bulk Modulus (GPa) = 20.95396 42.03906 31.49651
# Shear Modulus (GPa) = 31.54202 43.80409 37.67306
#
# Velocity S-wave (km/s) = 3.36491 3.96539 3.67743
# Velocity P-wave (km/s) = 4.75591 6.00471 5.41642
#
# Compressibility (1/GPa) = 0.04772367
#
# Stress axis : x y z
#
# Youngs Moduli (GPa) = 106.30989 100.02693 57.26273
#
# Poissons Ratio (x) = -0.13795 -0.18130
# Poissons Ratio (y) = -0.14662 -0.05056
# Poissons Ratio (z) = -0.33660 -0.08832
#
# Static dielectric constant tensor:
#      x y z
#    x 2.182440 -0.005810 0.007000 
#    y -0.005810 2.208760 -0.026040 
#    z 0.007000 -0.026040 2.297350 
# 
# From -- ./inp_files/511173.got.cif
#   From: 2010.05.17/outbox.cif.g08.bks.cpg/sg2_256_cif.got.tgz:511173.got - 2010.06.03 11:33:40.
