data_PCOD9077828
_publ_section_title
;
Structure prediction by ZEFSAII (Michael W. Deem and Ramdas Pophale) SiO2 
 PCOD9077828
Probable space group: P -1
;
_chemical_formula_sum "Si O2"
_cell_formula_units_Z 12
_cell_length_a 8.989469
_cell_length_b 14.045173
_cell_length_c 8.117292
_cell_angle_alpha 109.491268
_cell_angle_beta 105.632794
_cell_angle_gamma 28.351812
_cell_volume 458.137866
_symmetry_space_group_name_H-M "P -1"
_symmetry_group_IT_number 2
_symmetry_cell_setting 'triclinic'
loop_
_space_group_symop_operation_xyz
x,y,z
-x,-y,-z
loop_
_atom_site_type_symbol
_atom_site_label
_atom_site_fract_x
_atom_site_fract_y
_atom_site_fract_z
Si Si1 0.600874 0.797547 0.905560
Si Si2 0.157827 0.904939 0.667587
Si Si3 0.158947 0.543941 0.343572
Si Si4 0.497144 0.552292 0.850858
Si Si5 0.538797 0.224273 0.843357
Si Si6 0.938646 0.374902 0.287294
O O1 0.283532 0.939834 0.802416
O O2 0.838216 0.568043 0.803236
O O3 0.779891 0.784576 0.854969
O O4 0.563277 0.814867 0.101368
O O5 0.475534 0.659882 0.604966
O O6 0.000000 0.000000 0.500000
O O7 0.882968 0.014606 0.756371
O O8 0.179867 0.620216 0.257311
O O9 0.955808 0.656472 0.513599
O O10 0.231184 0.634785 0.740888
O O11 0.500000 0.500000 0.000000
O O12 0.429468 0.706569 0.967388
O O13 0.325542 0.398454 0.738400
#
# Coordination Sequence:
#
# PCOD9077828 Si02
#       6
#     2   2   2   2   2   2
#     4   9  20  30  53  81 100 131 170 218 256 281
#     4  10  19  34  55  77  97 139 174 208 249 304
#     4   9  19  32  54  75 103 133 173 207 250 303
#     4   9  20  32  51  77 103 140 167 205 253 308
#     4  10  18  35  53  75 104 135 175 204 249 314
#     4  11  18  33  52  81 105 129 168 217 258 293
#
# _framework density 26.192988
#
# number of rings (size 3 to 8) (size 9 to 14) (size 15 to 20)
#    1.000    1.333    1.667    2.000    0.000    0.000 
#    0.000    0.833    0.000    1.000    0.000    0.000 
#    0.000    0.000    0.000    0.000    0.000    0.000 
#
# Total GULP energy -66854.483861 kJ/mol
# GULP energy per Si atom -5571.206988 kJ/mol
# Density = 2.613337 g / cm^3
# Si number density = 26.192988 Si / 1000 Ang^3
#
#
#
# Elastic Constant Matrix: (Units=GPa)
#
#
# Indices 1 2 3 4 5 6 
#
# 1 116.9769 8.0878 12.8756 7.0992 -34.6896 -8.1162
# 2 8.0878 65.7059 1.1022 -2.4457 -19.7741 2.8784
# 3 12.8756 1.1022 112.9607 8.2887 -39.8293 -3.3492
# 4 7.0992 -2.4457 8.2887 33.6021 -11.9349 -12.7441
# 5 -34.6896 -19.7741 -39.8293 -11.9349 41.5733 6.9536
# 6 -8.1162 2.8784 -3.3492 -12.7441 6.9536 30.9935
#
#
#
# Elastic Compliance Matrix: (Units=1/GPa)
#
#
# Indices 1 2 3 4 5 6 
#
# 1 0.012861 0.003675 0.004466 0.002961 0.017473 0.000806
# 2 0.003675 0.021519 0.006502 0.005820 0.021671 -0.002802
# 3 0.004466 0.006502 0.016346 0.003297 0.023698 -0.001629
# 4 0.002961 0.005820 0.003297 0.039983 0.017691 0.013062
# 5 0.017473 0.021671 0.023698 0.017691 0.077562 -0.005003
# 6 0.000806 -0.002802 -0.001629 0.013062 -0.005003 0.039054
#
#
# Mechanical properties :
#
#
# Convention : Reuss Voigt Hill
#
# Bulk Modulus (GPa) = 12.49797 37.75274 25.12535
# Shear Modulus (GPa) = 24.42503 39.47230 31.94867
#
# Velocity S-wave (km/s) = 3.05700 3.88620 3.49627
# Velocity P-wave (km/s) = 4.15237 5.88058 5.09036
#
# Compressibility (1/GPa) = 0.08001302
#
# Stress axis : x y z
#
# Youngs Moduli (GPa) = 77.75442 46.47010 61.17771
#
# Poissons Ratio (x) = -0.17080 -0.27321
# Poissons Ratio (y) = -0.28578 -0.39779
# Poissons Ratio (z) = -0.34724 -0.30216
#
# Static dielectric constant tensor:
#      x y z
#    x 2.208350 -0.013700 -0.035670 
#    y -0.013700 2.107890 -0.049830 
#    z -0.035670 -0.049830 2.231720 
# 
# From -- ./inp_files/146408.got.cif
#   From: 2010.05.17/outbox.cif.g08.bks.cpg/sg2_74_cif.got.tgz:146408.got - 2010.06.03 11:33:40.
