data_PCOD9077469
_publ_section_title
;
Structure prediction by ZEFSAII (Michael W. Deem and Ramdas Pophale) SiO2 
 PCOD9077469
Probable space group: P -1
;
_chemical_formula_sum "Si O2"
_cell_formula_units_Z 11
_cell_length_a 12.265076
_cell_length_b 12.455885
_cell_length_c 9.342517
_cell_angle_alpha 54.903302
_cell_angle_beta 35.342388
_cell_angle_gamma 34.918649
_cell_volume 453.198791
_symmetry_space_group_name_H-M "P -1"
_symmetry_group_IT_number 2
_symmetry_cell_setting 'triclinic'
loop_
_space_group_symop_operation_xyz
x,y,z
-x,-y,-z
loop_
_atom_site_type_symbol
_atom_site_label
_atom_site_fract_x
_atom_site_fract_y
_atom_site_fract_z
Si Si1 0.930579 0.341414 0.322235
Si Si2 0.500000 0.500000 0.500000
Si Si3 0.946381 0.352937 0.896509
Si Si4 0.725142 0.053598 0.259386
Si Si5 0.702047 0.518009 0.734731
Si Si6 0.351380 0.263442 0.749954
O O1 0.806327 0.280422 0.422786
O O2 0.886314 0.377251 0.509216
O O3 0.670800 0.565698 0.342900
O O4 0.233434 0.236097 0.025590
O O5 0.316167 0.574452 0.797755
O O6 0.093441 0.377460 0.827694
O O7 0.860583 0.460488 0.756728
O O8 0.187303 0.123268 0.777858
O O9 0.483277 0.262444 0.282309
O O10 0.625998 0.084290 0.506563
O O11 0.000000 0.000000 0.000000
O O12 0.500000 0.500000 0.000000
#
# Coordination Sequence:
#
# PCOD9077469 Si02
#       6
#     2   1   2   2   2   2
#     4   9  18  34  57  85 114 150 192 229 284 343
#     4  10  18  34  60  82 112 156 184 230 288 336
#     4  11  21  37  61  85 116 151 191 236 287 337
#     4  11  21  36  59  85 114 153 194 233 283 342
#     4  11  20  37  62  87 114 151 192 235 282 338
#     4   9  20  36  57  85 117 151 188 236 289 334
#
# _framework density 24.271909999999998
#
# number of rings (size 3 to 8) (size 9 to 14) (size 15 to 20)
#    0.000    1.818    3.636    1.636    0.000    2.909 
#    0.000    1.818    0.000    0.000    0.000    0.000 
#    0.000    0.000    0.000    0.000    0.000    0.000 
#
# Total GULP energy -61257.831876 kJ/mol
# GULP energy per Si atom -5568.893807 kJ/mol
# Density = 2.421667 g / cm^3
# Si number density = 24.271910 Si / 1000 Ang^3
#
#
#
# Elastic Constant Matrix: (Units=GPa)
#
#
# Indices 1 2 3 4 5 6 
#
# 1 111.8110 28.5496 44.7723 -6.3273 20.5611 -15.9605
# 2 28.5496 91.5110 28.3927 -1.3195 14.0671 -5.5525
# 3 44.7723 28.3927 249.3348 -22.3899 31.6100 -4.4844
# 4 -6.3273 -1.3195 -22.3899 23.8654 -6.4086 2.2832
# 5 20.5611 14.0671 31.6100 -6.4086 53.4042 -9.9575
# 6 -15.9605 -5.5525 -4.4844 2.2832 -9.9575 35.3645
#
#
#
# Elastic Compliance Matrix: (Units=1/GPa)
#
#
# Indices 1 2 3 4 5 6 
#
# 1 0.011063 -0.002489 -0.001319 0.000647 -0.002033 0.003821
# 2 -0.002489 0.012245 -0.000819 -0.001282 -0.001891 0.000246
# 3 -0.001319 -0.000819 0.004904 0.003783 -0.001889 -0.000878
# 4 0.000647 -0.001282 0.003783 0.046544 0.003146 -0.001549
# 5 -0.002033 -0.001891 -0.001889 0.003146 0.022367 0.004641
# 6 0.003821 0.000246 -0.000878 -0.001549 0.004641 0.031335
#
#
# Mechanical properties :
#
#
# Convention : Reuss Voigt Hill
#
# Bulk Modulus (GPa) = 52.74041 72.89842 62.81942
# Shear Modulus (GPa) = 34.71490 45.92294 40.31892
#
# Velocity S-wave (km/s) = 3.78597 4.35445 4.08012
# Velocity P-wave (km/s) = 6.39434 7.44184 6.93789
#
# Compressibility (1/GPa) = 0.01896079
#
# Stress axis : x y z
#
# Youngs Moduli (GPa) = 90.39133 81.66531 203.91315
#
# Poissons Ratio (x) = 0.20323 0.26887
# Poissons Ratio (y) = 0.22495 0.16690
# Poissons Ratio (z) = 0.11919 0.06684
#
# Static dielectric constant tensor:
#      x y z
#    x 2.168340 0.054260 -0.167610 
#    y 0.054260 2.032730 -0.080440 
#    z -0.167610 -0.080440 2.092670 
# 
# From -- ./inp_files/145159.got.cif
#   From: 2010.05.17/outbox.cif.g08.bks.cpg/sg2_73_cif.got.tgz:145159.got - 2010.06.03 11:33:40.
