data_PCOD9077263
_publ_section_title
;
Structure prediction by ZEFSAII (Michael W. Deem and Ramdas Pophale) SiO2 
 PCOD9077263
Probable space group: P -1
;
_chemical_formula_sum "Si O2"
_cell_formula_units_Z 16
_cell_length_a 11.842049
_cell_length_b 10.979714
_cell_length_c 12.586224
_cell_angle_alpha 48.481502
_cell_angle_beta 124.223210
_cell_angle_gamma 145.628421
_cell_volume 691.304121
_symmetry_space_group_name_H-M "P -1"
_symmetry_group_IT_number 2
_symmetry_cell_setting 'triclinic'
loop_
_space_group_symop_operation_xyz
x,y,z
-x,-y,-z
loop_
_atom_site_type_symbol
_atom_site_label
_atom_site_fract_x
_atom_site_fract_y
_atom_site_fract_z
Si Si1 0.262673 0.754624 0.023808
Si Si2 0.058433 0.363339 0.461438
Si Si3 0.667855 0.542167 0.823699
Si Si4 0.977551 0.926816 0.224280
Si Si5 0.719128 0.150591 0.783550
Si Si6 0.707980 0.058217 0.284964
Si Si7 0.667321 0.685826 0.374314
Si Si8 0.349177 0.258676 0.994516
O O1 0.237231 0.538145 0.127419
O O2 0.197960 0.762832 0.100698
O O3 0.194035 0.775768 0.864918
O O4 0.500000 0.000000 0.000000
O O5 0.009715 0.241428 0.620239
O O6 0.155913 0.624033 0.356713
O O7 0.224973 0.383403 0.488412
O O8 0.864540 0.192995 0.384616
O O9 0.540728 0.523490 0.676162
O O10 0.496292 0.331010 0.935309
O O11 0.820755 0.793689 0.820046
O O12 0.830086 0.883629 0.257991
O O13 0.843818 0.818266 0.110797
O O14 0.491608 0.017361 0.746044
O O15 0.722700 0.967201 0.856320
O O16 0.648684 0.821435 0.362881
O O17 0.500000 0.500000 0.000000
#
# Coordination Sequence:
#
# PCOD9077263 Si02
#       8
#     2   2   2   2   2   2   2   2
#     4  10  18  34  57  91 123 163 193 244 302 360
#     4  10  25  35  56  93 130 161 206 243 292 376
#     4  11  19  40  66  87 127 163 195 253 308 360
#     4   9  24  40  61  91 123 162 203 242 307 367
#     4  11  23  39  61  91 126 162 201 256 305 351
#     4  11  20  34  55  88 130 168 204 234 298 362
#     4   9  20  36  53  87 127 167 200 227 292 364
#     4  11  24  45  69  91 114 153 214 264 305 360
#
# _framework density 23.144662
#
# number of rings (size 3 to 8) (size 9 to 14) (size 15 to 20)
#    0.750    1.000    5.000    1.125    5.250    1.500 
#    0.000    0.625    0.000    1.500    0.000    0.000 
#    0.000    0.000    0.000    0.000    0.000    0.000 
#
# Total GULP energy -89361.332350 kJ/mol
# GULP energy per Si atom -5585.083272 kJ/mol
# Density = 2.309198 g / cm^3
# Si number density = 23.144662 Si / 1000 Ang^3
#
#
#
# Elastic Constant Matrix: (Units=GPa)
#
#
# Indices 1 2 3 4 5 6 
#
# 1 30.4805 23.2686 6.7724 1.8574 -4.6514 -2.2236
# 2 23.2686 170.1801 87.0363 8.9010 26.8195 14.6136
# 3 6.7724 87.0363 130.4236 -6.6789 9.2891 -7.3287
# 4 1.8574 8.9010 -6.6789 33.3826 4.8136 4.2046
# 5 -4.6514 26.8195 9.2891 4.8136 15.0631 -15.9993
# 6 -2.2236 14.6136 -7.3287 4.2046 -15.9993 26.0631
#
#
#
# Elastic Compliance Matrix: (Units=1/GPa)
#
#
# Indices 1 2 3 4 5 6 
#
# 1 0.018945 0.008629 -0.005355 0.004977 -0.039307 -0.029660
# 2 0.008629 -0.001652 -0.000808 -0.007851 0.032999 0.022959
# 3 -0.005355 -0.000808 0.009566 0.006243 -0.018178 -0.009480
# 4 0.004977 -0.007851 0.006243 0.030449 0.010661 0.008215
# 5 -0.039307 0.032999 -0.018178 0.010661 -0.078082 -0.076620
# 6 -0.029660 0.022959 -0.009480 0.008215 -0.076620 -0.028061
#
#
# Mechanical properties :
#
#
# Convention : Reuss Voigt Hill
#
# Bulk Modulus (GPa) = 31.45388 62.80432 47.12910
# Shear Modulus (GPa) = -115.82015 29.16889 -43.32563
#
# Velocity S-wave (km/s) = -7.08170 3.55390 -4.33130
# Velocity P-wave (km/s) = 7.29710 6.63587 2.14627
#
# Compressibility (1/GPa) = 0.03179258
#
# Stress axis : x y z
#
# Youngs Moduli (GPa) = 52.78535 -605.40767 104.53361
#
# Poissons Ratio (x) = 5.22434 0.55975
# Poissons Ratio (y) = -0.45551 0.08447
# Poissons Ratio (z) = 0.28265 -0.48919
#
# Static dielectric constant tensor:
#      x y z
#    x 1.893900 0.006280 -0.030210 
#    y 0.006280 1.836810 0.009220 
#    z -0.030210 0.009220 1.915140 
# 
# From -- ./inp_files/532341.got.cif
#   From: 2010.05.17/outbox.cif.g08.bks.cpg/sg2_267_cif.got.tgz:532341.got - 2010.06.03 11:33:40.
