data_PCOD9077287
_publ_section_title
;
Structure prediction by ZEFSAII (Michael W. Deem and Ramdas Pophale) SiO2 
 PCOD9077287
Probable space group: P -1
;
_chemical_formula_sum "Si O2"
_cell_formula_units_Z 16
_cell_length_a 11.542819
_cell_length_b 14.174920
_cell_length_c 23.230858
_cell_angle_alpha 29.209679
_cell_angle_beta 31.615590
_cell_angle_gamma 28.541714
_cell_volume 825.553402
_symmetry_space_group_name_H-M "P -1"
_symmetry_group_IT_number 2
_symmetry_cell_setting 'triclinic'
loop_
_space_group_symop_operation_xyz
x,y,z
-x,-y,-z
loop_
_atom_site_type_symbol
_atom_site_label
_atom_site_fract_x
_atom_site_fract_y
_atom_site_fract_z
Si Si1 0.170258 0.429212 0.023756
Si Si2 0.181130 0.612613 0.516842
Si Si3 0.025307 0.129492 0.293238
Si Si4 0.220618 0.879817 0.172388
Si Si5 0.232663 0.566357 0.649469
Si Si6 0.308622 0.733250 0.748581
Si Si7 0.866433 0.519426 0.607362
Si Si8 0.319069 0.212505 0.887742
O O1 0.358992 0.517185 0.881007
O O2 0.000000 0.500000 0.000000
O O3 0.237162 0.181826 0.148306
O O4 0.961788 0.594560 0.070510
O O5 0.111094 0.610096 0.614489
O O6 0.492078 0.451261 0.464248
O O7 0.043352 0.529219 0.576537
O O8 0.104996 0.869781 0.397976
O O9 0.940170 0.240684 0.333103
O O10 0.785166 0.265010 0.278005
O O11 0.175106 0.691077 0.266482
O O12 0.447967 0.796609 0.168696
O O13 0.947225 0.059751 0.223106
O O14 0.311433 0.990706 0.026235
O O15 0.305406 0.320563 0.774244
O O16 0.572878 0.730510 0.631527
O O17 0.000000 0.500000 0.500000
#
# Coordination Sequence:
#
# PCOD9077287 Si02
#       8
#     2   2   2   2   2   2   2   2
#     4   8  15  28  52  84 108 129 169 224 273 315
#     4  11  24  36  53  78 107 148 188 217 267 330
#     4  10  18  34  58  80 105 138 176 225 275 316
#     4  10  20  35  58  87 113 140 175 225 279 322
#     4  10  21  39  56  77 106 139 187 235 263 313
#     4  10  20  33  55  85 110 136 175 223 280 331
#     4  12  24  37  52  79 116 148 177 221 274 330
#     4   9  17  34  60  83 108 138 179 230 274 313
#
# _framework density 19.380939000000001
#
# number of rings (size 3 to 8) (size 9 to 14) (size 15 to 20)
#    0.000    2.000    0.000    5.625    0.000    6.000 
#    0.000    0.625    0.000    6.750    0.000    0.000 
#    0.000    0.000    0.000    0.000    0.000    0.000 
#
# Total GULP energy -89165.784881 kJ/mol
# GULP energy per Si atom -5572.861555 kJ/mol
# Density = 1.933683 g / cm^3
# Si number density = 19.380939 Si / 1000 Ang^3
#
#
#
# Elastic Constant Matrix: (Units=GPa)
#
#
# Indices 1 2 3 4 5 6 
#
# 1 120.2783 30.7191 69.3713 3.3264 1.9430 12.6898
# 2 30.7191 67.9279 45.8797 3.5905 -11.1401 10.6623
# 3 69.3713 45.8797 124.6658 -2.0944 6.3362 7.5116
# 4 3.3264 3.5905 -2.0944 51.6149 0.4806 -1.3632
# 5 1.9430 -11.1401 6.3362 0.4806 28.5173 0.5627
# 6 12.6898 10.6623 7.5116 -1.3632 0.5627 22.6316
#
#
#
# Elastic Compliance Matrix: (Units=1/GPa)
#
#
# Indices 1 2 3 4 5 6 
#
# 1 0.012852 -0.000272 -0.006809 -0.001221 0.000649 -0.004908
# 2 -0.000272 0.024261 -0.008883 -0.002371 0.011682 -0.008762
# 3 -0.006809 -0.008883 0.015246 0.001821 -0.006488 0.003214
# 4 -0.001221 -0.002371 0.001821 0.019771 -0.001629 0.002429
# 5 0.000649 0.011682 -0.006488 -0.001629 0.041150 -0.004835
# 6 -0.004908 -0.008762 0.003214 0.002429 -0.004835 0.050266
#
#
# Mechanical properties :
#
#
# Convention : Reuss Voigt Hill
#
# Bulk Modulus (GPa) = 48.94489 67.20136 58.07313
# Shear Modulus (GPa) = 24.71771 31.67955 28.19863
#
# Velocity S-wave (km/s) = 3.57509 4.04737 3.81854
# Velocity P-wave (km/s) = 6.50774 7.52269 7.03355
#
# Compressibility (1/GPa) = 0.02043114
#
# Stress axis : x y z
#
# Youngs Moduli (GPa) = 77.80989 41.21911 65.58928
#
# Poissons Ratio (x) = 0.01119 0.44662
# Poissons Ratio (y) = 0.02113 0.58263
# Poissons Ratio (z) = 0.52984 0.36615
#
# Static dielectric constant tensor:
#      x y z
#    x 1.662500 0.020880 0.087380 
#    y 0.020880 1.835170 -0.034530 
#    z 0.087380 -0.034530 1.923230 
# 
# From -- ./inp_files/610523.got.cif
#   From: 2010.05.17/outbox.cif.g08.bks.cpg/sg2_306_cif.got.tgz:610523.got - 2010.06.03 11:33:40.
