data_PCOD9077578
_publ_section_title
;
Structure prediction by ZEFSAII (Michael W. Deem and Ramdas Pophale) SiO2 
 PCOD9077578
Probable space group: P -1
;
_chemical_formula_sum "Si O2"
_cell_formula_units_Z 16
_cell_length_a 13.880232
_cell_length_b 9.598561
_cell_length_c 15.112392
_cell_angle_alpha 78.471611
_cell_angle_beta 152.087626
_cell_angle_gamma 119.479573
_cell_volume 670.316877
_symmetry_space_group_name_H-M "P -1"
_symmetry_group_IT_number 2
_symmetry_cell_setting 'triclinic'
loop_
_space_group_symop_operation_xyz
x,y,z
-x,-y,-z
loop_
_atom_site_type_symbol
_atom_site_label
_atom_site_fract_x
_atom_site_fract_y
_atom_site_fract_z
Si Si1 0.102874 0.504658 0.955765
Si Si2 0.539126 0.589044 0.425954
Si Si3 0.665108 0.063310 0.937442
Si Si4 0.909891 0.541214 0.240269
Si Si5 0.433105 0.147106 0.482194
Si Si6 0.989191 0.320046 0.522047
Si Si7 0.013206 0.733771 0.664418
Si Si8 0.551946 0.895576 0.688986
O O1 0.249283 0.489950 0.155051
O O2 0.225013 0.723309 0.020236
O O3 0.233529 0.655017 0.284635
O O4 0.169007 0.455797 0.923514
O O5 0.500000 0.500000 0.500000
O O6 0.686233 0.807088 0.545567
O O7 0.733645 0.596201 0.515816
O O8 0.327311 0.889322 0.693237
O O9 0.731921 0.005906 0.909597
O O10 0.789284 0.080928 0.132407
O O11 0.844524 0.614941 0.258167
O O12 0.254040 0.684049 0.501755
O O13 0.813587 0.331946 0.197503
O O14 0.311471 0.103145 0.289692
O O15 0.441378 0.994630 0.548436
O O16 0.080553 0.284890 0.510402
O O17 0.000000 0.500000 0.500000
#
# Coordination Sequence:
#
# PCOD9077578 Si02
#       8
#     2   2   2   2   2   2   2   2
#     4  10  20  35  57  84 106 151 202 219 266 337
#     4  12  23  34  53  81 123 148 180 235 286 315
#     4  10  18  34  61  83 107 144 193 228 265 339
#     4   8  17  36  61  80 104 146 189 231 269 331
#     4  10  20  35  56  77 109 153 194 226 261 329
#     4   9  18  36  64  87 108 139 184 235 282 329
#     4  10  21  35  56  89 117 141 182 231 288 324
#     4   9  17  31  58  76 102 140 204 222 255 314
#
# _framework density 23.869306999999999
#
# number of rings (size 3 to 8) (size 9 to 14) (size 15 to 20)
#    0.000    2.250    1.250    3.000    1.750    0.000 
#    0.000    1.875   24.750    0.000    0.000    0.000 
#    0.000    0.000    0.000    0.000    0.000    0.000 
#
# Total GULP energy -89129.144023 kJ/mol
# GULP energy per Si atom -5570.571501 kJ/mol
# Density = 2.381498 g / cm^3
# Si number density = 23.869307 Si / 1000 Ang^3
#
#
#
# Elastic Constant Matrix: (Units=GPa)
#
#
# Indices 1 2 3 4 5 6 
#
# 1 169.1306 15.1725 68.4826 -11.3297 -58.3674 12.4466
# 2 15.1725 45.4033 16.1337 16.8870 7.9691 7.8459
# 3 68.4826 16.1337 106.5898 -1.5595 -45.4294 -2.5774
# 4 -11.3297 16.8870 -1.5595 30.6990 13.8421 -3.7709
# 5 -58.3674 7.9691 -45.4294 13.8421 62.8425 -0.1105
# 6 12.4466 7.8459 -2.5774 -3.7709 -0.1105 21.2534
#
#
#
# Elastic Compliance Matrix: (Units=1/GPa)
#
#
# Indices 1 2 3 4 5 6 
#
# 1 0.010618 -0.003552 -0.003096 0.001632 0.007706 -0.004953
# 2 -0.003552 0.038473 -0.008406 -0.020572 -0.009753 -0.016843
# 3 -0.003096 -0.008406 0.017367 0.000435 0.010662 0.007155
# 4 0.001632 -0.020572 0.000435 0.049289 -0.006390 0.015403
# 5 0.007706 -0.009753 0.010662 -0.006390 0.033421 -0.000579
# 6 -0.004953 -0.016843 0.007155 0.015403 -0.000579 0.059767
#
#
# Mechanical properties :
#
#
# Convention : Reuss Voigt Hill
#
# Bulk Modulus (GPa) = 27.51076 57.85569 42.68323
# Shear Modulus (GPa) = 19.90775 37.71465 28.81120
#
# Velocity S-wave (km/s) = 2.89109 3.97929 3.47802
# Velocity P-wave (km/s) = 4.76394 6.73826 5.83521
#
# Compressibility (1/GPa) = 0.03634941
#
# Stress axis : x y z
#
# Youngs Moduli (GPa) = 94.18038 25.99239 57.58130
#
# Poissons Ratio (x) = 0.09232 0.17826
# Poissons Ratio (y) = 0.33453 0.48405
# Poissons Ratio (z) = 0.29156 0.21850
#
# Static dielectric constant tensor:
#      x y z
#    x 2.018570 -0.028330 -0.073870 
#    y -0.028330 2.030270 0.003880 
#    z -0.073870 0.003880 1.946470 
# 
# From -- ./inp_files/326176.got.cif
#   From: 2010.05.17/outbox.cif.g08.bks.cpg/sg2_164_cif.got.tgz:326176.got - 2010.06.03 11:33:40.
