data_PCOD9077430
_publ_section_title
;
Structure prediction by ZEFSAII (Michael W. Deem and Ramdas Pophale) SiO2 
 PCOD9077430
Probable space group: P -1
;
_chemical_formula_sum "Si O2"
_cell_formula_units_Z 14
_cell_length_a 8.911332
_cell_length_b 9.928907
_cell_length_c 9.267438
_cell_angle_alpha 106.084808
_cell_angle_beta 44.593589
_cell_angle_gamma 110.235662
_cell_volume 539.565163
_symmetry_space_group_name_H-M "P -1"
_symmetry_group_IT_number 2
_symmetry_cell_setting 'triclinic'
loop_
_space_group_symop_operation_xyz
x,y,z
-x,-y,-z
loop_
_atom_site_type_symbol
_atom_site_label
_atom_site_fract_x
_atom_site_fract_y
_atom_site_fract_z
Si Si1 0.638920 0.521175 0.764139
Si Si2 0.139533 0.373823 0.774295
Si Si3 0.120293 0.702170 0.554380
Si Si4 0.647002 0.338029 0.201349
Si Si5 0.924228 0.135563 0.651677
Si Si6 0.719987 0.043540 0.051066
Si Si7 0.875830 0.811225 0.009765
O O1 0.882965 0.597034 0.667619
O O2 0.533210 0.624907 0.768083
O O3 0.687780 0.384037 0.604812
O O4 0.500000 0.500000 0.000000
O O5 0.282335 0.532334 0.693053
O O6 0.119813 0.252101 0.629941
O O7 0.209316 0.328111 0.872331
O O8 0.880140 0.369423 0.964891
O O9 0.158114 0.793271 0.409063
O O10 0.058301 0.787455 0.761117
O O11 0.605948 0.169994 0.223731
O O12 0.000000 0.000000 0.500000
O O13 0.263105 0.929680 0.122971
O O14 0.690201 0.882661 0.085613
O O15 0.976173 0.092277 0.940635
#
# Coordination Sequence:
#
# PCOD9077430 Si02
#       7
#     2   2   2   2   2   2   2
#     4  11  23  40  62  94 135 164 206 269 319 373
#     4   9  19  35  64  91 121 168 212 253 323 370
#     4  11  23  37  65  97 121 169 217 251 322 385
#     4   9  18  36  59  87 119 164 204 254 311 371
#     4  10  18  34  59  89 126 162 205 260 313 372
#     4   9  18  33  62  87 123 168 203 257 322 360
#     4   9  17  34  57  91 119 162 214 253 307 381
#
# _framework density 25.946819999999999
#
# number of rings (size 3 to 8) (size 9 to 14) (size 15 to 20)
#    0.000    2.571    1.429    2.571    0.000    6.857 
#    0.000    7.143    3.143    0.857    0.000    0.000 
#    0.000    0.000    0.000    0.000    0.000    0.000 
#
# Total GULP energy -78096.649573 kJ/mol
# GULP energy per Si atom -5578.332112 kJ/mol
# Density = 2.588776 g / cm^3
# Si number density = 25.946820 Si / 1000 Ang^3
#
#
#
# Elastic Constant Matrix: (Units=GPa)
#
#
# Indices 1 2 3 4 5 6 
#
# 1 80.8528 44.5089 98.5477 -9.1867 -6.3464 -40.3399
# 2 44.5089 106.5339 87.3037 18.7258 2.0680 -49.3938
# 3 98.5477 87.3037 134.2158 17.8211 -2.9191 -18.4778
# 4 -9.1867 18.7258 17.8211 48.9446 -1.1336 -0.5904
# 5 -6.3464 2.0680 -2.9191 -1.1336 49.9857 2.9953
# 6 -40.3399 -49.3938 -18.4778 -0.5904 2.9953 55.7854
#
#
#
# Elastic Compliance Matrix: (Units=1/GPa)
#
#
# Indices 1 2 3 4 5 6 
#
# 1 -0.014343 -0.023012 0.022637 -0.002370 0.001800 -0.023371
# 2 -0.023012 0.010096 0.011383 -0.012437 -0.002722 -0.003917
# 3 0.022637 0.011383 -0.014284 0.005366 0.000387 0.021752
# 4 -0.002370 -0.012437 0.005366 0.022700 0.001689 -0.010799
# 5 0.001800 -0.002722 0.000387 0.001689 0.020531 -0.002065
# 6 -0.023371 -0.003917 0.021752 -0.010799 -0.002065 0.004759
#
#
# Mechanical properties :
#
#
# Convention : Reuss Voigt Hill
#
# Bulk Modulus (GPa) = 287.12852 86.92477 187.02665
# Shear Modulus (GPa) = 580.93060 37.02597 308.97828
#
# Velocity S-wave (km/s) = 14.97928 3.78166 10.92428
# Velocity P-wave (km/s) = 20.25024 7.25546 15.21043
#
# Compressibility (1/GPa) = 0.00348276
#
# Stress axis : x y z
#
# Youngs Moduli (GPa) = -69.72009 99.04909 -70.01049
#
# Poissons Ratio (x) = 2.27936 1.58480
# Poissons Ratio (y) = -1.60443 0.79690
# Poissons Ratio (z) = 1.57822 -1.12743
#
# Static dielectric constant tensor:
#      x y z
#    x 2.045590 -0.000880 0.025930 
#    y -0.000880 2.316110 -0.020830 
#    z 0.025930 -0.020830 2.002070 
# 
# From -- ./inp_files/189651.got.cif
#   From: 2010.05.17/outbox.cif.g08.bks.cpg/sg2_95_cif.got.tgz:189651.got - 2010.06.03 11:33:40.
