data_PCOD9077104
_publ_section_title
;
Structure prediction by ZEFSAII (Michael W. Deem and Ramdas Pophale) SiO2 
 PCOD9077104
Probable space group: P -1
;
_chemical_formula_sum "Si O2"
_cell_formula_units_Z 16
_cell_length_a 19.036417
_cell_length_b 9.617254
_cell_length_c 15.281849
_cell_angle_alpha 47.560407
_cell_angle_beta 145.794191
_cell_angle_gamma 153.065422
_cell_volume 690.651174
_symmetry_space_group_name_H-M "P -1"
_symmetry_group_IT_number 2
_symmetry_cell_setting 'triclinic'
loop_
_space_group_symop_operation_xyz
x,y,z
-x,-y,-z
loop_
_atom_site_type_symbol
_atom_site_label
_atom_site_fract_x
_atom_site_fract_y
_atom_site_fract_z
Si Si1 0.066195 0.678635 0.316375
Si Si2 0.980416 0.786485 0.013878
Si Si3 0.387462 0.959460 0.819073
Si Si4 0.523298 0.803495 0.910688
Si Si5 0.253086 0.176863 0.977421
Si Si6 0.783568 0.547543 0.418955
Si Si7 0.265713 0.233675 0.570573
Si Si8 0.187340 0.198056 0.311159
O O1 0.971118 0.615827 0.149660
O O2 0.860208 0.392385 0.285130
O O3 0.201046 0.654756 0.459288
O O4 0.197080 0.009501 0.352296
O O5 0.803826 0.624531 0.827684
O O6 0.000000 0.000000 0.000000
O O7 0.192298 0.022895 0.074547
O O8 0.494806 0.975874 0.844300
O O9 0.393215 0.192205 0.729273
O O10 0.500000 0.000000 0.000000
O O11 0.447499 0.555026 0.008387
O O12 0.370850 0.602423 0.756187
O O13 0.736826 0.979046 0.016460
O O14 0.057198 0.074229 0.799366
O O15 0.698739 0.561674 0.408373
O O16 0.020086 0.888401 0.486820
O O17 0.300527 0.338502 0.461076
#
# Coordination Sequence:
#
# PCOD9077104 Si02
#       8
#     2   2   2   2   2   2   2   2
#     4  10  18  34  56  79 101 139 182 209 257 312
#     4   8  15  32  55  82 100 135 181 212 250 307
#     4  11  23  33  53  80 109 135 171 221 266 313
#     4  11  19  34  52  81 110 137 169 212 271 311
#     4   9  19  28  58  81 105 134 173 213 262 308
#     4  10  20  31  52  76 107 141 170 218 257 312
#     4  10  20  33  49  77 108 135 176 213 266 303
#     4   9  16  33  56  77 101 134 173 215 251 308
#
# _framework density 23.166542
#
# number of rings (size 3 to 8) (size 9 to 14) (size 15 to 20)
#    0.750    1.500    2.500    0.750    3.500    3.000 
#    0.000    1.250    0.000    0.750    0.000    0.000 
#    0.000    0.000    0.000    0.000    0.000    0.000 
#
# Total GULP energy -89212.914400 kJ/mol
# GULP energy per Si atom -5575.807150 kJ/mol
# Density = 2.311381 g / cm^3
# Si number density = 23.166542 Si / 1000 Ang^3
#
#
#
# Elastic Constant Matrix: (Units=GPa)
#
#
# Indices 1 2 3 4 5 6 
#
# 1 167.3736 59.8694 46.0912 -19.8827 1.8966 -32.4687
# 2 59.8694 48.2516 24.4807 -15.9690 2.4444 -5.0125
# 3 46.0912 24.4807 96.4637 -24.4483 -5.9061 -25.3160
# 4 -19.8827 -15.9690 -24.4483 27.9040 -6.2976 2.7513
# 5 1.8966 2.4444 -5.9061 -6.2976 42.2798 -5.7417
# 6 -32.4687 -5.0125 -25.3160 2.7513 -5.7417 34.1922
#
#
#
# Elastic Compliance Matrix: (Units=1/GPa)
#
#
# Indices 1 2 3 4 5 6 
#
# 1 0.013948 -0.016432 0.000901 0.000645 0.002150 0.011812
# 2 -0.016432 0.045924 -0.004769 0.011121 -0.002797 -0.013767
# 3 0.000901 -0.004769 0.019077 0.014809 0.007044 0.014272
# 4 0.000645 0.011121 0.014809 0.057159 0.011338 0.010512
# 5 0.002150 -0.002797 0.007044 0.011338 0.027831 0.010608
# 6 0.011812 -0.013767 0.014272 0.010512 0.010608 0.049947
#
#
# Mechanical properties :
#
#
# Convention : Reuss Voigt Hill
#
# Bulk Modulus (GPa) = 26.07657 63.66353 44.87005
# Shear Modulus (GPa) = 18.70776 32.98503 25.84640
#
# Velocity S-wave (km/s) = 2.84480 3.77745 3.34380
# Velocity P-wave (km/s) = 4.69798 6.82393 5.85820
#
# Compressibility (1/GPa) = 0.03834861
#
# Stress axis : x y z
#
# Youngs Moduli (GPa) = 71.69592 21.77494 52.41979
#
# Poissons Ratio (x) = 0.35780 -0.04721
# Poissons Ratio (y) = 1.17807 0.25000
# Poissons Ratio (z) = -0.06457 0.10385
#
# Static dielectric constant tensor:
#      x y z
#    x 1.907670 0.038200 -0.004450 
#    y 0.038200 1.933790 0.046390 
#    z -0.004450 0.046390 1.897420 
# 
# From -- ./inp_files/537295.got.cif
#   From: 2010.05.17/outbox.cif.g08.bks.cpg/sg2_269_cif.got.tgz:537295.got - 2010.06.03 11:33:40.
