data_PCOD9077820
_publ_section_title
;
Structure prediction by ZEFSAII (Michael W. Deem and Ramdas Pophale) SiO2 
 PCOD9077820
Probable space group: P -1
;
_chemical_formula_sum "Si O2"
_cell_formula_units_Z 16
_cell_length_a 10.862499
_cell_length_b 9.321420
_cell_length_c 7.822867
_cell_angle_alpha 57.802690
_cell_angle_beta 78.565980
_cell_angle_gamma 72.134859
_cell_volume 637.370598
_symmetry_space_group_name_H-M "P -1"
_symmetry_group_IT_number 2
_symmetry_cell_setting 'triclinic'
loop_
_space_group_symop_operation_xyz
x,y,z
-x,-y,-z
loop_
_atom_site_type_symbol
_atom_site_label
_atom_site_fract_x
_atom_site_fract_y
_atom_site_fract_z
Si Si1 0.880099 0.392716 0.147913
Si Si2 0.656287 0.474971 0.722955
Si Si3 0.449011 0.958192 0.220405
Si Si4 0.622456 0.303660 0.385085
Si Si5 0.845612 0.167571 0.980613
Si Si6 0.085501 0.627385 0.464006
Si Si7 0.293829 0.038816 0.657328
Si Si8 0.237577 0.280385 0.215584
O O1 0.734267 0.393445 0.246236
O O2 0.904579 0.255074 0.069574
O O3 0.943461 0.339191 0.349853
O O4 0.869778 0.590510 0.954988
O O5 0.509992 0.551878 0.672574
O O6 0.763846 0.477438 0.546190
O O7 0.689309 0.589376 0.796807
O O8 0.700178 0.283194 0.909701
O O9 0.578899 0.911647 0.333583
O O10 0.340730 0.132988 0.182402
O O11 0.379698 0.799537 0.370122
O O12 0.500000 0.000000 0.000000
O O13 0.644921 0.140695 0.349341
O O14 0.809327 0.990629 0.155576
O O15 0.919353 0.205294 0.765517
O O16 0.000000 0.500000 0.500000
O O17 0.211771 0.170885 0.457454
#
# Coordination Sequence:
#
# PCOD9077820 Si02
#       8
#     2   2   2   2   2   2   2   2
#     4  10  22  35  61  87 111 147 193 233 280 342
#     4   9  18  35  55  82 108 151 185 228 285 318
#     4  11  22  28  49  83 123 166 178 218 273 347
#     4  10  19  35  51  84 119 147 185 219 281 343
#     4   8  21  35  58  84 106 159 177 233 290 322
#     4  10  23  41  60  85 110 141 198 249 285 327
#     4  10  18  35  52  76 127 154 183 214 283 352
#     4  10  19  35  51  81 114 161 185 222 276 338
#
# _framework density 25.103133
#
# number of rings (size 3 to 8) (size 9 to 14) (size 15 to 20)
#    0.750    1.500    2.500    0.750    5.250    2.500 
#    0.000    0.000    0.000    1.500    0.000    0.000 
#    0.000    0.000    0.000    0.000    0.000    0.000 
#
# Total GULP energy -89253.307216 kJ/mol
# GULP energy per Si atom -5578.331701 kJ/mol
# Density = 2.504600 g / cm^3
# Si number density = 25.103133 Si / 1000 Ang^3
#
#
#
# Elastic Constant Matrix: (Units=GPa)
#
#
# Indices 1 2 3 4 5 6 
#
# 1 62.6655 16.3870 30.4410 3.3998 6.8947 -16.0864
# 2 16.3870 22.5343 21.9938 3.3757 14.8869 -11.3988
# 3 30.4410 21.9938 214.0082 16.2366 -17.9792 -2.0727
# 4 3.3998 3.3757 16.2366 29.3104 8.3298 13.2236
# 5 6.8947 14.8869 -17.9792 8.3298 45.0037 -4.5228
# 6 -16.0864 -11.3988 -2.0727 13.2236 -4.5228 36.1006
#
#
#
# Elastic Compliance Matrix: (Units=1/GPa)
#
#
# Indices 1 2 3 4 5 6 
#
# 1 0.021542 -0.010163 -0.001513 -0.004438 0.001089 0.008065
# 2 -0.010163 0.094045 -0.010092 -0.005827 -0.030200 0.022937
# 3 -0.001513 -0.010092 0.006780 -0.003822 0.006865 -0.001212
# 4 -0.004438 -0.005827 -0.003822 0.051452 -0.010879 -0.024247
# 5 0.001089 -0.030200 0.006865 -0.010879 0.036794 -0.000062
# 6 0.008065 0.022937 -0.001212 -0.024247 -0.000062 0.047341
#
#
# Mechanical properties :
#
#
# Convention : Reuss Voigt Hill
#
# Bulk Modulus (GPa) = 12.68566 48.53909 30.61237
# Shear Modulus (GPa) = 15.25474 37.44203 26.34839
#
# Velocity S-wave (km/s) = 2.46780 3.86622 3.24328
# Velocity P-wave (km/s) = 3.63103 6.26961 5.12311
#
# Compressibility (1/GPa) = 0.07882916
#
# Stress axis : x y z
#
# Youngs Moduli (GPa) = 46.42118 10.63324 147.48912
#
# Poissons Ratio (x) = 0.10807 0.22321
# Poissons Ratio (y) = 0.47178 1.48851
# Poissons Ratio (z) = 0.07025 0.10731
#
# Static dielectric constant tensor:
#      x y z
#    x 2.030570 0.017470 0.034720 
#    y 0.017470 2.034030 0.011320 
#    z 0.034720 0.011320 2.059870 
# 
# From -- ./inp_files/256349.got.cif
#   From: 2010.05.17/outbox.cif.g08.bks.cpg/sg2_129_cif.got.tgz:256349.got - 2010.06.03 11:33:40.
