data_PCOD9077517
_publ_section_title
;
Structure prediction by ZEFSAII (Michael W. Deem and Ramdas Pophale) SiO2 
 PCOD9077517
Probable space group: P -1
;
_chemical_formula_sum "Si O2"
_cell_formula_units_Z 15
_cell_length_a 10.085007
_cell_length_b 10.144330
_cell_length_c 9.273384
_cell_angle_alpha 91.769546
_cell_angle_beta 62.941471
_cell_angle_gamma 59.022611
_cell_volume 679.336222
_symmetry_space_group_name_H-M "P -1"
_symmetry_group_IT_number 2
_symmetry_cell_setting 'triclinic'
loop_
_space_group_symop_operation_xyz
x,y,z
-x,-y,-z
loop_
_atom_site_type_symbol
_atom_site_label
_atom_site_fract_x
_atom_site_fract_y
_atom_site_fract_z
Si Si1 0.500000 0.000000 0.500000
Si Si2 0.508532 0.858262 0.190888
Si Si3 0.782967 0.812754 0.834262
Si Si4 0.347863 0.752295 0.473745
Si Si5 0.121149 0.621350 0.475167
Si Si6 0.168136 0.951055 0.018508
Si Si7 0.010914 0.091576 0.636730
Si Si8 0.456573 0.277919 0.352425
O O1 0.576190 0.889821 0.306393
O O2 0.585967 0.835902 0.551167
O O3 0.441551 0.751383 0.279135
O O4 0.342965 0.034577 0.209747
O O5 0.657761 0.780084 0.987248
O O6 0.956656 0.661760 0.661031
O O7 0.851239 0.888433 0.915174
O O8 0.222252 0.692405 0.506667
O O9 0.478606 0.666089 0.542408
O O10 0.219308 0.950426 0.584858
O O11 0.028432 0.740500 0.387461
O O12 0.280205 0.432108 0.367774
O O13 0.367281 0.827754 0.843266
O O14 0.135199 0.879825 0.173624
O O15 0.000000 0.000000 0.000000
O O16 0.000000 0.000000 0.500000
#
# Coordination Sequence:
#
# PCOD9077517 Si02
#       8
#     1   2   2   2   2   2   2   2
#     4  10  22  42  60  90 120 176 204 254 318 384
#     4  10  21  36  67  88 124 170 213 250 303 396
#     4  11  20  38  63  95 120 167 217 249 312 380
#     4  10  18  37  61  91 121 170 203 256 314 383
#     4  11  21  38  63  95 125 160 209 271 316 363
#     4  12  21  37  64  98 123 168 215 261 302 383
#     4  10  18  34  60  87 120 161 204 250 305 369
#     4  11  23  37  63  90 129 158 211 267 318 364
#
# _framework density 22.080376999999999
#
# number of rings (size 3 to 8) (size 9 to 14) (size 15 to 20)
#    0.000    1.333    6.667    1.200    0.000    0.533 
#    0.000    3.333    2.933    0.000    0.000    0.000 
#    0.000    0.000    0.000    0.000    0.000    0.000 
#
# Total GULP energy -83546.783312 kJ/mol
# GULP energy per Si atom -5569.785554 kJ/mol
# Density = 2.203012 g / cm^3
# Si number density = 22.080377 Si / 1000 Ang^3
#
#
#
# Elastic Constant Matrix: (Units=GPa)
#
#
# Indices 1 2 3 4 5 6 
#
# 1 66.6870 9.1145 29.3737 -2.4229 5.6858 -9.9148
# 2 9.1145 108.6192 45.1826 8.1969 -13.3120 -16.2295
# 3 29.3737 45.1826 162.5495 -8.9589 -25.8136 -15.1943
# 4 -2.4229 8.1969 -8.9589 25.5562 -6.0046 -5.0468
# 5 5.6858 -13.3120 -25.8136 -6.0046 35.1708 -0.1562
# 6 -9.9148 -16.2295 -15.1943 -5.0468 -0.1562 18.9370
#
#
#
# Elastic Compliance Matrix: (Units=1/GPa)
#
#
# Indices 1 2 3 4 5 6 
#
# 1 0.017992 0.000301 -0.003483 0.000539 -0.005228 0.006984
# 2 0.000301 0.011795 -0.002397 -0.002548 0.002255 0.007682
# 3 -0.003483 -0.002397 0.009608 0.006788 0.007892 0.005706
# 4 0.000539 -0.002548 0.006788 0.048540 0.012291 0.016583
# 5 -0.005228 0.002255 0.007892 0.012291 0.038063 0.009118
# 6 0.006984 0.007682 0.005706 0.016583 0.009118 0.072120
#
#
# Mechanical properties :
#
#
# Convention : Reuss Voigt Hill
#
# Bulk Modulus (GPa) = 35.41302 56.13301 45.77302
# Shear Modulus (GPa) = 22.86369 32.87847 27.87108
#
# Velocity S-wave (km/s) = 3.22137 3.86299 3.55668
# Velocity P-wave (km/s) = 5.46895 6.73604 6.13529
#
# Compressibility (1/GPa) = 0.02823820
#
# Stress axis : x y z
#
# Youngs Moduli (GPa) = 55.58043 84.78233 104.07657
#
# Poissons Ratio (x) = -0.02553 0.36245
# Poissons Ratio (y) = -0.01674 0.24948
# Poissons Ratio (z) = 0.19356 0.20323
#
# Static dielectric constant tensor:
#      x y z
#    x 1.978180 0.013580 -0.071320 
#    y 0.013580 1.816160 0.002290 
#    z -0.071320 0.002290 1.803310 
# 
# From -- ./inp_files/252831.got.cif
#   From: 2010.05.17/outbox.cif.g08.bks.cpg/sg2_127_cif.got.tgz:252831.got - 2010.06.03 11:33:40.
