data_PCOD9077345
_publ_section_title
;
Structure prediction by ZEFSAII (Michael W. Deem and Ramdas Pophale) SiO2 
 PCOD9077345
Probable space group: P -1
;
_chemical_formula_sum "Si O2"
_cell_formula_units_Z 16
_cell_length_a 7.126996
_cell_length_b 13.637758
_cell_length_c 15.373923
_cell_angle_alpha 151.405492
_cell_angle_beta 111.711024
_cell_angle_gamma 64.000223
_cell_volume 642.408995
_symmetry_space_group_name_H-M "P -1"
_symmetry_group_IT_number 2
_symmetry_cell_setting 'triclinic'
loop_
_space_group_symop_operation_xyz
x,y,z
-x,-y,-z
loop_
_atom_site_type_symbol
_atom_site_label
_atom_site_fract_x
_atom_site_fract_y
_atom_site_fract_z
Si Si1 0.119701 0.097937 0.306816
Si Si2 0.322302 0.336084 0.936051
Si Si3 0.981463 0.771294 0.789515
Si Si4 0.487008 0.269100 0.286001
Si Si5 0.625294 0.564061 0.778101
Si Si6 0.912113 0.547764 0.297777
Si Si7 0.756349 0.357208 0.974196
Si Si8 0.405101 0.894651 0.647627
O O1 0.982753 0.233375 0.311540
O O2 0.085181 0.224393 0.488801
O O3 0.357246 0.087726 0.310821
O O4 0.100326 0.861548 0.133599
O O5 0.388845 0.374829 0.076086
O O6 0.532613 0.305762 0.890486
O O7 0.183261 0.545401 0.028429
O O8 0.264357 0.111874 0.752942
O O9 0.747418 0.751468 0.752893
O O10 0.123244 0.588336 0.730503
O O11 0.000000 0.000000 0.000000
O O12 0.500000 0.500000 0.500000
O O13 0.514270 0.271698 0.188222
O O14 0.627924 0.116271 0.262141
O O15 0.603841 0.326282 0.569916
O O16 0.862631 0.551999 0.782236
O O17 0.751908 0.532852 0.184115
#
# Coordination Sequence:
#
# PCOD9077345 Si02
#       8
#     2   2   2   2   2   2   2   2
#     4  10  20  37  61  84 114 151 188 237 284 341
#     4  10  22  39  61  79 111 153 193 247 280 331
#     4  10  18  34  58  89 119 149 193 237 287 349
#     4   8  17  34  56  83 119 150 185 232 285 354
#     4  10  21  37  56  85 118 148 186 231 293 349
#     4  11  22  36  59  87 118 149 184 237 294 345
#     4  10  22  40  58  85 109 146 205 239 281 335
#     4   9  19  38  59  81 112 150 194 228 281 345
#
# _framework density 24.906251999999999
#
# number of rings (size 3 to 8) (size 9 to 14) (size 15 to 20)
#    0.000    2.250    1.250    1.125    0.000    3.000 
#    0.000    6.250    0.000    0.000    0.000    0.000 
#    0.000    0.000    0.000    0.000    0.000    0.000 
#
# Total GULP energy -89441.608143 kJ/mol
# GULP energy per Si atom -5590.100509 kJ/mol
# Density = 2.484956 g / cm^3
# Si number density = 24.906252 Si / 1000 Ang^3
#
#
#
# Elastic Constant Matrix: (Units=GPa)
#
#
# Indices 1 2 3 4 5 6 
#
# 1 77.8995 9.4166 7.3559 9.1443 6.9422 17.9955
# 2 9.4166 144.8129 50.4536 14.6372 1.9198 13.5151
# 3 7.3559 50.4536 131.1544 1.1058 20.2248 8.7460
# 4 9.1443 14.6372 1.1058 37.9925 4.5599 8.9706
# 5 6.9422 1.9198 20.2248 4.5599 32.1710 4.3338
# 6 17.9955 13.5151 8.7460 8.9706 4.3338 23.0571
#
#
#
# Elastic Compliance Matrix: (Units=1/GPa)
#
#
# Indices 1 2 3 4 5 6 
#
# 1 0.015791 0.000138 0.000130 -0.000861 -0.001788 -0.011784
# 2 0.000138 0.008662 -0.003482 -0.002801 0.002476 -0.003240
# 3 0.000130 -0.003482 0.009996 0.002121 -0.006201 -0.001511
# 4 -0.000861 -0.002801 0.002121 0.030272 -0.003989 -0.009518
# 5 -0.001788 0.002476 -0.006201 -0.003989 0.036184 -0.002953
# 6 -0.011784 -0.003240 -0.001511 -0.009518 -0.002953 0.059298
#
#
# Mechanical properties :
#
#
# Convention : Reuss Voigt Hill
#
# Bulk Modulus (GPa) = 35.68723 54.25767 44.97245
# Shear Modulus (GPa) = 28.41377 37.75350 33.08364
#
# Velocity S-wave (km/s) = 3.38128 3.89758 3.64858
# Velocity P-wave (km/s) = 5.44094 6.48744 5.98710
#
# Compressibility (1/GPa) = 0.02802123
#
# Stress axis : x y z
#
# Youngs Moduli (GPa) = 63.32893 115.44127 100.03925
#
# Poissons Ratio (x) = -0.01598 -0.01299
# Poissons Ratio (y) = -0.00876 0.34836
# Poissons Ratio (z) = -0.00823 0.40199
#
# Static dielectric constant tensor:
#      x y z
#    x 2.024540 -0.030890 -0.023420 
#    y -0.030890 2.054020 0.027270 
#    z -0.023420 0.027270 1.902110 
# 
# From -- ./inp_files/283075.got.cif
#   From: 2010.05.17/outbox.cif.g08.bks.cpg/sg2_142_cif.got.tgz:283075.got - 2010.06.03 11:33:40.
