data_PCOD9077607
_publ_section_title
;
Structure prediction by ZEFSAII (Michael W. Deem and Ramdas Pophale) SiO2 
 PCOD9077607
Probable space group: P -1
;
_chemical_formula_sum "Si O2"
_cell_formula_units_Z 14
_cell_length_a 9.252007
_cell_length_b 12.314136
_cell_length_c 8.393135
_cell_angle_alpha 52.055754
_cell_angle_beta 48.142789
_cell_angle_gamma 51.710306
_cell_volume 524.776722
_symmetry_space_group_name_H-M "P -1"
_symmetry_group_IT_number 2
_symmetry_cell_setting 'triclinic'
loop_
_space_group_symop_operation_xyz
x,y,z
-x,-y,-z
loop_
_atom_site_type_symbol
_atom_site_label
_atom_site_fract_x
_atom_site_fract_y
_atom_site_fract_z
Si Si1 0.791035 0.445997 0.330473
Si Si2 0.387783 0.770081 0.526619
Si Si3 0.615958 0.821843 0.580339
Si Si4 0.198380 0.028915 0.248750
Si Si5 0.930993 0.364351 0.626593
Si Si6 0.053828 0.873180 0.944840
Si Si7 0.722568 0.691898 0.933434
O O1 0.718615 0.341744 0.360351
O O2 0.761686 0.411034 0.567672
O O3 0.961216 0.584019 0.816802
O O4 0.675426 0.606850 0.196524
O O5 0.592589 0.738545 0.509625
O O6 0.236098 0.862836 0.697340
O O7 0.380924 0.878431 0.288714
O O8 0.575176 0.738432 0.844191
O O9 0.500000 0.000000 0.500000
O O10 0.134291 0.225367 0.546477
O O11 0.244577 0.158905 0.181071
O O12 0.149226 0.077227 0.060813
O O13 0.000000 0.000000 0.500000
O O14 0.000000 0.500000 0.500000
O O15 0.873903 0.290465 0.889249
O O16 0.000000 0.000000 0.000000
#
# Coordination Sequence:
#
# PCOD9077607 Si02
#       7
#     2   2   2   2   2   2   2
#     4  10  21  38  65  90 121 178 217 254 308 404
#     4  11  22  39  65  94 124 165 228 263 309 384
#     4  11  23  40  68  99 129 168 217 271 320 380
#     4  10  18  34  61  89 121 167 219 256 306 395
#     4  11  25  44  67  95 134 168 213 269 330 378
#     4  11  22  36  63  94 129 168 214 266 321 378
#     4  10  19  35  63  91 120 161 225 253 302 381
#
# _framework density 26.678013
#
# number of rings (size 3 to 8) (size 9 to 14) (size 15 to 20)
#    0.000    1.429    4.286    2.571    8.000    0.571 
#    0.000    1.429    6.286    0.000    0.000    0.000 
#    0.000    0.000    0.000    0.000    0.000    0.000 
#
# Total GULP energy -78213.223408 kJ/mol
# GULP energy per Si atom -5586.658815 kJ/mol
# Density = 2.661729 g / cm^3
# Si number density = 26.678013 Si / 1000 Ang^3
#
#
#
# Elastic Constant Matrix: (Units=GPa)
#
#
# Indices 1 2 3 4 5 6 
#
# 1 114.0667 44.2429 62.3390 -3.1337 39.6347 20.6807
# 2 44.2429 125.9924 38.9480 -27.3354 18.1314 19.9526
# 3 62.3390 38.9480 167.5775 -26.5920 59.7436 23.2434
# 4 -3.1337 -27.3354 -26.5920 38.1134 -5.2650 5.1118
# 5 39.6347 18.1314 59.7436 -5.2650 55.9811 13.9006
# 6 20.6807 19.9526 23.2434 5.1118 13.9006 64.1960
#
#
#
# Elastic Compliance Matrix: (Units=1/GPa)
#
#
# Indices 1 2 3 4 5 6 
#
# 1 0.013847 -0.004033 -0.002752 -0.004398 -0.005826 -0.000599
# 2 -0.004033 0.011586 0.000648 0.008874 0.000054 -0.003255
# 3 -0.002752 0.000648 0.011695 0.007358 -0.009537 -0.002070
# 4 -0.004398 0.008874 0.007358 0.037909 -0.002435 -0.006497
# 5 -0.005826 0.000054 -0.009537 -0.002435 0.032288 -0.001485
# 6 -0.000599 -0.003255 -0.002070 -0.006497 -0.001485 0.018370
#
#
# Mechanical properties :
#
#
# Convention : Reuss Voigt Hill
#
# Bulk Modulus (GPa) = 40.23390 77.63294 58.93342
# Shear Modulus (GPa) = 34.18724 49.13186 41.65955
#
# Velocity S-wave (km/s) = 3.58365 4.29611 3.95596
# Velocity P-wave (km/s) = 5.67781 7.33293 6.55780
#
# Compressibility (1/GPa) = 0.02485466
#
# Stress axis : x y z
#
# Youngs Moduli (GPa) = 72.21865 86.31285 85.50457
#
# Poissons Ratio (x) = 0.34807 0.23527
# Poissons Ratio (y) = 0.29124 -0.05538
# Poissons Ratio (z) = 0.19871 -0.05590
#
# Static dielectric constant tensor:
#      x y z
#    x 2.537860 -0.067180 0.030430 
#    y -0.067180 2.134970 0.131660 
#    z 0.030430 0.131660 2.309500 
# 
# From -- ./inp_files/251656.got.cif
#   From: 2010.05.17/outbox.cif.g08.bks.cpg/sg2_126_cif.got.tgz:251656.got - 2010.06.03 11:33:40.
