data_PCOD9077224
_publ_section_title
;
Structure prediction by ZEFSAII (Michael W. Deem and Ramdas Pophale) SiO2 
 PCOD9077224
Probable space group: P -1
;
_chemical_formula_sum "Si O2"
_cell_formula_units_Z 16
_cell_length_a 13.348776
_cell_length_b 9.340785
_cell_length_c 12.360970
_cell_angle_alpha 110.601259
_cell_angle_beta 137.860853
_cell_angle_gamma 53.497285
_cell_volume 819.770371
_symmetry_space_group_name_H-M "P -1"
_symmetry_group_IT_number 2
_symmetry_cell_setting 'triclinic'
loop_
_space_group_symop_operation_xyz
x,y,z
-x,-y,-z
loop_
_atom_site_type_symbol
_atom_site_label
_atom_site_fract_x
_atom_site_fract_y
_atom_site_fract_z
Si Si1 0.083746 0.307457 0.452691
Si Si2 0.181485 0.848771 0.163869
Si Si3 0.723474 0.528830 0.159748
Si Si4 0.051651 0.299056 0.013670
Si Si5 0.308016 0.005608 0.973977
Si Si6 0.699566 0.891438 0.233972
Si Si7 0.563908 0.340183 0.877341
Si Si8 0.711660 0.889957 0.630784
O O1 0.175063 0.154674 0.575849
O O2 0.223268 0.251452 0.453327
O O3 0.000000 0.500000 0.500000
O O4 0.909366 0.343028 0.263169
O O5 0.348478 0.745363 0.189183
O O6 0.231638 0.964583 0.310686
O O7 0.122166 0.713690 0.119204
O O8 0.000000 0.000000 0.000000
O O9 0.736969 0.694859 0.174389
O O10 0.636240 0.580860 0.223738
O O11 0.600693 0.495716 0.976255
O O12 0.161672 0.172228 0.968172
O O13 0.179200 0.213261 0.199685
O O14 0.000000 0.500000 0.000000
O O15 0.494413 0.995084 0.130183
O O16 0.335703 0.826500 0.002837
O O17 0.270949 0.018027 0.820411
O O18 0.500000 0.000000 0.500000
#
# Coordination Sequence:
#
# PCOD9077224 Si02
#       8
#     2   2   2   2   2   2   2   2
#     4  10  21  34  58  84 119 149 199 239 293 356
#     4  10  20  37  60  87 117 158 207 253 293 366
#     4   9  19  32  57  82 113 148 194 246 287 350
#     4  11  24  38  63  92 119 156 206 260 305 356
#     4  10  19  35  57  80 119 146 194 238 303 346
#     4   9  20  35  55  84 115 153 188 244 290 363
#     4  10  18  34  57  84 114 148 200 241 297 352
#     4  11  23  40  67  89 121 167 205 247 310 371
#
# _framework density 19.517662000000001
#
# number of rings (size 3 to 8) (size 9 to 14) (size 15 to 20)
#    0.000    2.000    2.500    2.250    8.750    0.000 
#    0.000    1.250    0.000    0.000    0.000    0.000 
#    0.000    0.000    0.000    0.000    0.000    0.000 
#
# Total GULP energy -89088.618851 kJ/mol
# GULP energy per Si atom -5568.038678 kJ/mol
# Density = 1.947324 g / cm^3
# Si number density = 19.517662 Si / 1000 Ang^3
#
#
#
# Elastic Constant Matrix: (Units=GPa)
#
#
# Indices 1 2 3 4 5 6 
#
# 1 91.5799 35.2728 17.0878 -10.3414 -1.2845 -13.5252
# 2 35.2728 71.1324 7.7552 3.4437 8.7950 0.4574
# 3 17.0878 7.7552 49.0725 -8.3984 9.0104 1.1276
# 4 -10.3414 3.4437 -8.3984 30.4877 -3.0114 2.5797
# 5 -1.2845 8.7950 9.0104 -3.0114 20.4628 -0.4769
# 6 -13.5252 0.4574 1.1276 2.5797 -0.4769 46.3101
#
#
#
# Elastic Compliance Matrix: (Units=1/GPa)
#
#
# Indices 1 2 3 4 5 6 
#
# 1 0.016870 -0.009135 -0.005060 0.005753 0.008174 0.004904
# 2 -0.009135 0.020091 0.000998 -0.005912 -0.010580 -0.002670
# 3 -0.005060 0.000998 0.024781 0.004106 -0.011111 -0.002434
# 4 0.005753 -0.005912 0.004106 0.037230 0.006565 -0.000368
# 5 0.008174 -0.010580 -0.011111 0.006565 0.059858 0.003013
# 6 0.004904 -0.002670 -0.002434 -0.000368 0.003013 0.023163
#
#
# Mechanical properties :
#
#
# Convention : Reuss Voigt Hill
#
# Bulk Modulus (GPa) = 28.28942 36.89070 32.59006
# Shear Modulus (GPa) = 22.70976 29.56338 26.13657
#
# Velocity S-wave (km/s) = 3.41478 3.89614 3.66337
# Velocity P-wave (km/s) = 5.48392 6.25956 5.88453
#
# Compressibility (1/GPa) = 0.03534890
#
# Stress axis : x y z
#
# Youngs Moduli (GPa) = 59.27540 49.77428 40.35353
#
# Poissons Ratio (x) = 0.45467 0.20419
# Poissons Ratio (y) = 0.54146 -0.04027
# Poissons Ratio (z) = 0.29993 -0.04968
#
# Static dielectric constant tensor:
#      x y z
#    x 1.722630 -0.022420 0.021480 
#    y -0.022420 1.739960 0.001620 
#    z 0.021480 0.001620 1.741020 
# 
# From -- ./inp_files/419558.got.cif
#   From: 2010.05.17/outbox.cif.g08.bks.cpg/sg2_210_cif.got.tgz:419558.got - 2010.06.03 11:33:40.
