data_PCOD9077554
_publ_section_title
;
Structure prediction by ZEFSAII (Michael W. Deem and Ramdas Pophale) SiO2 
 PCOD9077554
Probable space group: P -1
;
_chemical_formula_sum "Si O2"
_cell_formula_units_Z 13
_cell_length_a 8.687597
_cell_length_b 8.817783
_cell_length_c 8.337444
_cell_angle_alpha 74.491416
_cell_angle_beta 75.768318
_cell_angle_gamma 114.684169
_cell_volume 510.459374
_symmetry_space_group_name_H-M "P -1"
_symmetry_group_IT_number 2
_symmetry_cell_setting 'triclinic'
loop_
_space_group_symop_operation_xyz
x,y,z
-x,-y,-z
loop_
_atom_site_type_symbol
_atom_site_label
_atom_site_fract_x
_atom_site_fract_y
_atom_site_fract_z
Si Si1 0.483749 0.304110 0.584786
Si Si2 0.925689 0.009132 0.240892
Si Si3 0.901177 0.299068 0.001944
Si Si4 0.797791 0.467916 0.716411
Si Si5 0.489961 0.830860 0.731692
Si Si6 0.877247 0.139811 0.570976
Si Si7 0.500000 0.500000 0.000000
O O1 0.500000 0.500000 0.500000
O O2 0.271389 0.156390 0.725401
O O3 0.638283 0.350871 0.663322
O O4 0.521986 0.234350 0.429037
O O5 0.059035 0.934956 0.274555
O O6 0.996628 0.183023 0.054638
O O7 0.895906 0.066209 0.410669
O O8 0.700898 0.185813 0.167915
O O9 0.863006 0.342139 0.822480
O O10 0.000000 0.500000 0.000000
O O11 0.692912 0.534592 0.846458
O O12 0.977462 0.644982 0.547118
O O13 0.522239 0.687563 0.863870
O O14 0.656623 0.033990 0.666615
#
# Coordination Sequence:
#
# PCOD9077554 Si02
#       7
#     2   2   2   2   2   2   1
#     4  11  20  38  63  97 127 168 203 267 309 374
#     4  10  20  36  65  89 126 162 210 251 317 364
#     4  11  24  42  65  94 127 167 208 269 313 379
#     4  11  21  39  66  89 131 161 211 259 316 364
#     4  10  23  37  67  94 125 161 220 256 320 364
#     4  10  19  37  65  95 113 166 221 257 290 384
#     4  10  18  34  60  94 116 166 204 252 300 374
#
# _framework density 25.467257
#
# number of rings (size 3 to 8) (size 9 to 14) (size 15 to 20)
#    0.000    1.538    4.615    1.846    2.154    3.077 
#    0.000    0.769    6.769   16.615    0.000    0.000 
#    0.000    0.000    0.000    0.000    0.000    0.000 
#
# Total GULP energy -72567.961344 kJ/mol
# GULP energy per Si atom -5582.150873 kJ/mol
# Density = 2.540929 g / cm^3
# Si number density = 25.467257 Si / 1000 Ang^3
#
#
#
# Elastic Constant Matrix: (Units=GPa)
#
#
# Indices 1 2 3 4 5 6 
#
# 1 117.4982 93.5586 80.9988 -15.1222 19.4885 11.1186
# 2 93.5586 143.5107 55.2211 -20.9397 23.3489 25.4705
# 3 80.9988 55.2211 125.4081 -18.8033 29.2298 5.9994
# 4 -15.1222 -20.9397 -18.8033 28.3759 -7.9700 9.4192
# 5 19.4885 23.3489 29.2298 -7.9700 67.8809 -7.6048
# 6 11.1186 25.4705 5.9994 9.4192 -7.6048 64.5545
#
#
#
# Elastic Compliance Matrix: (Units=1/GPa)
#
#
# Indices 1 2 3 4 5 6 
#
# 1 0.028075 -0.015051 -0.013026 -0.005194 0.002493 0.003365
# 2 -0.015051 0.018332 0.004218 0.009607 -0.003439 -0.006840
# 3 -0.013026 0.004218 0.016692 0.006827 -0.004376 -0.002484
# 4 -0.005194 0.009607 0.006827 0.047472 -0.000356 -0.010499
# 5 0.002493 -0.003439 -0.004376 -0.000356 0.017427 0.003439
# 6 0.003365 -0.006840 -0.002484 -0.010499 0.003439 0.019778
#
#
# Mechanical properties :
#
#
# Convention : Reuss Voigt Hill
#
# Bulk Modulus (GPa) = 65.01536 93.99710 79.50623
# Shear Modulus (GPa) = 24.92256 42.60483 33.76369
#
# Velocity S-wave (km/s) = 3.13167 4.09458 3.64506
# Velocity P-wave (km/s) = 6.21779 7.70346 7.00015
#
# Compressibility (1/GPa) = 0.01538098
#
# Stress axis : x y z
#
# Youngs Moduli (GPa) = 35.61924 54.54795 59.90733
#
# Poissons Ratio (x) = 0.82100 0.78038
# Poissons Ratio (y) = 0.53611 -0.25269
# Poissons Ratio (z) = 0.46399 -0.23009
#
# Static dielectric constant tensor:
#      x y z
#    x 1.758060 0.097380 -0.206490 
#    y 0.097380 1.949480 0.171050 
#    z -0.206490 0.171050 1.875670 
# 
# From -- ./inp_files/153436.got.cif
#   From: 2010.05.17/outbox.cif.g08.bks.cpg/sg2_77_cif.got.tgz:153436.got - 2010.06.03 11:33:40.
