data_PCOD9077388
_publ_section_title
;
Structure prediction by ZEFSAII (Michael W. Deem and Ramdas Pophale) SiO2 
 PCOD9077388
Probable space group: P -1
;
_chemical_formula_sum "Si O2"
_cell_formula_units_Z 14
_cell_length_a 13.433307
_cell_length_b 10.892907
_cell_length_c 11.326776
_cell_angle_alpha 43.061403
_cell_angle_beta 58.181370
_cell_angle_gamma 33.455259
_cell_volume 608.757359
_symmetry_space_group_name_H-M "P -1"
_symmetry_group_IT_number 2
_symmetry_cell_setting 'triclinic'
loop_
_space_group_symop_operation_xyz
x,y,z
-x,-y,-z
loop_
_atom_site_type_symbol
_atom_site_label
_atom_site_fract_x
_atom_site_fract_y
_atom_site_fract_z
Si Si1 0.852009 0.701347 0.744798
Si Si2 0.462205 0.117794 0.072332
Si Si3 0.570263 0.392989 0.781652
Si Si4 0.750503 0.219359 0.458489
Si Si5 0.092399 0.834101 0.367687
Si Si6 0.632527 0.015426 0.418074
Si Si7 0.786855 0.690501 0.327429
O O1 0.746173 0.680201 0.902182
O O2 0.067999 0.419067 0.785203
O O3 0.811146 0.947165 0.651027
O O4 0.759169 0.828240 0.584178
O O5 0.595713 0.863360 0.262323
O O6 0.520915 0.254898 0.955146
O O7 0.500000 0.000000 0.000000
O O8 0.458632 0.528936 0.631314
O O9 0.786817 0.173571 0.779566
O O10 0.482636 0.664988 0.715643
O O11 0.811585 0.275302 0.485632
O O12 0.878200 0.115045 0.336895
O O13 0.126881 0.591981 0.470659
O O14 0.500000 0.000000 0.500000
O O15 0.749409 0.877595 0.321577
#
# Coordination Sequence:
#
# PCOD9077388 Si02
#       7
#     2   2   2   2   2   2   2
#     4  10  22  40  63  87 117 155 197 246 295 341
#     4  12  25  39  58  89 127 161 188 230 298 365
#     4  11  22  35  57  84 118 152 190 237 292 345
#     4   9  19  34  57  85 109 145 202 245 286 336
#     4  10  18  34  59  83 109 149 197 248 286 332
#     4  11  20  42  66  86 113 150 207 253 287 333
#     4  11  22  40  63  87 117 157 198 245 291 343
#
# _framework density 22.997668000000001
#
# number of rings (size 3 to 8) (size 9 to 14) (size 15 to 20)
#    0.000    1.429    2.857    3.429    0.000    2.286 
#    0.000    0.714    0.000    0.000    0.000    0.000 
#    0.000    0.000    0.000    0.000    0.000    0.000 
#
# Total GULP energy -78252.951729 kJ/mol
# GULP energy per Si atom -5589.496552 kJ/mol
# Density = 2.294532 g / cm^3
# Si number density = 22.997668 Si / 1000 Ang^3
#
#
#
# Elastic Constant Matrix: (Units=GPa)
#
#
# Indices 1 2 3 4 5 6 
#
# 1 78.3905 16.0814 8.6198 1.6104 -18.9636 7.2723
# 2 16.0814 72.3849 15.7232 23.3291 -15.6246 -5.4547
# 3 8.6198 15.7232 49.6550 9.0484 -29.7265 4.3703
# 4 1.6104 23.3291 9.0484 30.7035 -8.1152 -11.2796
# 5 -18.9636 -15.6246 -29.7265 -8.1152 46.7906 10.7175
# 6 7.2723 -5.4547 4.3703 -11.2796 10.7175 48.4926
#
#
#
# Elastic Compliance Matrix: (Units=1/GPa)
#
#
# Indices 1 2 3 4 5 6 
#
# 1 0.015564 -0.003025 0.003931 0.000952 0.009062 -0.004810
# 2 -0.003025 0.019810 -0.001977 -0.014123 0.001876 -0.000840
# 3 0.003931 -0.001977 0.038580 -0.007351 0.026904 -0.011945
# 4 0.000952 -0.014123 -0.007351 0.048617 -0.003069 0.010918
# 5 0.009062 0.001876 0.026904 -0.003069 0.045517 -0.014346
# 6 -0.004810 -0.000840 -0.011945 0.010918 -0.014346 0.028035
#
#
# Mechanical properties :
#
#
# Convention : Reuss Voigt Hill
#
# Bulk Modulus (GPa) = 13.92528 31.25325 22.58927
# Shear Modulus (GPa) = 22.50200 35.86438 29.18319
#
# Velocity S-wave (km/s) = 3.13141 3.95331 3.56612
# Velocity P-wave (km/s) = 4.37522 5.87005 5.17687
#
# Compressibility (1/GPa) = 0.07181184
#
# Stress axis : x y z
#
# Youngs Moduli (GPa) = 64.25182 50.47952 25.92018
#
# Poissons Ratio (x) = 0.15268 -0.10189
# Poissons Ratio (y) = 0.19434 0.05125
# Poissons Ratio (z) = -0.25257 0.09981
#
# Static dielectric constant tensor:
#      x y z
#    x 1.846200 -0.001650 -0.023720 
#    y -0.001650 1.908660 0.038000 
#    z -0.023720 0.038000 1.896790 
# 
# From -- ./inp_files/250962.got.cif
#   From: 2010.05.17/outbox.cif.g08.bks.cpg/sg2_126_cif.got.tgz:250962.got - 2010.06.03 11:33:40.
