data_PCOD9077172
_publ_section_title
;
Structure prediction by ZEFSAII (Michael W. Deem and Ramdas Pophale) SiO2 
 PCOD9077172
Probable space group: P -1
;
_chemical_formula_sum "Si O2"
_cell_formula_units_Z 14
_cell_length_a 5.295474
_cell_length_b 12.536930
_cell_length_c 8.573261
_cell_angle_alpha 81.909873
_cell_angle_beta 94.257778
_cell_angle_gamma 75.247480
_cell_volume 541.315691
_symmetry_space_group_name_H-M "P -1"
_symmetry_group_IT_number 2
_symmetry_cell_setting 'triclinic'
loop_
_space_group_symop_operation_xyz
x,y,z
-x,-y,-z
loop_
_atom_site_type_symbol
_atom_site_label
_atom_site_fract_x
_atom_site_fract_y
_atom_site_fract_z
Si Si1 0.419344 0.277311 0.654140
Si Si2 0.130901 0.071822 0.877510
Si Si3 0.470742 0.582389 0.628353
Si Si4 0.943944 0.524177 0.234872
Si Si5 0.484210 0.891420 0.733941
Si Si6 0.333151 0.273042 0.979190
Si Si7 0.274177 0.934888 0.391862
O O1 0.556504 0.307181 0.498492
O O2 0.149123 0.376650 0.652218
O O3 0.526874 0.275578 0.838786
O O4 0.447059 0.148607 0.640919
O O5 0.185404 0.180728 0.935674
O O6 0.935822 0.101696 0.714931
O O7 0.380808 0.975308 0.852971
O O8 0.000000 0.000000 0.000000
O O9 0.500000 0.500000 0.500000
O O10 0.237130 0.560056 0.725825
O O11 0.753446 0.539206 0.730842
O O12 0.858272 0.603396 0.064511
O O13 0.275952 0.916008 0.579673
O O14 0.719753 0.938053 0.668733
O O15 0.547232 0.769917 0.839823
#
# Coordination Sequence:
#
# PCOD9077172 Si02
#       7
#     2   2   2   2   2   2   2
#     4   9  19  34  57  86 110 153 198 247 300 355
#     4  12  22  35  61  85 116 154 206 253 291 352
#     4  10  18  34  56  91 122 148 197 263 312 350
#     4   9  21  33  60  90 120 152 199 264 305 356
#     4  11  22  42  51  84 121 161 195 241 307 361
#     4  10  21  35  59  85 117 148 207 244 301 350
#     4  11  23  37  59  79 123 158 195 246 299 373
#
# _framework density 25.862912999999999
#
# number of rings (size 3 to 8) (size 9 to 14) (size 15 to 20)
#    0.857    0.857    2.857    3.429    4.000    0.000 
#    0.000    0.000    0.000    1.714    0.000    0.000 
#    0.000    0.143    0.000    0.000    0.000    0.000 
#
# Total GULP energy -78043.909865 kJ/mol
# GULP energy per Si atom -5574.564990 kJ/mol
# Density = 2.580405 g / cm^3
# Si number density = 25.862913 Si / 1000 Ang^3
#
#
#
# Elastic Constant Matrix: (Units=GPa)
#
#
# Indices 1 2 3 4 5 6 
#
# 1 114.2120 15.5151 47.9718 -18.0543 8.1087 6.7702
# 2 15.5151 77.5723 28.6930 -21.9495 -12.6134 -9.3469
# 3 47.9718 28.6930 208.5951 -39.7912 15.7043 6.6116
# 4 -18.0543 -21.9495 -39.7912 54.4920 5.6224 -11.1105
# 5 8.1087 -12.6134 15.7043 5.6224 24.2518 0.5720
# 6 6.7702 -9.3469 6.6116 -11.1105 0.5720 13.4077
#
#
#
# Elastic Compliance Matrix: (Units=1/GPa)
#
#
# Indices 1 2 3 4 5 6 
#
# 1 0.010450 -0.002779 -0.001439 0.000495 -0.003983 -0.005924
# 2 -0.002779 0.022135 -0.001971 0.010833 0.010585 0.026331
# 3 -0.001439 -0.001971 0.006623 0.004109 -0.005779 -0.000262
# 4 0.000495 0.010833 0.004109 0.033198 -0.005667 0.033027
# 5 -0.003983 0.010585 -0.005779 -0.005667 0.053003 0.005283
# 6 -0.005924 0.026331 -0.000262 0.033027 0.005283 0.123204
#
#
# Mechanical properties :
#
#
# Convention : Reuss Voigt Hill
#
# Bulk Modulus (GPa) = 37.27103 64.97102 51.12102
# Shear Modulus (GPa) = 18.52307 38.97693 28.75000
#
# Velocity S-wave (km/s) = 2.67910 3.88630 3.33773
# Velocity P-wave (km/s) = 4.90024 6.73154 5.88753
#
# Compressibility (1/GPa) = 0.02683049
#
# Stress axis : x y z
#
# Youngs Moduli (GPa) = 95.69622 45.17707 150.98667
#
# Poissons Ratio (x) = 0.12556 0.21725
# Poissons Ratio (y) = 0.26596 0.29755
# Poissons Ratio (z) = 0.13769 0.08903
#
# Static dielectric constant tensor:
#      x y z
#    x 2.248650 0.052620 -0.209250 
#    y 0.052620 2.204590 -0.205120 
#    z -0.209250 -0.205120 2.352800 
# 
# From -- ./inp_files/134091.got.cif
#   From: 2010.05.17/outbox.cif.g08.bks.cpg/sg2_68_cif.got.tgz:134091.got - 2010.06.03 11:33:40.
