data_PCOD9077085
_publ_section_title
;
Structure prediction by ZEFSAII (Michael W. Deem and Ramdas Pophale) SiO2 
 PCOD9077085
Probable space group: P -1
;
_chemical_formula_sum "Si O2"
_cell_formula_units_Z 14
_cell_length_a 12.774455
_cell_length_b 23.350452
_cell_length_c 15.345996
_cell_angle_alpha 18.414619
_cell_angle_beta 29.183410
_cell_angle_gamma 38.015945
_cell_volume 680.249526
_symmetry_space_group_name_H-M "P -1"
_symmetry_group_IT_number 2
_symmetry_cell_setting 'triclinic'
loop_
_space_group_symop_operation_xyz
x,y,z
-x,-y,-z
loop_
_atom_site_type_symbol
_atom_site_label
_atom_site_fract_x
_atom_site_fract_y
_atom_site_fract_z
Si Si1 0.873257 0.660293 0.351478
Si Si2 0.916636 0.195999 0.176237
Si Si3 0.751641 0.575091 0.742012
Si Si4 0.133706 0.338894 0.116413
Si Si5 0.332736 0.813035 0.355842
Si Si6 0.622051 0.530323 0.082612
Si Si7 0.312448 0.205223 0.010913
O O1 0.855831 0.715671 0.385111
O O2 0.636117 0.555183 0.631350
O O3 0.000000 0.500000 0.500000
O O4 0.007431 0.809972 0.970157
O O5 0.126258 0.209612 0.067502
O O6 0.735889 0.007728 0.609127
O O7 0.844593 0.390724 0.950064
O O8 0.500000 0.500000 0.000000
O O9 0.742966 0.642760 0.749019
O O10 0.268559 0.333392 0.937374
O O11 0.910492 0.168297 0.516988
O O12 0.301890 0.349546 0.059033
O O13 0.000000 0.500000 0.000000
O O14 0.305113 0.660129 0.673800
O O15 0.455381 0.747836 0.277912
O O16 0.500000 0.000000 0.000000
#
# Coordination Sequence:
#
# PCOD9077085 Si02
#       7
#     2   2   2   2   2   2   2
#     4   9  18  33  56  84 104 149 200 245 279 336
#     4  10  18  34  55  89 114 143 200 244 293 349
#     4   9  18  33  58  81 108 152 199 249 284 333
#     4  10  23  37  53  86 129 159 192 234 297 368
#     4  11  21  36  59  90 120 155 191 234 301 364
#     4  10  19  36  53  84 116 146 192 243 285 349
#     4  11  21  35  58  88 124 155 185 244 305 361
#
# _framework density 20.580684000000002
#
# number of rings (size 3 to 8) (size 9 to 14) (size 15 to 20)
#    0.000    2.000    1.429    4.286    0.000    2.286 
#    5.143    0.000    0.000    8.571    0.000    0.000 
#    0.000    0.000    0.000    0.000    0.000    0.000 
#
# Total GULP energy -77951.386423 kJ/mol
# GULP energy per Si atom -5567.956173 kJ/mol
# Density = 2.053384 g / cm^3
# Si number density = 20.580684 Si / 1000 Ang^3
#
#
#
# Elastic Constant Matrix: (Units=GPa)
#
#
# Indices 1 2 3 4 5 6 
#
# 1 118.9885 23.5395 37.0440 9.7536 29.9328 11.8843
# 2 23.5395 69.0536 7.8303 12.1312 9.4289 6.2624
# 3 37.0440 7.8303 48.3018 15.8983 14.9516 6.5242
# 4 9.7536 12.1312 15.8983 32.5932 11.0421 9.4733
# 5 29.9328 9.4289 14.9516 11.0421 35.6303 14.4027
# 6 11.8843 6.2624 6.5242 9.4733 14.4027 46.1314
#
#
#
# Elastic Compliance Matrix: (Units=1/GPa)
#
#
# Indices 1 2 3 4 5 6 
#
# 1 0.013423 -0.003217 -0.008635 0.004156 -0.008030 -0.000146
# 2 -0.003217 0.016487 0.001923 -0.005841 -0.000530 -0.000317
# 3 -0.008635 0.001923 0.032135 -0.013060 -0.003127 0.001077
# 4 0.004156 -0.005841 -0.013060 0.041903 -0.007561 -0.004675
# 5 -0.008030 -0.000530 -0.003127 -0.007561 0.042271 -0.009062
# 6 -0.000146 -0.000317 0.001077 -0.004675 -0.009062 0.025395
#
#
# Mechanical properties :
#
#
# Convention : Reuss Voigt Hill
#
# Bulk Modulus (GPa) = 23.70336 41.46351 32.58343
# Shear Modulus (GPa) = 24.32687 34.06631 29.19659
#
# Velocity S-wave (km/s) = 3.44179 4.07290 3.77057
# Velocity P-wave (km/s) = 5.22846 6.50450 5.90108
#
# Compressibility (1/GPa) = 0.04218810
#
# Stress axis : x y z
#
# Youngs Moduli (GPa) = 74.49873 60.65356 31.11840
#
# Poissons Ratio (x) = 0.19511 0.26872
# Poissons Ratio (y) = 0.23965 -0.05986
# Poissons Ratio (z) = 0.64332 -0.11667
#
# Static dielectric constant tensor:
#      x y z
#    x 1.760350 0.057810 0.003670 
#    y 0.057810 1.808780 0.014720 
#    z 0.003670 0.014720 1.787660 
# 
# From -- ./inp_files/177529.got.cif
#   From: 2010.05.17/outbox.cif.g08.bks.cpg/sg2_89_cif.got.tgz:177529.got - 2010.06.03 11:33:40.
