data_PCOD9077348
_publ_section_title
;
Structure prediction by ZEFSAII (Michael W. Deem and Ramdas Pophale) SiO2 
 PCOD9077348
Probable space group: P -1
;
_chemical_formula_sum "Si O2"
_cell_formula_units_Z 14
_cell_length_a 19.287437
_cell_length_b 14.171430
_cell_length_c 9.449088
_cell_angle_alpha 33.782494
_cell_angle_beta 32.377901
_cell_angle_gamma 30.652876
_cell_volume 651.298114
_symmetry_space_group_name_H-M "P -1"
_symmetry_group_IT_number 2
_symmetry_cell_setting 'triclinic'
loop_
_space_group_symop_operation_xyz
x,y,z
-x,-y,-z
loop_
_atom_site_type_symbol
_atom_site_label
_atom_site_fract_x
_atom_site_fract_y
_atom_site_fract_z
Si Si1 0.101059 0.242590 0.238913
Si Si2 0.011060 0.181653 0.182998
Si Si3 0.416146 0.421445 0.898468
Si Si4 0.853963 0.323293 0.778999
Si Si5 0.340856 0.173540 0.123729
Si Si6 0.726234 0.234790 0.490611
Si Si7 0.859858 0.922122 0.209932
O O1 0.221178 0.276553 0.071574
O O2 0.058013 0.279168 0.102757
O O3 0.944652 0.344200 0.468691
O O4 0.182429 0.998737 0.415298
O O5 0.842718 0.298339 0.260662
O O6 0.000000 0.000000 0.500000
O O7 0.125921 0.116651 0.934056
O O8 0.598610 0.290259 0.761285
O O9 0.364862 0.636115 0.650054
O O10 0.305179 0.480250 0.149520
O O11 0.376024 0.310535 0.988374
O O12 0.975054 0.241989 0.801794
O O13 0.833585 0.139863 0.006555
O O14 0.262773 0.096528 0.464900
O O15 0.500000 0.000000 0.000000
#
# Coordination Sequence:
#
# PCOD9077348 Si02
#       7
#     2   2   2   2   2   2   2
#     4  10  20  38  64  81 115 151 193 227 280 348
#     4  10  18  37  63  85 109 154 193 229 273 346
#     4  11  21  33  58  86 121 138 189 247 286 318
#     4  10  18  34  58  90 104 145 199 238 266 328
#     4  11  23  37  56  85 118 152 188 233 291 339
#     4  10  19  35  59  86 107 150 189 240 276 329
#     4  10  19  34  60  84 115 147 196 229 276 343
#
# _framework density 21.495532000000001
#
# number of rings (size 3 to 8) (size 9 to 14) (size 15 to 20)
#    0.000    1.714    5.714    1.714    2.000    2.286 
#    0.000    2.143    0.000    0.000    0.000    0.000 
#    0.000    0.000    0.000    0.000    0.000    0.000 
#
# Total GULP energy -78144.922659 kJ/mol
# GULP energy per Si atom -5581.780190 kJ/mol
# Density = 2.144661 g / cm^3
# Si number density = 21.495532 Si / 1000 Ang^3
#
#
#
# Elastic Constant Matrix: (Units=GPa)
#
#
# Indices 1 2 3 4 5 6 
#
# 1 92.8808 13.2422 50.5993 20.8906 9.5870 19.0198
# 2 13.2422 71.2200 51.4467 33.2797 1.5556 12.6075
# 3 50.5993 51.4467 120.6252 43.4457 4.6347 7.0079
# 4 20.8906 33.2797 43.4457 51.7902 4.8392 5.2488
# 5 9.5870 1.5556 4.6347 4.8392 39.1337 6.6844
# 6 19.0198 12.6075 7.0079 5.2488 6.6844 20.2951
#
#
#
# Elastic Compliance Matrix: (Units=1/GPa)
#
#
# Indices 1 2 3 4 5 6 
#
# 1 0.019255 0.007888 -0.009185 -0.003190 -0.000330 -0.018840
# 2 0.007888 0.028834 -0.010567 -0.011117 0.002920 -0.019741
# 3 -0.009185 -0.010567 0.018118 -0.005723 -0.000576 0.010586
# 4 -0.003190 -0.011117 -0.005723 0.032356 -0.002859 0.004445
# 5 -0.000330 0.002920 -0.000576 -0.002859 0.027589 -0.009652
# 6 -0.018840 -0.019741 0.010586 0.004445 -0.009652 0.077566
#
#
# Mechanical properties :
#
#
# Convention : Reuss Voigt Hill
#
# Bulk Modulus (GPa) = 23.54188 57.25582 40.39885
# Shear Modulus (GPa) = 20.69473 33.53965 27.11719
#
# Velocity S-wave (km/s) = 3.10618 3.95436 3.55565
# Velocity P-wave (km/s) = 4.88265 6.89516 5.97426
#
# Compressibility (1/GPa) = 0.04247749
#
# Stress axis : x y z
#
# Youngs Moduli (GPa) = 51.93396 34.68180 55.19283
#
# Poissons Ratio (x) = -0.27356 0.50694
# Poissons Ratio (y) = -0.40964 0.58325
# Poissons Ratio (z) = 0.47701 0.36650
#
# Static dielectric constant tensor:
#      x y z
#    x 1.831310 -0.022110 0.008640 
#    y -0.022110 1.829670 -0.007370 
#    z 0.008640 -0.007370 1.830410 
# 
# From -- ./inp_files/197980.got.cif
#   From: 2010.05.17/outbox.cif.g08.bks.cpg/sg2_99_cif.got.tgz:197980.got - 2010.06.03 11:33:40.
