data_PCOD9077864
_publ_section_title
;
Structure prediction by ZEFSAII (Michael W. Deem and Ramdas Pophale) SiO2 
 PCOD9077864
Probable space group: P -1
;
_chemical_formula_sum "Si O2"
_cell_formula_units_Z 15
_cell_length_a 20.597238
_cell_length_b 6.872978
_cell_length_c 11.231449
_cell_angle_alpha 74.049813
_cell_angle_beta 26.562638
_cell_angle_gamma 62.365837
_cell_volume 589.210875
_symmetry_space_group_name_H-M "P -1"
_symmetry_group_IT_number 2
_symmetry_cell_setting 'triclinic'
loop_
_space_group_symop_operation_xyz
x,y,z
-x,-y,-z
loop_
_atom_site_type_symbol
_atom_site_label
_atom_site_fract_x
_atom_site_fract_y
_atom_site_fract_z
Si Si1 0.026249 0.734184 0.230424
Si Si2 0.039809 0.732942 0.469002
Si Si3 0.062307 0.183913 0.891071
Si Si4 0.566932 0.626326 0.120198
Si Si5 0.400341 0.386855 0.577950
Si Si6 0.500000 0.500000 0.000000
Si Si7 0.907959 0.279384 0.359908
Si Si8 0.587153 0.997116 0.534311
O O1 0.971795 0.701299 0.458080
O O2 0.927773 0.737498 0.272173
O O3 0.221895 0.549935 0.907947
O O4 0.995128 0.997056 0.252101
O O5 0.003369 0.686915 0.672496
O O6 0.239494 0.569236 0.159285
O O7 0.000000 0.000000 0.500000
O O8 0.241355 0.053255 0.680744
O O9 0.940744 0.356612 0.164610
O O10 0.000000 0.000000 0.000000
O O11 0.476540 0.538108 0.376368
O O12 0.546381 0.867516 0.164433
O O13 0.483910 0.643350 0.126637
O O14 0.525880 0.173681 0.493541
O O15 0.388037 0.247612 0.508118
O O16 0.708379 0.388787 0.682690
#
# Coordination Sequence:
#
# PCOD9077864 Si02
#       8
#     2   2   2   2   2   1   2   2
#     4  10  18  35  54  88 117 155 201 254 307 365
#     4   9  19  30  55  86 115 157 206 240 300 370
#     4  10  20  34  61  88 123 154 203 256 318 358
#     4  11  20  38  65  87 125 164 204 259 311 368
#     4  11  24  38  65  95 123 166 212 252 324 366
#     4  10  20  36  60  96 120 164 214 250 306 388
#     4   9  18  32  54  88 121 158 201 250 309 372
#     4  11  24  40  61  97 128 159 210 266 304 384
#
# _framework density 25.457777
#
# number of rings (size 3 to 8) (size 9 to 14) (size 15 to 20)
#    0.000    1.867    1.333    4.400    5.600    0.533 
#    0.000    0.667    0.000   11.200    0.000    0.000 
#    0.000    0.000    0.000    0.000    0.000    0.000 
#
# Total GULP energy -83567.901810 kJ/mol
# GULP energy per Si atom -5571.193454 kJ/mol
# Density = 2.539983 g / cm^3
# Si number density = 25.457777 Si / 1000 Ang^3
#
#
#
# Elastic Constant Matrix: (Units=GPa)
#
#
# Indices 1 2 3 4 5 6 
#
# 1 217.2948 23.2207 33.5434 13.1072 29.1887 9.9301
# 2 23.2207 81.9998 29.0784 5.8800 11.4192 -1.2018
# 3 33.5434 29.0784 113.1565 28.2747 1.5790 5.1763
# 4 13.1072 5.8800 28.2747 28.0255 -0.4674 6.1655
# 5 29.1887 11.4192 1.5790 -0.4674 61.1105 10.9696
# 6 9.9301 -1.2018 5.1763 6.1655 10.9696 36.5432
#
#
#
# Elastic Compliance Matrix: (Units=1/GPa)
#
#
# Indices 1 2 3 4 5 6 
#
# 1 0.005233 -0.000726 -0.001008 -0.001225 -0.002273 -0.000414
# 2 -0.000726 0.014002 -0.003572 0.000564 -0.002499 0.001819
# 3 -0.001008 -0.003572 0.013019 -0.011928 0.000701 0.000114
# 4 -0.001225 0.000564 -0.011928 0.049771 0.002441 -0.007089
# 5 -0.002273 -0.002499 0.000701 0.002441 0.018933 -0.005659
# 6 -0.000414 0.001819 0.000114 -0.007089 -0.005659 0.030416
#
#
# Mechanical properties :
#
#
# Convention : Reuss Voigt Hill
#
# Bulk Modulus (GPa) = 46.20613 64.90401 55.55507
# Shear Modulus (GPa) = 33.51191 46.90973 40.21082
#
# Velocity S-wave (km/s) = 3.63212 4.29727 3.97862
# Velocity P-wave (km/s) = 5.98158 7.08323 6.55558
#
# Compressibility (1/GPa) = 0.02164215
#
# Stress axis : x y z
#
# Youngs Moduli (GPa) = 191.08071 71.41935 76.80802
#
# Poissons Ratio (x) = 0.05187 0.07742
# Poissons Ratio (y) = 0.13877 0.27436
# Poissons Ratio (z) = 0.19260 0.25511
#
# Static dielectric constant tensor:
#      x y z
#    x 2.040240 0.088820 -0.008670 
#    y 0.088820 2.101900 0.086320 
#    z -0.008670 0.086320 1.863640 
# 
# From -- ./inp_files/469398.got.cif
#   From: 2010.05.17/outbox.cif.g08.bks.cpg/sg2_235_cif.got.tgz:469398.got - 2010.06.03 11:33:40.
