data_PCOD9077330
_publ_section_title
;
Structure prediction by ZEFSAII (Michael W. Deem and Ramdas Pophale) SiO2 
 PCOD9077330
Probable space group: P -1
;
_chemical_formula_sum "Si O2"
_cell_formula_units_Z 16
_cell_length_a 11.584888
_cell_length_b 14.098329
_cell_length_c 16.858203
_cell_angle_alpha 53.776103
_cell_angle_beta 160.077229
_cell_angle_gamma 112.645903
_cell_volume 593.616416
_symmetry_space_group_name_H-M "P -1"
_symmetry_group_IT_number 2
_symmetry_cell_setting 'triclinic'
loop_
_space_group_symop_operation_xyz
x,y,z
-x,-y,-z
loop_
_atom_site_type_symbol
_atom_site_label
_atom_site_fract_x
_atom_site_fract_y
_atom_site_fract_z
Si Si1 0.449506 0.652980 0.212475
Si Si2 0.546700 0.697561 0.080222
Si Si3 0.124964 0.001439 0.669574
Si Si4 0.431288 0.320158 0.082545
Si Si5 0.432757 0.400693 0.384184
Si Si6 0.919197 0.635408 0.664927
Si Si7 0.422064 0.104945 0.280100
Si Si8 0.584788 0.131005 0.549907
O O1 0.559631 0.508875 0.402174
O O2 0.613832 0.711471 0.353747
O O3 0.668170 0.615680 0.285214
O O4 0.930710 0.769354 0.815003
O O5 0.684776 0.660659 0.095144
O O6 0.564207 0.834509 0.042748
O O7 0.098374 0.720534 0.767456
O O8 0.060296 0.830371 0.513283
O O9 0.815492 0.994310 0.530794
O O10 0.000000 0.000000 0.500000
O O11 0.213885 0.262576 0.024308
O O12 0.322197 0.467753 0.978106
O O13 0.293960 0.387435 0.388103
O O14 0.711111 0.232947 0.609933
O O15 0.000000 0.500000 0.000000
O O16 0.607739 0.110553 0.480685
O O17 0.191828 0.030873 0.185883
#
# Coordination Sequence:
#
# PCOD9077330 Si02
#       8
#     2   2   2   2   2   2   2   2
#     4  11  22  34  58  83 117 146 185 232 283 336
#     4  11  20  39  60  82 111 153 190 227 281 337
#     4   8  16  33  59  79 104 151 187 224 277 326
#     4   9  20  34  58  85 112 148 190 231 280 331
#     4  10  19  35  56  78 112 149 184 223 283 329
#     4  12  22  36  58  86 115 149 187 232 281 332
#     4   9  17  30  61  85 109 144 200 225 279 333
#     4  10  18  34  58  87 107 153 188 233 277 340
#
# _framework density 26.953434000000001
#
# number of rings (size 3 to 8) (size 9 to 14) (size 15 to 20)
#    0.750    1.250    3.750    2.250    0.000    0.500 
#    0.000    0.000    5.500   15.000    0.000    0.000 
#    0.000    0.000    0.000    0.000    0.000    0.000 
#
# Total GULP energy -89170.006620 kJ/mol
# GULP energy per Si atom -5573.125414 kJ/mol
# Density = 2.689209 g / cm^3
# Si number density = 26.953434 Si / 1000 Ang^3
#
#
#
# Elastic Constant Matrix: (Units=GPa)
#
#
# Indices 1 2 3 4 5 6 
#
# 1 179.4998 -0.2935 75.4555 -19.7170 -8.7704 -44.1425
# 2 -0.2935 66.8948 88.7364 -31.4743 34.7051 -58.2039
# 3 75.4555 88.7364 -21.6167 22.9541 -64.0988 47.4467
# 4 -19.7170 -31.4743 22.9541 37.6180 10.7664 -20.1501
# 5 -8.7704 34.7051 -64.0988 10.7664 27.1283 18.0852
# 6 -44.1425 -58.2039 47.4467 -20.1501 18.0852 27.2290
#
#
#
# Elastic Compliance Matrix: (Units=1/GPa)
#
#
# Indices 1 2 3 4 5 6 
#
# 1 0.005906 -0.002059 0.000535 0.000281 0.004903 0.001191
# 2 -0.002059 0.005986 0.004581 -0.000408 0.003378 -0.001072
# 3 0.000535 0.004581 0.004843 0.006097 -0.002074 0.008112
# 4 0.000281 -0.000408 0.006097 0.021397 0.005980 0.000821
# 5 0.004903 0.003378 -0.002074 0.005980 0.020425 0.009641
# 6 0.001191 -0.001072 0.008112 0.000821 0.009641 0.016434
#
#
# Mechanical properties :
#
#
# Convention : Reuss Voigt Hill
#
# Bulk Modulus (GPa) = 43.76626 61.39720 52.58173
# Shear Modulus (GPa) = 65.36576 22.45369 43.90972
#
# Velocity S-wave (km/s) = 4.92991 2.88940 4.04058
# Velocity P-wave (km/s) = 6.97699 5.82752 6.42800
#
# Compressibility (1/GPa) = 0.02284865
#
# Stress axis : x y z
#
# Youngs Moduli (GPa) = 169.31960 167.06317 206.50222
#
# Poissons Ratio (x) = 0.34405 -0.11052
# Poissons Ratio (y) = 0.34869 -0.94606
# Poissons Ratio (z) = -0.09062 -0.76538
#
# Static dielectric constant tensor:
#      x y z
#    x 0.209160 0.344540 -0.350150 
#    y 0.344540 2.068700 -0.003760 
#    z -0.350150 -0.003760 2.253340 
# 
# From -- ./inp_files/520863.got.cif
#   From: 2010.05.17/outbox.cif.g08.bks.cpg/sg2_261_cif.got.tgz:520863.got - 2010.06.03 11:33:40.
