data_PCOD9077446
_publ_section_title
;
Structure prediction by ZEFSAII (Michael W. Deem and Ramdas Pophale) SiO2 
 PCOD9077446
Probable space group: P -1
;
_chemical_formula_sum "Si O2"
_cell_formula_units_Z 14
_cell_length_a 5.694390
_cell_length_b 9.045556
_cell_length_c 16.671386
_cell_angle_alpha 110.390992
_cell_angle_beta 80.724119
_cell_angle_gamma 133.398364
_cell_volume 580.978119
_symmetry_space_group_name_H-M "P -1"
_symmetry_group_IT_number 2
_symmetry_cell_setting 'triclinic'
loop_
_space_group_symop_operation_xyz
x,y,z
-x,-y,-z
loop_
_atom_site_type_symbol
_atom_site_label
_atom_site_fract_x
_atom_site_fract_y
_atom_site_fract_z
Si Si1 0.284051 0.334960 0.678809
Si Si2 0.117827 0.609482 0.240870
Si Si3 0.878351 0.020959 0.301970
Si Si4 0.156103 0.274463 0.173478
Si Si5 0.806552 0.273816 0.922763
Si Si6 0.757940 0.760031 0.020168
Si Si7 0.234128 0.465528 0.450188
O O1 0.496144 0.508079 0.771476
O O2 0.531100 0.381678 0.608470
O O3 0.079909 0.396603 0.678054
O O4 0.018878 0.089602 0.677125
O O5 0.991061 0.372800 0.194140
O O6 0.099099 0.676312 0.165799
O O7 0.496343 0.810380 0.277674
O O8 0.018067 0.109346 0.222498
O O9 0.991493 0.222054 0.383470
O O10 0.187163 0.212925 0.073122
O O11 0.435037 0.168089 0.930403
O O12 0.000000 0.500000 0.000000
O O13 0.924887 0.165071 0.936618
O O14 0.500000 0.500000 0.000000
O O15 0.500000 0.500000 0.500000
O O16 0.000000 0.500000 0.500000
#
# Coordination Sequence:
#
# PCOD9077446 Si02
#       7
#     2   2   2   2   2   2   2
#     4  10  24  43  71 100 137 180 220 277 343 407
#     4  11  22  40  70  95 136 183 230 283 334 404
#     4  10  26  44  67 104 134 178 227 278 338 414
#     4  10  21  40  65  92 138 184 234 280 339 404
#     4  10  19  33  61  91 129 177 233 277 337 381
#     4  10  18  34  59  91 125 182 232 282 331 385
#     4  11  28  50  77 105 138 175 219 274 345 419
#
# _framework density 24.097293000000001
#
# number of rings (size 3 to 8) (size 9 to 14) (size 15 to 20)
#    0.000    1.714    2.857    1.714   10.000    2.286 
#    0.000    1.429    0.000    0.000    0.000    0.000 
#    0.000    0.000    0.000    0.000    0.000    0.000 
#
# Total GULP energy -78119.619987 kJ/mol
# GULP energy per Si atom -5579.972856 kJ/mol
# Density = 2.404245 g / cm^3
# Si number density = 24.097293 Si / 1000 Ang^3
#
#
#
# Elastic Constant Matrix: (Units=GPa)
#
#
# Indices 1 2 3 4 5 6 
#
# 1 157.5867 39.5537 66.8839 -21.2967 -31.0704 -11.9843
# 2 39.5537 118.3585 46.2785 -16.5003 -16.4073 -14.4661
# 3 66.8839 46.2785 127.1846 -7.1141 -18.2528 -7.2479
# 4 -21.2967 -16.5003 -7.1141 36.7250 4.8841 2.8794
# 5 -31.0704 -16.4073 -18.2528 4.8841 52.8771 -2.0255
# 6 -11.9843 -14.4661 -7.2479 2.8794 -2.0255 33.9250
#
#
#
# Elastic Compliance Matrix: (Units=1/GPa)
#
#
# Indices 1 2 3 4 5 6 
#
# 1 0.009608 -0.000251 -0.004048 0.003975 0.003892 0.002317
# 2 -0.000251 0.011012 -0.003174 0.003630 0.001982 0.003739
# 3 -0.004048 -0.003174 0.011129 -0.001683 0.000625 -0.000226
# 4 0.003975 0.003630 -0.001683 0.030837 0.000032 -0.000023
# 5 0.003892 0.001982 0.000625 0.000032 0.022167 0.003674
# 6 0.002317 0.003739 -0.000226 -0.000023 0.003674 0.032063
#
#
# Mechanical properties :
#
#
# Convention : Reuss Voigt Hill
#
# Bulk Modulus (GPa) = 59.51878 78.72910 69.12394
# Shear Modulus (GPa) = 36.40001 41.39967 38.89984
#
# Velocity S-wave (km/s) = 3.89079 4.14940 4.02217
# Velocity P-wave (km/s) = 6.70353 7.46317 7.09353
#
# Compressibility (1/GPa) = 0.01680142
#
# Stress axis : x y z
#
# Youngs Moduli (GPa) = 104.08420 90.81232 89.85419
#
# Poissons Ratio (x) = 0.02280 0.36375
# Poissons Ratio (y) = 0.02613 0.28522
# Poissons Ratio (z) = 0.42135 0.28827
#
# Static dielectric constant tensor:
#      x y z
#    x 2.275550 -0.093470 0.046900 
#    y -0.093470 2.009350 -0.053970 
#    z 0.046900 -0.053970 1.935510 
# 
# From -- ./inp_files/547385.got.cif
#   From: 2010.05.17/outbox.cif.g08.bks.cpg/sg2_274_cif.got.tgz:547385.got - 2010.06.03 11:33:40.
