data_PCOD9077832
_publ_section_title
;
Structure prediction by ZEFSAII (Michael W. Deem and Ramdas Pophale) SiO2 
 PCOD9077832
Probable space group: P -1
;
_chemical_formula_sum "Si O2"
_cell_formula_units_Z 16
_cell_length_a 6.713118
_cell_length_b 20.915145
_cell_length_c 11.773499
_cell_angle_alpha 138.829760
_cell_angle_beta 54.949252
_cell_angle_gamma 131.363752
_cell_volume 806.794156
_symmetry_space_group_name_H-M "P -1"
_symmetry_group_IT_number 2
_symmetry_cell_setting 'triclinic'
loop_
_space_group_symop_operation_xyz
x,y,z
-x,-y,-z
loop_
_atom_site_type_symbol
_atom_site_label
_atom_site_fract_x
_atom_site_fract_y
_atom_site_fract_z
Si Si1 0.211289 0.838685 0.069724
Si Si2 0.054432 0.268103 0.222995
Si Si3 0.080112 0.382777 0.036910
Si Si4 0.752161 0.844115 0.822462
Si Si5 0.442692 0.717367 0.550037
Si Si6 0.378540 0.549302 0.701473
Si Si7 0.689174 0.961405 0.808721
Si Si8 0.376233 0.456426 0.816613
O O1 0.084180 0.784053 0.918083
O O2 0.047027 0.746474 0.089119
O O3 0.523324 0.859015 0.991462
O O4 0.195314 0.952021 0.212655
O O5 0.879288 0.330454 0.403939
O O6 0.044361 0.179818 0.199351
O O7 0.365167 0.341970 0.203793
O O8 0.863972 0.420510 0.211235
O O9 0.361747 0.440129 0.087758
O O10 0.145042 0.425650 0.944644
O O11 0.582893 0.739336 0.658475
O O12 0.130984 0.060439 0.181198
O O13 0.538980 0.642403 0.348285
O O14 0.535662 0.841461 0.648521
O O15 0.500000 0.500000 0.500000
O O16 0.301123 0.476350 0.741710
O O17 0.500000 0.000000 0.000000
#
# Coordination Sequence:
#
# PCOD9077832 Si02
#       8
#     2   2   2   2   2   2   2   2
#     4  10  18  35  53  80 112 146 187 226 274 336
#     4  11  18  30  56  83 112 141 180 231 285 324
#     4  11  24  41  57  82 117 153 194 226 280 346
#     4   8  17  31  51  81 110 138 179 229 281 315
#     4   9  20  35  53  84 114 143 186 229 283 335
#     4  12  24  35  61  90 112 145 190 239 286 333
#     4   8  16  33  53  79 120 141 178 240 276 332
#     4  11  24  41  58  79 117 160 184 232 282 338
#
# _framework density 19.831576999999999
#
# number of rings (size 3 to 8) (size 9 to 14) (size 15 to 20)
#    0.750    1.250    3.750    1.875    1.750    1.500 
#    0.000    0.625    0.000    0.000    0.000    1.750 
#    0.000    0.000    0.000    0.000    0.000    0.000 
#
# Total GULP energy -89085.685847 kJ/mol
# GULP energy per Si atom -5567.855365 kJ/mol
# Density = 1.978644 g / cm^3
# Si number density = 19.831577 Si / 1000 Ang^3
#
#
#
# Elastic Constant Matrix: (Units=GPa)
#
#
# Indices 1 2 3 4 5 6 
#
# 1 64.3970 13.5837 -1.1488 -10.7308 -6.3939 -11.4739
# 2 13.5837 103.1284 15.2955 3.1135 -5.4436 -14.0073
# 3 -1.1488 15.2955 28.7450 -2.2913 -7.4787 -4.5659
# 4 -10.7308 3.1135 -2.2913 25.5679 -3.8445 1.3588
# 5 -6.3939 -5.4436 -7.4787 -3.8445 20.6084 -2.3184
# 6 -11.4739 -14.0073 -4.5659 1.3588 -2.3184 30.0932
#
#
#
# Elastic Compliance Matrix: (Units=1/GPa)
#
#
# Indices 1 2 3 4 5 6 
#
# 1 0.020546 -0.002391 0.007196 0.010822 0.011295 0.008194
# 2 -0.002391 0.011476 -0.005869 -0.003124 -0.000009 0.003680
# 3 0.007196 -0.005869 0.045511 0.010402 0.020038 0.007991
# 4 0.010822 -0.003124 0.010402 0.047116 0.015470 0.003315
# 5 0.011295 -0.000009 0.020038 0.015470 0.063481 0.011535
# 6 0.008194 0.003680 0.007991 0.003315 0.011535 0.040019
#
#
# Mechanical properties :
#
#
# Convention : Reuss Voigt Hill
#
# Bulk Modulus (GPa) = 13.26154 27.97015 20.61584
# Shear Modulus (GPa) = 19.57627 26.48989 23.03308
#
# Velocity S-wave (km/s) = 3.14527 3.65875 3.41168
# Velocity P-wave (km/s) = 4.46003 5.65535 5.09288
#
# Compressibility (1/GPa) = 0.07540605
#
# Stress axis : x y z
#
# Youngs Moduli (GPa) = 48.67053 87.14098 21.97271
#
# Poissons Ratio (x) = 0.20837 -0.15813
# Poissons Ratio (y) = 0.11638 0.12895
# Poissons Ratio (z) = -0.35026 0.51141
#
# Static dielectric constant tensor:
#      x y z
#    x 1.708290 -0.029170 0.008230 
#    y -0.029170 1.794530 0.032310 
#    z 0.008230 0.032310 1.689200 
# 
# From -- ./inp_files/370410.got.cif
#   From: 2010.05.17/outbox.cif.g08.bks.cpg/sg2_186_cif.got.tgz:370410.got - 2010.06.03 11:33:40.
