data_PCOD9077597
_publ_section_title
;
Structure prediction by ZEFSAII (Michael W. Deem and Ramdas Pophale) SiO2 
 PCOD9077597
Probable space group: P -1
;
_chemical_formula_sum "Si O2"
_cell_formula_units_Z 16
_cell_length_a 10.930145
_cell_length_b 14.315541
_cell_length_c 9.326438
_cell_angle_alpha 92.386323
_cell_angle_beta 66.485569
_cell_angle_gamma 45.443520
_cell_volume 830.030374
_symmetry_space_group_name_H-M "P -1"
_symmetry_group_IT_number 2
_symmetry_cell_setting 'triclinic'
loop_
_space_group_symop_operation_xyz
x,y,z
-x,-y,-z
loop_
_atom_site_type_symbol
_atom_site_label
_atom_site_fract_x
_atom_site_fract_y
_atom_site_fract_z
Si Si1 0.355881 0.995905 0.911973
Si Si2 0.257690 0.100762 0.295978
Si Si3 0.064687 0.570658 0.608760
Si Si4 0.919949 0.147259 0.515665
Si Si5 0.309830 0.355582 0.215332
Si Si6 0.252669 0.647451 0.659308
Si Si7 0.053582 0.865063 0.016486
Si Si8 0.398474 0.657183 0.080265
O O1 0.501445 0.000922 0.786695
O O2 0.513445 0.821641 0.852061
O O3 0.272714 0.067692 0.115741
O O4 0.167129 0.070271 0.898647
O O5 0.103138 0.274966 0.394297
O O6 0.134316 0.090771 0.442859
O O7 0.243950 0.436935 0.404714
O O8 0.154035 0.597187 0.681731
O O9 0.911567 0.570571 0.733736
O O10 0.859534 0.218801 0.390974
O O11 0.697741 0.284308 0.712570
O O12 0.000000 0.000000 0.500000
O O13 0.423163 0.366721 0.057093
O O14 0.500000 0.500000 0.500000
O O15 0.216600 0.717587 0.830488
O O16 0.179325 0.797138 0.101918
O O17 0.000000 0.000000 0.000000
O O18 0.500000 0.500000 0.000000
#
# Coordination Sequence:
#
# PCOD9077597 Si02
#       8
#     2   2   2   2   2   2   2   2
#     4  10  18  34  61  88 109 144 199 251 275 327
#     4   9  18  35  59  85 112 150 194 237 288 335
#     4   9  18  34  57  86 111 144 199 245 271 334
#     4  11  21  38  57  86 117 153 186 231 293 359
#     4  10  19  34  57  87 113 149 194 238 283 336
#     4  11  22  39  62  85 114 151 198 245 284 333
#     4  12  22  38  59  91 115 147 202 246 280 336
#     4  12  24  37  58  85 123 156 184 234 303 353
#
# _framework density 19.276403999999999
#
# number of rings (size 3 to 8) (size 9 to 14) (size 15 to 20)
#    0.000    1.500    3.750    4.500    0.000    0.000 
#    0.000    0.625    2.750    1.500    0.000    0.000 
#    0.000    0.000    0.000    0.000    0.000    0.000 
#
# Total GULP energy -89114.654489 kJ/mol
# GULP energy per Si atom -5569.665906 kJ/mol
# Density = 1.923253 g / cm^3
# Si number density = 19.276404 Si / 1000 Ang^3
#
#
#
# Elastic Constant Matrix: (Units=GPa)
#
#
# Indices 1 2 3 4 5 6 
#
# 1 96.6740 6.4483 20.6526 -4.0054 -39.7007 9.0943
# 2 6.4483 55.6966 0.7836 13.6952 -12.1034 13.5707
# 3 20.6526 0.7836 82.1166 18.3407 -28.4648 16.1818
# 4 -4.0054 13.6952 18.3407 34.8052 4.4267 1.3280
# 5 -39.7007 -12.1034 -28.4648 4.4267 48.3287 -0.3936
# 6 9.0943 13.5707 16.1818 1.3280 -0.3936 34.8807
#
#
#
# Elastic Compliance Matrix: (Units=1/GPa)
#
#
# Indices 1 2 3 4 5 6 
#
# 1 0.017190 0.005086 0.004675 -0.004524 0.018496 -0.008249
# 2 0.005086 0.032766 0.015614 -0.022754 0.023500 -0.020186
# 3 0.004675 0.015614 0.029475 -0.023835 0.027134 -0.019754
# 4 -0.004524 -0.022754 -0.023835 0.052584 -0.028117 0.018771
# 5 0.018496 0.023500 0.027134 -0.028117 0.060125 -0.024804
# 6 -0.008249 -0.020186 -0.019754 0.018771 -0.024804 0.046843
#
#
# Mechanical properties :
#
#
# Convention : Reuss Voigt Hill
#
# Bulk Modulus (GPa) = 7.68157 32.25068 19.96613
# Shear Modulus (GPa) = 21.58643 37.37642 29.48143
#
# Velocity S-wave (km/s) = 3.35003 4.40815 3.91500
# Velocity P-wave (km/s) = 4.35399 6.53269 5.55127
#
# Compressibility (1/GPa) = 0.13018173
#
# Stress axis : x y z
#
# Youngs Moduli (GPa) = 58.17305 30.51922 33.92733
#
# Poissons Ratio (x) = -0.15521 -0.15862
# Poissons Ratio (y) = -0.29584 -0.52975
# Poissons Ratio (z) = -0.27198 -0.47654
#
# Static dielectric constant tensor:
#      x y z
#    x 1.759270 0.008440 -0.030590 
#    y 0.008440 1.626980 0.019140 
#    z -0.030590 0.019140 1.681310 
# 
# From -- ./inp_files/270151.got.cif
#   From: 2010.05.17/outbox.cif.g08.bks.cpg/sg2_136_cif.got.tgz:270151.got - 2010.06.03 11:33:40.
