data_PCOD9077998
_publ_section_title
;
Structure prediction by ZEFSAII (Michael W. Deem and Ramdas Pophale) SiO2 
 PCOD9077998
Probable space group: P -1
;
_chemical_formula_sum "Si O2"
_cell_formula_units_Z 16
_cell_length_a 14.103770
_cell_length_b 7.796309
_cell_length_c 13.586817
_cell_angle_alpha 121.358287
_cell_angle_beta 49.219280
_cell_angle_gamma 141.011711
_cell_volume 711.490251
_symmetry_space_group_name_H-M "P -1"
_symmetry_group_IT_number 2
_symmetry_cell_setting 'triclinic'
loop_
_space_group_symop_operation_xyz
x,y,z
-x,-y,-z
loop_
_atom_site_type_symbol
_atom_site_label
_atom_site_fract_x
_atom_site_fract_y
_atom_site_fract_z
Si Si1 0.175473 0.307247 0.894215
Si Si2 0.070944 0.495728 0.553222
Si Si3 0.363241 0.296421 0.613525
Si Si4 0.631570 0.428482 0.596715
Si Si5 0.258693 0.126285 0.191204
Si Si6 0.901506 0.930947 0.423344
Si Si7 0.209443 0.219993 0.049848
Si Si8 0.167399 0.602065 0.154925
O O1 0.309832 0.434983 0.754381
O O2 0.247188 0.243071 0.914908
O O3 0.142727 0.479344 0.026058
O O4 0.994937 0.035652 0.894511
O O5 0.271314 0.666156 0.463596
O O6 0.000000 0.500000 0.500000
O O7 0.001133 0.528021 0.707586
O O8 0.975653 0.174708 0.520362
O O9 0.500000 0.500000 0.500000
O O10 0.448348 0.232404 0.611821
O O11 0.193803 0.057241 0.597760
O O12 0.758204 0.646690 0.489823
O O13 0.643564 0.604475 0.728951
O O14 0.274765 0.920782 0.162740
O O15 0.059868 0.976202 0.289295
O O16 0.293183 0.181960 0.067617
O O17 0.245843 0.496184 0.127978
#
# Coordination Sequence:
#
# PCOD9077998 Si02
#       8
#     2   2   2   2   2   2   2   2
#     4   9  20  39  54  88 118 153 193 246 298 342
#     4  11  20  32  60  88 115 149 198 252 290 334
#     4  10  21  38  62  78 119 165 192 231 300 366
#     4  10  20  35  54  87 116 151 199 234 289 356
#     4  11  17  34  61  88 114 151 201 243 289 342
#     4  10  18  35  57  83 115 151 199 234 286 346
#     4   9  20  35  58  87 118 149 194 248 293 335
#     4  10  19  33  59  90 118 145 196 259 287 337
#
# _framework density 22.488011
#
# number of rings (size 3 to 8) (size 9 to 14) (size 15 to 20)
#    0.750    1.250    3.750    2.250    0.000    0.500 
#    0.000    1.875    0.000    0.000    0.000    0.000 
#    0.000    0.000    0.000    0.000    0.000    0.000 
#
# Total GULP energy -89078.668397 kJ/mol
# GULP energy per Si atom -5567.416775 kJ/mol
# Density = 2.243683 g / cm^3
# Si number density = 22.488011 Si / 1000 Ang^3
#
#
#
# Elastic Constant Matrix: (Units=GPa)
#
#
# Indices 1 2 3 4 5 6 
#
# 1 116.8776 14.3509 12.9667 11.5794 3.8367 17.4958
# 2 14.3509 40.5953 23.3016 13.0441 -1.1503 -0.8703
# 3 12.9667 23.3016 134.6873 5.4596 15.8311 6.0030
# 4 11.5794 13.0441 5.4596 21.5001 1.1427 0.5813
# 5 3.8367 -1.1503 15.8311 1.1427 29.1906 2.5095
# 6 17.4958 -0.8703 6.0030 0.5813 2.5095 34.1294
#
#
#
# Elastic Compliance Matrix: (Units=1/GPa)
#
#
# Indices 1 2 3 4 5 6 
#
# 1 0.010015 -0.002434 -0.000074 -0.003720 -0.000792 -0.005062
# 2 -0.002434 0.035137 -0.005846 -0.018890 0.005348 0.003100
# 3 -0.000074 -0.005846 0.009034 0.001598 -0.005066 -0.001355
# 4 -0.003720 -0.018890 0.001598 0.059745 -0.003494 0.000383
# 5 -0.000792 0.005348 -0.005066 -0.003494 0.037566 -0.001269
# 6 -0.005062 0.003100 -0.001355 0.000383 -0.001269 0.032299
#
#
# Mechanical properties :
#
#
# Convention : Reuss Voigt Hill
#
# Bulk Modulus (GPa) = 26.68094 43.71096 35.19595
# Shear Modulus (GPa) = 23.47457 33.06676 28.27067
#
# Velocity S-wave (km/s) = 3.23440 3.83876 3.54947
# Velocity P-wave (km/s) = 5.08318 6.25522 5.69941
#
# Compressibility (1/GPa) = 0.03747993
#
# Stress axis : x y z
#
# Youngs Moduli (GPa) = 99.84844 28.45993 110.69143
#
# Poissons Ratio (x) = 0.06927 0.00816
# Poissons Ratio (y) = 0.24302 0.64706
# Poissons Ratio (z) = 0.00736 0.16637
#
# Static dielectric constant tensor:
#      x y z
#    x 1.924020 -0.038830 -0.007910 
#    y -0.038830 1.856470 -0.007040 
#    z -0.007910 -0.007040 1.853050 
# 
# From -- ./inp_files/397645.got.cif
#   From: 2010.05.17/outbox.cif.g08.bks.cpg/sg2_199_cif.got.tgz:397645.got - 2010.06.03 11:33:40.
