data_PCOD9077215
_publ_section_title
;
Structure prediction by ZEFSAII (Michael W. Deem and Ramdas Pophale) SiO2 
 PCOD9077215
Probable space group: P -1
;
_chemical_formula_sum "Si O2"
_cell_formula_units_Z 14
_cell_length_a 13.255872
_cell_length_b 11.798682
_cell_length_c 18.304837
_cell_angle_alpha 28.481164
_cell_angle_beta 28.096486
_cell_angle_gamma 32.162145
_cell_volume 609.846162
_symmetry_space_group_name_H-M "P -1"
_symmetry_group_IT_number 2
_symmetry_cell_setting 'triclinic'
loop_
_space_group_symop_operation_xyz
x,y,z
-x,-y,-z
loop_
_atom_site_type_symbol
_atom_site_label
_atom_site_fract_x
_atom_site_fract_y
_atom_site_fract_z
Si Si1 0.138320 0.824505 0.074201
Si Si2 0.151817 0.394898 0.054110
Si Si3 0.382193 0.199891 0.725147
Si Si4 0.098956 0.415072 0.234562
Si Si5 0.832033 0.049694 0.447753
Si Si6 0.009426 0.784921 0.337532
Si Si7 0.268186 0.147154 0.981593
O O1 0.191189 0.551164 0.162512
O O2 0.987777 0.862359 0.221977
O O3 0.345165 0.929416 0.893199
O O4 0.000000 0.000000 0.000000
O O5 0.234987 0.393190 0.084317
O O6 0.323567 0.265282 0.953798
O O7 0.991992 0.219530 0.254355
O O8 0.987864 0.668853 0.980529
O O9 0.582719 0.211123 0.539807
O O10 0.152119 0.411002 0.728089
O O11 0.415748 0.197037 0.792548
O O12 0.091952 0.161412 0.418795
O O13 0.847309 0.924353 0.428642
O O14 0.000000 0.500000 0.500000
O O15 0.230987 0.874679 0.163849
#
# Coordination Sequence:
#
# PCOD9077215 Si02
#       7
#     2   2   2   2   2   2   2
#     4   9  18  36  58  77 115 151 183 226 287 334
#     4   9  18  34  57  80 108 156 187 222 283 340
#     4   9  20  36  57  84 110 151 187 234 283 331
#     4  10  19  34  54  81 116 146 183 233 278 334
#     4  11  21  34  59  86 112 144 193 234 279 333
#     4  10  18  34  57  83 111 150 187 234 283 331
#     4   8  17  34  55  77 112 150 189 225 279 339
#
# _framework density 22.956610000000001
#
# number of rings (size 3 to 8) (size 9 to 14) (size 15 to 20)
#    0.000    2.571    1.429    1.286    0.000    2.857 
#    0.000    3.571    0.000   27.429    0.000    0.000 
#    0.000    0.000    0.000    0.000    0.000    0.000 
#
# Total GULP energy -78039.203406 kJ/mol
# GULP energy per Si atom -5574.228815 kJ/mol
# Density = 2.290436 g / cm^3
# Si number density = 22.956610 Si / 1000 Ang^3
#
#
#
# Elastic Constant Matrix: (Units=GPa)
#
#
# Indices 1 2 3 4 5 6 
#
# 1 85.7283 41.9255 34.7447 14.9830 26.8752 33.8566
# 2 41.9255 80.8052 18.8135 -1.8476 5.2525 20.6997
# 3 34.7447 18.8135 67.1138 -13.5883 22.2481 11.8918
# 4 14.9830 -1.8476 -13.5883 48.2314 18.7088 9.9159
# 5 26.8752 5.2525 22.2481 18.7088 33.5864 6.3320
# 6 33.8566 20.6997 11.8918 9.9159 6.3320 45.8111
#
#
#
# Elastic Compliance Matrix: (Units=1/GPa)
#
#
# Indices 1 2 3 4 5 6 
#
# 1 0.028309 -0.009240 -0.006252 -0.003338 -0.012826 -0.012628
# 2 -0.009240 0.017632 -0.000941 0.001910 0.004561 -0.001938
# 3 -0.006252 -0.000941 0.034074 0.024122 -0.029938 -0.004883
# 4 -0.003338 0.001910 0.024122 0.044833 -0.036832 -0.009271
# 5 -0.012826 0.004561 -0.029938 -0.036832 0.077319 0.012474
# 6 -0.012628 -0.001938 -0.004883 -0.009271 0.012474 0.033587
#
#
# Mechanical properties :
#
#
# Convention : Reuss Voigt Hill
#
# Bulk Modulus (GPa) = 21.20938 47.17940 34.19439
# Shear Modulus (GPa) = 17.58480 34.73669 26.16074
#
# Velocity S-wave (km/s) = 2.77068 3.89414 3.37942
# Velocity P-wave (km/s) = 4.41526 6.38868 5.49134
#
# Compressibility (1/GPa) = 0.04714894
#
# Stress axis : x y z
#
# Youngs Moduli (GPa) = 35.32464 56.71405 29.34801
#
# Poissons Ratio (x) = 0.52404 0.18348
# Poissons Ratio (y) = 0.32640 0.02762
# Poissons Ratio (z) = 0.22085 0.05337
#
# Static dielectric constant tensor:
#      x y z
#    x 1.906260 0.044700 -0.001780 
#    y 0.044700 2.003850 0.003890 
#    z -0.001780 0.003890 1.869320 
# 
# From -- ./inp_files/169165.got.cif
#   From: 2010.05.17/outbox.cif.g08.bks.cpg/sg2_85_cif.got.tgz:169165.got - 2010.06.03 11:33:40.
