data_PCOD9077907
_publ_section_title
;
Structure prediction by ZEFSAII (Michael W. Deem and Ramdas Pophale) SiO2 
 PCOD9077907
Probable space group: P -1
;
_chemical_formula_sum "Si O2"
_cell_formula_units_Z 16
_cell_length_a 11.165887
_cell_length_b 6.973479
_cell_length_c 18.964188
_cell_angle_alpha 66.848694
_cell_angle_beta 41.367291
_cell_angle_gamma 96.348612
_cell_volume 668.107366
_symmetry_space_group_name_H-M "P -1"
_symmetry_group_IT_number 2
_symmetry_cell_setting 'triclinic'
loop_
_space_group_symop_operation_xyz
x,y,z
-x,-y,-z
loop_
_atom_site_type_symbol
_atom_site_label
_atom_site_fract_x
_atom_site_fract_y
_atom_site_fract_z
Si Si1 0.825465 0.534968 0.324225
Si Si2 0.781440 0.641205 0.808921
Si Si3 0.713410 0.832854 0.947682
Si Si4 0.452981 0.566137 0.406627
Si Si5 0.218942 0.866371 0.884092
Si Si6 0.256110 0.074808 0.474697
Si Si7 0.195145 0.642070 0.784027
Si Si8 0.532280 0.695066 0.797804
O O1 0.652500 0.575699 0.356341
O O2 0.682590 0.397342 0.480631
O O3 0.845286 0.370885 0.279513
O O4 0.088044 0.839435 0.176241
O O5 0.552127 0.311450 0.946240
O O6 0.682654 0.771271 0.791585
O O7 0.812622 0.737920 0.861117
O O8 0.019782 0.761258 0.643486
O O9 0.641497 0.643207 0.076119
O O10 0.252596 0.268433 0.501046
O O11 0.596457 0.802335 0.249385
O O12 0.372494 0.780592 0.852817
O O13 0.145369 0.775897 0.846890
O O14 0.979776 0.679914 0.064768
O O15 0.283374 0.158930 0.369694
O O16 0.520030 0.182218 0.358948
#
# Coordination Sequence:
#
# PCOD9077907 Si02
#       8
#     2   2   2   2   2   2   2   2
#     4  10  20  37  54  86 106 145 190 224 275 313
#     4   9  18  35  58  84 107 141 189 236 260 313
#     4   9  19  33  60  83 103 143 187 233 259 317
#     4  10  22  33  58  80 117 143 177 234 270 332
#     4  10  21  38  50  84 118 147 175 217 286 337
#     4  10  18  35  55  90 108 138 188 231 269 317
#     4   9  22  35  56  82 115 143 180 224 276 340
#     4   9  20  34  57  83 109 148 178 224 277 320
#
# _framework density 23.948246000000001
#
# number of rings (size 3 to 8) (size 9 to 14) (size 15 to 20)
#    0.750    1.750    1.250    0.375    7.000    1.500 
#    0.000    3.125    0.000    2.250    0.000    2.625 
#    0.000    0.000    0.000    0.000    0.000    0.000 
#
# Total GULP energy -89253.095396 kJ/mol
# GULP energy per Si atom -5578.318462 kJ/mol
# Density = 2.389374 g / cm^3
# Si number density = 23.948246 Si / 1000 Ang^3
#
#
#
# Elastic Constant Matrix: (Units=GPa)
#
#
# Indices 1 2 3 4 5 6 
#
# 1 61.5786 18.2933 24.4885 7.8595 6.0290 6.6627
# 2 18.2933 33.0278 14.7143 12.4827 -7.0659 9.4556
# 3 24.4885 14.7143 175.3714 7.2251 2.9047 4.4396
# 4 7.8595 12.4827 7.2251 38.2544 6.9325 4.1353
# 5 6.0290 -7.0659 2.9047 6.9325 34.2498 2.8561
# 6 6.6627 9.4556 4.4396 4.1353 2.8561 25.7312
#
#
#
# Elastic Compliance Matrix: (Units=1/GPa)
#
#
# Indices 1 2 3 4 5 6 
#
# 1 0.021255 -0.012878 -0.001837 0.001358 -0.006522 0.000051
# 2 -0.012878 0.052180 -0.001850 -0.015602 0.017595 -0.014967
# 3 -0.001837 -0.001850 0.006123 -0.000091 -0.000574 0.000177
# 4 0.001358 -0.015602 -0.000091 0.032675 -0.010170 0.001275
# 5 -0.006522 0.017595 -0.000574 -0.010170 0.036676 -0.007114
# 6 0.000051 -0.014967 0.000177 0.001275 -0.007114 0.044904
#
#
# Mechanical properties :
#
#
# Convention : Reuss Voigt Hill
#
# Bulk Modulus (GPa) = 21.53793 42.77443 32.15618
# Shear Modulus (GPa) = 20.62560 33.81254 27.21907
#
# Velocity S-wave (km/s) = 2.93790 3.76160 3.37498
# Velocity P-wave (km/s) = 4.53006 6.06351 5.35199
#
# Compressibility (1/GPa) = 0.04642972
#
# Stress axis : x y z
#
# Youngs Moduli (GPa) = 47.04765 19.16445 163.32904
#
# Poissons Ratio (x) = 0.24679 0.30000
# Poissons Ratio (y) = 0.60586 0.30210
# Poissons Ratio (z) = 0.08642 0.03545
#
# Static dielectric constant tensor:
#      x y z
#    x 1.939250 -0.028130 -0.019020 
#    y -0.028130 1.942230 0.017850 
#    z -0.019020 0.017850 1.937430 
# 
# From -- ./inp_files/341831.got.cif
#   From: 2010.05.17/outbox.cif.g08.bks.cpg/sg2_171_cif.got.tgz:341831.got - 2010.06.03 11:33:40.
