data_PCOD9077051
_publ_section_title
;
Structure prediction by ZEFSAII (Michael W. Deem and Ramdas Pophale) SiO2 
 PCOD9077051
Probable space group: P -1
;
_chemical_formula_sum "Si O2"
_cell_formula_units_Z 16
_cell_length_a 20.257258
_cell_length_b 12.990985
_cell_length_c 7.645184
_cell_angle_alpha 111.038404
_cell_angle_beta 138.427168
_cell_angle_gamma 40.936616
_cell_volume 770.173297
_symmetry_space_group_name_H-M "P -1"
_symmetry_group_IT_number 2
_symmetry_cell_setting 'triclinic'
loop_
_space_group_symop_operation_xyz
x,y,z
-x,-y,-z
loop_
_atom_site_type_symbol
_atom_site_label
_atom_site_fract_x
_atom_site_fract_y
_atom_site_fract_z
Si Si1 0.366892 0.036738 0.841224
Si Si2 0.242607 0.277767 0.222253
Si Si3 0.075119 0.384083 0.298833
Si Si4 0.173384 0.977211 0.776604
Si Si5 0.441492 0.901234 0.300852
Si Si6 0.792128 0.043280 0.559117
Si Si7 0.687516 0.335016 0.320862
Si Si8 0.971354 0.233957 0.857745
O O1 0.197045 0.247300 0.609287
O O2 0.332375 0.946191 0.631595
O O3 0.419185 0.963127 0.095575
O O4 0.500000 0.000000 0.000000
O O5 0.176791 0.357834 0.334367
O O6 0.338347 0.080098 0.311503
O O7 0.371136 0.251288 0.384745
O O8 0.086992 0.406147 0.869413
O O9 0.011239 0.323451 0.052321
O O10 0.052290 0.132446 0.771005
O O11 0.139312 0.049167 0.554807
O O12 0.204147 0.820947 0.710331
O O13 0.351040 0.865961 0.113346
O O14 0.709104 0.231917 0.464786
O O15 0.931892 0.925061 0.906107
O O16 0.783775 0.363834 0.563399
O O17 0.500000 0.500000 0.000000
#
# Coordination Sequence:
#
# PCOD9077051 Si02
#       8
#     2   2   2   2   2   2   2   2
#     4  10  18  34  55  80 111 150 181 225 277 334
#     4  10  20  33  51  82 108 144 181 226 273 330
#     4  10  21  32  52  83 107 142 190 217 279 327
#     4   9  20  36  58  86 105 148 194 221 279 347
#     4  10  19  35  57  75 116 144 184 227 274 338
#     4   8  21  35  58  83 110 147 193 219 281 341
#     4  10  22  38  59  87 112 143 189 242 286 319
#     4  11  19  38  63  75 114 153 185 231 278 340
#
# _framework density 20.774545
#
# number of rings (size 3 to 8) (size 9 to 14) (size 15 to 20)
#    0.750    1.500    2.500    0.750    1.750    0.500 
#    0.000    0.625    0.000    0.000    0.000    0.000 
#    0.000    0.000    0.000    0.000    0.000    0.000 
#
# Total GULP energy -89069.283575 kJ/mol
# GULP energy per Si atom -5566.830223 kJ/mol
# Density = 2.072726 g / cm^3
# Si number density = 20.774545 Si / 1000 Ang^3
#
#
#
# Elastic Constant Matrix: (Units=GPa)
#
#
# Indices 1 2 3 4 5 6 
#
# 1 53.8146 11.0729 20.9420 -3.2204 14.8330 0.6558
# 2 11.0729 36.6338 10.4924 -1.7992 6.1238 -3.8308
# 3 20.9420 10.4924 100.4811 -12.9300 26.0798 -2.5442
# 4 -3.2204 -1.7992 -12.9300 30.7101 5.3781 -0.8168
# 5 14.8330 6.1238 26.0798 5.3781 30.1564 -3.0262
# 6 0.6558 -3.8308 -2.5442 -0.8168 -3.0262 18.8451
#
#
#
# Elastic Compliance Matrix: (Units=1/GPa)
#
#
# Indices 1 2 3 4 5 6 
#
# 1 0.023193 -0.005141 -0.001335 0.003251 -0.010142 -0.003520
# 2 -0.005141 0.030240 -0.001200 0.001271 -0.002213 0.005864
# 3 -0.001335 -0.001200 0.014961 0.008461 -0.013545 0.000014
# 4 0.003251 0.001271 0.008461 0.039381 -0.016158 0.000400
# 5 -0.010142 -0.002213 -0.013545 -0.016158 0.053797 0.006013
# 6 -0.003520 0.005864 0.000014 0.000400 0.006013 0.055363
#
#
# Mechanical properties :
#
#
# Convention : Reuss Voigt Hill
#
# Bulk Modulus (GPa) = 18.85333 30.66046 24.75689
# Shear Modulus (GPa) = 20.00261 25.83715 22.91988
#
# Velocity S-wave (km/s) = 3.10634 3.53043 3.32515
# Velocity P-wave (km/s) = 4.68622 5.60440 5.16575
#
# Compressibility (1/GPa) = 0.05304104
#
# Stress axis : x y z
#
# Youngs Moduli (GPa) = 43.11710 33.06858 66.84265
#
# Poissons Ratio (x) = 0.17000 0.08926
# Poissons Ratio (y) = 0.22165 0.08021
# Poissons Ratio (z) = 0.05758 0.03968
#
# Static dielectric constant tensor:
#      x y z
#    x 1.771470 0.000150 0.010680 
#    y 0.000150 1.819030 0.030690 
#    z 0.010680 0.030690 1.789500 
# 
# From -- ./inp_files/225000.got.cif
#   From: 2010.05.17/outbox.cif.g08.bks.cpg/sg2_113_cif.got.tgz:225000.got - 2010.06.03 11:33:40.
