data_PCOD9077375
_publ_section_title
;
Structure prediction by ZEFSAII (Michael W. Deem and Ramdas Pophale) SiO2 
 PCOD9077375
Probable space group: P -1
;
_chemical_formula_sum "Si O2"
_cell_formula_units_Z 16
_cell_length_a 22.275828
_cell_length_b 5.511744
_cell_length_c 12.129791
_cell_angle_alpha 95.941262
_cell_angle_beta 37.142287
_cell_angle_gamma 70.149607
_cell_volume 636.248066
_symmetry_space_group_name_H-M "P -1"
_symmetry_group_IT_number 2
_symmetry_cell_setting 'triclinic'
loop_
_space_group_symop_operation_xyz
x,y,z
-x,-y,-z
loop_
_atom_site_type_symbol
_atom_site_label
_atom_site_fract_x
_atom_site_fract_y
_atom_site_fract_z
Si Si1 0.732267 0.967919 0.144027
Si Si2 0.388486 0.720772 0.447948
Si Si3 0.309886 0.419311 0.388477
Si Si4 0.829121 0.785831 0.748089
Si Si5 0.884163 0.173096 0.577880
Si Si6 0.119412 0.492494 0.809502
Si Si7 0.557371 0.605937 0.003779
Si Si8 0.113243 0.790289 0.042044
O O1 0.740676 0.955844 0.998282
O O2 0.781058 0.606362 0.086247
O O3 0.837073 0.015476 0.017331
O O4 0.606642 0.263293 0.425574
O O5 0.333230 0.569874 0.462059
O O6 0.525116 0.562807 0.172283
O O7 0.262560 0.121576 0.623842
O O8 0.170481 0.503335 0.618025
O O9 0.445940 0.017305 0.179733
O O10 0.311465 0.533825 0.270018
O O11 0.799452 0.572040 0.730956
O O12 0.000000 0.500000 0.500000
O O13 0.805367 0.058877 0.717845
O O14 0.000000 0.000000 0.500000
O O15 0.980928 0.984906 0.321922
O O16 0.086783 0.763822 0.954308
O O17 0.000000 0.500000 0.000000
O O18 0.500000 0.500000 0.000000
#
# Coordination Sequence:
#
# PCOD9077375 Si02
#       8
#     2   2   2   2   2   2   2   2
#     4  11  17  26  40  59  84 109 143 175 218 261
#     4   9  18  28  42  61  83 112 147 182 219 263
#     4   9  15  29  45  58  79 107 144 184 222 259
#     4  10  15  23  37  56  78 105 136 171 210 263
#     4  10  15  24  38  55  77 103 144 172 211 255
#     4  10  21  31  40  59  87 122 159 186 213 250
#     4   8  15  27  45  63  76 100 141 181 227 266
#     4  11  18  28  40  56  80 115 149 183 211 251
#
# _framework density 25.147424000000001
#
# number of rings (size 3 to 8) (size 9 to 14) (size 15 to 20)
#    0.000    2.250    6.250    0.000    0.000    0.500 
#    0.000    0.000    0.000    0.000    0.000    0.000 
#    0.000    0.000    0.000    2.250    1.500    3.750 
#
# Total GULP energy -89268.781758 kJ/mol
# GULP energy per Si atom -5579.298860 kJ/mol
# Density = 2.509019 g / cm^3
# Si number density = 25.147424 Si / 1000 Ang^3
#
#
#
# Elastic Constant Matrix: (Units=GPa)
#
#
# Indices 1 2 3 4 5 6 
#
# 1 50.3778 26.9835 43.1452 -3.9655 26.1980 -3.7801
# 2 26.9835 119.0588 34.8770 -13.6343 21.1976 16.0510
# 3 43.1452 34.8770 222.9626 -39.0962 36.8786 5.3343
# 4 -3.9655 -13.6343 -39.0962 62.0944 3.7127 19.1638
# 5 26.1980 21.1976 36.8786 3.7127 52.9765 -0.6533
# 6 -3.7801 16.0510 5.3343 19.1638 -0.6533 32.8534
#
#
#
# Elastic Compliance Matrix: (Units=1/GPa)
#
#
# Indices 1 2 3 4 5 6 
#
# 1 0.032877 -0.006205 -0.004852 -0.004889 -0.009929 0.010257
# 2 -0.006205 0.012243 0.001250 0.006617 -0.003298 -0.010824
# 3 -0.004852 0.001250 0.007131 0.006598 -0.003604 -0.006247
# 4 -0.004889 0.006617 0.006598 0.028499 -0.007087 -0.021632
# 5 -0.009929 -0.003298 -0.003604 -0.007087 0.028183 0.005749
# 6 0.010257 -0.010824 -0.006247 -0.021632 0.005749 0.050653
#
#
# Mechanical properties :
#
#
# Convention : Reuss Voigt Hill
#
# Bulk Modulus (GPa) = 30.63876 66.93452 48.78664
# Shear Modulus (GPa) = 26.30491 48.74443 37.52467
#
# Velocity S-wave (km/s) = 3.23774 4.40744 3.86707
# Velocity P-wave (km/s) = 5.11736 7.25089 6.27546
#
# Compressibility (1/GPa) = 0.03263840
#
# Stress axis : x y z
#
# Youngs Moduli (GPa) = 30.41662 81.67634 140.23325
#
# Poissons Ratio (x) = 0.50679 0.68039
# Poissons Ratio (y) = 0.18873 -0.17533
# Poissons Ratio (z) = 0.14758 -0.10212
#
# Static dielectric constant tensor:
#      x y z
#    x 2.137140 -0.036330 -0.034680 
#    y -0.036330 1.922720 -0.065990 
#    z -0.034680 -0.065990 2.085810 
# 
# From -- ./inp_files/73965.got.cif
#   From: 2010.05.17/outbox.cif.g08.bks.cpg/sg2_37_cif.got.tgz:73965.got - 2010.06.03 11:33:40.
