data_PCOD9077248
_publ_section_title
;
Structure prediction by ZEFSAII (Michael W. Deem and Ramdas Pophale) SiO2 
 PCOD9077248
Probable space group: P -1
;
_chemical_formula_sum "Si O2"
_cell_formula_units_Z 16
_cell_length_a 9.177878
_cell_length_b 9.274961
_cell_length_c 25.387516
_cell_angle_alpha 138.482803
_cell_angle_beta 149.626235
_cell_angle_gamma 45.930843
_cell_volume 716.357963
_symmetry_space_group_name_H-M "P -1"
_symmetry_group_IT_number 2
_symmetry_cell_setting 'triclinic'
loop_
_space_group_symop_operation_xyz
x,y,z
-x,-y,-z
loop_
_atom_site_type_symbol
_atom_site_label
_atom_site_fract_x
_atom_site_fract_y
_atom_site_fract_z
Si Si1 0.764621 0.180831 0.852727
Si Si2 0.630504 0.720446 0.095585
Si Si3 0.947459 0.262128 0.441455
Si Si4 0.388158 0.204764 0.648324
Si Si5 0.102088 0.973887 0.314899
Si Si6 0.354131 0.119826 0.185946
Si Si7 0.302631 0.309691 0.005173
Si Si8 0.521372 0.293064 0.185564
O O1 0.469222 0.155798 0.721396
O O2 0.847270 0.964451 0.855410
O O3 0.745411 0.422483 0.940090
O O4 0.003783 0.209475 0.890760
O O5 0.498775 0.882483 0.144300
O O6 0.972764 0.741732 0.213079
O O7 0.500000 0.500000 0.000000
O O8 0.548814 0.785857 0.027738
O O9 0.071394 0.214808 0.525924
O O10 0.000000 0.500000 0.500000
O O11 0.828890 0.144966 0.254120
O O12 0.125391 0.076995 0.408063
O O13 0.617053 0.051076 0.640761
O O14 0.448349 0.454489 0.728794
O O15 0.607100 0.239933 0.322950
O O16 0.284166 0.238192 0.140167
O O17 0.450896 0.260994 0.094177
#
# Coordination Sequence:
#
# PCOD9077248 Si02
#       8
#     2   2   2   2   2   2   2   2
#     4  10  21  34  57  91 121 155 204 238 300 366
#     4  10  18  34  57  86 123 155 196 245 290 357
#     4  10  19  38  63  86 113 156 200 256 299 347
#     4  11  19  38  63  84 118 159 193 252 301 354
#     4  10  21  35  60  92 112 154 208 234 296 364
#     4  10  21  36  58  91 118 154 208 246 293 364
#     4  10  19  36  58  83 124 165 189 244 302 350
#     4   9  21  36  60  88 119 158 204 236 297 359
#
# _framework density 22.335201000000001
#
# number of rings (size 3 to 8) (size 9 to 14) (size 15 to 20)
#    0.000    2.250    5.000    0.375    0.000    3.000 
#    0.000    1.250    0.000    0.750    0.000    0.000 
#    0.000    0.000    0.000    0.000    0.000    0.000 
#
# Total GULP energy -89121.462295 kJ/mol
# GULP energy per Si atom -5570.091393 kJ/mol
# Density = 2.228437 g / cm^3
# Si number density = 22.335201 Si / 1000 Ang^3
#
#
#
# Elastic Constant Matrix: (Units=GPa)
#
#
# Indices 1 2 3 4 5 6 
#
# 1 52.2470 16.2760 17.4273 2.1024 0.0448 18.0093
# 2 16.2760 57.3984 21.3920 6.6964 10.3546 14.0872
# 3 17.4273 21.3920 120.1464 -6.3299 -8.3451 13.1621
# 4 2.1024 6.6964 -6.3299 39.8680 8.7587 0.7632
# 5 0.0448 10.3546 -8.3451 8.7587 20.1230 0.3919
# 6 18.0093 14.0872 13.1621 0.7632 0.3919 37.0901
#
#
#
# Elastic Compliance Matrix: (Units=1/GPa)
#
#
# Indices 1 2 3 4 5 6 
#
# 1 0.024361 -0.004168 -0.001647 -0.001119 0.002082 -0.009660
# 2 -0.004168 0.024040 -0.004075 -0.001434 -0.013320 -0.005491
# 3 -0.001647 -0.004075 0.009881 0.001102 0.005742 -0.001242
# 4 -0.001119 -0.001434 0.001102 0.027965 -0.010979 0.000237
# 5 0.002082 -0.013320 0.005742 -0.010979 0.063674 0.001563
# 6 -0.009660 -0.005491 -0.001242 0.000237 0.001563 0.034156
#
#
# Mechanical properties :
#
#
# Convention : Reuss Voigt Hill
#
# Bulk Modulus (GPa) = 25.97358 37.77579 31.87469
# Shear Modulus (GPa) = 23.07424 31.06267 27.06845
#
# Velocity S-wave (km/s) = 3.21766 3.73332 3.48504
# Velocity P-wave (km/s) = 5.04566 5.96099 5.52232
#
# Compressibility (1/GPa) = 0.03850066
#
# Stress axis : x y z
#
# Youngs Moduli (GPa) = 41.04963 41.59652 101.20746
#
# Poissons Ratio (x) = 0.17338 0.16674
# Poissons Ratio (y) = 0.17110 0.41242
# Poissons Ratio (z) = 0.06763 0.16951
#
# Static dielectric constant tensor:
#      x y z
#    x 1.838090 0.007680 0.018070 
#    y 0.007680 1.906400 -0.029490 
#    z 0.018070 -0.029490 1.930280 
# 
# From -- ./inp_files/588154.got.cif
#   From: 2010.05.17/outbox.cif.g08.bks.cpg/sg2_295_cif.got.tgz:588154.got - 2010.06.03 11:33:40.
