data_PCOD9077662
_publ_section_title
;
Structure prediction by ZEFSAII (Michael W. Deem and Ramdas Pophale) SiO2 
 PCOD9077662
Probable space group: P -1
;
_chemical_formula_sum "Si O2"
_cell_formula_units_Z 16
_cell_length_a 13.884885
_cell_length_b 13.804641
_cell_length_c 7.400992
_cell_angle_alpha 71.415569
_cell_angle_beta 39.058655
_cell_angle_gamma 57.735525
_cell_volume 743.533849
_symmetry_space_group_name_H-M "P -1"
_symmetry_group_IT_number 2
_symmetry_cell_setting 'triclinic'
loop_
_space_group_symop_operation_xyz
x,y,z
-x,-y,-z
loop_
_atom_site_type_symbol
_atom_site_label
_atom_site_fract_x
_atom_site_fract_y
_atom_site_fract_z
Si Si1 0.475076 0.240398 0.919568
Si Si2 0.551296 0.188166 0.257573
Si Si3 0.358414 0.621552 0.040352
Si Si4 0.060761 0.586296 0.783450
Si Si5 0.818162 0.503351 0.721046
Si Si6 0.290269 0.177467 0.928878
Si Si7 0.115881 0.029393 0.175431
Si Si8 0.197658 0.738122 0.585853
O O1 0.515210 0.190691 0.093599
O O2 0.328327 0.373863 0.071544
O O3 0.400794 0.175895 0.941228
O O4 0.641298 0.246538 0.592042
O O5 0.408431 0.172513 0.588618
O O6 0.550478 0.310022 0.224032
O O7 0.746326 0.083092 0.066535
O O8 0.239757 0.594238 0.091067
O O9 0.242769 0.707821 0.321408
O O10 0.500000 0.500000 0.000000
O O11 0.178474 0.513923 0.488705
O O12 0.158441 0.632328 0.749933
O O13 0.890705 0.701264 0.891076
O O14 0.000000 0.500000 0.000000
O O15 0.000000 0.500000 0.500000
O O16 0.234176 0.077874 0.070295
O O17 0.975353 0.140698 0.203779
O O18 0.000000 0.000000 0.500000
#
# Coordination Sequence:
#
# PCOD9077662 Si02
#       8
#     2   2   2   2   2   2   2   2
#     4  11  21  40  64  91 130 164 208 260 318 368
#     4  11  23  42  70  89 127 171 208 263 320 362
#     4  10  18  34  62  87 116 167 205 240 311 381
#     4  10  21  36  59  86 128 168 205 254 313 375
#     4  11  20  34  54  87 124 165 199 250 304 372
#     4  11  25  40  64 100 122 159 222 261 309 379
#     4  11  21  44  69  91 123 173 212 256 321 375
#     4   9  20  37  62  87 123 165 209 254 308 375
#
# _framework density 21.51886
#
# number of rings (size 3 to 8) (size 9 to 14) (size 15 to 20)
#    0.000    1.500    6.250    1.125    1.750    0.500 
#    2.250    1.875    5.500    0.000    0.000    0.000 
#    0.000    0.000    0.000    0.000    0.000    0.000 
#
# Total GULP energy -89218.837174 kJ/mol
# GULP energy per Si atom -5576.177323 kJ/mol
# Density = 2.146988 g / cm^3
# Si number density = 21.518860 Si / 1000 Ang^3
#
#
#
# Elastic Constant Matrix: (Units=GPa)
#
#
# Indices 1 2 3 4 5 6 
#
# 1 68.7419 28.9290 38.3656 -10.5176 -21.7658 15.8193
# 2 28.9290 114.8433 43.2091 -18.9743 -20.4367 21.3180
# 3 38.3656 43.2091 116.1739 -18.3539 -32.1614 18.5982
# 4 -10.5176 -18.9743 -18.3539 48.5679 -0.0406 -13.5208
# 5 -21.7658 -20.4367 -32.1614 -0.0406 36.1009 -7.5376
# 6 15.8193 21.3180 18.5982 -13.5208 -7.5376 13.2993
#
#
#
# Elastic Compliance Matrix: (Units=1/GPa)
#
#
# Indices 1 2 3 4 5 6 
#
# 1 0.022855 0.000196 -0.002433 -0.002060 0.007091 -0.022172
# 2 0.000196 0.012880 -0.001367 -0.000473 0.002417 -0.018079
# 3 -0.002433 -0.001367 0.013766 0.002165 0.008537 -0.007126
# 4 -0.002060 -0.000473 0.002165 0.030814 0.007976 0.036029
# 5 0.007091 0.002417 0.008537 0.007976 0.042634 0.008025
# 6 -0.022172 -0.018079 -0.007126 0.036029 0.008025 0.181688
#
#
# Mechanical properties :
#
#
# Convention : Reuss Voigt Hill
#
# Bulk Modulus (GPa) = 23.64485 57.86295 40.75390
# Shear Modulus (GPa) = 15.34005 32.21066 23.77535
#
# Velocity S-wave (km/s) = 2.67285 3.87312 3.32755
# Velocity P-wave (km/s) = 4.53181 6.85195 5.80890
#
# Compressibility (1/GPa) = 0.04229251
#
# Stress axis : x y z
#
# Youngs Moduli (GPa) = 43.75322 77.63788 72.64257
#
# Poissons Ratio (x) = -0.01518 0.17678
# Poissons Ratio (y) = -0.00856 0.09928
# Poissons Ratio (z) = 0.10647 0.10611
#
# Static dielectric constant tensor:
#      x y z
#    x 5.492850 -6.313640 10.189180 
#    y -6.313640 12.737910 -17.708080 
#    z 10.189180 -17.708080 30.391530 
# 
# From -- ./inp_files/307243.got.cif
#   From: 2010.05.17/outbox.cif.g08.bks.cpg/sg2_154_cif.got.tgz:307243.got - 2010.06.03 11:33:40.
