data_PCOD9077702
_publ_section_title
;
Structure prediction by ZEFSAII (Michael W. Deem and Ramdas Pophale) SiO2 
 PCOD9077702
Probable space group: P -1
;
_chemical_formula_sum "Si O2"
_cell_formula_units_Z 16
_cell_length_a 17.616673
_cell_length_b 7.821960
_cell_length_c 11.480566
_cell_angle_alpha 120.534733
_cell_angle_beta 119.312620
_cell_angle_gamma 33.351313
_cell_volume 741.986034
_symmetry_space_group_name_H-M "P -1"
_symmetry_group_IT_number 2
_symmetry_cell_setting 'triclinic'
loop_
_space_group_symop_operation_xyz
x,y,z
-x,-y,-z
loop_
_atom_site_type_symbol
_atom_site_label
_atom_site_fract_x
_atom_site_fract_y
_atom_site_fract_z
Si Si1 0.921786 0.241388 0.415064
Si Si2 0.766007 0.595643 0.937974
Si Si3 0.768760 0.198270 0.921063
Si Si4 0.653164 0.728234 0.656648
Si Si5 0.454075 0.682755 0.907104
Si Si6 0.637255 0.541486 0.356748
Si Si7 0.966404 0.831636 0.147300
Si Si8 0.889256 0.607813 0.690876
O O1 0.766424 0.428617 0.360063
O O2 0.918084 0.476478 0.536301
O O3 0.984843 0.029039 0.273213
O O4 0.000000 0.000000 0.500000
O O5 0.808809 0.351951 0.976354
O O6 0.693500 0.618324 0.780661
O O7 0.903917 0.448102 0.936149
O O8 0.652159 0.949905 0.023051
O O9 0.601746 0.479971 0.891440
O O10 0.838318 0.919677 0.786841
O O11 0.829096 0.044016 0.041599
O O12 0.653520 0.539890 0.506897
O O13 0.763719 0.689322 0.672754
O O14 0.503456 0.097545 0.662822
O O15 0.377147 0.655963 0.762789
O O16 0.500000 0.500000 0.000000
O O17 0.984054 0.673094 0.223635
#
# Coordination Sequence:
#
# PCOD9077702 Si02
#       8
#     2   2   2   2   2   2   2   2
#     4   9  19  34  60  91 112 138 198 250 283 329
#     4  11  24  40  55  84 126 155 190 240 296 340
#     4  12  23  38  58  88 121 155 190 241 294 348
#     4   9  18  36  60  82 112 147 191 239 286 339
#     4  12  22  39  61  88 112 154 198 242 283 346
#     4  10  18  34  63  86 108 146 197 243 283 330
#     4  10  21  39  59  84 114 161 195 236 284 347
#     4   9  18  37  61  89 111 147 196 245 282 342
#
# _framework density 21.563746999999999
#
# number of rings (size 3 to 8) (size 9 to 14) (size 15 to 20)
#    0.000    1.750    2.500    3.375    0.000    2.000 
#    0.000    2.500    0.000    0.000    0.000    0.000 
#    0.000    0.000    0.000    0.000    0.000    0.000 
#
# Total GULP energy -89339.558748 kJ/mol
# GULP energy per Si atom -5583.722422 kJ/mol
# Density = 2.151467 g / cm^3
# Si number density = 21.563747 Si / 1000 Ang^3
#
#
#
# Elastic Constant Matrix: (Units=GPa)
#
#
# Indices 1 2 3 4 5 6 
#
# 1 18.9580 15.4449 10.0473 1.7806 3.9714 3.5798
# 2 15.4449 105.2699 51.6683 21.0991 6.5305 -10.5387
# 3 10.0473 51.6683 146.3172 27.0494 19.3485 -1.3959
# 4 1.7806 21.0991 27.0494 46.7770 -3.3862 9.4655
# 5 3.9714 6.5305 19.3485 -3.3862 14.5562 0.3035
# 6 3.5798 -10.5387 -1.3959 9.4655 0.3035 20.8059
#
#
#
# Elastic Compliance Matrix: (Units=1/GPa)
#
#
# Indices 1 2 3 4 5 6 
#
# 1 0.068974 -0.012844 -0.000266 0.006873 -0.010658 -0.021362
# 2 -0.012844 0.015870 -0.002874 -0.007916 -0.001922 0.013685
# 3 -0.000266 -0.002874 0.011133 -0.006754 -0.015062 0.002629
# 4 0.006873 -0.007916 -0.006754 0.034334 0.019090 -0.021544
# 5 -0.010658 -0.001922 -0.015062 0.019090 0.097145 -0.010252
# 6 -0.021362 0.013685 0.002629 -0.021544 -0.010252 0.068798
#
#
# Mechanical properties :
#
#
# Convention : Reuss Voigt Hill
#
# Bulk Modulus (GPa) = 15.62260 47.20733 31.41496
# Shear Modulus (GPa) = 14.30374 29.32013 21.81193
#
# Velocity S-wave (km/s) = 2.57830 3.69140 3.18387
# Velocity P-wave (km/s) = 4.01548 6.33310 5.30246
#
# Compressibility (1/GPa) = 0.06400983
#
# Stress axis : x y z
#
# Youngs Moduli (GPa) = 14.49818 63.01045 89.82288
#
# Poissons Ratio (x) = 0.80932 0.02386
# Poissons Ratio (y) = 0.18622 0.25816
# Poissons Ratio (z) = 0.00385 0.18110
#
# Static dielectric constant tensor:
#      x y z
#    x 1.785420 -0.020370 0.003230 
#    y -0.020370 1.816650 0.041730 
#    z 0.003230 0.041730 1.836730 
# 
# From -- ./inp_files/218641.got.cif
#   From: 2010.05.17/outbox.cif.g08.bks.cpg/sg2_110_cif.got.tgz:218641.got - 2010.06.03 11:33:40.
