data_PCOD9077656
_publ_section_title
;
Structure prediction by ZEFSAII (Michael W. Deem and Ramdas Pophale) SiO2 
 PCOD9077656
Probable space group: P -1
;
_chemical_formula_sum "Si O2"
_cell_formula_units_Z 14
_cell_length_a 11.667056
_cell_length_b 8.957335
_cell_length_c 16.550931
_cell_angle_alpha 48.746488
_cell_angle_beta 145.942214
_cell_angle_gamma 134.474087
_cell_volume 677.574304
_symmetry_space_group_name_H-M "P -1"
_symmetry_group_IT_number 2
_symmetry_cell_setting 'triclinic'
loop_
_space_group_symop_operation_xyz
x,y,z
-x,-y,-z
loop_
_atom_site_type_symbol
_atom_site_label
_atom_site_fract_x
_atom_site_fract_y
_atom_site_fract_z
Si Si1 0.016705 0.743930 0.901667
Si Si2 0.742885 0.023132 0.607633
Si Si3 0.847041 0.541816 0.730272
Si Si4 0.179899 0.916755 0.100340
Si Si5 0.678561 0.078176 0.360460
Si Si6 0.635435 0.653217 0.410230
Si Si7 0.054455 0.499263 0.438704
O O1 0.037079 0.727430 0.822290
O O2 0.823720 0.843612 0.755715
O O3 0.000000 0.500000 0.000000
O O4 0.179741 0.890210 0.011878
O O5 0.742146 0.022195 0.508388
O O6 0.893021 0.258369 0.643440
O O7 0.500000 0.000000 0.500000
O O8 0.891489 0.326361 0.823923
O O9 0.769858 0.600246 0.580471
O O10 0.622474 0.468968 0.679903
O O11 0.424379 0.051521 0.225103
O O12 0.000000 0.000000 0.000000
O O13 0.844831 0.309285 0.349184
O O14 0.685895 0.902140 0.362884
O O15 0.733843 0.569617 0.422682
O O16 0.000000 0.500000 0.500000
#
# Coordination Sequence:
#
# PCOD9077656 Si02
#       7
#     2   2   2   2   2   2   2
#     4  10  20  36  53  85 122 151 190 247 302 351
#     4  11  21  36  64  91 116 152 204 255 296 351
#     4   9  19  33  58  93 110 153 197 252 295 351
#     4  10  21  34  57  87 124 153 201 253 302 345
#     4  10  21  39  57  89 121 160 202 242 307 362
#     4  10  18  34  62  86 121 147 205 245 299 356
#     4  10  23  36  56  93 126 155 191 255 312 352
#
# _framework density 20.661940999999999
#
# number of rings (size 3 to 8) (size 9 to 14) (size 15 to 20)
#    0.000    2.000    1.429    2.143    6.000    1.143 
#    0.000    0.714    0.000    0.857    0.000    0.000 
#    0.000    0.000    0.000    0.000    0.000    0.000 
#
# Total GULP energy -77935.263481 kJ/mol
# GULP energy per Si atom -5566.804534 kJ/mol
# Density = 2.061491 g / cm^3
# Si number density = 20.661941 Si / 1000 Ang^3
#
#
#
# Elastic Constant Matrix: (Units=GPa)
#
#
# Indices 1 2 3 4 5 6 
#
# 1 73.5560 24.9864 17.6922 -8.5091 18.6280 -17.5574
# 2 24.9864 116.8803 32.6382 -5.9776 12.3698 -8.4944
# 3 17.6922 32.6382 113.7657 -14.2005 8.4397 -5.0470
# 4 -8.5091 -5.9776 -14.2005 32.6237 -17.5120 3.3314
# 5 18.6280 12.3698 8.4397 -17.5120 30.9880 -3.4921
# 6 -17.5574 -8.4944 -5.0470 3.3314 -3.4921 17.5324
#
#
#
# Elastic Compliance Matrix: (Units=1/GPa)
#
#
# Indices 1 2 3 4 5 6 
#
# 1 0.021596 -0.001750 -0.001606 -0.003621 -0.011790 0.018656
# 2 -0.001750 0.010000 -0.002473 -0.001441 -0.002845 0.002088
# 3 -0.001606 -0.002473 0.010168 0.004496 0.001679 -0.000399
# 4 -0.003621 -0.001441 0.004496 0.046639 0.027153 -0.006483
# 5 -0.011790 -0.002845 0.001679 0.027153 0.054594 -0.006987
# 6 0.018656 0.002088 -0.000399 -0.006483 -0.006987 0.076457
#
#
# Mechanical properties :
#
#
# Convention : Reuss Voigt Hill
#
# Bulk Modulus (GPa) = 33.21592 50.53731 41.87661
# Shear Modulus (GPa) = 20.73434 31.48783 26.11109
#
# Velocity S-wave (km/s) = 3.17125 3.90802 3.55875
# Velocity P-wave (km/s) = 5.43322 6.69893 6.09900
#
# Compressibility (1/GPa) = 0.03010604
#
# Stress axis : x y z
#
# Youngs Moduli (GPa) = 46.30517 100.00492 98.34641
#
# Poissons Ratio (x) = 0.17499 0.15796
# Poissons Ratio (y) = 0.08102 0.24319
# Poissons Ratio (z) = 0.07437 0.24729
#
# Static dielectric constant tensor:
#      x y z
#    x 1.798270 -0.033390 -0.027580 
#    y -0.033390 1.815150 0.014420 
#    z -0.027580 0.014420 1.771930 
# 
# From -- ./inp_files/225970.got.cif
#   From: 2010.05.17/outbox.cif.g08.bks.cpg/sg2_113_cif.got.tgz:225970.got - 2010.06.03 11:33:40.
