data_PCOD9077278
_publ_section_title
;
Structure prediction by ZEFSAII (Michael W. Deem and Ramdas Pophale) SiO2 
 PCOD9077278
Probable space group: P -1
;
_chemical_formula_sum "Si O2"
_cell_formula_units_Z 14
_cell_length_a 11.017303
_cell_length_b 8.692789
_cell_length_c 9.487213
_cell_angle_alpha 105.054460
_cell_angle_beta 104.060510
_cell_angle_gamma 122.188749
_cell_volume 656.776467
_symmetry_space_group_name_H-M "P -1"
_symmetry_group_IT_number 2
_symmetry_cell_setting 'triclinic'
loop_
_space_group_symop_operation_xyz
x,y,z
-x,-y,-z
loop_
_atom_site_type_symbol
_atom_site_label
_atom_site_fract_x
_atom_site_fract_y
_atom_site_fract_z
Si Si1 0.690896 0.323684 0.127132
Si Si2 0.830272 0.732413 0.091814
Si Si3 0.387218 0.552798 0.591617
Si Si4 0.372338 0.498195 0.267379
Si Si5 0.607331 0.839980 0.181732
Si Si6 0.919219 0.887480 0.600064
Si Si7 0.894862 0.278884 0.341719
O O1 0.782500 0.542804 0.128189
O O2 0.657577 0.353813 0.284288
O O3 0.813663 0.277104 0.173997
O O4 0.520066 0.175721 0.962431
O O5 0.707667 0.777994 0.117171
O O6 0.792199 0.658953 0.902864
O O7 0.012162 0.929856 0.227494
O O8 0.369764 0.591496 0.434786
O O9 0.560974 0.620559 0.694917
O O10 0.267733 0.303092 0.517584
O O11 0.495564 0.673679 0.230960
O O12 0.740874 0.073404 0.328917
O O13 0.985979 0.773391 0.648229
O O14 0.000000 0.000000 0.500000
O O15 0.000000 0.500000 0.500000
#
# Coordination Sequence:
#
# PCOD9077278 Si02
#       7
#     2   2   2   2   2   2   2
#     4  11  18  34  54  83 105 137 174 226 257 311
#     4  10  18  34  58  78 107 138 182 216 264 307
#     4  11  19  32  54  81 113 133 179 218 267 304
#     4  10  20  33  54  82 107 142 173 221 261 316
#     4  10  19  35  55  79 105 140 181 214 264 310
#     4  11  20  35  56  82 106 138 180 223 262 312
#     4  11  21  32  55  83 104 134 179 225 265 305
#
# _framework density 21.316230999999998
#
# number of rings (size 3 to 8) (size 9 to 14) (size 15 to 20)
#    0.000    1.429    5.714    2.143    0.000    0.571 
#    0.000    0.714    0.000    3.429    0.000    0.000 
#    0.000    0.000    0.000    0.000    0.000    0.000 
#
# Total GULP energy -78084.946434 kJ/mol
# GULP energy per Si atom -5577.496174 kJ/mol
# Density = 2.126771 g / cm^3
# Si number density = 21.316231 Si / 1000 Ang^3
#
#
#
# Elastic Constant Matrix: (Units=GPa)
#
#
# Indices 1 2 3 4 5 6 
#
# 1 29.1758 2.0407 11.8061 -15.9638 15.2016 -11.8974
# 2 2.0407 56.0796 12.2073 4.4216 0.6015 -6.5375
# 3 11.8061 12.2073 124.7448 -11.2066 3.9214 2.8074
# 4 -15.9638 4.4216 -11.2066 43.2590 3.2491 10.4339
# 5 15.2016 0.6015 3.9214 3.2491 34.5595 -8.9609
# 6 -11.8974 -6.5375 2.8074 10.4339 -8.9609 26.6451
#
#
#
# Elastic Compliance Matrix: (Units=1/GPa)
#
#
# Indices 1 2 3 4 5 6 
#
# 1 0.068912 -0.002020 -0.003488 0.024191 -0.029214 0.011344
# 2 -0.002020 0.019709 -0.002496 -0.005443 0.003266 0.007427
# 3 -0.003488 -0.002496 0.008925 0.002376 -0.000773 -0.004301
# 4 0.024191 -0.005443 0.002376 0.037193 -0.017199 -0.011132
# 5 -0.029214 0.003266 -0.000773 -0.017199 0.046042 0.010057
# 6 0.011344 0.007427 -0.004301 -0.011132 0.010057 0.052612
#
#
# Mechanical properties :
#
#
# Convention : Reuss Voigt Hill
#
# Bulk Modulus (GPa) = 12.26440 29.12317 20.69378
# Shear Modulus (GPa) = 18.07798 33.15580 25.61689
#
# Velocity S-wave (km/s) = 2.91535 3.94817 3.47039
# Velocity P-wave (km/s) = 4.13502 5.87164 5.07812
#
# Compressibility (1/GPa) = 0.08153682
#
# Stress axis : x y z
#
# Youngs Moduli (GPa) = 14.51135 50.73928 112.04156
#
# Poissons Ratio (x) = 0.10250 0.39079
# Poissons Ratio (y) = 0.02931 0.27969
# Poissons Ratio (z) = 0.05061 0.12666
#
# Static dielectric constant tensor:
#      x y z
#    x 1.820180 0.013350 0.025580 
#    y 0.013350 1.809740 0.020840 
#    z 0.025580 0.020840 1.818220 
# 
# From -- ./inp_files/172796.got.cif
#   From: 2010.05.17/outbox.cif.g08.bks.cpg/sg2_87_cif.got.tgz:172796.got - 2010.06.03 11:33:40.
