data_PCOD9077587
_publ_section_title
;
Structure prediction by ZEFSAII (Michael W. Deem and Ramdas Pophale) SiO2 
 PCOD9077587
Probable space group: P -1
;
_chemical_formula_sum "Si O2"
_cell_formula_units_Z 14
_cell_length_a 10.285267
_cell_length_b 7.853205
_cell_length_c 10.349574
_cell_angle_alpha 46.109367
_cell_angle_beta 123.612223
_cell_angle_gamma 115.053754
_cell_volume 500.620729
_symmetry_space_group_name_H-M "P -1"
_symmetry_group_IT_number 2
_symmetry_cell_setting 'triclinic'
loop_
_space_group_symop_operation_xyz
x,y,z
-x,-y,-z
loop_
_atom_site_type_symbol
_atom_site_label
_atom_site_fract_x
_atom_site_fract_y
_atom_site_fract_z
Si Si1 0.459706 0.208130 0.026127
Si Si2 0.604901 0.409240 0.421591
Si Si3 0.714592 0.694694 0.590672
Si Si4 0.177518 0.859639 0.712029
Si Si5 0.785646 0.194833 0.956141
Si Si6 0.840999 0.665043 0.076118
Si Si7 0.113009 0.865531 0.256504
O O1 0.447825 0.407587 0.807476
O O2 0.341706 0.300918 0.019779
O O3 0.635662 0.172109 0.177437
O O4 0.380035 0.956554 0.067544
O O5 0.666106 0.568586 0.493436
O O6 0.451369 0.248488 0.466089
O O7 0.749552 0.261094 0.531702
O O8 0.775513 0.475812 0.819858
O O9 0.835940 0.914950 0.506647
O O10 0.109440 0.598375 0.776903
O O11 0.145027 0.901648 0.822717
O O12 0.846808 0.170173 0.856156
O O13 0.937089 0.748913 0.216174
O O14 0.876467 0.850826 0.880186
#
# Coordination Sequence:
#
# PCOD9077587 Si02
#       7
#     2   2   2   2   2   2   2
#     4  11  20  36  61  87 115 153 185 232 288 341
#     4  10  18  34  61  85 113 148 195 230 275 345
#     4  10  19  33  58  93 115 141 184 245 286 327
#     4  12  21  36  60  91 117 143 186 244 289 328
#     4  10  20  37  63  87 114 148 193 232 283 339
#     4  10  23  40  56  80 119 156 189 232 281 340
#     4   9  21  42  60  77 111 162 194 226 280 340
#
# _framework density 27.965284
#
# number of rings (size 3 to 8) (size 9 to 14) (size 15 to 20)
#    0.000    1.714    2.857    4.286    0.000    1.143 
#    2.571    4.286    0.000    0.000    0.000    0.000 
#    0.000    0.000    0.000    0.000    0.000    0.000 
#
# Total GULP energy -78360.536181 kJ/mol
# GULP energy per Si atom -5597.181156 kJ/mol
# Density = 2.790163 g / cm^3
# Si number density = 27.965284 Si / 1000 Ang^3
#
#
#
# Elastic Constant Matrix: (Units=GPa)
#
#
# Indices 1 2 3 4 5 6 
#
# 1 80.1492 11.8361 16.7625 -2.9284 -6.9425 0.4923
# 2 11.8361 129.8034 31.7013 -33.0566 -3.8480 -6.4454
# 3 16.7625 31.7013 156.2379 -27.7448 3.8311 9.1922
# 4 -2.9284 -33.0566 -27.7448 44.5230 4.8677 4.5330
# 5 -6.9425 -3.8480 3.8311 4.8677 43.8480 -6.7812
# 6 0.4923 -6.4454 9.1922 4.5330 -6.7812 22.8627
#
#
#
# Elastic Compliance Matrix: (Units=1/GPa)
#
#
# Indices 1 2 3 4 5 6 
#
# 1 0.013105 -0.001006 -0.001534 -0.001207 0.002410 0.001005
# 2 -0.001006 0.009741 -0.000857 0.006394 0.000362 0.001952
# 3 -0.001534 -0.000857 0.007990 0.005021 -0.002365 -0.005118
# 4 -0.001207 0.006394 0.005021 0.031583 -0.004793 -0.007874
# 5 0.002410 0.000362 -0.002365 -0.004793 0.025426 0.009493
# 6 0.001005 0.001952 -0.005118 -0.007874 0.009493 0.050703
#
#
# Mechanical properties :
#
#
# Convention : Reuss Voigt Hill
#
# Bulk Modulus (GPa) = 41.59676 54.08783 47.84229
# Shear Modulus (GPa) = 32.60390 42.63943 37.62166
#
# Velocity S-wave (km/s) = 3.41819 3.90901 3.67181
# Velocity P-wave (km/s) = 5.52136 6.30531 5.92631
#
# Compressibility (1/GPa) = 0.02404034
#
# Stress axis : x y z
#
# Youngs Moduli (GPa) = 76.30826 102.65954 125.15929
#
# Poissons Ratio (x) = 0.10331 0.19205
# Poissons Ratio (y) = 0.07679 0.10724
# Poissons Ratio (z) = 0.11709 0.08796
#
# Static dielectric constant tensor:
#      x y z
#    x 2.434920 0.054220 0.109660 
#    y 0.054220 2.265070 -0.021930 
#    z 0.109660 -0.021930 2.204840 
# 
# From -- ./inp_files/257716.got.cif
#   From: 2010.05.17/outbox.cif.g08.bks.cpg/sg2_129_cif.got.tgz:257716.got - 2010.06.03 11:33:40.
