data_PCOD9077457
_publ_section_title
;
Structure prediction by ZEFSAII (Michael W. Deem and Ramdas Pophale) SiO2 
 PCOD9077457
Probable space group: P -1
;
_chemical_formula_sum "Si O2"
_cell_formula_units_Z 16
_cell_length_a 9.233864
_cell_length_b 22.012403
_cell_length_c 28.366326
_cell_angle_alpha 15.500027
_cell_angle_beta 144.445197
_cell_angle_gamma 149.785459
_cell_volume 767.495509
_symmetry_space_group_name_H-M "P -1"
_symmetry_group_IT_number 2
_symmetry_cell_setting 'triclinic'
loop_
_space_group_symop_operation_xyz
x,y,z
-x,-y,-z
loop_
_atom_site_type_symbol
_atom_site_label
_atom_site_fract_x
_atom_site_fract_y
_atom_site_fract_z
Si Si1 0.726380 0.036211 0.992338
Si Si2 0.298751 0.089012 0.356913
Si Si3 0.337268 0.610289 0.015297
Si Si4 0.785802 0.785147 0.857131
Si Si5 0.855251 0.076592 0.754750
Si Si6 0.224308 0.510685 0.466677
Si Si7 0.814334 0.568133 0.593487
Si Si8 0.582736 0.118348 0.073723
O O1 0.897918 0.353903 0.791196
O O2 0.562780 0.902931 0.999608
O O3 0.500000 0.000000 0.000000
O O4 0.931396 0.933131 0.142608
O O5 0.374541 0.372717 0.183909
O O6 0.323968 0.101498 0.298009
O O7 0.500000 0.000000 0.500000
O O8 0.971815 0.837238 0.463858
O O9 0.413094 0.677055 0.040493
O O10 0.000000 0.500000 0.000000
O O11 0.534744 0.885864 0.833366
O O12 0.083054 0.805793 0.901884
O O13 0.862795 0.923347 0.824607
O O14 0.500000 0.500000 0.000000
O O15 0.969234 0.366697 0.545132
O O16 0.469847 0.447885 0.595710
O O17 0.132035 0.393336 0.477416
O O18 0.392583 0.825980 0.266071
#
# Coordination Sequence:
#
# PCOD9077457 Si02
#       8
#     2   2   2   2   2   2   2   2
#     4  11  21  36  67 104 131 170 221 288 327 391
#     4  12  24  40  67  98 128 177 228 271 317 394
#     4  12  25  45  67  96 140 186 216 268 347 404
#     4  12  21  39  66  98 127 177 234 273 312 407
#     4  12  22  38  68 102 125 170 237 271 328 398
#     4  10  18  35  63  92 123 166 211 276 324 385
#     4  10  18  34  59  95 131 156 215 277 328 367
#     4  11  23  42  65  94 141 175 216 274 350 394
#
# _framework density 20.847028000000002
#
# number of rings (size 3 to 8) (size 9 to 14) (size 15 to 20)
#    0.000    0.750    7.500    1.500    0.000    1.000 
#    0.000    0.000    2.750    3.750    0.000    0.000 
#    0.000    0.000    0.000    0.000    0.000    0.000 
#
# Total GULP energy -89266.158399 kJ/mol
# GULP energy per Si atom -5579.134900 kJ/mol
# Density = 2.079958 g / cm^3
# Si number density = 20.847028 Si / 1000 Ang^3
#
#
#
# Elastic Constant Matrix: (Units=GPa)
#
#
# Indices 1 2 3 4 5 6 
#
# 1 79.7403 38.9506 26.2959 -16.2482 -15.8645 -13.6506
# 2 38.9506 123.7933 58.5932 -6.3418 -17.2983 -12.6244
# 3 26.2959 58.5932 76.6068 -6.1383 -25.5837 -0.0497
# 4 -16.2482 -6.3418 -6.1383 40.5279 -0.9279 -0.2890
# 5 -15.8645 -17.2983 -25.5837 -0.9279 32.7568 -13.9336
# 6 -13.6506 -12.6244 -0.0497 -0.2890 -13.9336 39.4743
#
#
#
# Elastic Compliance Matrix: (Units=1/GPa)
#
#
# Indices 1 2 3 4 5 6 
#
# 1 0.019983 -0.003293 0.000726 0.007985 0.013237 0.010589
# 2 -0.003293 0.013946 -0.009768 -0.000608 -0.000554 0.003109
# 3 0.000726 -0.009768 0.026268 0.003158 0.017180 0.003248
# 4 0.007985 -0.000608 0.003158 0.028518 0.009416 0.006103
# 5 0.013237 -0.000554 0.017180 0.009416 0.061471 0.026189
# 6 0.010589 0.003109 0.003248 0.006103 0.026189 0.039282
#
#
# Mechanical properties :
#
#
# Convention : Reuss Voigt Hill
#
# Bulk Modulus (GPa) = 28.14668 58.64665 43.39666
# Shear Modulus (GPa) = 22.12600 32.97185 27.54892
#
# Velocity S-wave (km/s) = 3.26137 3.98126 3.63916
# Velocity P-wave (km/s) = 5.26430 7.02331 6.20644
#
# Compressibility (1/GPa) = 0.03552816
#
# Stress axis : x y z
#
# Youngs Moduli (GPa) = 50.04343 71.70567 38.06885
#
# Poissons Ratio (x) = 0.23611 -0.02765
# Poissons Ratio (y) = 0.16478 0.37186
# Poissons Ratio (z) = -0.03635 0.70042
#
# Static dielectric constant tensor:
#      x y z
#    x 1.741340 -0.013130 -0.009830 
#    y -0.013130 1.736600 -0.069900 
#    z -0.009830 -0.069900 1.869030 
# 
# From -- ./inp_files/617545.got.cif
#   From: 2010.05.17/outbox.cif.g08.bks.cpg/sg2_309_cif.got.tgz:617545.got - 2010.06.03 11:33:40.
