data_PCOD9077025
_publ_section_title
;
Structure prediction by ZEFSAII (Michael W. Deem and Ramdas Pophale) SiO2 
 PCOD9077025
Probable space group: P -1
;
_chemical_formula_sum "Si O2"
_cell_formula_units_Z 11
_cell_length_a 7.371101
_cell_length_b 9.264193
_cell_length_c 9.728123
_cell_angle_alpha 55.622620
_cell_angle_beta 45.538062
_cell_angle_gamma 68.911127
_cell_volume 390.595571
_symmetry_space_group_name_H-M "P -1"
_symmetry_group_IT_number 2
_symmetry_cell_setting 'triclinic'
loop_
_space_group_symop_operation_xyz
x,y,z
-x,-y,-z
loop_
_atom_site_type_symbol
_atom_site_label
_atom_site_fract_x
_atom_site_fract_y
_atom_site_fract_z
Si Si1 0.254833 0.331180 0.301468
Si Si2 0.278065 0.620439 0.506347
Si Si3 0.454004 0.789106 0.035266
Si Si4 0.000000 0.000000 0.000000
Si Si5 0.491454 0.178756 0.497265
Si Si6 0.939319 0.000459 0.768885
O O1 0.414243 0.336615 0.354177
O O2 0.014832 0.445902 0.335224
O O3 0.099697 0.139828 0.517285
O O4 0.451819 0.324782 0.076330
O O5 0.500000 0.500000 0.500000
O O6 0.378421 0.704584 0.265156
O O7 0.274626 0.760911 0.559763
O O8 0.196502 0.890196 0.086369
O O9 0.699521 0.919494 0.859701
O O10 0.050499 0.875267 0.888591
O O11 0.744172 0.867245 0.252632
O O12 0.500000 0.000000 0.500000
#
# Coordination Sequence:
#
# PCOD9077025 Si02
#       6
#     2   2   2   1   2   2
#     4  10  23  37  63  93 123 164 205 262 311 362
#     4  11  26  44  61  89 130 173 209 247 306 381
#     4  10  19  37  57  86 123 161 200 252 309 366
#     4  10  18  34  54  92 124 152 188 262 308 356
#     4  11  24  39  65  98 123 156 212 260 310 370
#     4   9  18  30  57  87 123 150 198 255 318 355
#
# _framework density 28.162123000000001
#
# number of rings (size 3 to 8) (size 9 to 14) (size 15 to 20)
#    0.000    1.818    1.818    1.636   10.182    1.455 
#    0.000    0.909    0.000    0.000    0.000    0.000 
#    0.000    0.000    0.000    0.000    0.000    0.000 
#
# Total GULP energy -61303.472212 kJ/mol
# GULP energy per Si atom -5573.042928 kJ/mol
# Density = 2.809802 g / cm^3
# Si number density = 28.162123 Si / 1000 Ang^3
#
#
#
# Elastic Constant Matrix: (Units=GPa)
#
#
# Indices 1 2 3 4 5 6 
#
# 1 172.3345 37.2869 37.4658 4.5425 24.0766 -27.4096
# 2 37.2869 97.4102 23.0229 6.6875 17.2552 -2.2669
# 3 37.4658 23.0229 162.8125 32.4415 34.9334 -13.3289
# 4 4.5425 6.6875 32.4415 26.4333 -6.7538 5.5591
# 5 24.0766 17.2552 34.9334 -6.7538 62.8589 -1.7284
# 6 -27.4096 -2.2669 -13.3289 5.5591 -1.7284 57.3989
#
#
#
# Elastic Compliance Matrix: (Units=1/GPa)
#
#
# Indices 1 2 3 4 5 6 
#
# 1 0.007198 -0.002129 -0.000337 -0.001517 -0.002056 0.003360
# 2 -0.002129 0.011790 0.000081 -0.003381 -0.002837 -0.000290
# 3 -0.000337 0.000081 0.011729 -0.017283 -0.008159 0.003994
# 4 -0.001517 -0.003381 -0.017283 0.067038 0.018019 -0.010821
# 5 -0.002056 -0.002837 -0.008159 0.018019 0.023835 -0.004016
# 6 0.003360 -0.000290 0.003994 -0.010821 -0.004016 0.020870
#
#
# Mechanical properties :
#
#
# Convention : Reuss Voigt Hill
#
# Bulk Modulus (GPa) = 38.53887 69.78983 54.16435
# Shear Modulus (GPa) = 32.07638 51.65699 41.86668
#
# Velocity S-wave (km/s) = 3.37855 4.28749 3.85987
# Velocity P-wave (km/s) = 5.37902 7.02462 6.25616
#
# Compressibility (1/GPa) = 0.02594783
#
# Stress axis : x y z
#
# Youngs Moduli (GPa) = 138.92332 84.82081 85.25632
#
# Poissons Ratio (x) = 0.18060 0.02872
# Poissons Ratio (y) = 0.29580 -0.00695
# Poissons Ratio (z) = 0.04680 -0.00691
#
# Static dielectric constant tensor:
#      x y z
#    x 2.449100 -0.098200 -0.023840 
#    y -0.098200 2.612060 0.108960 
#    z -0.023840 0.108960 2.175490 
# 
# From -- ./inp_files/151888.got.cif
#   From: 2010.05.17/outbox.cif.g08.bks.cpg/sg2_76_cif.got.tgz:151888.got - 2010.06.03 11:33:40.
