data_PCOD9077908
_publ_section_title
;
Structure prediction by ZEFSAII (Michael W. Deem and Ramdas Pophale) SiO2 
 PCOD9077908
Probable space group: P -1
;
_chemical_formula_sum "Si O2"
_cell_formula_units_Z 16
_cell_length_a 7.191989
_cell_length_b 11.676965
_cell_length_c 11.054271
_cell_angle_alpha 80.111495
_cell_angle_beta 136.806937
_cell_angle_gamma 83.843249
_cell_volume 587.602032
_symmetry_space_group_name_H-M "P -1"
_symmetry_group_IT_number 2
_symmetry_cell_setting 'triclinic'
loop_
_space_group_symop_operation_xyz
x,y,z
-x,-y,-z
loop_
_atom_site_type_symbol
_atom_site_label
_atom_site_fract_x
_atom_site_fract_y
_atom_site_fract_z
Si Si1 0.163056 0.861401 0.551811
Si Si2 0.411053 0.601637 0.733544
Si Si3 0.724999 0.340930 0.896683
Si Si4 0.196914 0.926362 0.982175
Si Si5 0.794671 0.651659 0.684953
Si Si6 0.635360 0.093908 0.607285
Si Si7 0.106118 0.390805 0.853382
Si Si8 0.530273 0.865750 0.927340
O O1 0.132933 0.727714 0.589873
O O2 0.175231 0.873218 0.413006
O O3 0.475293 0.836349 0.768595
O O4 0.000000 0.000000 0.500000
O O5 0.580230 0.625851 0.689572
O O6 0.433908 0.458721 0.757921
O O7 0.617064 0.595153 0.948546
O O8 0.704708 0.207647 0.888335
O O9 0.944424 0.331166 0.115395
O O10 0.891031 0.370511 0.855998
O O11 0.246515 0.887621 0.869107
O O12 0.865074 0.013667 0.827224
O O13 0.393642 0.011030 0.067657
O O14 0.614471 0.777125 0.508922
O O15 0.928230 0.526222 0.692868
O O16 0.500000 0.000000 0.500000
O O17 0.234403 0.255429 0.879217
#
# Coordination Sequence:
#
# PCOD9077908 Si02
#       8
#     2   2   2   2   2   2   2   2
#     4  10  18  35  56  75  99 139 177 205 250 311
#     4   7  14  26  50  76  98 128 168 213 250 297
#     4   9  15  30  51  77 100 129 173 213 252 293
#     4  11  22  34  51  78 110 139 163 213 264 299
#     4   8  14  28  51  75 101 128 167 213 255 297
#     4  11  20  33  53  82 107 128 169 218 261 295
#     4   8  15  31  52  72  97 135 175 208 243 306
#     4  10  22  37  49  75 108 143 173 198 258 317
#
# _framework density 27.229315
#
# number of rings (size 3 to 8) (size 9 to 14) (size 15 to 20)
#    0.000    2.750    2.500    2.250    0.000    0.500 
#    0.000    7.500    0.000    0.750    0.000    0.000 
#    0.000    0.000    0.000    0.000    0.000    0.000 
#
# Total GULP energy -89318.194244 kJ/mol
# GULP energy per Si atom -5582.387140 kJ/mol
# Density = 2.716734 g / cm^3
# Si number density = 27.229315 Si / 1000 Ang^3
#
#
#
# Elastic Constant Matrix: (Units=GPa)
#
#
# Indices 1 2 3 4 5 6 
#
# 1 61.8057 17.1354 11.8381 -23.8138 16.0951 -6.0342
# 2 17.1354 206.8901 80.3907 -89.1561 11.6654 3.8224
# 3 11.8381 80.3907 121.8906 -56.8798 -0.7805 -6.0223
# 4 -23.8138 -89.1561 -56.8798 77.4800 -18.8873 9.1142
# 5 16.0951 11.6654 -0.7805 -18.8873 24.5415 -12.5420
# 6 -6.0342 3.8224 -6.0223 9.1142 -12.5420 28.6291
#
#
#
# Elastic Compliance Matrix: (Units=1/GPa)
#
#
# Indices 1 2 3 4 5 6 
#
# 1 0.020638 0.001390 -0.001002 0.004578 -0.012149 -0.002826
# 2 0.001390 0.010745 -0.001711 0.012333 0.000830 -0.005064
# 3 -0.001002 -0.001711 0.015178 0.011546 0.013660 0.005518
# 4 0.004578 0.012333 0.011546 0.042959 0.023795 -0.001505
# 5 -0.012149 0.000830 0.013660 0.023795 0.081559 0.028357
# 6 -0.002826 -0.005064 0.005518 -0.001505 0.028357 0.049073
#
#
# Mechanical properties :
#
#
# Convention : Reuss Voigt Hill
#
# Bulk Modulus (GPa) = 22.77193 67.70167 45.23680
# Shear Modulus (GPa) = 21.05825 44.87829 32.96827
#
# Velocity S-wave (km/s) = 2.78396 4.06416 3.48338
# Velocity P-wave (km/s) = 4.32610 6.85133 5.72956
#
# Compressibility (1/GPa) = 0.04391371
#
# Stress axis : x y z
#
# Youngs Moduli (GPa) = 48.45431 93.06851 65.88451
#
# Poissons Ratio (x) = -0.12938 0.06605
# Poissons Ratio (y) = -0.06736 0.11275
# Poissons Ratio (z) = 0.04857 0.15927
#
# Static dielectric constant tensor:
#      x y z
#    x 2.188010 -0.048610 -0.008890 
#    y -0.048610 2.156080 -0.091830 
#    z -0.008890 -0.091830 2.185930 
# 
# From -- ./inp_files/238490.got.cif
#   From: 2010.05.17/outbox.cif.g08.bks.cpg/sg2_120_cif.got.tgz:238490.got - 2010.06.03 11:33:40.
