data_PCOD9077967
_publ_section_title
;
Structure prediction by ZEFSAII (Michael W. Deem and Ramdas Pophale) SiO2 
 PCOD9077967
Probable space group: P -1
;
_chemical_formula_sum "Si O2"
_cell_formula_units_Z 16
_cell_length_a 9.407869
_cell_length_b 15.633336
_cell_length_c 14.669174
_cell_angle_alpha 135.201632
_cell_angle_beta 107.251231
_cell_angle_gamma 36.598222
_cell_volume 688.641871
_symmetry_space_group_name_H-M "P -1"
_symmetry_group_IT_number 2
_symmetry_cell_setting 'triclinic'
loop_
_space_group_symop_operation_xyz
x,y,z
-x,-y,-z
loop_
_atom_site_type_symbol
_atom_site_label
_atom_site_fract_x
_atom_site_fract_y
_atom_site_fract_z
Si Si1 0.816330 0.479599 0.763297
Si Si2 0.828998 0.199135 0.860652
Si Si3 0.401752 0.295502 0.832302
Si Si4 0.250595 0.185476 0.175488
Si Si5 0.056725 0.090288 0.626197
Si Si6 0.283840 0.204857 0.891479
Si Si7 0.693412 0.732177 0.403795
Si Si8 0.852106 0.003918 0.038384
O O1 0.519137 0.697667 0.804337
O O2 0.820134 0.356385 0.732968
O O3 0.146998 0.262053 0.607829
O O4 0.761921 0.638475 0.936893
O O5 0.709428 0.146446 0.805924
O O6 0.031837 0.076256 0.717058
O O7 0.500000 0.500000 0.000000
O O8 0.990870 0.118390 0.924890
O O9 0.395904 0.172468 0.791255
O O10 0.372199 0.303641 0.725316
O O11 0.067529 0.594519 0.025030
O O12 0.984087 0.471300 0.318709
O O13 0.456635 0.058941 0.208259
O O14 0.500000 0.000000 0.000000
O O15 0.105818 0.154892 0.124326
O O16 0.383263 0.926963 0.549092
O O17 0.000000 0.000000 0.500000
O O18 0.000000 0.000000 0.000000
#
# Coordination Sequence:
#
# PCOD9077967 Si02
#       8
#     2   2   2   2   2   2   2   2
#     4  10  22  43  62  89 127 180 217 262 324 387
#     4  12  24  39  66  98 131 165 221 270 325 383
#     4  10  18  35  56  94 124 163 205 265 313 377
#     4  11  19  38  65  96 126 166 211 266 318 381
#     4  12  26  44  65  96 133 172 216 270 335 391
#     4   9  19  34  64  93 125 159 221 263 317 373
#     4  11  22  41  66  88 130 173 215 261 329 388
#     4  11  23  39  67  98 132 170 217 273 321 378
#
# _framework density 23.234135999999999
#
# number of rings (size 3 to 8) (size 9 to 14) (size 15 to 20)
#    0.000    1.250    5.000    4.125    1.750    0.000 
#    0.000    2.500    0.000    0.000    0.000    0.000 
#    0.000    0.000    0.000    0.000    0.000    0.000 
#
# Total GULP energy -89421.143798 kJ/mol
# GULP energy per Si atom -5588.821487 kJ/mol
# Density = 2.318125 g / cm^3
# Si number density = 23.234136 Si / 1000 Ang^3
#
#
#
# Elastic Constant Matrix: (Units=GPa)
#
#
# Indices 1 2 3 4 5 6 
#
# 1 140.3347 21.9978 29.1812 -6.5260 -14.1457 0.2016
# 2 21.9978 170.9241 24.9745 5.1501 -13.7977 4.7589
# 3 29.1812 24.9745 41.7262 -3.5131 -22.2876 3.2831
# 4 -6.5260 5.1501 -3.5131 28.7931 4.8982 -2.5363
# 5 -14.1457 -13.7977 -22.2876 4.8982 46.3363 -0.0034
# 6 0.2016 4.7589 3.2831 -2.5363 -0.0034 37.4044
#
#
#
# Elastic Compliance Matrix: (Units=1/GPa)
#
#
# Indices 1 2 3 4 5 6 
#
# 1 0.008414 -0.000321 -0.005895 0.001385 -0.000509 0.000607
# 2 -0.000321 0.006516 -0.003622 -0.001785 0.000289 -0.000630
# 3 -0.005895 -0.003622 0.038993 0.001137 0.015757 -0.002851
# 4 0.001385 -0.001785 0.001137 0.036308 -0.003399 0.002581
# 5 -0.000509 0.000289 0.015757 -0.003399 0.029450 -0.001645
# 6 0.000607 -0.000630 -0.002851 0.002581 -0.001645 0.027237
#
#
# Mechanical properties :
#
#
# Convention : Reuss Voigt Hill
#
# Bulk Modulus (GPa) = 29.20006 56.14356 42.67181
# Shear Modulus (GPa) = 28.08839 40.96219 34.52529
#
# Velocity S-wave (km/s) = 3.48074 4.20339 3.85901
# Velocity P-wave (km/s) = 5.36181 6.91192 6.18562
#
# Compressibility (1/GPa) = 0.03424651
#
# Stress axis : x y z
#
# Youngs Moduli (GPa) = 118.84556 153.47535 25.64587
#
# Poissons Ratio (x) = 0.04931 0.15119
# Poissons Ratio (y) = 0.03818 0.09288
# Poissons Ratio (z) = 0.70062 0.55583
#
# Static dielectric constant tensor:
#      x y z
#    x 1.949600 -0.011310 0.024970 
#    y -0.011310 1.871540 -0.011650 
#    z 0.024970 -0.011650 1.997690 
# 
# From -- ./inp_files/505502.got.cif
#   From: 2010.05.17/outbox.cif.g08.bks.cpg/sg2_253_cif.got.tgz:505502.got - 2010.06.03 11:33:40.
