data_PCOD9077976
_publ_section_title
;
Structure prediction by ZEFSAII (Michael W. Deem and Ramdas Pophale) SiO2 
 PCOD9077976
Probable space group: P -1
;
_chemical_formula_sum "Si O2"
_cell_formula_units_Z 16
_cell_length_a 25.656739
_cell_length_b 12.590757
_cell_length_c 22.585651
_cell_angle_alpha 33.133558
_cell_angle_beta 162.897165
_cell_angle_gamma 158.067028
_cell_volume 716.563278
_symmetry_space_group_name_H-M "P -1"
_symmetry_group_IT_number 2
_symmetry_cell_setting 'triclinic'
loop_
_space_group_symop_operation_xyz
x,y,z
-x,-y,-z
loop_
_atom_site_type_symbol
_atom_site_label
_atom_site_fract_x
_atom_site_fract_y
_atom_site_fract_z
Si Si1 0.725990 0.243289 0.365107
Si Si2 0.705851 0.442972 0.368406
Si Si3 0.938176 0.776764 0.936480
Si Si4 0.423916 0.709708 0.572163
Si Si5 0.388751 0.489056 0.519378
Si Si6 0.194409 0.718654 0.163967
Si Si7 0.515328 0.632613 0.015633
Si Si8 0.120347 0.034383 0.333168
O O1 0.825703 0.428144 0.449205
O O2 0.472779 0.140343 0.103607
O O3 0.000000 0.500000 0.500000
O O4 0.666674 0.965450 0.438528
O O5 0.767835 0.456171 0.498540
O O6 0.377153 0.069997 0.183059
O O7 0.723913 0.686180 0.258562
O O8 0.683178 0.618574 0.777451
O O9 0.843192 0.804514 0.760256
O O10 0.998732 0.609231 0.058695
O O11 0.258117 0.107869 0.153399
O O12 0.293817 0.461975 0.495131
O O13 0.500000 0.000000 0.500000
O O14 0.411858 0.729574 0.406781
O O15 0.174655 0.194078 0.379228
O O16 0.000000 0.500000 0.000000
O O17 0.500000 0.500000 0.000000
O O18 0.202629 0.332968 0.846686
#
# Coordination Sequence:
#
# PCOD9077976 Si02
#       8
#     2   2   2   2   2   2   2   2
#     4   9  20  33  57  87 107 136 198 253 285 337
#     4  10  18  35  57  79 114 154 188 230 294 338
#     4  11  22  36  56  83 118 162 198 227 289 347
#     4  11  22  39  55  82 123 169 194 222 280 370
#     4  12  23  36  56  84 128 154 194 235 284 360
#     4  11  20  33  54  86 121 150 189 238 288 346
#     4   9  17  35  58  83 106 143 191 250 290 337
#     4  11  20  35  56  90 112 146 192 249 301 326
#
# _framework density 22.328802
#
# number of rings (size 3 to 8) (size 9 to 14) (size 15 to 20)
#    0.000    1.500    6.250    1.500    1.750    0.000 
#    0.000    0.000    0.000    7.500    0.000    0.000 
#    0.000    0.000    0.000    0.000    0.000    0.000 
#
# Total GULP energy -89087.677209 kJ/mol
# GULP energy per Si atom -5567.979826 kJ/mol
# Density = 2.227798 g / cm^3
# Si number density = 22.328802 Si / 1000 Ang^3
#
#
#
# Elastic Constant Matrix: (Units=GPa)
#
#
# Indices 1 2 3 4 5 6 
#
# 1 165.0810 20.7191 18.6481 -13.4379 -5.2152 -10.7999
# 2 20.7191 61.1191 27.8103 -21.3869 -3.1545 -9.6242
# 3 18.6481 27.8103 69.4763 -28.9134 4.2938 -5.6348
# 4 -13.4379 -21.3869 -28.9134 36.7343 -2.6883 1.9996
# 5 -5.2152 -3.1545 4.2938 -2.6883 39.8617 -0.0237
# 6 -10.7999 -9.6242 -5.6348 1.9996 -0.0237 31.8071
#
#
#
# Elastic Compliance Matrix: (Units=1/GPa)
#
#
# Indices 1 2 3 4 5 6 
#
# 1 0.006516 -0.001182 -0.000747 0.001085 0.000914 0.001655
# 2 -0.001182 0.023140 -0.004916 0.009096 0.002823 0.005160
# 3 -0.000747 -0.004916 0.022901 0.014671 -0.001963 0.001392
# 4 0.001085 0.009096 0.014671 0.044470 0.002282 0.002926
# 5 0.000914 0.002823 -0.001963 0.002282 0.025795 0.000692
# 6 0.001655 0.005160 0.001392 0.002926 0.000692 0.033626
#
#
# Mechanical properties :
#
#
# Convention : Reuss Voigt Hill
#
# Bulk Modulus (GPa) = 25.72779 47.78127 36.75453
# Shear Modulus (GPa) = 27.30847 36.91391 32.11119
#
# Velocity S-wave (km/s) = 3.50096 4.07036 3.79635
# Velocity P-wave (km/s) = 5.28105 6.59817 5.97601
#
# Compressibility (1/GPa) = 0.03886847
#
# Stress axis : x y z
#
# Youngs Moduli (GPa) = 153.47490 43.21500 43.66584
#
# Poissons Ratio (x) = 0.05107 0.03261
# Poissons Ratio (y) = 0.18137 0.21465
# Poissons Ratio (z) = 0.11460 0.21244
#
# Static dielectric constant tensor:
#      x y z
#    x 1.919550 0.032580 0.024250 
#    y 0.032580 1.866400 -0.008340 
#    z 0.024250 -0.008340 1.940770 
# 
# From -- ./inp_files/602032.got.cif
#   From: 2010.05.17/outbox.cif.g08.bks.cpg/sg2_302_cif.got.tgz:602032.got - 2010.06.03 11:33:40.
