data_PCOD9077972
_publ_section_title
;
Structure prediction by ZEFSAII (Michael W. Deem and Ramdas Pophale) SiO2 
 PCOD9077972
Probable space group: P -1
;
_chemical_formula_sum "Si O2"
_cell_formula_units_Z 14
_cell_length_a 13.650162
_cell_length_b 9.754843
_cell_length_c 10.343337
_cell_angle_alpha 52.342963
_cell_angle_beta 140.820419
_cell_angle_gamma 138.145722
_cell_volume 578.717979
_symmetry_space_group_name_H-M "P -1"
_symmetry_group_IT_number 2
_symmetry_cell_setting 'triclinic'
loop_
_space_group_symop_operation_xyz
x,y,z
-x,-y,-z
loop_
_atom_site_type_symbol
_atom_site_label
_atom_site_fract_x
_atom_site_fract_y
_atom_site_fract_z
Si Si1 0.975131 0.297933 0.749869
Si Si2 0.000708 0.689152 0.528823
Si Si3 0.709719 0.051948 0.851662
Si Si4 0.940697 0.899939 0.672385
Si Si5 0.711491 0.667658 0.805757
Si Si6 0.436559 0.598241 0.771222
Si Si7 0.795858 0.461354 0.797881
O O1 0.045988 0.533231 0.729671
O O2 0.815879 0.139920 0.773623
O O3 0.525008 0.832900 0.770516
O O4 0.924985 0.277337 0.561510
O O5 0.780879 0.542376 0.375810
O O6 0.057029 0.914930 0.503649
O O7 0.678716 0.229574 0.763091
O O8 0.856840 0.039193 0.103126
O O9 0.146878 0.276211 0.963939
O O10 0.815259 0.850277 0.702668
O O11 0.844932 0.668360 0.650854
O O12 0.525369 0.610941 0.715083
O O13 0.703016 0.486784 0.816270
O O14 0.500000 0.500000 0.000000
O O15 0.000000 0.500000 0.000000
#
# Coordination Sequence:
#
# PCOD9077972 Si02
#       7
#     2   2   2   2   2   2   2
#     4  10  20  33  55  79 109 141 178 216 264 315
#     4  11  21  33  50  87 115 131 170 231 268 306
#     4  10  18  35  57  76 107 142 181 213 262 319
#     4   8  16  32  56  73 102 136 182 212 249 309
#     4   9  18  35  59  80 100 139 186 213 261 315
#     4  12  21  31  55  85 110 135 173 226 268 308
#     4   8  16  32  60  80  96 136 194 218 241 314
#
# _framework density 24.191403000000001
#
# number of rings (size 3 to 8) (size 9 to 14) (size 15 to 20)
#    0.857    1.429    4.286    0.857    0.000    2.857 
#    0.000    1.429    3.143    0.857    0.000    0.000 
#    0.000    0.000    0.000    0.000    0.000    0.000 
#
# Total GULP energy -78168.439380 kJ/mol
# GULP energy per Si atom -5583.459956 kJ/mol
# Density = 2.413634 g / cm^3
# Si number density = 24.191403 Si / 1000 Ang^3
#
#
#
# Elastic Constant Matrix: (Units=GPa)
#
#
# Indices 1 2 3 4 5 6 
#
# 1 64.4566 24.6144 7.2494 -1.0632 7.5132 -17.4853
# 2 24.6144 181.6408 30.2868 -30.4286 6.5468 -23.9826
# 3 7.2494 30.2868 49.0539 -7.5121 -0.3201 4.1657
# 4 -1.0632 -30.4286 -7.5121 33.7432 0.1847 -0.7455
# 5 7.5132 6.5468 -0.3201 0.1847 22.5870 -9.9326
# 6 -17.4853 -23.9826 4.1657 -0.7455 -9.9326 40.8747
#
#
#
# Elastic Compliance Matrix: (Units=1/GPa)
#
#
# Indices 1 2 3 4 5 6 
#
# 1 0.018426 -0.001212 -0.002711 -0.000951 -0.002845 0.006739
# 2 -0.001212 0.008079 -0.004233 0.006410 0.000052 0.004783
# 3 -0.002711 -0.004233 0.024124 0.001334 -0.000238 -0.006136
# 4 -0.000951 0.006410 0.001334 0.035768 -0.000127 0.003840
# 5 -0.002845 0.000052 -0.000238 -0.000127 0.050037 0.010995
# 6 0.006739 0.004783 -0.006136 0.003840 0.010995 0.033521
#
#
# Mechanical properties :
#
#
# Convention : Reuss Voigt Hill
#
# Bulk Modulus (GPa) = 29.14104 46.60582 37.87343
# Shear Modulus (GPa) = 25.29005 34.97438 30.13221
#
# Velocity S-wave (km/s) = 3.23680 3.80641 3.53310
# Velocity P-wave (km/s) = 5.10307 6.21495 5.68625
#
# Compressibility (1/GPa) = 0.03431587
#
# Stress axis : x y z
#
# Youngs Moduli (GPa) = 54.27100 123.78014 41.45296
#
# Poissons Ratio (x) = 0.15002 0.11239
# Poissons Ratio (y) = 0.06577 0.17547
# Poissons Ratio (z) = 0.14715 0.52397
#
# Static dielectric constant tensor:
#      x y z
#    x 2.024400 -0.066720 -0.013810 
#    y -0.066720 1.937640 -0.043030 
#    z -0.013810 -0.043030 1.925020 
# 
# From -- ./inp_files/531751.got.cif
#   From: 2010.05.17/outbox.cif.g08.bks.cpg/sg2_266_cif.got.tgz:531751.got - 2010.06.03 11:33:40.
