data_PCOD9077002
_publ_section_title
;
Structure prediction by ZEFSAII (Michael W. Deem and Ramdas Pophale) SiO2 
 PCOD9077002
Probable space group: P -1
;
_chemical_formula_sum "Si O2"
_cell_formula_units_Z 16
_cell_length_a 8.309206
_cell_length_b 22.380308
_cell_length_c 14.750876
_cell_angle_alpha 21.388758
_cell_angle_beta 66.139722
_cell_angle_gamma 53.602979
_cell_volume 695.408514
_symmetry_space_group_name_H-M "P -1"
_symmetry_group_IT_number 2
_symmetry_cell_setting 'triclinic'
loop_
_space_group_symop_operation_xyz
x,y,z
-x,-y,-z
loop_
_atom_site_type_symbol
_atom_site_label
_atom_site_fract_x
_atom_site_fract_y
_atom_site_fract_z
Si Si1 0.610226 0.308140 0.644674
Si Si2 0.535202 0.737698 0.535758
Si Si3 0.164424 0.576389 0.669671
Si Si4 0.916021 0.177655 0.483069
Si Si5 0.233992 0.355371 0.576738
Si Si6 0.017069 0.179117 0.816665
Si Si7 0.983148 0.681753 0.914244
Si Si8 0.102745 0.161530 0.090248
O O1 0.379233 0.343664 0.642797
O O2 0.604298 0.470118 0.351642
O O3 0.750631 0.277569 0.746484
O O4 0.807731 0.074599 0.881819
O O5 0.361478 0.687320 0.652432
O O6 0.598002 0.737947 0.417201
O O7 0.765189 0.555061 0.795433
O O8 0.377702 0.979500 0.268738
O O9 0.003023 0.705253 0.436152
O O10 0.187978 0.370734 0.973218
O O11 0.055545 0.737239 0.552226
O O12 0.998988 0.938428 0.795961
O O13 0.014552 0.216373 0.321278
O O14 0.136193 0.232390 0.782007
O O15 0.025035 0.599154 0.251107
O O16 0.939956 0.816823 0.822476
#
# Coordination Sequence:
#
# PCOD9077002 Si02
#       8
#     2   2   2   2   2   2   2   2
#     4   9  17  32  56  86 108 139 188 231 273 334
#     4   9  18  33  55  76 108 146 179 227 265 321
#     4  10  18  34  54  80 112 144 182 232 276 327
#     4  10  20  33  53  79 112 146 182 231 270 324
#     4  11  17  36  60  82 109 151 182 224 283 332
#     4   9  18  32  58  86 105 143 190 226 276 337
#     4  11  19  35  56  79 109 148 188 223 276 325
#     4   9  20  33  54  82 110 144 187 226 271 328
#
# _framework density 23.008058999999999
#
# number of rings (size 3 to 8) (size 9 to 14) (size 15 to 20)
#    1.500    0.750    3.750    1.500    0.000    0.000 
#    0.000    2.500    0.000    9.750    0.000    0.000 
#    0.000    0.000    0.000    0.000    0.000    0.000 
#
# Total GULP energy -89242.302688 kJ/mol
# GULP energy per Si atom -5577.643918 kJ/mol
# Density = 2.295569 g / cm^3
# Si number density = 23.008059 Si / 1000 Ang^3
#
#
#
# Elastic Constant Matrix: (Units=GPa)
#
#
# Indices 1 2 3 4 5 6 
#
# 1 114.9188 14.6524 19.8923 -5.0184 -24.7140 2.4072
# 2 14.6524 92.5360 11.1165 -12.4123 -7.6358 -2.0856
# 3 19.8923 11.1165 69.3682 -5.8459 -5.5055 -8.1151
# 4 -5.0184 -12.4123 -5.8459 30.0493 -11.9670 -8.4698
# 5 -24.7140 -7.6358 -5.5055 -11.9670 32.0358 -6.0288
# 6 2.4072 -2.0856 -8.1151 -8.4698 -6.0288 33.2443
#
#
#
# Elastic Compliance Matrix: (Units=1/GPa)
#
#
# Indices 1 2 3 4 5 6 
#
# 1 0.011844 0.000420 -0.001483 0.007651 0.012406 0.003006
# 2 0.000420 0.012829 -0.000182 0.009784 0.007881 0.004652
# 3 -0.001483 -0.000182 0.016755 0.007199 0.005709 0.007056
# 4 0.007651 0.009784 0.007199 0.061572 0.037030 0.024220
# 5 0.012406 0.007881 0.005709 0.037030 0.061540 0.021584
# 6 0.003006 0.004652 0.007056 0.024220 0.021584 0.041962
#
#
# Mechanical properties :
#
#
# Convention : Reuss Voigt Hill
#
# Bulk Modulus (GPa) = 25.68057 40.90506 33.29281
# Shear Modulus (GPa) = 22.52534 34.47665 28.50100
#
# Velocity S-wave (km/s) = 3.13232 3.87519 3.52339
# Velocity P-wave (km/s) = 4.92623 6.15142 5.57260
#
# Compressibility (1/GPa) = 0.03893995
#
# Stress axis : x y z
#
# Youngs Moduli (GPa) = 84.43044 77.94549 59.68207
#
# Poissons Ratio (x) = -0.03278 0.08849
# Poissons Ratio (y) = -0.03550 0.01088
# Poissons Ratio (z) = 0.12519 0.01421
#
# Static dielectric constant tensor:
#      x y z
#    x 1.943830 0.006460 -0.031590 
#    y 0.006460 1.859520 -0.032990 
#    z -0.031590 -0.032990 1.828640 
# 
# From -- ./inp_files/563107.got.cif
#   From: 2010.05.17/outbox.cif.g08.bks.cpg/sg2_282_cif.got.tgz:563107.got - 2010.06.03 11:33:40.
