data_PCOD9077100
_publ_section_title
;
Structure prediction by ZEFSAII (Michael W. Deem and Ramdas Pophale) SiO2 
 PCOD9077100
Probable space group: P -1
;
_chemical_formula_sum "Si O2"
_cell_formula_units_Z 13
_cell_length_a 14.092122
_cell_length_b 13.131229
_cell_length_c 10.016232
_cell_angle_alpha 133.506714
_cell_angle_beta 131.855640
_cell_angle_gamma 20.799578
_cell_volume 475.342730
_symmetry_space_group_name_H-M "P -1"
_symmetry_group_IT_number 2
_symmetry_cell_setting 'triclinic'
loop_
_space_group_symop_operation_xyz
x,y,z
-x,-y,-z
loop_
_atom_site_type_symbol
_atom_site_label
_atom_site_fract_x
_atom_site_fract_y
_atom_site_fract_z
Si Si1 0.000000 0.500000 0.500000
Si Si2 0.361849 0.287445 0.042546
Si Si3 0.586400 0.276119 0.729286
Si Si4 0.266484 0.449718 0.807218
Si Si5 0.064194 0.900045 0.688757
Si Si6 0.464100 0.087994 0.347965
Si Si7 0.087635 0.137434 0.728919
O O1 0.996463 0.683678 0.685378
O O2 0.171276 0.350845 0.372762
O O3 0.099127 0.551762 0.123858
O O4 0.283057 0.447013 0.976000
O O5 0.602600 0.130751 0.201042
O O6 0.479921 0.031622 0.853318
O O7 0.472323 0.346640 0.831360
O O8 0.366235 0.590872 0.739375
O O9 0.548197 0.165116 0.515167
O O10 0.866758 0.080174 0.791650
O O11 0.331996 0.210900 0.639173
O O12 0.989611 0.842962 0.470354
O O13 0.024886 0.073037 0.715726
#
# Coordination Sequence:
#
# PCOD9077100 Si02
#       7
#     1   2   2   2   2   2   2
#     4  10  14  32  54  86 132 162 192 218 274 398
#     4  10  22  40  68  90 120 172 194 252 308 384
#     4  11  22  39  61 100 125 147 211 253 307 363
#     4   9  22  33  62  96 127 163 188 241 318 372
#     4  11  26  41  67  86 113 173 211 271 284 356
#     4   9  22  33  62  96 127 163 188 241 318 372
#     4  11  23  48  63  81 120 166 228 243 309 354
#
# _framework density 27.348690000000001
#
# number of rings (size 3 to 8) (size 9 to 14) (size 15 to 20)
#    0.923    0.923    0.000    4.615    8.615    2.462 
#    0.000    9.231    0.000    0.000    0.000    0.000 
#    0.000    0.000    0.000    0.000    0.000    0.000 
#
# Total GULP energy -72619.640152 kJ/mol
# GULP energy per Si atom -5586.126166 kJ/mol
# Density = 2.728644 g / cm^3
# Si number density = 27.348690 Si / 1000 Ang^3
#
#
#
# Elastic Constant Matrix: (Units=GPa)
#
#
# Indices 1 2 3 4 5 6 
#
# 1 118.2864 20.7012 14.4671 8.6402 8.5079 -19.0336
# 2 20.7012 99.0506 22.3745 4.8066 -0.6023 -4.7098
# 3 14.4671 22.3745 102.2824 2.9857 -7.2273 15.1280
# 4 8.6402 4.8066 2.9857 34.7812 -7.1639 -2.9342
# 5 8.5079 -0.6023 -7.2273 -7.1639 20.7990 -5.2490
# 6 -19.0336 -4.7098 15.1280 -2.9342 -5.2490 22.8674
#
#
#
# Elastic Compliance Matrix: (Units=1/GPa)
#
#
# Indices 1 2 3 4 5 6 
#
# 1 0.011022 -0.001082 -0.002969 -0.002321 -0.003918 0.009718
# 2 -0.001082 0.011119 -0.002702 -0.000687 0.000391 0.003178
# 3 -0.002969 -0.002702 0.012580 -0.000327 0.002675 -0.010778
# 4 -0.002321 -0.000687 -0.000327 0.032676 0.013438 0.005421
# 5 -0.003918 0.000391 0.002675 0.013438 0.057785 0.010038
# 6 0.009718 0.003178 -0.010778 0.005421 0.010038 0.062603
#
#
# Mechanical properties :
#
#
# Convention : Reuss Voigt Hill
#
# Bulk Modulus (GPa) = 47.13326 48.30053 47.71690
# Shear Modulus (GPa) = 23.99669 33.16128 28.57899
#
# Velocity S-wave (km/s) = 2.96537 3.48593 3.23613
# Velocity P-wave (km/s) = 5.38481 5.82251 5.60793
#
# Compressibility (1/GPa) = 0.02121644
#
# Stress axis : x y z
#
# Youngs Moduli (GPa) = 90.73167 89.93511 79.48868
#
# Poissons Ratio (x) = 0.09731 0.23597
# Poissons Ratio (y) = 0.09817 0.21475
# Poissons Ratio (z) = 0.26935 0.24298
#
# Static dielectric constant tensor:
#      x y z
#    x 2.177610 0.100940 0.051860 
#    y 0.100940 2.217360 0.022620 
#    z 0.051860 0.022620 2.197990 
# 
# From -- ./inp_files/407997.got.cif
#   From: 2010.05.17/outbox.cif.g08.bks.cpg/sg2_204_cif.got.tgz:407997.got - 2010.06.03 11:33:40.
