data_PCOD9077776
_publ_section_title
;
Structure prediction by ZEFSAII (Michael W. Deem and Ramdas Pophale) SiO2 
 PCOD9077776
Probable space group: P -1
;
_chemical_formula_sum "Si O2"
_cell_formula_units_Z 16
_cell_length_a 6.841964
_cell_length_b 19.405918
_cell_length_c 19.448864
_cell_angle_alpha 151.976017
_cell_angle_beta 57.598268
_cell_angle_gamma 134.913022
_cell_volume 829.047495
_symmetry_space_group_name_H-M "P -1"
_symmetry_group_IT_number 2
_symmetry_cell_setting 'triclinic'
loop_
_space_group_symop_operation_xyz
x,y,z
-x,-y,-z
loop_
_atom_site_type_symbol
_atom_site_label
_atom_site_fract_x
_atom_site_fract_y
_atom_site_fract_z
Si Si1 0.866611 0.298846 0.120906
Si Si2 0.710689 0.541776 0.296203
Si Si3 0.533781 0.125732 0.788723
Si Si4 0.684975 0.967937 0.097316
Si Si5 0.086842 0.271952 0.195887
Si Si6 0.240027 0.951929 0.556897
Si Si7 0.499767 0.560725 0.907475
Si Si8 0.095958 0.156909 0.677565
O O1 0.838479 0.458128 0.244202
O O2 0.900187 0.282079 0.181207
O O3 0.161949 0.342667 0.074835
O O4 0.586665 0.125426 0.985371
O O5 0.395133 0.464756 0.316787
O O6 0.633166 0.462039 0.163371
O O7 0.949533 0.753357 0.427968
O O8 0.418943 0.060847 0.830267
O O9 0.836392 0.164325 0.752915
O O10 0.329967 0.974721 0.638594
O O11 0.555321 0.307018 0.927880
O O12 0.831323 0.862114 0.965257
O O13 0.909017 0.173903 0.211694
O O14 0.500000 0.000000 0.500000
O O15 0.183069 0.096661 0.673941
O O16 0.349711 0.357502 0.782833
O O17 0.000000 0.000000 0.500000
#
# Coordination Sequence:
#
# PCOD9077776 Si02
#       8
#     2   2   2   2   2   2   2   2
#     4  10  18  34  65  91 121 162 201 248 314 367
#     4  10  20  38  63  91 125 165 207 250 308 377
#     4  12  25  40  62  95 127 160 211 265 302 363
#     4  10  20  38  58  96 127 159 201 268 306 362
#     4   9  19  36  64  90 128 161 206 249 319 370
#     4  12  25  42  62  91 124 171 209 251 314 375
#     4  11  22  41  62  95 125 156 213 262 304 363
#     4  12  25  42  64  86 125 173 205 252 316 373
#
# _framework density 19.299254999999999
#
# number of rings (size 3 to 8) (size 9 to 14) (size 15 to 20)
#    0.000    1.250    6.250    1.500    1.750    0.500 
#    0.000    0.625    0.000    1.500    0.000    0.000 
#    0.000    0.000    0.000    0.000    0.000    0.000 
#
# Total GULP energy -89256.008715 kJ/mol
# GULP energy per Si atom -5578.500545 kJ/mol
# Density = 1.925533 g / cm^3
# Si number density = 19.299255 Si / 1000 Ang^3
#
#
#
# Elastic Constant Matrix: (Units=GPa)
#
#
# Indices 1 2 3 4 5 6 
#
# 1 101.1154 11.1233 13.3676 12.4477 4.0660 -11.2259
# 2 11.1233 97.3432 35.8312 32.4957 6.5697 -2.1288
# 3 13.3676 35.8312 50.8487 14.0428 4.8057 6.0750
# 4 12.4477 32.4957 14.0428 19.8377 -0.0790 -3.2624
# 5 4.0660 6.5697 4.8057 -0.0790 23.4463 4.3616
# 6 -11.2259 -2.1288 6.0750 -3.2624 4.3616 18.2049
#
#
#
# Elastic Compliance Matrix: (Units=1/GPa)
#
#
# Indices 1 2 3 4 5 6 
#
# 1 0.012278 0.003667 -0.003783 -0.009653 -0.003993 0.008489
# 2 0.003667 0.026791 -0.008550 -0.039698 -0.007049 0.002822
# 3 -0.003783 -0.008550 0.030646 -0.007756 -0.000497 -0.014830
# 4 -0.009653 -0.039698 -0.007756 0.129024 0.012570 0.012104
# 5 -0.003993 -0.007049 -0.000497 0.012570 0.047752 -0.012309
# 6 0.008489 0.002822 -0.014830 0.012104 -0.012309 0.070561
#
#
# Mechanical properties :
#
#
# Convention : Reuss Voigt Hill
#
# Bulk Modulus (GPa) = 19.09021 41.10573 30.09797
# Shear Modulus (GPa) = 14.21082 24.89679 19.55380
#
# Velocity S-wave (km/s) = 2.71650 3.59561 3.18652
# Velocity P-wave (km/s) = 4.44436 6.21154 5.40072
#
# Compressibility (1/GPa) = 0.05238286
#
# Stress axis : x y z
#
# Youngs Moduli (GPa) = 81.44876 37.32650 32.63063
#
# Poissons Ratio (x) = -0.13687 0.12343
# Poissons Ratio (y) = -0.29866 0.27899
# Poissons Ratio (z) = 0.30808 0.31914
#
# Static dielectric constant tensor:
#      x y z
#    x 1.734700 0.034830 0.035180 
#    y 0.034830 1.739190 0.035140 
#    z 0.035180 0.035140 1.696010 
# 
# From -- ./inp_files/550571.got.cif
#   From: 2010.05.17/outbox.cif.g08.bks.cpg/sg2_276_cif.got.tgz:550571.got - 2010.06.03 11:33:40.
