data_PCOD9077966
_publ_section_title
;
Structure prediction by ZEFSAII (Michael W. Deem and Ramdas Pophale) SiO2 
 PCOD9077966
Probable space group: P -1
;
_chemical_formula_sum "Si O2"
_cell_formula_units_Z 16
_cell_length_a 11.815906
_cell_length_b 16.700676
_cell_length_c 21.633590
_cell_angle_alpha 22.886070
_cell_angle_beta 43.862610
_cell_angle_gamma 32.241860
_cell_volume 850.136989
_symmetry_space_group_name_H-M "P -1"
_symmetry_group_IT_number 2
_symmetry_cell_setting 'triclinic'
loop_
_space_group_symop_operation_xyz
x,y,z
-x,-y,-z
loop_
_atom_site_type_symbol
_atom_site_label
_atom_site_fract_x
_atom_site_fract_y
_atom_site_fract_z
Si Si1 0.463660 0.333772 0.089200
Si Si2 0.991297 0.254969 0.248517
Si Si3 0.618204 0.932848 0.597836
Si Si4 0.147720 0.285998 0.465272
Si Si5 0.844486 0.202592 0.708632
Si Si6 0.068976 0.676476 0.918692
Si Si7 0.355767 0.716531 0.568710
Si Si8 0.050126 0.253316 0.698281
O O1 0.327390 0.287083 0.217157
O O2 0.693616 0.025495 0.201789
O O3 0.500000 0.500000 0.000000
O O4 0.318033 0.511708 0.960700
O O5 0.968474 0.218720 0.211106
O O6 0.775879 0.363032 0.293782
O O7 0.195330 0.965371 0.406274
O O8 0.027948 0.467721 0.085688
O O9 0.793001 0.788276 0.576641
O O10 0.381082 0.073963 0.560942
O O11 0.599924 0.160810 0.480002
O O12 0.980783 0.251708 0.578469
O O13 0.044987 0.592707 0.308236
O O14 0.585534 0.464435 0.625884
O O15 0.930350 0.172313 0.766132
O O16 0.910608 0.929135 0.848857
O O17 0.000000 0.500000 0.500000
#
# Coordination Sequence:
#
# PCOD9077966 Si02
#       8
#     2   2   2   2   2   2   2   2
#     4  12  21  37  64  90 125 166 191 246 327 378
#     4  10  25  43  63  90 115 171 217 252 300 363
#     4  11  19  35  60  89 124 157 201 249 302 366
#     4  10  20  33  59  97 122 154 200 251 303 365
#     4  11  20  37  64  92 123 158 200 261 308 362
#     4  11  23  42  63  89 129 162 203 252 317 367
#     4  11  22  41  69  87 117 164 217 259 295 354
#     4  10  18  35  56  93 119 154 200 238 302 369
#
# _framework density 18.820495999999999
#
# number of rings (size 3 to 8) (size 9 to 14) (size 15 to 20)
#    0.000    1.250    6.250    1.500    0.000    2.000 
#    0.000    1.875    0.000    0.000    0.000    0.000 
#    0.000    0.000    0.000    0.000    0.000    0.000 
#
# Total GULP energy -89316.287215 kJ/mol
# GULP energy per Si atom -5582.267951 kJ/mol
# Density = 1.877766 g / cm^3
# Si number density = 18.820496 Si / 1000 Ang^3
#
#
#
# Elastic Constant Matrix: (Units=GPa)
#
#
# Indices 1 2 3 4 5 6 
#
# 1 92.3883 31.5963 33.4663 -16.6894 5.0594 1.9405
# 2 31.5963 114.7968 38.4818 -26.6248 8.3098 -5.1061
# 3 33.4663 38.4818 47.5631 -15.3958 -0.7317 6.9393
# 4 -16.6894 -26.6248 -15.3958 29.2872 3.2095 -9.4053
# 5 5.0594 8.3098 -0.7317 3.2095 26.1528 -3.4261
# 6 1.9405 -5.1061 6.9393 -9.4053 -3.4261 29.0331
#
#
#
# Elastic Compliance Matrix: (Units=1/GPa)
#
#
# Indices 1 2 3 4 5 6 
#
# 1 0.015376 0.000894 -0.010229 0.005557 -0.003844 0.002921
# 2 0.000894 0.015798 -0.010656 0.012707 -0.005913 0.008684
# 3 -0.010229 -0.010656 0.038700 0.001242 0.005058 -0.009441
# 4 0.005557 0.012707 0.001242 0.056592 -0.009564 0.018771
# 5 -0.003844 -0.005913 0.005058 -0.009564 0.042159 -0.000115
# 6 0.002921 0.008684 -0.009441 0.018771 -0.000115 0.044100
#
#
# Mechanical properties :
#
#
# Convention : Reuss Voigt Hill
#
# Bulk Modulus (GPa) = 33.45194 51.31520 42.38357
# Shear Modulus (GPa) = 19.03516 26.97488 23.00502
#
# Velocity S-wave (km/s) = 3.18371 3.78996 3.49999
# Velocity P-wave (km/s) = 5.59710 6.81737 6.23715
#
# Compressibility (1/GPa) = 0.02989363
#
# Stress axis : x y z
#
# Youngs Moduli (GPa) = 65.03449 63.29764 25.83965
#
# Poissons Ratio (x) = -0.05657 0.26431
# Poissons Ratio (y) = -0.05812 0.27534
# Poissons Ratio (z) = 0.66522 0.67448
#
# Static dielectric constant tensor:
#      x y z
#    x 1.689290 0.001600 -0.003450 
#    y 0.001600 1.649640 0.008750 
#    z -0.003450 0.008750 1.660240 
# 
# From -- ./inp_files/295008.got.cif
#   From: 2010.05.17/outbox.cif.g08.bks.cpg/sg2_148_cif.got.tgz:295008.got - 2010.06.03 11:33:40.
