data_PCOD9077665
_publ_section_title
;
Structure prediction by ZEFSAII (Michael W. Deem and Ramdas Pophale) SiO2 
 PCOD9077665
Probable space group: P -1
;
_chemical_formula_sum "Si O2"
_cell_formula_units_Z 16
_cell_length_a 27.099146
_cell_length_b 22.797941
_cell_length_c 5.525467
_cell_angle_alpha 84.803670
_cell_angle_beta 98.207004
_cell_angle_gamma 168.960877
_cell_volume 624.456957
_symmetry_space_group_name_H-M "P -1"
_symmetry_group_IT_number 2
_symmetry_cell_setting 'triclinic'
loop_
_space_group_symop_operation_xyz
x,y,z
-x,-y,-z
loop_
_atom_site_type_symbol
_atom_site_label
_atom_site_fract_x
_atom_site_fract_y
_atom_site_fract_z
Si Si1 0.381893 0.203653 0.551420
Si Si2 0.826743 0.878764 0.083151
Si Si3 0.829451 0.474260 0.974712
Si Si4 0.655419 0.964178 0.593129
Si Si5 0.961623 0.529344 0.709410
Si Si6 0.600343 0.011307 0.773101
Si Si7 0.930083 0.133420 0.045493
Si Si8 0.749744 0.742528 0.585078
O O1 0.211099 0.024524 0.259614
O O2 0.608152 0.515661 0.613523
O O3 0.467647 0.235890 0.544199
O O4 0.228126 0.027110 0.766273
O O5 0.878856 0.902173 0.352326
O O6 0.500000 0.500000 0.000000
O O7 0.944906 0.080996 0.114823
O O8 0.913174 0.953770 0.855793
O O9 0.137072 0.821584 0.144353
O O10 0.624071 0.218309 0.135880
O O11 0.801579 0.399072 0.757784
O O12 0.811280 0.523494 0.909101
O O13 0.480850 0.813249 0.645154
O O14 0.855359 0.232433 0.460291
O O15 0.754235 0.235905 0.624604
O O16 0.169483 0.745218 0.973629
O O17 0.500000 0.500000 0.500000
#
# Coordination Sequence:
#
# PCOD9077665 Si02
#       8
#     2   2   2   2   2   2   2   2
#     4  11  18  30  50  76 117 147 189 241 288 343
#     4  10  15  24  42  71 108 142 184 234 283 334
#     4  10  22  36  56  86 116 150 195 240 297 351
#     4  10  22  36  56  84 115 152 192 242 294 352
#     4  10  20  39  61  82 113 150 194 244 291 352
#     4  10  22  39  58  84 115 150 193 244 293 353
#     4  11  18  30  49  77 117 148 186 243 288 343
#     4  10  15  24  42  72 106 143 183 236 282 333
#
# _framework density 25.622263
#
# number of rings (size 3 to 8) (size 9 to 14) (size 15 to 20)
#    0.000    1.750    6.250    0.750    0.000    1.500 
#    0.000    0.000    0.000    0.000    0.000    1.750 
#    0.000    0.000    0.000    0.000    0.000    0.000 
#
# Total GULP energy -89475.218436 kJ/mol
# GULP energy per Si atom -5592.201152 kJ/mol
# Density = 2.556395 g / cm^3
# Si number density = 25.622263 Si / 1000 Ang^3
#
#
#
# Elastic Constant Matrix: (Units=GPa)
#
#
# Indices 1 2 3 4 5 6 
#
# 1 121.3522 27.9462 35.6702 4.3500 -16.0560 -47.3907
# 2 27.9462 78.3651 20.8818 -9.0130 2.0316 -17.0609
# 3 35.6702 20.8818 156.8672 -15.9055 -4.8292 -7.7134
# 4 4.3500 -9.0130 -15.9055 49.0152 0.2436 4.5071
# 5 -16.0560 2.0316 -4.8292 0.2436 56.7093 -4.1544
# 6 -47.3907 -17.0609 -7.7134 4.5071 -4.1544 46.4087
#
#
#
# Elastic Compliance Matrix: (Units=1/GPa)
#
#
# Indices 1 2 3 4 5 6 
#
# 1 0.017466 -0.002289 -0.003089 -0.004610 0.006064 0.017471
# 2 -0.002289 0.014728 -0.001112 0.002320 -0.001092 0.002569
# 3 -0.003089 -0.001112 0.007357 0.002702 -0.000413 -0.002639
# 4 -0.004610 0.002320 0.002702 0.022652 -0.001677 -0.005756
# 5 0.006064 -0.001092 -0.000413 -0.001677 0.019924 0.007668
# 6 0.017471 0.002569 -0.002639 -0.005756 0.007668 0.041139
#
#
# Mechanical properties :
#
#
# Convention : Reuss Voigt Hill
#
# Bulk Modulus (GPa) = 37.63584 58.39790 48.01687
# Shear Modulus (GPa) = 34.45855 48.56573 41.51214
#
# Velocity S-wave (km/s) = 3.67122 4.35840 4.02949
# Velocity P-wave (km/s) = 5.71761 6.94038 6.35846
#
# Compressibility (1/GPa) = 0.02657042
#
# Stress axis : x y z
#
# Youngs Moduli (GPa) = 57.25438 67.89845 135.93268
#
# Poissons Ratio (x) = 0.15545 0.41983
# Poissons Ratio (y) = 0.13108 0.15117
# Poissons Ratio (z) = 0.17683 0.07551
#
# Static dielectric constant tensor:
#      x y z
#    x 2.120100 0.055770 0.005500 
#    y 0.055770 1.956380 0.036070 
#    z 0.005500 0.036070 2.076540 
# 
# From -- ./inp_files/51244.got.cif
#   From: 2010.05.17/outbox.cif.g08.bks.cpg/sg2_26_cif.got.tgz:51244.got - 2010.06.03 11:33:40.
