data_PCOD9077500
_publ_section_title
;
Structure prediction by ZEFSAII (Michael W. Deem and Ramdas Pophale) SiO2 
 PCOD9077500
Probable space group: P -1
;
_chemical_formula_sum "Si O2"
_cell_formula_units_Z 16
_cell_length_a 11.255791
_cell_length_b 6.416594
_cell_length_c 12.978935
_cell_angle_alpha 73.425623
_cell_angle_beta 86.496484
_cell_angle_gamma 111.585167
_cell_volume 820.805536
_symmetry_space_group_name_H-M "P -1"
_symmetry_group_IT_number 2
_symmetry_cell_setting 'triclinic'
loop_
_space_group_symop_operation_xyz
x,y,z
-x,-y,-z
loop_
_atom_site_type_symbol
_atom_site_label
_atom_site_fract_x
_atom_site_fract_y
_atom_site_fract_z
Si Si1 0.253863 0.829848 0.407226
Si Si2 0.321270 0.255590 0.644165
Si Si3 0.088476 0.914151 0.583713
Si Si4 0.865745 0.468138 0.737832
Si Si5 0.544349 0.271509 0.487949
Si Si6 0.550347 0.832414 0.154981
Si Si7 0.682923 0.015280 0.907981
Si Si8 0.340125 0.315644 0.224261
O O1 0.180375 0.841630 0.513237
O O2 0.155158 0.681802 0.345342
O O3 0.350349 0.698308 0.432946
O O4 0.333412 0.098605 0.326978
O O5 0.414474 0.281941 0.537238
O O6 0.373140 0.535682 0.627903
O O7 0.366808 0.129584 0.750314
O O8 0.177225 0.120749 0.627758
O O9 0.003674 0.685608 0.688663
O O10 0.000000 0.000000 0.500000
O O11 0.813290 0.255739 0.854467
O O12 0.767958 0.598750 0.739605
O O13 0.500000 0.000000 0.500000
O O14 0.436819 0.932619 0.143709
O O15 0.472193 0.549296 0.183307
O O16 0.642414 0.943954 0.036984
O O17 0.692026 0.802706 0.870511
#
# Coordination Sequence:
#
# PCOD9077500 Si02
#       8
#     2   2   2   2   2   2   2   2
#     4  11  21  36  60  84 116 154 194 236 290 347
#     4  11  24  36  57  85 125 150 193 239 283 347
#     4  12  23  39  57  84 118 164 197 230 279 347
#     4  10  21  36  56  84 112 152 200 236 279 339
#     4  11  21  37  55  85 120 153 181 234 301 340
#     4  10  20  37  59  89 114 145 194 242 301 343
#     4   9  20  37  63  85 111 149 192 247 294 347
#     4  10  18  34  60  86 114 146 185 246 290 346
#
# _framework density 19.493048000000002
#
# number of rings (size 3 to 8) (size 9 to 14) (size 15 to 20)
#    0.000    1.500    2.500    4.500    1.750    0.000 
#    0.000    0.625    0.000    0.750    0.000    0.000 
#    0.000    0.000    0.000    0.000    0.000    0.000 
#
# Total GULP energy -89182.314041 kJ/mol
# GULP energy per Si atom -5573.894628 kJ/mol
# Density = 1.944868 g / cm^3
# Si number density = 19.493048 Si / 1000 Ang^3
#
#
#
# Elastic Constant Matrix: (Units=GPa)
#
#
# Indices 1 2 3 4 5 6 
#
# 1 46.9731 30.4407 27.3516 -8.9062 -1.2185 13.4792
# 2 30.4407 105.5455 40.6505 -15.5698 -5.7306 19.2210
# 3 27.3516 40.6505 89.2019 -11.8822 -9.2141 18.0342
# 4 -8.9062 -15.5698 -11.8822 23.8973 4.8805 -9.9199
# 5 -1.2185 -5.7306 -9.2141 4.8805 32.3223 -2.3244
# 6 13.4792 19.2210 18.0342 -9.9199 -2.3244 36.4208
#
#
#
# Elastic Compliance Matrix: (Units=1/GPa)
#
#
# Indices 1 2 3 4 5 6 
#
# 1 0.029885 -0.005211 -0.005604 0.003449 -0.002257 -0.004740
# 2 -0.005211 0.013331 -0.003439 0.003998 0.000419 -0.002288
# 3 -0.005604 -0.003439 0.015682 0.001456 0.003194 -0.003276
# 4 0.003449 0.003998 0.001456 0.051633 -0.005853 0.009582
# 5 -0.002257 0.000419 0.003194 -0.005853 0.032688 -0.000475
# 6 -0.004740 -0.002288 -0.003276 0.009582 -0.000475 0.034620
#
#
# Mechanical properties :
#
#
# Convention : Reuss Voigt Hill
#
# Bulk Modulus (GPa) = 32.90574 48.73402 40.81988
# Shear Modulus (GPa) = 23.09710 28.07993 25.58852
#
# Velocity S-wave (km/s) = 3.44596 3.79952 3.62705
# Velocity P-wave (km/s) = 5.72278 6.65609 6.20700
#
# Compressibility (1/GPa) = 0.03038984
#
# Stress axis : x y z
#
# Youngs Moduli (GPa) = 33.46216 75.01114 63.76659
#
# Poissons Ratio (x) = 0.39091 0.35734
# Poissons Ratio (y) = 0.17438 0.21929
# Poissons Ratio (z) = 0.18752 0.25795
#
# Static dielectric constant tensor:
#      x y z
#    x 1.739510 -0.048340 0.039990 
#    y -0.048340 1.845310 -0.043140 
#    z 0.039990 -0.043140 1.713110 
# 
# From -- ./inp_files/80527.got.cif
#   From: 2010.05.17/outbox.cif.g08.bks.cpg/sg2_41_cif.got.tgz:80527.got - 2010.06.03 11:33:40.
