data_PCOD9077366
_publ_section_title
;
Structure prediction by ZEFSAII (Michael W. Deem and Ramdas Pophale) SiO2 
 PCOD9077366
Probable space group: P -1
;
_chemical_formula_sum "Si O2"
_cell_formula_units_Z 15
_cell_length_a 7.940024
_cell_length_b 8.802401
_cell_length_c 9.779469
_cell_angle_alpha 80.628316
_cell_angle_beta 117.374764
_cell_angle_gamma 82.163948
_cell_volume 581.197602
_symmetry_space_group_name_H-M "P -1"
_symmetry_group_IT_number 2
_symmetry_cell_setting 'triclinic'
loop_
_space_group_symop_operation_xyz
x,y,z
-x,-y,-z
loop_
_atom_site_type_symbol
_atom_site_label
_atom_site_fract_x
_atom_site_fract_y
_atom_site_fract_z
Si Si1 0.227349 0.751579 0.950447
Si Si2 0.236126 0.225678 0.508342
Si Si3 0.407924 0.719517 0.540400
Si Si4 0.000000 0.500000 0.000000
Si Si5 0.872475 0.002980 0.725802
Si Si6 0.801162 0.430506 0.306571
Si Si7 0.648592 0.816397 0.845736
Si Si8 0.630080 0.781985 0.154201
O O1 0.266661 0.665387 0.830085
O O2 0.104022 0.645975 0.996530
O O3 0.098443 0.929574 0.850678
O O4 0.420097 0.747780 0.104786
O O5 0.404940 0.295419 0.487577
O O6 0.182267 0.098188 0.405811
O O7 0.303338 0.151860 0.691633
O O8 0.029949 0.353958 0.426823
O O9 0.333616 0.582480 0.611592
O O10 0.470989 0.818720 0.675187
O O11 0.217688 0.817243 0.373527
O O12 0.784410 0.636899 0.904529
O O13 0.757040 0.946916 0.813933
O O14 0.778260 0.608843 0.222982
O O15 0.608695 0.852126 0.984601
#
# Coordination Sequence:
#
# PCOD9077366 Si02
#       8
#     2   2   2   1   2   2   2   2
#     4  10  20  37  63  93 118 165 211 257 303 369
#     4  10  24  41  61  96 129 164 202 259 326 366
#     4  11  22  44  66  86 123 174 221 245 299 386
#     4  10  18  34  58  94 120 158 208 254 302 364
#     4   9  22  44  65  86 119 173 220 248 299 380
#     4  11  22  40  66  92 125 169 204 254 312 387
#     4  10  19  35  65  88 121 160 206 263 300 366
#     4  12  22  39  61 101 130 150 204 270 326 361
#
# _framework density 25.808776999999999
#
# number of rings (size 3 to 8) (size 9 to 14) (size 15 to 20)
#    0.000    1.600    2.667    4.000    0.000    2.667 
#    7.200    3.333    0.000    0.000    0.000    0.000 
#    0.000    0.000    0.000    0.000    0.000    0.000 
#
# Total GULP energy -83699.898597 kJ/mol
# GULP energy per Si atom -5579.993240 kJ/mol
# Density = 2.575003 g / cm^3
# Si number density = 25.808777 Si / 1000 Ang^3
#
#
#
# Elastic Constant Matrix: (Units=GPa)
#
#
# Indices 1 2 3 4 5 6 
#
# 1 55.4679 1.5245 31.5082 -2.3842 11.2900 2.4463
# 2 1.5245 55.6373 34.0677 5.9428 11.3310 -15.3515
# 3 31.5082 34.0677 145.3250 3.1543 -0.3291 -5.6442
# 4 -2.3842 5.9428 3.1543 38.0355 -2.1153 4.1616
# 5 11.2900 11.3310 -0.3291 -2.1153 37.1020 -13.3477
# 6 2.4463 -15.3515 -5.6442 4.1616 -13.3477 13.2473
#
#
#
# Elastic Compliance Matrix: (Units=1/GPa)
#
#
# Indices 1 2 3 4 5 6 
#
# 1 0.027154 -0.001494 -0.006825 0.004714 -0.018202 -0.029474
# 2 -0.001494 0.034148 -0.005638 -0.009735 0.006262 0.046813
# 3 -0.006825 -0.005638 0.009891 -0.000574 0.005549 0.004713
# 4 0.004714 -0.009735 -0.000574 0.030976 -0.007311 -0.029494
# 5 -0.018202 0.006262 0.005549 -0.007311 0.056011 0.071714
# 6 -0.029474 0.046813 0.004713 -0.029494 0.071714 0.218709
#
#
# Mechanical properties :
#
#
# Convention : Reuss Voigt Hill
#
# Bulk Modulus (GPa) = 23.10601 43.40344 33.25472
# Shear Modulus (GPa) = 11.92668 30.29894 21.11281
#
# Velocity S-wave (km/s) = 2.15202 3.43005 2.86326
# Velocity P-wave (km/s) = 3.89193 5.70446 4.88303
#
# Compressibility (1/GPa) = 0.04327879
#
# Stress axis : x y z
#
# Youngs Moduli (GPa) = 36.82700 29.28462 101.10602
#
# Poissons Ratio (x) = 0.04375 0.69009
# Poissons Ratio (y) = 0.05501 0.56999
# Poissons Ratio (z) = 0.25136 0.16509
#
# Static dielectric constant tensor:
#      x y z
#    x 2.005070 -0.065550 -0.036180 
#    y -0.065550 2.054170 0.008540 
#    z -0.036180 0.008540 2.007390 
# 
# From -- ./inp_files/176609.got.cif
#   From: 2010.05.17/outbox.cif.g08.bks.cpg/sg2_89_cif.got.tgz:176609.got - 2010.06.03 11:33:40.
