data_PCOD9077037
_publ_section_title
;
Structure prediction by ZEFSAII (Michael W. Deem and Ramdas Pophale) SiO2 
 PCOD9077037
Probable space group: P -1
;
_chemical_formula_sum "Si O2"
_cell_formula_units_Z 14
_cell_length_a 7.383846
_cell_length_b 13.762086
_cell_length_c 18.386902
_cell_angle_alpha 23.879369
_cell_angle_beta 77.677604
_cell_angle_gamma 94.137373
_cell_volume 544.620359
_symmetry_space_group_name_H-M "P -1"
_symmetry_group_IT_number 2
_symmetry_cell_setting 'triclinic'
loop_
_space_group_symop_operation_xyz
x,y,z
-x,-y,-z
loop_
_atom_site_type_symbol
_atom_site_label
_atom_site_fract_x
_atom_site_fract_y
_atom_site_fract_z
Si Si1 0.301643 0.561360 0.275917
Si Si2 0.122448 0.890939 0.020364
Si Si3 0.263049 0.723626 0.628558
Si Si4 0.654557 0.680138 0.044371
Si Si5 0.744132 0.858731 0.315143
Si Si6 0.754728 0.884594 0.736996
Si Si7 0.857936 0.447714 0.974021
O O1 0.512224 0.711333 0.094126
O O2 0.367713 0.458441 0.411268
O O3 0.242503 0.792011 0.129309
O O4 0.042283 0.220316 0.498969
O O5 0.889661 0.556194 0.228583
O O6 0.000000 0.000000 0.000000
O O7 0.301048 0.129553 0.774337
O O8 0.426305 0.667703 0.695178
O O9 0.373467 0.041811 0.357911
O O10 0.059483 0.643947 0.756970
O O11 0.624505 0.755706 0.915007
O O12 0.956270 0.937488 0.850355
O O13 0.708221 0.076529 0.213440
O O14 0.772178 0.641558 0.865785
O O15 0.000000 0.500000 0.000000
#
# Coordination Sequence:
#
# PCOD9077037 Si02
#       7
#     2   2   2   2   2   2   2
#     4  10  19  33  57  77 101 140 169 207 263 303
#     4   9  19  36  56  78 102 132 174 215 255 309
#     4   9  19  32  52  75 105 139 170 211 260 300
#     4   9  18  33  51  77 106 133 172 214 248 303
#     4   9  20  36  52  76 108 135 171 215 252 301
#     4  10  18  33  52  75 107 142 171 206 252 302
#     4  10  14  31  54  75 103 140 174 206 248 303
#
# _framework density 25.705981999999999
#
# number of rings (size 3 to 8) (size 9 to 14) (size 15 to 20)
#    0.000    2.857    4.286    0.429    0.000    1.714 
#    0.000    9.286    0.000   20.571    0.000    0.000 
#    0.000    0.000    0.000    0.000    0.000    0.000 
#
# Total GULP energy -78336.641122 kJ/mol
# GULP energy per Si atom -5595.474366 kJ/mol
# Density = 2.564747 g / cm^3
# Si number density = 25.705982 Si / 1000 Ang^3
#
#
#
# Elastic Constant Matrix: (Units=GPa)
#
#
# Indices 1 2 3 4 5 6 
#
# 1 78.6510 57.0361 54.3323 8.4087 31.5812 -5.2913
# 2 57.0361 206.1596 89.9961 12.0196 34.4605 -26.4369
# 3 54.3323 89.9961 150.2385 -2.3582 53.4006 -20.9763
# 4 8.4087 12.0196 -2.3582 25.3788 10.8754 3.0519
# 5 31.5812 34.4605 53.4006 10.8754 60.4030 -6.0767
# 6 -5.2913 -26.4369 -20.9763 3.0519 -6.0767 56.2453
#
#
#
# Elastic Compliance Matrix: (Units=1/GPa)
#
#
# Indices 1 2 3 4 5 6 
#
# 1 0.019709 -0.002918 -0.003956 -0.003356 -0.004671 -0.001315
# 2 -0.002918 0.007558 -0.003724 -0.003840 0.001424 0.002251
# 3 -0.003956 -0.003724 0.014085 0.008294 -0.009587 0.001644
# 4 -0.003356 -0.003840 0.008294 0.048816 -0.012480 -0.003025
# 5 -0.004671 0.001424 -0.009587 -0.012480 0.028954 0.000460
# 6 -0.001315 0.002251 0.001644 -0.003025 0.000460 0.019541
#
#
# Mechanical properties :
#
#
# Convention : Reuss Voigt Hill
#
# Bulk Modulus (GPa) = 49.61337 93.08647 71.34992
# Shear Modulus (GPa) = 30.01601 43.98439 37.00020
#
# Velocity S-wave (km/s) = 3.42082 4.14098 3.79801
# Velocity P-wave (km/s) = 5.91142 7.69118 6.85927
#
# Compressibility (1/GPa) = 0.02015586
#
# Stress axis : x y z
#
# Youngs Moduli (GPa) = 50.73841 132.30482 70.99789
#
# Poissons Ratio (x) = 0.38609 0.28084
# Poissons Ratio (y) = 0.14806 0.26442
# Poissons Ratio (z) = 0.20070 0.49276
#
# Static dielectric constant tensor:
#      x y z
#    x 2.155520 0.045920 -0.046810 
#    y 0.045920 1.953950 -0.015610 
#    z -0.046810 -0.015610 2.116060 
# 
# From -- ./inp_files/590396.got.cif
#   From: 2010.05.17/outbox.cif.g08.bks.cpg/sg2_296_cif.got.tgz:590396.got - 2010.06.03 11:33:40.
