data_PCOD9077581
_publ_section_title
;
Structure prediction by ZEFSAII (Michael W. Deem and Ramdas Pophale) SiO2 
 PCOD9077581
Probable space group: P -1
;
_chemical_formula_sum "Si O2"
_cell_formula_units_Z 16
_cell_length_a 11.852836
_cell_length_b 7.381925
_cell_length_c 13.099101
_cell_angle_alpha 49.908289
_cell_angle_beta 63.149743
_cell_angle_gamma 49.385411
_cell_volume 664.549142
_symmetry_space_group_name_H-M "P -1"
_symmetry_group_IT_number 2
_symmetry_cell_setting 'triclinic'
loop_
_space_group_symop_operation_xyz
x,y,z
-x,-y,-z
loop_
_atom_site_type_symbol
_atom_site_label
_atom_site_fract_x
_atom_site_fract_y
_atom_site_fract_z
Si Si1 0.633799 0.333991 0.244696
Si Si2 0.162379 0.331070 0.623470
Si Si3 0.418941 0.934784 0.351934
Si Si4 0.831872 0.490759 0.719758
Si Si5 0.816627 0.354756 0.998536
Si Si6 0.301010 0.279271 0.800000
Si Si7 0.868445 0.943189 0.956973
Si Si8 0.640441 0.466958 0.593729
O O1 0.684731 0.462995 0.265930
O O2 0.462284 0.453326 0.293379
O O3 0.732300 0.999689 0.322567
O O4 0.668391 0.450331 0.086740
O O5 0.191495 0.370515 0.715417
O O6 0.216116 0.506678 0.473844
O O7 0.991776 0.429130 0.645003
O O8 0.534873 0.956198 0.222178
O O9 0.528850 0.707119 0.471927
O O10 0.337364 0.812638 0.363499
O O11 0.303356 0.206464 0.361898
O O12 0.816661 0.522516 0.840103
O O13 0.828264 0.209140 0.808053
O O14 0.851282 0.068163 0.033642
O O15 0.955807 0.278729 0.041964
O O16 0.239401 0.173291 0.953786
#
# Coordination Sequence:
#
# PCOD9077581 Si02
#       8
#     2   2   2   2   2   2   2   2
#     4  11  19  34  59  87 110 146 187 230 267 338
#     4  11  18  38  59  80 111 146 195 226 270 331
#     4   9  20  37  54  86 111 142 197 230 266 334
#     4  10  18  34  61  83 113 147 178 237 281 316
#     4   9  16  32  55  85 112 138 179 225 275 334
#     4  10  19  33  58  82 113 151 182 219 276 337
#     4   9  15  33  53  83 111 144 177 214 283 328
#     4   9  21  36  56  79 110 152 189 227 274 325
#
# _framework density 24.076474000000001
#
# number of rings (size 3 to 8) (size 9 to 14) (size 15 to 20)
#    0.750    1.500    3.750    1.125    0.000    1.500 
#    0.000    3.125    0.000    7.500    0.000    0.000 
#    0.000    0.000    0.000    0.000    0.000    0.000 
#
# Total GULP energy -89354.473856 kJ/mol
# GULP energy per Si atom -5584.654616 kJ/mol
# Density = 2.402168 g / cm^3
# Si number density = 24.076474 Si / 1000 Ang^3
#
#
#
# Elastic Constant Matrix: (Units=GPa)
#
#
# Indices 1 2 3 4 5 6 
#
# 1 92.7863 33.8104 30.1246 -1.9611 -40.0018 0.1282
# 2 33.8104 61.8961 26.7599 13.1668 -15.1044 6.5372
# 3 30.1246 26.7599 120.8650 24.2509 -37.3621 -12.9900
# 4 -1.9611 13.1668 24.2509 39.8733 -7.2958 -7.5006
# 5 -40.0018 -15.1044 -37.3621 -7.2958 44.4972 6.7185
# 6 0.1282 6.5372 -12.9900 -7.5006 6.7185 20.2150
#
#
#
# Elastic Compliance Matrix: (Units=1/GPa)
#
#
# Indices 1 2 3 4 5 6 
#
# 1 0.022059 -0.009393 0.000903 0.007018 0.018564 -0.000088
# 2 -0.009393 0.025762 -0.003543 -0.009749 -0.002247 -0.013419
# 3 0.000903 -0.003543 0.013002 -0.004096 0.009107 0.004949
# 4 0.007018 -0.009749 -0.004096 0.033998 0.003325 0.011986
# 5 0.018564 -0.002247 0.009107 0.003325 0.047829 -0.008201
# 6 -0.000088 -0.013419 0.004949 0.011986 -0.008201 0.064161
#
#
# Mechanical properties :
#
#
# Convention : Reuss Voigt Hill
#
# Bulk Modulus (GPa) = 27.20717 50.77081 38.98899
# Shear Modulus (GPa) = 20.56508 33.24059 26.90283
#
# Velocity S-wave (km/s) = 2.92577 3.71971 3.34637
# Velocity P-wave (km/s) = 4.76847 6.29137 5.58210
#
# Compressibility (1/GPa) = 0.03675502
#
# Stress axis : x y z
#
# Youngs Moduli (GPa) = 45.33358 38.81720 76.91025
#
# Poissons Ratio (x) = 0.36462 -0.06942
# Poissons Ratio (y) = 0.42583 0.27251
# Poissons Ratio (z) = -0.04092 0.13754
#
# Static dielectric constant tensor:
#      x y z
#    x 1.985800 0.022050 0.039640 
#    y 0.022050 1.903100 0.046040 
#    z 0.039640 0.046040 2.024040 
# 
# From -- ./inp_files/572192.got.cif
#   From: 2010.05.17/outbox.cif.g08.bks.cpg/sg2_287_cif.got.tgz:572192.got - 2010.06.03 11:33:40.
