data_PCOD9077523
_publ_section_title
;
Structure prediction by ZEFSAII (Michael W. Deem and Ramdas Pophale) SiO2 
 PCOD9077523
Probable space group: P -1
;
_chemical_formula_sum "Si O2"
_cell_formula_units_Z 14
_cell_length_a 19.420486
_cell_length_b 13.108032
_cell_length_c 8.114931
_cell_angle_alpha 30.491427
_cell_angle_beta 47.792746
_cell_angle_gamma 31.887217
_cell_volume 539.726428
_symmetry_space_group_name_H-M "P -1"
_symmetry_group_IT_number 2
_symmetry_cell_setting 'triclinic'
loop_
_space_group_symop_operation_xyz
x,y,z
-x,-y,-z
loop_
_atom_site_type_symbol
_atom_site_label
_atom_site_fract_x
_atom_site_fract_y
_atom_site_fract_z
Si Si1 0.264893 0.070360 0.147661
Si Si2 0.048111 0.353259 0.312938
Si Si3 0.558401 0.721497 0.199294
Si Si4 0.428033 0.651028 0.074486
Si Si5 0.152761 0.661708 0.357430
Si Si6 0.844524 0.941840 0.980224
Si Si7 0.375163 0.333743 0.174409
O O1 0.205690 0.117111 0.357988
O O2 0.421960 0.826953 0.213629
O O3 0.206046 0.997184 0.215363
O O4 0.222128 0.364826 0.756045
O O5 0.988656 0.224719 0.617827
O O6 0.017902 0.396952 0.794863
O O7 0.000000 0.500000 0.000000
O O8 0.613718 0.489158 0.573307
O O9 0.650523 0.653973 0.995758
O O10 0.500000 0.000000 0.000000
O O11 0.281210 0.982003 0.838537
O O12 0.500000 0.500000 0.000000
O O13 0.547810 0.575850 0.075458
O O14 0.132987 0.888394 0.189317
O O15 0.251743 0.532455 0.221695
O O16 0.500000 0.000000 0.500000
#
# Coordination Sequence:
#
# PCOD9077523 Si02
#       7
#     2   2   2   2   2   2   2
#     4  10  21  38  57  90 128 163 209 261 303 372
#     4   8  19  34  56  89 122 164 214 252 302 365
#     4  12  25  40  61  93 129 166 206 259 319 375
#     4  12  23  38  62  94 122 164 206 257 324 374
#     4  10  18  34  61  91 119 167 207 248 315 369
#     4  10  18  34  60  88 123 160 209 250 306 370
#     4  12  21  38  61  90 131 162 203 259 311 379
#
# _framework density 25.939066
#
# number of rings (size 3 to 8) (size 9 to 14) (size 15 to 20)
#    0.000    1.714    4.286    3.000    0.000    5.143 
#    0.000    0.000    0.000    4.286    0.000    0.000 
#    0.000    0.000    0.000    0.000    0.000    0.000 
#
# Total GULP energy -78076.526223 kJ/mol
# GULP energy per Si atom -5576.894730 kJ/mol
# Density = 2.588003 g / cm^3
# Si number density = 25.939066 Si / 1000 Ang^3
#
#
#
# Elastic Constant Matrix: (Units=GPa)
#
#
# Indices 1 2 3 4 5 6 
#
# 1 72.9484 59.8531 42.0810 7.3936 -19.3916 30.9715
# 2 59.8531 270.7209 58.6483 43.5432 -21.8359 36.9047
# 3 42.0810 58.6483 96.0416 23.9371 -14.0237 20.2516
# 4 7.3936 43.5432 23.9371 45.5618 0.0226 -6.3129
# 5 -19.3916 -21.8359 -14.0237 0.0226 39.3188 -3.8805
# 6 30.9715 36.9047 20.2516 -6.3129 -3.8805 48.3844
#
#
#
# Elastic Compliance Matrix: (Units=1/GPa)
#
#
# Indices 1 2 3 4 5 6 
#
# 1 0.026580 -0.002027 -0.006426 -0.000693 0.008489 -0.012188
# 2 -0.002027 0.005694 -0.000224 -0.005484 0.001737 -0.003528
# 3 -0.006426 -0.000224 0.016349 -0.007804 0.002206 -0.003400
# 4 -0.000693 -0.005484 -0.007804 0.033040 -0.005025 0.011801
# 5 0.008489 0.001737 0.002206 -0.005025 0.030795 -0.005868
# 6 -0.012188 -0.003528 -0.003400 0.011801 -0.005868 0.033652
#
#
# Mechanical properties :
#
#
# Convention : Reuss Voigt Hill
#
# Bulk Modulus (GPa) = 31.98172 84.54172 58.26172
# Shear Modulus (GPa) = 28.75443 45.26157 37.00800
#
# Velocity S-wave (km/s) = 3.33308 4.18175 3.78130
# Velocity P-wave (km/s) = 5.21238 7.48193 6.44780
#
# Compressibility (1/GPa) = 0.03126787
#
# Stress axis : x y z
#
# Youngs Moduli (GPa) = 37.62292 175.63348 61.16629
#
# Poissons Ratio (x) = 0.35594 0.39306
# Poissons Ratio (y) = 0.07625 0.01373
# Poissons Ratio (z) = 0.24177 0.03942
#
# Static dielectric constant tensor:
#      x y z
#    x 2.269310 -0.066280 -0.212960 
#    y -0.066280 2.167970 0.047340 
#    z -0.212960 0.047340 1.593340 
# 
# From -- ./inp_files/354016.got.cif
#   From: 2010.05.17/outbox.cif.g08.bks.cpg/sg2_178_cif.got.tgz:354016.got - 2010.06.03 11:33:40.
