data_PCOD9077888
_publ_section_title
;
Structure prediction by ZEFSAII (Michael W. Deem and Ramdas Pophale) SiO2 
 PCOD9077888
Probable space group: P -1
;
_chemical_formula_sum "Si O2"
_cell_formula_units_Z 16
_cell_length_a 9.719887
_cell_length_b 20.220375
_cell_length_c 12.152802
_cell_angle_alpha 29.830119
_cell_angle_beta 53.974781
_cell_angle_gamma 65.275692
_cell_volume 935.456353
_symmetry_space_group_name_H-M "P -1"
_symmetry_group_IT_number 2
_symmetry_cell_setting 'triclinic'
loop_
_space_group_symop_operation_xyz
x,y,z
-x,-y,-z
loop_
_atom_site_type_symbol
_atom_site_label
_atom_site_fract_x
_atom_site_fract_y
_atom_site_fract_z
Si Si1 0.649354 0.154492 0.592126
Si Si2 0.596750 0.376750 0.612806
Si Si3 0.265409 0.635586 0.196878
Si Si4 0.121459 0.321509 0.676169
Si Si5 0.904606 0.377133 0.300057
Si Si6 0.596177 0.317351 0.171134
Si Si7 0.348373 0.145689 0.920299
Si Si8 0.780385 0.628961 0.686872
O O1 0.792482 0.259870 0.444345
O O2 0.635756 0.210020 0.395699
O O3 0.465585 0.146530 0.753697
O O4 0.688344 0.005417 0.795579
O O5 0.500000 0.500000 0.500000
O O6 0.652265 0.328296 0.774777
O O7 0.768140 0.416675 0.395483
O O8 0.466349 0.253136 0.791925
O O9 0.238644 0.470720 0.438485
O O10 0.076331 0.669019 0.229270
O O11 0.368683 0.702643 0.944585
O O12 0.181471 0.204322 0.884128
O O13 0.155848 0.306178 0.553676
O O14 0.060462 0.335661 0.354312
O O15 0.000000 0.500000 0.000000
O O16 0.395959 0.327675 0.260041
O O17 0.720347 0.464391 0.935082
#
# Coordination Sequence:
#
# PCOD9077888 Si02
#       8
#     2   2   2   2   2   2   2   2
#     4  10  21  39  57  86 114 153 189 229 283 336
#     4  11  22  36  57  88 115 147 190 232 284 333
#     4  10  21  33  55  85 114 142 185 236 282 328
#     4  10  18  35  55  82 113 147 185 229 281 333
#     4  11  22  35  59  88 116 141 192 243 277 325
#     4  10  20  33  57  81 114 145 186 230 283 330
#     4  10  21  38  61  80 117 154 189 227 279 347
#     4  10  19  33  55  85 110 144 188 238 274 321
#
# _framework density 17.103953000000001
#
# number of rings (size 3 to 8) (size 9 to 14) (size 15 to 20)
#    0.000    1.750    5.000    0.000    1.750    0.000 
#    0.000    3.125    0.000    0.000    0.000    0.000 
#    0.000    0.000    0.000    0.000    0.000    0.000 
#
# Total GULP energy -89250.102700 kJ/mol
# GULP energy per Si atom -5578.131419 kJ/mol
# Density = 1.706502 g / cm^3
# Si number density = 17.103953 Si / 1000 Ang^3
#
#
#
# Elastic Constant Matrix: (Units=GPa)
#
#
# Indices 1 2 3 4 5 6 
#
# 1 97.4769 38.4462 43.5664 -0.9933 27.6833 -2.7429
# 2 38.4462 78.8933 54.7547 6.9053 18.5232 1.5940
# 3 43.5664 54.7547 97.6871 3.4334 25.5628 -1.5411
# 4 -0.9933 6.9053 3.4334 29.6310 -0.7562 10.7351
# 5 27.6833 18.5232 25.5628 -0.7562 29.5842 2.9883
# 6 -2.7429 1.5940 -1.5411 10.7351 2.9883 19.0010
#
#
#
# Elastic Compliance Matrix: (Units=1/GPa)
#
#
# Indices 1 2 3 4 5 6 
#
# 1 0.015977 -0.003865 -0.001921 -0.000216 -0.011319 0.004377
# 2 -0.003865 0.022448 -0.010337 -0.003899 -0.001522 -0.000837
# 3 -0.001921 -0.010337 0.019372 -0.001790 -0.008978 0.004584
# 4 -0.000216 -0.003899 -0.001790 0.044588 0.007986 -0.026296
# 5 -0.011319 -0.001522 -0.008978 0.007986 0.054861 -0.015374
# 6 0.004377 -0.000837 0.004584 -0.026296 -0.015374 0.070977
#
#
# Mechanical properties :
#
#
# Convention : Reuss Voigt Hill
#
# Bulk Modulus (GPa) = 39.13498 60.84354 49.98926
# Shear Modulus (GPa) = 18.58834 24.79591 21.69212
#
# Velocity S-wave (km/s) = 3.30022 3.81165 3.56512
# Velocity P-wave (km/s) = 6.11983 7.41765 6.79977
#
# Compressibility (1/GPa) = 0.02555259
#
# Stress axis : x y z
#
# Youngs Moduli (GPa) = 62.58970 44.54648 51.62144
#
# Poissons Ratio (x) = 0.17218 0.09914
# Poissons Ratio (y) = 0.24191 0.53360
# Poissons Ratio (z) = 0.12021 0.46047
#
# Static dielectric constant tensor:
#      x y z
#    x 1.579240 0.003120 0.004610 
#    y 0.003120 1.585130 0.009160 
#    z 0.004610 0.009160 1.564820 
# 
# From -- ./inp_files/206332.got.cif
#   From: 2010.05.17/outbox.cif.g08.bks.cpg/sg2_104_cif.got.tgz:206332.got - 2010.06.03 11:33:40.
