data_PCOD9077288
_publ_section_title
;
Structure prediction by ZEFSAII (Michael W. Deem and Ramdas Pophale) SiO2 
 PCOD9077288
Probable space group: P -1
;
_chemical_formula_sum "Si O2"
_cell_formula_units_Z 16
_cell_length_a 7.503698
_cell_length_b 14.150774
_cell_length_c 8.592479
_cell_angle_alpha 54.233483
_cell_angle_beta 70.891272
_cell_angle_gamma 94.144779
_cell_volume 656.866991
_symmetry_space_group_name_H-M "P -1"
_symmetry_group_IT_number 2
_symmetry_cell_setting 'triclinic'
loop_
_space_group_symop_operation_xyz
x,y,z
-x,-y,-z
loop_
_atom_site_type_symbol
_atom_site_label
_atom_site_fract_x
_atom_site_fract_y
_atom_site_fract_z
Si Si1 0.746073 0.611750 0.157523
Si Si2 0.093598 0.183065 0.876126
Si Si3 0.698569 0.253974 0.900127
Si Si4 0.580780 0.388133 0.243531
Si Si5 0.898331 0.493789 0.780626
Si Si6 0.995278 0.062681 0.687599
Si Si7 0.777081 0.247306 0.547431
Si Si8 0.313000 0.214043 0.245738
O O1 0.746215 0.685735 0.244543
O O2 0.563835 0.492356 0.266843
O O3 0.927436 0.559317 0.167186
O O4 0.784071 0.715780 0.913992
O O5 0.098994 0.134001 0.748333
O O6 0.875390 0.199610 0.938511
O O7 0.102526 0.077293 0.094028
O O8 0.789276 0.402937 0.758761
O O9 0.646529 0.226673 0.761306
O O10 0.508348 0.203411 0.115255
O O11 0.670967 0.294798 0.394977
O O12 0.391136 0.307783 0.277853
O O13 0.740265 0.464300 0.994216
O O14 0.016249 0.638352 0.581260
O O15 0.161062 0.089434 0.480634
O O16 0.837495 0.127505 0.617243
#
# Coordination Sequence:
#
# PCOD9077288 Si02
#       8
#     2   2   2   2   2   2   2   2
#     4  10  19  35  57  82 110 145 185 224 266 323
#     4   9  21  41  60  79 106 145 192 229 263 322
#     4   9  20  35  54  82 113 141 178 229 279 325
#     4  10  20  34  55  85 119 144 175 226 281 328
#     4   9  17  33  55  80 111 146 184 224 268 326
#     4  10  21  39  61  81 106 145 189 229 269 322
#     4  10  18  34  58  80 106 148 189 219 266 329
#     4  11  22  35  54  84 118 144 175 226 283 326
#
# _framework density 24.358051
#
# number of rings (size 3 to 8) (size 9 to 14) (size 15 to 20)
#    0.000    2.250    0.000    3.750    0.000    4.000 
#    0.000    4.375    0.000    4.500    0.000    0.000 
#    0.000    0.000    0.000    0.000    0.000    0.000 
#
# Total GULP energy -89535.950412 kJ/mol
# GULP energy per Si atom -5595.996901 kJ/mol
# Density = 2.430261 g / cm^3
# Si number density = 24.358051 Si / 1000 Ang^3
#
#
#
# Elastic Constant Matrix: (Units=GPa)
#
#
# Indices 1 2 3 4 5 6 
#
# 1 48.1976 24.9203 33.9852 4.4552 2.1264 -19.7740
# 2 24.9203 95.9671 29.0216 -5.5300 -10.8264 8.0417
# 3 33.9852 29.0216 113.8221 -6.4768 -3.0805 -19.8643
# 4 4.4552 -5.5300 -6.4768 20.5565 -10.4901 7.2408
# 5 2.1264 -10.8264 -3.0805 -10.4901 31.5155 -2.2230
# 6 -19.7740 8.0417 -19.8643 7.2408 -2.2230 38.4584
#
#
#
# Elastic Compliance Matrix: (Units=1/GPa)
#
#
# Indices 1 2 3 4 5 6 
#
# 1 0.059279 -0.021461 -0.009036 -0.047804 -0.025499 0.037826
# 2 -0.021461 0.020961 -0.000496 0.024910 0.015518 -0.019467
# 3 -0.009036 -0.000496 0.012263 0.007631 0.004220 0.000599
# 4 -0.047804 0.024910 0.007631 0.106229 0.044836 -0.043255
# 5 -0.025499 0.015518 0.004220 0.044836 0.052738 -0.019569
# 6 0.037826 -0.019467 0.000599 -0.043255 -0.019569 0.056844
#
#
# Mechanical properties :
#
#
# Convention : Reuss Voigt Hill
#
# Bulk Modulus (GPa) = 32.77154 48.20456 40.48805
# Shear Modulus (GPa) = 13.14154 29.44339 21.29247
#
# Velocity S-wave (km/s) = 2.32527 3.48052 2.95980
# Velocity P-wave (km/s) = 4.54890 5.99874 5.32341
#
# Compressibility (1/GPa) = 0.03051428
#
# Stress axis : x y z
#
# Youngs Moduli (GPa) = 16.86948 47.70842 81.54437
#
# Poissons Ratio (x) = 1.02389 0.73686
# Poissons Ratio (y) = 0.36204 0.04048
# Poissons Ratio (z) = 0.15244 0.02368
#
# Static dielectric constant tensor:
#      x y z
#    x 1.945410 0.051160 0.001180 
#    y 0.051160 1.973410 0.013840 
#    z 0.001180 0.013840 1.873860 
# 
# From -- ./inp_files/199429.got.cif
#   From: 2010.05.17/outbox.cif.g08.bks.cpg/sg2_100_cif.got.tgz:199429.got - 2010.06.03 11:33:40.
