data_PCOD9077552
_publ_section_title
;
Structure prediction by ZEFSAII (Michael W. Deem and Ramdas Pophale) SiO2 
 PCOD9077552
Probable space group: P -1
;
_chemical_formula_sum "Si O2"
_cell_formula_units_Z 14
_cell_length_a 7.345447
_cell_length_b 9.819237
_cell_length_c 11.459377
_cell_angle_alpha 83.749465
_cell_angle_beta 92.504141
_cell_angle_gamma 130.341731
_cell_volume 625.839777
_symmetry_space_group_name_H-M "P -1"
_symmetry_group_IT_number 2
_symmetry_cell_setting 'triclinic'
loop_
_space_group_symop_operation_xyz
x,y,z
-x,-y,-z
loop_
_atom_site_type_symbol
_atom_site_label
_atom_site_fract_x
_atom_site_fract_y
_atom_site_fract_z
Si Si1 0.846196 0.713929 0.986006
Si Si2 0.403730 0.552052 0.815866
Si Si3 0.452185 0.821658 0.286526
Si Si4 0.693483 0.927760 0.048870
Si Si5 0.615925 0.510028 0.622962
Si Si6 0.337402 0.063489 0.228810
Si Si7 0.988861 0.070225 0.368616
O O1 0.808857 0.570754 0.086633
O O2 0.800493 0.826650 0.053920
O O3 0.638679 0.621996 0.892595
O O4 0.106752 0.864267 0.927533
O O5 0.415222 0.454536 0.718203
O O6 0.445164 0.726129 0.755956
O O7 0.335965 0.627920 0.351957
O O8 0.334894 0.911478 0.295175
O O9 0.485779 0.823329 0.147133
O O10 0.716718 0.959549 0.335778
O O11 0.643486 0.936545 0.911319
O O12 0.500000 0.500000 0.500000
O O13 0.849328 0.714994 0.636266
O O14 0.111909 0.034822 0.276825
O O15 0.000000 0.000000 0.500000
#
# Coordination Sequence:
#
# PCOD9077552 Si02
#       7
#     2   2   2   2   2   2   2
#     4   9  16  31  61  87 118 170 200 245 311 372
#     4   9  18  35  56  88 125 157 209 253 304 371
#     4  12  23  43  66  92 133 164 204 266 310 366
#     4  10  18  34  60  92 126 161 204 249 313 374
#     4  11  22  40  65  91 118 167 215 257 310 371
#     4  10  24  40  63  97 126 162 207 257 315 376
#     4  11  24  46  67  89 127 169 210 260 316 366
#
# _framework density 22.369944
#
# number of rings (size 3 to 8) (size 9 to 14) (size 15 to 20)
#    0.000    1.714    2.857    3.857    0.000    0.571 
#    2.571    1.429    0.000    0.000    0.000    0.000 
#    0.000    0.000    0.000    0.000    0.000    0.000 
#
# Total GULP energy -78179.810939 kJ/mol
# GULP energy per Si atom -5584.272210 kJ/mol
# Density = 2.231903 g / cm^3
# Si number density = 22.369944 Si / 1000 Ang^3
#
#
#
# Elastic Constant Matrix: (Units=GPa)
#
#
# Indices 1 2 3 4 5 6 
#
# 1 26.8908 27.8275 3.0165 -4.1581 12.8118 -9.9979
# 2 27.8275 117.6020 30.1881 -25.6170 17.9731 -15.9590
# 3 3.0165 30.1881 98.6051 -6.1188 -1.1674 -4.6171
# 4 -4.1581 -25.6170 -6.1188 42.3250 -1.8050 6.6861
# 5 12.8118 17.9731 -1.1674 -1.8050 15.1981 -11.3758
# 6 -9.9979 -15.9590 -4.6171 6.6861 -11.3758 28.5683
#
#
#
# Elastic Compliance Matrix: (Units=1/GPa)
#
#
# Indices 1 2 3 4 5 6 
#
# 1 0.069369 -0.009396 0.000164 -0.000939 -0.047066 0.000533
# 2 -0.009396 0.014606 -0.003920 0.007144 -0.009808 -0.001340
# 3 0.000164 -0.003920 0.011508 -0.000831 0.007443 0.002886
# 4 -0.000939 0.007144 -0.000831 0.028425 -0.009521 -0.006916
# 5 -0.047066 -0.009808 0.007443 -0.009521 0.146238 0.039712
# 6 0.000533 -0.001340 0.002886 -0.006916 0.039712 0.052340
#
#
# Mechanical properties :
#
#
# Convention : Reuss Voigt Hill
#
# Bulk Modulus (GPa) = 14.45509 40.57357 27.51433
# Shear Modulus (GPa) = 13.44633 29.35602 21.40117
#
# Velocity S-wave (km/s) = 2.45437 3.62649 3.09640
# Velocity P-wave (km/s) = 3.80891 5.97597 5.01099
#
# Compressibility (1/GPa) = 0.06917977
#
# Stress axis : x y z
#
# Youngs Moduli (GPa) = 14.41570 68.46550 86.89490
#
# Poissons Ratio (x) = 0.64327 -0.01423
# Poissons Ratio (y) = 0.13544 0.34061
# Poissons Ratio (z) = -0.00236 0.26837
#
# Static dielectric constant tensor:
#      x y z
#    x 1.834940 0.013500 -0.008300 
#    y 0.013500 1.891730 -0.008800 
#    z -0.008300 -0.008800 1.869430 
# 
# From -- ./inp_files/378415.got.cif
#   From: 2010.05.17/outbox.cif.g08.bks.cpg/sg2_190_cif.got.tgz:378415.got - 2010.06.03 11:33:40.
