data_PCOD9077455
_publ_section_title
;
Structure prediction by ZEFSAII (Michael W. Deem and Ramdas Pophale) SiO2 
 PCOD9077455
Probable space group: P -1
;
_chemical_formula_sum "Si O2"
_cell_formula_units_Z 12
_cell_length_a 7.146835
_cell_length_b 6.861884
_cell_length_c 10.569311
_cell_angle_alpha 101.226639
_cell_angle_beta 78.071662
_cell_angle_gamma 84.160890
_cell_volume 491.956976
_symmetry_space_group_name_H-M "P -1"
_symmetry_group_IT_number 2
_symmetry_cell_setting 'triclinic'
loop_
_space_group_symop_operation_xyz
x,y,z
-x,-y,-z
loop_
_atom_site_type_symbol
_atom_site_label
_atom_site_fract_x
_atom_site_fract_y
_atom_site_fract_z
Si Si1 0.513359 0.720947 0.871141
Si Si2 0.864740 0.010820 0.640922
Si Si3 0.442879 0.236719 0.397856
Si Si4 0.800045 0.022960 0.920042
Si Si5 0.195209 0.353118 0.971268
Si Si6 0.542190 0.775575 0.321863
O O1 0.666898 0.595311 0.926144
O O2 0.572328 0.013579 0.358517
O O3 0.493838 0.655015 0.721998
O O4 0.692635 0.221282 0.026607
O O5 0.686440 0.192734 0.673815
O O6 0.771605 0.806613 0.612331
O O7 0.931755 0.029690 0.778795
O O8 0.000000 0.000000 0.500000
O O9 0.388064 0.071778 0.125357
O O10 0.431497 0.312202 0.551704
O O11 0.866020 0.858158 0.996834
O O12 0.323679 0.318887 0.822525
O O13 0.000000 0.500000 0.000000
#
# Coordination Sequence:
#
# PCOD9077455 Si02
#       6
#     2   2   2   2   2   2
#     4   8  11  25  40  56  75 108 131 164 205 229
#     4   9  14  23  43  64  80 106 137 165 198 242
#     4   8  14  24  44  58  85 103 126 173 214 225
#     4   8  12  23  38  57  80 100 136 166 194 228
#     4  10  15  23  42  64  81 104 139 170 196 237
#     4   9  14  25  39  66  82 102 130 174 207 229
#
# _framework density 24.392375000000001
#
# number of rings (size 3 to 8) (size 9 to 14) (size 15 to 20)
#    2.000    1.333    3.333    0.000    0.000    0.000 
#    0.000    0.833    0.000    5.000    0.000    1.167 
#    0.000    0.000    0.000    0.000    0.000    0.000 
#
# Total GULP energy -66860.213701 kJ/mol
# GULP energy per Si atom -5571.684475 kJ/mol
# Density = 2.433686 g / cm^3
# Si number density = 24.392375 Si / 1000 Ang^3
#
#
#
# Elastic Constant Matrix: (Units=GPa)
#
#
# Indices 1 2 3 4 5 6 
#
# 1 58.6228 44.0529 74.7207 5.3003 -9.9186 -21.5633
# 2 44.0529 87.5773 93.9169 5.9807 1.2274 -28.0704
# 3 74.7207 93.9169 345.4698 11.2532 -2.8764 -34.3264
# 4 5.3003 5.9807 11.2532 42.6644 -1.2095 1.4270
# 5 -9.9186 1.2274 -2.8764 -1.2095 51.3002 2.7305
# 6 -21.5633 -28.0704 -34.3264 1.4270 2.7305 42.7040
#
#
#
# Elastic Compliance Matrix: (Units=1/GPa)
#
#
# Indices 1 2 3 4 5 6 
#
# 1 0.033252 -0.010872 -0.003482 -0.001733 0.006106 0.006513
# 2 -0.010872 0.022606 -0.003066 -0.001340 -0.003227 0.007156
# 3 -0.003482 -0.003066 0.004475 -0.000323 -0.000349 -0.000144
# 4 -0.001733 -0.001340 -0.000323 0.024034 0.000397 -0.002844
# 5 0.006106 -0.003227 -0.000349 0.000397 0.020776 -0.000660
# 6 0.006513 0.007156 -0.000144 -0.002844 -0.000660 0.031431
#
#
# Mechanical properties :
#
#
# Convention : Reuss Voigt Hill
#
# Bulk Modulus (GPa) = 39.22818 101.89455 70.56137
# Shear Modulus (GPa) = 27.79172 45.93236 36.86204
#
# Velocity S-wave (km/s) = 3.37910 4.34413 3.89165
# Velocity P-wave (km/s) = 5.59835 8.18693 7.01311
#
# Compressibility (1/GPa) = 0.02549188
#
# Stress axis : x y z
#
# Youngs Moduli (GPa) = 30.07378 44.23644 223.48496
#
# Poissons Ratio (x) = 0.48094 0.77816
# Poissons Ratio (y) = 0.32696 0.68524
# Poissons Ratio (z) = 0.10471 0.13564
#
# Static dielectric constant tensor:
#      x y z
#    x 2.087710 0.136080 0.030220 
#    y 0.136080 2.040760 0.001650 
#    z 0.030220 0.001650 2.008420 
# 
# From -- ./inp_files/162173.got.cif
#   From: 2010.05.17/outbox.cif.g08.bks.cpg/sg2_82_cif.got.tgz:162173.got - 2010.06.03 11:33:40.
