data_PCOD9077743
_publ_section_title
;
Structure prediction by ZEFSAII (Michael W. Deem and Ramdas Pophale) SiO2 
 PCOD9077743
Probable space group: P -1
;
_chemical_formula_sum "Si O2"
_cell_formula_units_Z 16
_cell_length_a 11.938277
_cell_length_b 18.789605
_cell_length_c 9.571971
_cell_angle_alpha 113.325763
_cell_angle_beta 80.033586
_cell_angle_gamma 154.598578
_cell_volume 747.117659
_symmetry_space_group_name_H-M "P -1"
_symmetry_group_IT_number 2
_symmetry_cell_setting 'triclinic'
loop_
_space_group_symop_operation_xyz
x,y,z
-x,-y,-z
loop_
_atom_site_type_symbol
_atom_site_label
_atom_site_fract_x
_atom_site_fract_y
_atom_site_fract_z
Si Si1 0.761856 0.300848 0.486231
Si Si2 0.207203 0.920697 0.955236
Si Si3 0.672855 0.552880 0.606765
Si Si4 0.760642 0.568158 0.115093
Si Si5 0.242957 0.515387 0.672187
Si Si6 0.677187 0.701556 0.255288
Si Si7 0.710480 0.898567 0.682833
Si Si8 0.622377 0.081145 0.853882
O O1 0.488059 0.187961 0.464838
O O2 0.000000 0.500000 0.500000
O O3 0.964667 0.398808 0.646134
O O4 0.615945 0.133910 0.311217
O O5 0.902576 0.741002 0.802755
O O6 0.472787 0.070585 0.905473
O O7 0.222957 0.849402 0.980468
O O8 0.230535 0.997293 0.132394
O O9 0.500000 0.500000 0.500000
O O10 0.860392 0.618077 0.512113
O O11 0.459736 0.372239 0.619246
O O12 0.641073 0.446918 0.180272
O O13 0.748407 0.653486 0.203115
O O14 0.098263 0.750878 0.176968
O O15 0.569714 0.434821 0.913557
O O16 0.512358 0.718685 0.681591
O O17 0.979528 0.931253 0.317601
#
# Coordination Sequence:
#
# PCOD9077743 Si02
#       8
#     2   2   2   2   2   2   2   2
#     4   9  18  36  58  87 120 154 195 249 305 350
#     4  10  19  37  61  87 113 160 203 243 294 367
#     4  12  23  38  60  92 123 153 206 261 294 348
#     4  11  21  38  60  93 119 159 206 249 296 365
#     4  11  24  39  62  94 124 155 201 261 306 345
#     4  11  21  39  61  83 124 164 203 243 300 370
#     4  10  22  41  64  86 124 167 199 240 313 371
#     4  10  18  34  64  88 112 159 208 239 294 366
#
# _framework density 21.415637
#
# number of rings (size 3 to 8) (size 9 to 14) (size 15 to 20)
#    0.000    1.500    6.250    0.750    0.000    1.500 
#    2.250    0.625    0.000    0.000    0.000    0.000 
#    0.000    0.000    0.000    0.000    0.000    0.000 
#
# Total GULP energy -89090.311965 kJ/mol
# GULP energy per Si atom -5568.144498 kJ/mol
# Density = 2.136689 g / cm^3
# Si number density = 21.415637 Si / 1000 Ang^3
#
#
#
# Elastic Constant Matrix: (Units=GPa)
#
#
# Indices 1 2 3 4 5 6 
#
# 1 41.5735 38.0899 32.7283 -4.1216 18.9719 5.5652
# 2 38.0899 73.3254 44.8877 -2.4426 22.4507 9.6089
# 3 32.7283 44.8877 84.9674 -4.4231 34.2327 -5.2720
# 4 -4.1216 -2.4426 -4.4231 30.9169 2.0801 9.9759
# 5 18.9719 22.4507 34.2327 2.0801 33.3312 -8.5259
# 6 5.5652 9.6089 -5.2720 9.9759 -8.5259 28.7136
#
#
#
# Elastic Compliance Matrix: (Units=1/GPa)
#
#
# Indices 1 2 3 4 5 6 
#
# 1 0.056701 -0.017933 -0.004504 0.012058 -0.020433 -0.016072
# 2 -0.017933 0.030940 -0.007640 0.002901 -0.005782 -0.011005
# 3 -0.004504 -0.007640 0.024893 0.002980 -0.017598 0.001739
# 4 0.012058 0.002901 0.002980 0.043799 -0.020789 -0.024151
# 5 -0.020433 -0.005782 -0.017598 -0.020789 0.072970 0.031554
# 6 -0.016072 -0.011005 0.001739 -0.024151 0.031554 0.059704
#
#
# Mechanical properties :
#
#
# Convention : Reuss Voigt Hill
#
# Bulk Modulus (GPa) = 19.09110 47.91980 33.50545
# Shear Modulus (GPa) = 13.63808 24.20303 18.92055
#
# Velocity S-wave (km/s) = 2.52628 3.36543 2.97558
# Velocity P-wave (km/s) = 4.17653 6.12586 5.24259
#
# Compressibility (1/GPa) = 0.05238044
#
# Stress axis : x y z
#
# Youngs Moduli (GPa) = 17.63628 32.32111 40.17128
#
# Poissons Ratio (x) = 0.57962 0.18092
# Poissons Ratio (y) = 0.31627 0.30690
# Poissons Ratio (z) = 0.07943 0.24693
#
# Static dielectric constant tensor:
#      x y z
#    x 1.874980 0.033500 -0.037590 
#    y 0.033500 1.879340 0.005540 
#    z -0.037590 0.005540 1.770260 
# 
# From -- ./inp_files/208978.got.cif
#   From: 2010.05.17/outbox.cif.g08.bks.cpg/sg2_105_cif.got.tgz:208978.got - 2010.06.03 11:33:40.
