data_PCOD9077957
_publ_section_title
;
Structure prediction by ZEFSAII (Michael W. Deem and Ramdas Pophale) SiO2 
 PCOD9077957
Probable space group: P -1
;
_chemical_formula_sum "Si O2"
_cell_formula_units_Z 12
_cell_length_a 14.645568
_cell_length_b 5.189794
_cell_length_c 7.688954
_cell_angle_alpha 62.489013
_cell_angle_beta 68.215559
_cell_angle_gamma 86.197132
_cell_volume 477.382098
_symmetry_space_group_name_H-M "P -1"
_symmetry_group_IT_number 2
_symmetry_cell_setting 'triclinic'
loop_
_space_group_symop_operation_xyz
x,y,z
-x,-y,-z
loop_
_atom_site_type_symbol
_atom_site_label
_atom_site_fract_x
_atom_site_fract_y
_atom_site_fract_z
Si Si1 0.264377 0.010182 0.955453
Si Si2 0.740283 0.266639 0.578836
Si Si3 0.061811 0.870008 0.646852
Si Si4 0.551875 0.906726 0.810652
Si Si5 0.104258 0.250254 0.812994
Si Si6 0.625802 0.440273 0.133428
O O1 0.157129 0.113938 0.978326
O O2 0.343867 0.302998 0.828400
O O3 0.290751 0.778250 0.865510
O O4 0.267164 0.823509 0.187182
O O5 0.821870 0.078789 0.500458
O O6 0.794424 0.589652 0.404603
O O7 0.630529 0.176354 0.611290
O O8 0.041481 0.520108 0.784404
O O9 0.051101 0.013443 0.794884
O O10 0.000000 0.000000 0.500000
O O11 0.475826 0.777410 0.756193
O O12 0.614705 0.646410 0.905787
O O13 0.500000 0.000000 0.000000
#
# Coordination Sequence:
#
# PCOD9077957 Si02
#       6
#     2   2   2   2   2   2
#     4  11  21  39  59  90 120 159 195 242 290 344
#     4   9  23  36  65  85 116 162 195 238 296 345
#     4  10  22  43  65  87 118 152 192 246 300 354
#     4  10  18  35  56  90 117 159 203 238 283 340
#     4  10  23  40  63  88 122 149 195 248 294 350
#     4  10  20  32  58  83 124 157 196 241 280 339
#
# _framework density 25.1371
#
# number of rings (size 3 to 8) (size 9 to 14) (size 15 to 20)
#    1.000    1.000    3.333    1.500    4.667    0.000 
#    0.000    3.333    0.000    0.000    0.000    0.000 
#    0.000    0.000    0.000    0.000    0.000    0.000 
#
# Total GULP energy -66955.211793 kJ/mol
# GULP energy per Si atom -5579.600983 kJ/mol
# Density = 2.507989 g / cm^3
# Si number density = 25.137100 Si / 1000 Ang^3
#
#
#
# Elastic Constant Matrix: (Units=GPa)
#
#
# Indices 1 2 3 4 5 6 
#
# 1 100.3531 19.4867 0.2091 -11.5402 6.3460 -1.6629
# 2 19.4867 156.9745 5.3273 -6.8762 11.8510 -4.0780
# 3 0.2091 5.3273 52.5658 -7.4998 -2.2830 -1.4620
# 4 -11.5402 -6.8762 -7.4998 33.0021 -0.8952 1.2259
# 5 6.3460 11.8510 -2.2830 -0.8952 46.0528 -5.2937
# 6 -1.6629 -4.0780 -1.4620 1.2259 -5.2937 35.3495
#
#
#
# Elastic Compliance Matrix: (Units=1/GPa)
#
#
# Indices 1 2 3 4 5 6 
#
# 1 0.010660 -0.001100 0.000537 0.003587 -0.001077 0.000111
# 2 -0.001100 0.006691 -0.000612 0.000812 -0.001534 0.000437
# 3 0.000537 -0.000612 0.019812 0.004567 0.001247 0.000802
# 4 0.003587 0.000812 0.004567 0.032790 0.000083 -0.000673
# 5 -0.001077 -0.001534 0.001247 0.000083 0.022691 0.003219
# 6 0.000111 0.000437 0.000802 -0.000673 0.003219 0.028883
#
#
# Mechanical properties :
#
#
# Convention : Reuss Voigt Hill
#
# Bulk Modulus (GPa) = 28.72618 39.99327 34.35973
# Shear Modulus (GPa) = 36.90576 41.87223 39.38900
#
# Velocity S-wave (km/s) = 3.83584 4.08579 3.96279
# Velocity P-wave (km/s) = 5.57412 6.18085 5.88531
#
# Compressibility (1/GPa) = 0.03481145
#
# Stress axis : x y z
#
# Youngs Moduli (GPa) = 93.81078 149.46343 50.47524
#
# Poissons Ratio (x) = 0.16444 -0.02712
# Poissons Ratio (y) = 0.10321 0.03091
# Poissons Ratio (z) = -0.05040 0.09151
#
# Static dielectric constant tensor:
#      x y z
#    x 2.064510 -0.020180 -0.081730 
#    y -0.020180 1.991200 0.033590 
#    z -0.081730 0.033590 2.049210 
# 
# From -- ./inp_files/32174.got.cif
#   From: 2010.05.17/outbox.cif.g08.bks.cpg/sg2_17_cif.got.tgz:32174.got - 2010.06.03 11:33:40.
