data_PCOD9077712
_publ_section_title
;
Structure prediction by ZEFSAII (Michael W. Deem and Ramdas Pophale) SiO2 
 PCOD9077712
Probable space group: P -1
;
_chemical_formula_sum "Si O2"
_cell_formula_units_Z 12
_cell_length_a 7.951143
_cell_length_b 10.564463
_cell_length_c 11.957016
_cell_angle_alpha 127.926723
_cell_angle_beta 142.691736
_cell_angle_gamma 58.609438
_cell_volume 479.112961
_symmetry_space_group_name_H-M "P -1"
_symmetry_group_IT_number 2
_symmetry_cell_setting 'triclinic'
loop_
_space_group_symop_operation_xyz
x,y,z
-x,-y,-z
loop_
_atom_site_type_symbol
_atom_site_label
_atom_site_fract_x
_atom_site_fract_y
_atom_site_fract_z
Si Si1 0.170150 0.851140 0.879121
Si Si2 0.177636 0.888777 0.448420
Si Si3 0.885588 0.382310 0.468734
Si Si4 0.990537 0.217929 0.917794
Si Si5 0.432894 0.196096 0.727543
Si Si6 0.695016 0.668624 0.663476
O O1 0.229721 0.761679 0.743624
O O2 0.911550 0.770403 0.758846
O O3 0.421649 0.827162 0.087354
O O4 0.090445 0.038764 0.917783
O O5 0.999560 0.793122 0.215707
O O6 0.405418 0.771996 0.564392
O O7 0.343077 0.023420 0.544441
O O8 0.000000 0.000000 0.500000
O O9 0.000000 0.500000 0.500000
O O10 0.155931 0.312531 0.642166
O O11 0.305853 0.500929 0.491360
O O12 0.669495 0.255092 0.803391
O O13 0.169712 0.337362 0.145744
#
# Coordination Sequence:
#
# PCOD9077712 Si02
#       6
#     2   2   2   2   2   2
#     4  10  18  34  63  89 113 148 187 237 287 334
#     4  12  24  37  59  87 113 153 199 235 278 339
#     4  10  21  33  57  92 122 143 180 239 294 335
#     4  11  19  36  65  83 113 151 190 241 281 330
#     4  11  20  37  62  87 115 149 193 233 284 343
#     4  10  21  37  55  91 117 142 191 237 285 339
#
# _framework density 25.046285000000001
#
# number of rings (size 3 to 8) (size 9 to 14) (size 15 to 20)
#    0.000    1.333    5.000    3.500    0.000    8.000 
#    0.000    0.833    0.000    2.000    0.000    0.000 
#    0.000    0.000    0.000    0.000    0.000    0.000 
#
# Total GULP energy -67255.145979 kJ/mol
# GULP energy per Si atom -5604.595498 kJ/mol
# Density = 2.498928 g / cm^3
# Si number density = 25.046285 Si / 1000 Ang^3
#
#
#
# Elastic Constant Matrix: (Units=GPa)
#
#
# Indices 1 2 3 4 5 6 
#
# 1 66.7167 24.6077 36.8888 5.1346 -1.9420 -25.8075
# 2 24.6077 117.3867 47.3305 1.6382 4.3991 -43.4516
# 3 36.8888 47.3305 152.1335 12.6080 -22.9818 -38.9531
# 4 5.1346 1.6382 12.6080 53.1362 -3.6735 -7.4303
# 5 -1.9420 4.3991 -22.9818 -3.6735 31.0717 16.4662
# 6 -25.8075 -43.4516 -38.9531 -7.4303 16.4662 54.5590
#
#
#
# Elastic Compliance Matrix: (Units=1/GPa)
#
#
# Indices 1 2 3 4 5 6 
#
# 1 0.020299 0.001228 -0.003798 -0.000190 -0.007015 0.009959
# 2 0.001228 0.015259 -0.003336 0.001356 -0.011873 0.014120
# 3 -0.003798 -0.003336 0.009775 -0.001327 0.007220 0.000166
# 4 -0.000190 0.001356 -0.001327 0.019478 -0.000370 0.002807
# 5 -0.007015 -0.011873 0.007220 -0.000370 0.050933 -0.023042
# 6 0.009959 0.014120 0.000166 0.002807 -0.023042 0.041740
#
#
# Mechanical properties :
#
#
# Convention : Reuss Voigt Hill
#
# Bulk Modulus (GPa) = 29.83119 61.54344 45.68732
# Shear Modulus (GPa) = 27.70561 42.91403 35.30982
#
# Velocity S-wave (km/s) = 3.32953 4.14380 3.75878
# Velocity P-wave (km/s) = 5.16888 6.89348 6.09251
#
# Compressibility (1/GPa) = 0.03352196
#
# Stress axis : x y z
#
# Youngs Moduli (GPa) = 49.26434 65.53514 102.30127
#
# Poissons Ratio (x) = -0.08049 0.38853
# Poissons Ratio (y) = -0.06051 0.34125
# Poissons Ratio (z) = 0.18710 0.21861
#
# Static dielectric constant tensor:
#      x y z
#    x 2.158220 0.018860 -0.006150 
#    y 0.018860 1.907980 0.019250 
#    z -0.006150 0.019250 1.952680 
# 
# From -- ./inp_files/251450.got.cif
#   From: 2010.05.17/outbox.cif.g08.bks.cpg/sg2_126_cif.got.tgz:251450.got - 2010.06.03 11:33:40.
