data_PCOD9077188
_publ_section_title
;
Structure prediction by ZEFSAII (Michael W. Deem and Ramdas Pophale) SiO2 
 PCOD9077188
Probable space group: P -1
;
_chemical_formula_sum "Si O2"
_cell_formula_units_Z 16
_cell_length_a 7.533181
_cell_length_b 7.286628
_cell_length_c 16.228721
_cell_angle_alpha 117.230512
_cell_angle_beta 125.268226
_cell_angle_gamma 59.037935
_cell_volume 607.066834
_symmetry_space_group_name_H-M "P -1"
_symmetry_group_IT_number 2
_symmetry_cell_setting 'triclinic'
loop_
_space_group_symop_operation_xyz
x,y,z
-x,-y,-z
loop_
_atom_site_type_symbol
_atom_site_label
_atom_site_fract_x
_atom_site_fract_y
_atom_site_fract_z
Si Si1 0.671687 0.627311 0.587912
Si Si2 0.200444 0.634818 0.169384
Si Si3 0.202248 0.332196 0.712628
Si Si4 0.242191 0.688344 0.924178
Si Si5 0.972180 0.073047 0.684970
Si Si6 0.803219 0.942231 0.779508
Si Si7 0.189928 0.255347 0.514225
Si Si8 0.689605 0.679381 0.997721
O O1 0.500000 0.500000 0.500000
O O2 0.648880 0.764552 0.525425
O O3 0.929772 0.456231 0.638828
O O4 0.642120 0.802384 0.688851
O O5 0.301184 0.393956 0.110038
O O6 0.204500 0.692304 0.278413
O O7 0.308261 0.798882 0.186962
O O8 0.923929 0.723188 0.090910
O O9 0.263335 0.513968 0.819222
O O10 0.192201 0.136660 0.729936
O O11 0.300351 0.254848 0.632315
O O12 0.980011 0.846901 0.880188
O O13 0.427655 0.810966 0.983044
O O14 0.275423 0.543109 0.984747
O O15 0.959670 0.929448 0.733947
O O16 0.913808 0.939076 0.567210
O O17 0.000000 0.500000 0.500000
#
# Coordination Sequence:
#
# PCOD9077188 Si02
#       8
#     2   2   2   2   2   2   2   2
#     4   9  18  35  55  80 112 144 181 225 276 327
#     4   9  19  37  55  80 110 148 182 236 277 330
#     4  10  18  34  57  80 109 146 184 226 277 329
#     4  10  19  35  56  83 109 149 187 233 275 327
#     4   9  17  35  56  79 109 146 183 227 275 328
#     4   8  18  34  57  78 116 146 182 230 280 324
#     4   9  18  33  56  79 105 143 180 220 276 328
#     4  10  20  35  58  80 112 146 191 233 281 329
#
# _framework density 26.356242000000002
#
# number of rings (size 3 to 8) (size 9 to 14) (size 15 to 20)
#    0.750    2.000    1.250    1.125    0.000    1.000 
#    2.250    6.250    0.000    0.000    0.000    0.000 
#    0.000    0.000    0.000    0.000    0.000    0.000 
#
# Total GULP energy -89193.987097 kJ/mol
# GULP energy per Si atom -5574.624194 kJ/mol
# Density = 2.629625 g / cm^3
# Si number density = 26.356242 Si / 1000 Ang^3
#
#
#
# Elastic Constant Matrix: (Units=GPa)
#
#
# Indices 1 2 3 4 5 6 
#
# 1 29.7865 8.3145 16.7948 2.1177 1.0634 -1.5205
# 2 8.3145 41.5226 16.4998 1.1036 2.3708 0.4133
# 3 16.7948 16.4998 141.5057 21.3563 3.6094 -7.0209
# 4 2.1177 1.1036 21.3563 42.9436 8.2120 6.3776
# 5 1.0634 2.3708 3.6094 8.2120 53.2467 1.9983
# 6 -1.5205 0.4133 -7.0209 6.3776 1.9983 35.9842
#
#
#
# Elastic Compliance Matrix: (Units=1/GPa)
#
#
# Indices 1 2 3 4 5 6 
#
# 1 0.037386 -0.006014 -0.003692 0.000061 -0.000273 0.000933
# 2 -0.006014 0.026353 -0.002588 0.001286 -0.001030 -0.001233
# 3 -0.003692 -0.002588 0.008581 -0.004401 0.000199 0.002317
# 4 0.000061 0.001286 -0.004401 0.026957 -0.003713 -0.005442
# 5 -0.000273 -0.001030 0.000199 -0.003713 0.019405 -0.000380
# 6 0.000933 -0.001233 0.002317 -0.005442 -0.000380 0.029281
#
#
# Mechanical properties :
#
#
# Convention : Reuss Voigt Hill
#
# Bulk Modulus (GPa) = 20.95074 32.89257 26.92165
# Shear Modulus (GPa) = 26.53051 37.84859 32.18955
#
# Velocity S-wave (km/s) = 3.17616 3.79362 3.49854
# Velocity P-wave (km/s) = 4.62785 5.62991 5.15329
#
# Compressibility (1/GPa) = 0.04773102
#
# Stress axis : x y z
#
# Youngs Moduli (GPa) = 26.74817 37.94648 116.53857
#
# Poissons Ratio (x) = 0.22823 0.43023
# Poissons Ratio (y) = 0.16088 0.30160
# Poissons Ratio (z) = 0.09875 0.09820
#
# Static dielectric constant tensor:
#      x y z
#    x 2.217220 -0.032920 0.017490 
#    y -0.032920 2.126830 0.012800 
#    z 0.017490 0.012800 2.082810 
# 
# From -- ./inp_files/311483.got.cif
#   From: 2010.05.17/outbox.cif.g08.bks.cpg/sg2_156_cif.got.tgz:311483.got - 2010.06.03 11:33:40.
