data_PCOD9077703
_publ_section_title
;
Structure prediction by ZEFSAII (Michael W. Deem and Ramdas Pophale) SiO2 
 PCOD9077703
Probable space group: P -1
;
_chemical_formula_sum "Si O2"
_cell_formula_units_Z 16
_cell_length_a 8.821440
_cell_length_b 12.605091
_cell_length_c 12.035393
_cell_angle_alpha 46.873717
_cell_angle_beta 60.855851
_cell_angle_gamma 80.525348
_cell_volume 822.806845
_symmetry_space_group_name_H-M "P -1"
_symmetry_group_IT_number 2
_symmetry_cell_setting 'triclinic'
loop_
_space_group_symop_operation_xyz
x,y,z
-x,-y,-z
loop_
_atom_site_type_symbol
_atom_site_label
_atom_site_fract_x
_atom_site_fract_y
_atom_site_fract_z
Si Si1 0.130242 0.506432 0.056640
Si Si2 0.375177 0.355977 0.962381
Si Si3 0.948491 0.227298 0.973152
Si Si4 0.652163 0.631037 0.294992
Si Si5 0.976037 0.919144 0.728739
Si Si6 0.584390 0.153957 0.741033
Si Si7 0.354568 0.820683 0.052986
Si Si8 0.895850 0.199937 0.442509
O O1 0.031529 0.363904 0.268943
O O2 0.319490 0.478370 0.971362
O O3 0.135917 0.659642 0.006574
O O4 0.000000 0.500000 0.000000
O O5 0.358247 0.403175 0.807651
O O6 0.561064 0.308890 0.934684
O O7 0.212508 0.203610 0.144216
O O8 0.984793 0.110288 0.136074
O O9 0.809662 0.159227 0.975255
O O10 0.136836 0.327119 0.783720
O O11 0.500000 0.500000 0.500000
O O12 0.587113 0.780462 0.234112
O O13 0.112497 0.873901 0.624537
O O14 0.960292 0.083882 0.583763
O O15 0.690199 0.205521 0.781803
O O16 0.708112 0.212950 0.549470
O O17 0.514219 0.974517 0.886785
#
# Coordination Sequence:
#
# PCOD9077703 Si02
#       8
#     2   2   2   2   2   2   2   2
#     4  11  19  35  64  88 112 157 194 242 300 355
#     4   9  18  36  57  83 116 153 196 231 301 354
#     4  11  22  38  60  90 120 149 203 248 289 341
#     4  10  20  35  58  87 115 154 197 242 285 354
#     4   9  18  34  62  86 113 150 192 251 287 343
#     4  10  21  37  61  81 113 170 192 228 306 350
#     4  10  22  39  58  84 121 156 197 245 288 352
#     4  10  18  34  63  86 111 150 203 232 292 363
#
# _framework density 19.445633999999998
#
# number of rings (size 3 to 8) (size 9 to 14) (size 15 to 20)
#    0.000    2.000    5.000    0.750    1.750    1.000 
#    0.000    6.250    0.000    0.000    0.000    0.000 
#    0.000    0.000    0.000    0.000    0.000    0.000 
#
# Total GULP energy -89193.355089 kJ/mol
# GULP energy per Si atom -5574.584693 kJ/mol
# Density = 1.940137 g / cm^3
# Si number density = 19.445634 Si / 1000 Ang^3
#
#
#
# Elastic Constant Matrix: (Units=GPa)
#
#
# Indices 1 2 3 4 5 6 
#
# 1 76.9187 16.1830 9.7394 6.7914 0.0372 7.5813
# 2 16.1830 62.5324 13.7439 12.6448 -6.2116 -17.4128
# 3 9.7394 13.7439 88.7285 15.3884 6.5085 -2.8367
# 4 6.7914 12.6448 15.3884 28.8711 -17.5172 -1.0820
# 5 0.0372 -6.2116 6.5085 -17.5172 16.9798 -0.4351
# 6 7.5813 -17.4128 -2.8367 -1.0820 -0.4351 23.2329
#
#
#
# Elastic Compliance Matrix: (Units=1/GPa)
#
#
# Indices 1 2 3 4 5 6 
#
# 1 0.016419 -0.007001 0.002404 -0.012853 -0.017066 -0.011229
# 2 -0.007001 0.025599 -0.003064 -0.001074 0.009990 0.021234
# 3 0.002404 -0.003064 0.024934 -0.051295 -0.063694 -0.003619
# 4 -0.012853 -0.001074 -0.051295 0.207915 0.234079 0.011193
# 5 -0.017066 0.009990 -0.063694 0.234079 0.329060 0.022343
# 6 -0.011229 0.021234 -0.003619 0.011193 0.022343 0.063119
#
#
# Mechanical properties :
#
#
# Convention : Reuss Voigt Hill
#
# Bulk Modulus (GPa) = 19.36859 34.16802 26.76830
# Shear Modulus (GPa) = 7.14716 26.38432 16.76574
#
# Velocity S-wave (km/s) = 1.91923 3.68751 2.93948
# Velocity P-wave (km/s) = 3.85918 5.97825 5.03154
#
# Compressibility (1/GPa) = 0.05162999
#
# Stress axis : x y z
#
# Youngs Moduli (GPa) = 60.90478 39.06349 40.10628
#
# Poissons Ratio (x) = 0.27347 -0.09642
# Poissons Ratio (y) = 0.42637 0.12290
# Poissons Ratio (z) = -0.14642 0.11971
#
# Static dielectric constant tensor:
#      x y z
#    x 1.703230 -0.036310 0.015870 
#    y -0.036310 1.707300 0.007950 
#    z 0.015870 0.007950 1.696680 
# 
# From -- ./inp_files/274593.got.cif
#   From: 2010.05.17/outbox.cif.g08.bks.cpg/sg2_138_cif.got.tgz:274593.got - 2010.06.03 11:33:40.
