data_PCOD9077659
_publ_section_title
;
Structure prediction by ZEFSAII (Michael W. Deem and Ramdas Pophale) SiO2 
 PCOD9077659
Probable space group: P -1
;
_chemical_formula_sum "Si O2"
_cell_formula_units_Z 16
_cell_length_a 8.889859
_cell_length_b 18.554054
_cell_length_c 12.283865
_cell_angle_alpha 152.936414
_cell_angle_beta 121.209488
_cell_angle_gamma 65.943328
_cell_volume 780.869232
_symmetry_space_group_name_H-M "P -1"
_symmetry_group_IT_number 2
_symmetry_cell_setting 'triclinic'
loop_
_space_group_symop_operation_xyz
x,y,z
-x,-y,-z
loop_
_atom_site_type_symbol
_atom_site_label
_atom_site_fract_x
_atom_site_fract_y
_atom_site_fract_z
Si Si1 0.395601 0.366234 0.121446
Si Si2 0.801303 0.273394 0.684357
Si Si3 0.201829 0.010066 0.548820
Si Si4 0.908895 0.863952 0.523048
Si Si5 0.838669 0.030136 0.053690
Si Si6 0.478080 0.174583 0.270173
Si Si7 0.347999 0.425481 0.926874
Si Si8 0.352807 0.655176 0.623032
O O1 0.411276 0.407810 0.053845
O O2 0.285185 0.490317 0.311392
O O3 0.577320 0.375554 0.272106
O O4 0.308582 0.181344 0.850302
O O5 0.650319 0.243994 0.495617
O O6 0.794762 0.450450 0.960663
O O7 0.991472 0.244768 0.669373
O O8 0.736310 0.141754 0.574863
O O9 0.188468 0.013348 0.418043
O O10 0.000000 0.000000 0.500000
O O11 0.072285 0.950064 0.767717
O O12 0.760408 0.747113 0.374174
O O13 0.763013 0.197558 0.224284
O O14 0.694213 0.871700 0.784250
O O15 0.000000 0.000000 0.000000
O O16 0.477376 0.279963 0.303740
O O17 0.500000 0.000000 0.000000
O O18 0.500000 0.500000 0.000000
#
# Coordination Sequence:
#
# PCOD9077659 Si02
#       8
#     2   2   2   2   2   2   2   2
#     4  10  20  39  62  92 116 152 212 244 297 352
#     4  11  19  39  64  87 115 155 208 244 293 347
#     4   9  20  33  58  90 116 146 192 254 290 337
#     4  10  21  39  59  87 118 156 203 243 294 351
#     4  11  23  36  58  91 127 158 194 247 309 361
#     4  10  18  34  62  87 111 154 204 246 290 349
#     4  11  24  40  60  86 124 161 195 245 302 369
#     4  10  20  37  66  86 116 159 202 254 286 354
#
# _framework density 20.489986999999999
#
# number of rings (size 3 to 8) (size 9 to 14) (size 15 to 20)
#    0.000    1.750    3.750    1.875    3.500    2.000 
#    2.250    1.250    0.000    3.750    0.000    0.000 
#    0.000    0.000    0.000    0.000    0.000    0.000 
#
# Total GULP energy -89089.828092 kJ/mol
# GULP energy per Si atom -5568.114256 kJ/mol
# Density = 2.044335 g / cm^3
# Si number density = 20.489987 Si / 1000 Ang^3
#
#
#
# Elastic Constant Matrix: (Units=GPa)
#
#
# Indices 1 2 3 4 5 6 
#
# 1 70.5433 14.2165 -7.4514 4.6066 8.2887 12.9546
# 2 14.2165 117.3068 35.1672 13.0830 0.0423 9.0737
# 3 -7.4514 35.1672 41.5829 5.2857 8.4355 4.8371
# 4 4.6066 13.0830 5.2857 33.8273 2.0698 8.2878
# 5 8.2887 0.0423 8.4355 2.0698 25.8636 6.5565
# 6 12.9546 9.0737 4.8371 8.2878 6.5565 20.3765
#
#
#
# Elastic Compliance Matrix: (Units=1/GPa)
#
#
# Indices 1 2 3 4 5 6 
#
# 1 0.018683 -0.004375 0.009494 0.000594 -0.006505 -0.010332
# 2 -0.004375 0.013246 -0.012754 -0.002673 0.005990 -0.000929
# 3 0.009494 -0.012754 0.040184 -0.000529 -0.014842 -0.004905
# 4 0.000594 -0.002673 -0.000529 0.033740 0.000575 -0.012969
# 5 -0.006505 0.005990 -0.014842 0.000575 0.048265 -0.010772
# 6 -0.010332 -0.000929 -0.004905 -0.012969 -0.010772 0.065964
#
#
# Mechanical properties :
#
#
# Convention : Reuss Voigt Hill
#
# Bulk Modulus (GPa) = 17.59197 34.81087 26.20142
# Shear Modulus (GPa) = 19.66184 28.51354 24.08769
#
# Velocity S-wave (km/s) = 3.10107 3.73444 3.43240
# Velocity P-wave (km/s) = 4.62888 5.96832 5.34075
#
# Compressibility (1/GPa) = 0.05684413
#
# Stress axis : x y z
#
# Youngs Moduli (GPa) = 53.52416 75.49392 24.88543
#
# Poissons Ratio (x) = 0.33030 -0.23626
# Poissons Ratio (y) = 0.23417 0.31738
# Poissons Ratio (z) = -0.50816 0.96281
#
# Static dielectric constant tensor:
#      x y z
#    x 1.840000 0.074970 -0.052800 
#    y 0.074970 1.821720 -0.060160 
#    z -0.052800 -0.060160 1.870150 
# 
# From -- ./inp_files/285499.got.cif
#   From: 2010.05.17/outbox.cif.g08.bks.cpg/sg2_143_cif.got.tgz:285499.got - 2010.06.03 11:33:40.
