data_PCOD9077196
_publ_section_title
;
Structure prediction by ZEFSAII (Michael W. Deem and Ramdas Pophale) SiO2 
 PCOD9077196
Probable space group: P -1
;
_chemical_formula_sum "Si O2"
_cell_formula_units_Z 16
_cell_length_a 18.711563
_cell_length_b 14.313836
_cell_length_c 5.278348
_cell_angle_alpha 97.163887
_cell_angle_beta 87.870879
_cell_angle_gamma 30.122086
_cell_volume 673.413428
_symmetry_space_group_name_H-M "P -1"
_symmetry_group_IT_number 2
_symmetry_cell_setting 'triclinic'
loop_
_space_group_symop_operation_xyz
x,y,z
-x,-y,-z
loop_
_atom_site_type_symbol
_atom_site_label
_atom_site_fract_x
_atom_site_fract_y
_atom_site_fract_z
Si Si1 0.287619 0.164077 0.657811
Si Si2 0.919081 0.747397 0.244077
Si Si3 0.274036 0.576705 0.663116
Si Si4 0.873604 0.071281 0.117620
Si Si5 0.785015 0.991448 0.840512
Si Si6 0.884408 0.318674 0.777437
Si Si7 0.552015 0.860285 0.136782
Si Si8 0.476816 0.794071 0.797794
O O1 0.400556 0.015261 0.362280
O O2 0.360340 0.007668 0.796035
O O3 0.119992 0.317817 0.722188
O O4 0.322121 0.232996 0.744340
O O5 0.077684 0.613753 0.229066
O O6 0.880290 0.823921 0.986762
O O7 0.815635 0.915010 0.533399
O O8 0.261812 0.703713 0.718975
O O9 0.177174 0.654010 0.462361
O O10 0.437593 0.350834 0.495360
O O11 0.205903 0.609221 0.935588
O O12 0.829746 0.047695 0.899882
O O13 0.953288 0.917815 0.271220
O O14 0.000000 0.000000 0.000000
O O15 0.614889 0.172920 0.011700
O O16 0.591198 0.723116 0.926796
O O17 0.500000 0.000000 0.000000
#
# Coordination Sequence:
#
# PCOD9077196 Si02
#       8
#     2   2   2   2   2   2   2   2
#     4   9  18  32  58  83 108 138 178 224 278 320
#     4  10  18  34  57  81 108 137 186 233 265 312
#     4  11  23  35  56  79 111 154 182 226 276 321
#     4   9  19  37  56  78 108 145 197 232 260 311
#     4  10  20  32  55  81 109 144 176 232 278 313
#     4  10  21  37  56  79 105 150 197 227 262 313
#     4   9  17  33  54  85 106 140 175 218 275 333
#     4  10  21  34  53  81 120 140 178 220 283 338
#
# _framework density 23.759549
#
# number of rings (size 3 to 8) (size 9 to 14) (size 15 to 20)
#    0.000    2.250    1.250    2.625    1.750    3.500 
#    0.000    0.000    0.000    9.750    0.000    0.000 
#    0.000    0.000    0.000    0.000    0.000    0.000 
#
# Total GULP energy -89219.572270 kJ/mol
# GULP energy per Si atom -5576.223267 kJ/mol
# Density = 2.370547 g / cm^3
# Si number density = 23.759549 Si / 1000 Ang^3
#
#
#
# Elastic Constant Matrix: (Units=GPa)
#
#
# Indices 1 2 3 4 5 6 
#
# 1 106.3819 -4.5237 32.5689 0.5656 -17.8023 -5.9786
# 2 -4.5237 25.3865 15.6333 -1.0058 3.6135 -0.1909
# 3 32.5689 15.6333 120.3728 2.2132 -6.7523 8.1956
# 4 0.5656 -1.0058 2.2132 36.1287 -0.9266 1.4451
# 5 -17.8023 3.6135 -6.7523 -0.9266 35.8766 -0.4465
# 6 -5.9786 -0.1909 8.1956 1.4451 -0.4465 11.4169
#
#
#
# Elastic Compliance Matrix: (Units=1/GPa)
#
#
# Indices 1 2 3 4 5 6 
#
# 1 0.012255 0.004154 -0.004237 -0.000078 0.004985 0.009734
# 2 0.004154 0.045631 -0.007853 0.001256 -0.003878 0.008265
# 3 -0.004237 -0.007853 0.011222 -0.000410 0.000661 -0.010328
# 4 -0.000078 0.001256 -0.000410 0.027881 0.000437 -0.003238
# 5 0.004985 -0.003878 0.000661 0.000437 0.030913 0.003224
# 6 0.009734 0.008265 -0.010328 -0.003238 0.003224 0.100774
#
#
# Mechanical properties :
#
#
# Convention : Reuss Voigt Hill
#
# Bulk Modulus (GPa) = 18.78478 37.72204 28.25341
# Shear Modulus (GPa) = 19.06250 30.58197 24.82224
#
# Velocity S-wave (km/s) = 2.83558 3.59157 3.23573
# Velocity P-wave (km/s) = 4.31787 5.75415 5.08696
#
# Compressibility (1/GPa) = 0.05323458
#
# Stress axis : x y z
#
# Youngs Moduli (GPa) = 81.59625 21.91483 89.11326
#
# Poissons Ratio (x) = -0.09103 0.37758
# Poissons Ratio (y) = -0.33892 0.69985
# Poissons Ratio (z) = 0.34573 0.17211
#
# Static dielectric constant tensor:
#      x y z
#    x 2.025400 -0.034680 0.003200 
#    y -0.034680 2.059130 0.007130 
#    z 0.003200 0.007130 1.908040 
# 
# From -- ./inp_files/82488.got.cif
#   From: 2010.05.17/outbox.cif.g08.bks.cpg/sg2_42_cif.got.tgz:82488.got - 2010.06.03 11:33:40.
