data_PCOD9077532
_publ_section_title
;
Structure prediction by ZEFSAII (Michael W. Deem and Ramdas Pophale) SiO2 
 PCOD9077532
Probable space group: P -1
;
_chemical_formula_sum "Si O2"
_cell_formula_units_Z 12
_cell_length_a 7.409290
_cell_length_b 9.432684
_cell_length_c 11.302129
_cell_angle_alpha 128.225048
_cell_angle_beta 102.379373
_cell_angle_gamma 110.867130
_cell_volume 467.181136
_symmetry_space_group_name_H-M "P -1"
_symmetry_group_IT_number 2
_symmetry_cell_setting 'triclinic'
loop_
_space_group_symop_operation_xyz
x,y,z
-x,-y,-z
loop_
_atom_site_type_symbol
_atom_site_label
_atom_site_fract_x
_atom_site_fract_y
_atom_site_fract_z
Si Si1 0.532914 0.648245 0.926999
Si Si2 0.167173 0.441432 0.958745
Si Si3 0.969941 0.157978 0.360089
Si Si4 0.764458 0.971270 0.589449
Si Si5 0.770936 0.307262 0.578181
Si Si6 0.812839 0.729560 0.798730
O O1 0.279247 0.533723 0.891521
O O2 0.579400 0.658129 0.799056
O O3 0.604283 0.488296 0.899667
O O4 0.721007 0.909733 0.147419
O O5 0.975766 0.164283 0.805711
O O6 0.000000 0.500000 0.000000
O O7 0.888070 0.297559 0.473413
O O8 0.118848 0.149369 0.482558
O O9 0.159638 0.277369 0.340997
O O10 0.509108 0.813420 0.533694
O O11 0.762805 0.130340 0.575066
O O12 0.878424 0.566635 0.767638
O O13 0.000000 0.000000 0.000000
#
# Coordination Sequence:
#
# PCOD9077532 Si02
#       6
#     2   2   2   2   2   2
#     4   9  20  36  58  87 121 154 195 249 297 354
#     4  10  18  34  60  89 119 155 198 245 300 357
#     4  10  21  40  62  89 125 164 203 248 306 367
#     4  10  23  37  61  95 123 155 206 259 307 357
#     4  11  22  40  64  90 123 163 208 253 303 364
#     4  10  22  41  62  88 125 165 203 251 308 364
#
# _framework density 25.685970000000001
#
# number of rings (size 3 to 8) (size 9 to 14) (size 15 to 20)
#    0.000    2.000    0.000    3.000    0.000    8.667 
#    0.000    3.333    0.000   17.000    0.000    0.000 
#    0.000    0.000    0.000    0.000    0.000    0.000 
#
# Total GULP energy -66872.202188 kJ/mol
# GULP energy per Si atom -5572.683516 kJ/mol
# Density = 2.562751 g / cm^3
# Si number density = 25.685970 Si / 1000 Ang^3
#
#
#
# Elastic Constant Matrix: (Units=GPa)
#
#
# Indices 1 2 3 4 5 6 
#
# 1 211.2802 64.3760 59.8763 4.3121 -27.9064 36.8337
# 2 64.3760 122.8471 31.2570 -1.1586 -13.8339 30.6620
# 3 59.8763 31.2570 86.6680 10.9352 -21.6577 16.9967
# 4 4.3121 -1.1586 10.9352 32.9503 3.8279 -6.6719
# 5 -27.9064 -13.8339 -21.6577 3.8279 45.4686 -6.3562
# 6 36.8337 30.6620 16.9967 -6.6719 -6.3562 43.9619
#
#
#
# Elastic Compliance Matrix: (Units=1/GPa)
#
#
# Indices 1 2 3 4 5 6 
#
# 1 0.006974 -0.001894 -0.002896 -0.000904 0.001945 -0.003259
# 2 -0.001894 0.010913 -0.001366 -0.000097 0.000760 -0.005401
# 3 -0.002896 -0.001366 0.017039 -0.006703 0.006018 -0.003356
# 4 -0.000904 -0.000097 -0.006703 0.034941 -0.005613 0.007908
# 5 0.001945 0.000760 0.006018 -0.005613 0.026548 -0.001501
# 6 -0.003259 -0.005401 -0.003356 0.007908 -0.001501 0.031525
#
#
# Mechanical properties :
#
#
# Convention : Reuss Voigt Hill
#
# Bulk Modulus (GPa) = 44.21784 81.31269 62.76527
# Shear Modulus (GPa) = 33.83143 42.16190 37.99666
#
# Velocity S-wave (km/s) = 3.63315 4.05586 3.85031
# Velocity P-wave (km/s) = 5.90354 7.32520 6.65246
#
# Compressibility (1/GPa) = 0.02261530
#
# Stress axis : x y z
#
# Youngs Moduli (GPa) = 143.38129 91.63289 58.68758
#
# Poissons Ratio (x) = 0.17356 0.16996
# Poissons Ratio (y) = 0.27157 0.08015
# Poissons Ratio (z) = 0.41524 0.12515
#
# Static dielectric constant tensor:
#      x y z
#    x 2.159560 -0.174570 -0.132400 
#    y -0.174570 2.266570 0.051230 
#    z -0.132400 0.051230 2.245610 
# 
# From -- ./inp_files/482439.got.cif
#   From: 2010.05.17/outbox.cif.g08.bks.cpg/sg2_242_cif.got.tgz:482439.got - 2010.06.03 11:33:40.
