data_PCOD9077299
_publ_section_title
;
Structure prediction by ZEFSAII (Michael W. Deem and Ramdas Pophale) SiO2 
 PCOD9077299
Probable space group: P -1
;
_chemical_formula_sum "Si O2"
_cell_formula_units_Z 16
_cell_length_a 9.693600
_cell_length_b 5.461167
_cell_length_c 28.938532
_cell_angle_alpha 82.277206
_cell_angle_beta 148.970702
_cell_angle_gamma 95.945936
_cell_volume 782.325338
_symmetry_space_group_name_H-M "P -1"
_symmetry_group_IT_number 2
_symmetry_cell_setting 'triclinic'
loop_
_space_group_symop_operation_xyz
x,y,z
-x,-y,-z
loop_
_atom_site_type_symbol
_atom_site_label
_atom_site_fract_x
_atom_site_fract_y
_atom_site_fract_z
Si Si1 0.062450 0.437677 0.859955
Si Si2 0.133659 0.140031 0.794209
Si Si3 0.197636 0.124606 0.356732
Si Si4 0.277468 0.742825 0.466272
Si Si5 0.855724 0.484305 0.298306
Si Si6 0.452732 0.531461 0.702462
Si Si7 0.853001 0.943870 0.411102
Si Si8 0.516024 0.835789 0.962830
O O1 0.057905 0.271550 0.816803
O O2 0.281173 0.640448 0.905652
O O3 0.765836 0.531664 0.782388
O O4 0.194785 0.295241 0.945786
O O5 0.145615 0.324301 0.749449
O O6 0.419315 0.002673 0.888135
O O7 0.898053 0.952728 0.718672
O O8 0.440950 0.311821 0.426540
O O9 0.928818 0.225393 0.301939
O O10 0.310155 0.891970 0.423966
O O11 0.101950 0.518004 0.404414
O O12 0.089842 0.903306 0.442523
O O13 0.605165 0.524688 0.258593
O O14 0.313979 0.311813 0.637636
O O15 0.326075 0.807623 0.653635
O O16 0.000000 0.000000 0.500000
O O17 0.500000 0.000000 0.000000
#
# Coordination Sequence:
#
# PCOD9077299 Si02
#       8
#     2   2   2   2   2   2   2   2
#     4  10  22  40  65  94 121 162 206 267 321 390
#     4  10  21  35  62  93 120 158 208 268 314 377
#     4  10  18  34  58  81 118 162 214 255 307 365
#     4   9  20  34  53  82 118 167 212 259 303 357
#     4  10  20  38  57  89 124 171 209 263 310 376
#     4  11  25  42  66  91 132 172 213 258 330 376
#     4  11  24  41  59  91 131 173 215 262 313 378
#     4   9  20  40  64  91 124 153 204 265 329 380
#
# _framework density 20.451848999999999
#
# number of rings (size 3 to 8) (size 9 to 14) (size 15 to 20)
#    0.000    2.000    1.250    1.500    5.250    1.000 
#    0.000    0.625    0.000   10.500    0.000    0.000 
#    0.000    0.000    0.000    0.000    0.000    0.000 
#
# Total GULP energy -89131.492292 kJ/mol
# GULP energy per Si atom -5570.718268 kJ/mol
# Density = 2.040530 g / cm^3
# Si number density = 20.451849 Si / 1000 Ang^3
#
#
#
# Elastic Constant Matrix: (Units=GPa)
#
#
# Indices 1 2 3 4 5 6 
#
# 1 67.5802 21.8829 58.4469 -2.1613 9.5576 -19.6927
# 2 21.8829 72.3652 35.3573 2.8211 -2.9776 -26.1401
# 3 58.4469 35.3573 122.7559 -0.3496 -10.6081 -21.7730
# 4 -2.1613 2.8211 -0.3496 34.4644 -5.2367 -5.2226
# 5 9.5576 -2.9776 -10.6081 -5.2367 27.2115 -5.4206
# 6 -19.6927 -26.1401 -21.7730 -5.2226 -5.4206 22.5832
#
#
#
# Elastic Compliance Matrix: (Units=1/GPa)
#
#
# Indices 1 2 3 4 5 6 
#
# 1 0.033478 0.001293 -0.015328 0.001522 -0.014766 0.012720
# 2 0.001293 0.026546 -0.001441 0.004450 0.009471 0.033767
# 3 -0.015328 -0.001441 0.018240 0.002472 0.014109 0.006510
# 4 0.001522 0.004450 0.002472 0.033390 0.011180 0.019267
# 5 -0.014766 0.009471 0.014109 0.011180 0.056153 0.027754
# 6 0.012720 0.033767 0.006510 0.019267 0.027754 0.111852
#
#
# Mechanical properties :
#
#
# Convention : Reuss Voigt Hill
#
# Bulk Modulus (GPa) = 21.13597 54.89729 38.01663
# Shear Modulus (GPa) = 15.31948 26.65276 20.98612
#
# Velocity S-wave (km/s) = 2.73985 3.61390 3.20679
# Velocity P-wave (km/s) = 4.51287 6.65689 5.68683
#
# Compressibility (1/GPa) = 0.04731270
#
# Stress axis : x y z
#
# Youngs Moduli (GPa) = 29.86999 37.67078 54.82357
#
# Poissons Ratio (x) = -0.04872 0.84033
# Poissons Ratio (y) = -0.03863 0.07902
# Poissons Ratio (z) = 0.45784 0.05430
#
# Static dielectric constant tensor:
#      x y z
#    x 1.748650 0.050670 0.030310 
#    y 0.050670 1.864160 0.046080 
#    z 0.030310 0.046080 1.821590 
# 
# From -- ./inp_files/55619.got.cif
#   From: 2010.05.17/outbox.cif.g08.bks.cpg/sg2_28_cif.got.tgz:55619.got - 2010.06.03 11:33:40.
