data_PCOD9077077
_publ_section_title
;
Structure prediction by ZEFSAII (Michael W. Deem and Ramdas Pophale) SiO2 
 PCOD9077077
Probable space group: P -1
;
_chemical_formula_sum "Si O2"
_cell_formula_units_Z 16
_cell_length_a 7.682641
_cell_length_b 14.859159
_cell_length_c 21.091881
_cell_angle_alpha 39.314157
_cell_angle_beta 147.173411
_cell_angle_gamma 130.259491
_cell_volume 826.925269
_symmetry_space_group_name_H-M "P -1"
_symmetry_group_IT_number 2
_symmetry_cell_setting 'triclinic'
loop_
_space_group_symop_operation_xyz
x,y,z
-x,-y,-z
loop_
_atom_site_type_symbol
_atom_site_label
_atom_site_fract_x
_atom_site_fract_y
_atom_site_fract_z
Si Si1 0.603795 0.907881 0.192898
Si Si2 0.766250 0.871538 0.484634
Si Si3 0.054853 0.868176 0.902884
Si Si4 0.575385 0.365983 0.795068
Si Si5 0.758668 0.562639 0.634412
Si Si6 0.776875 0.065536 0.815238
Si Si7 0.948461 0.381757 0.671409
Si Si8 0.692998 0.036062 0.602185
O O1 0.532518 0.761247 0.216031
O O2 0.334557 0.949418 0.138580
O O3 0.957914 0.897079 0.339542
O O4 0.663013 0.034349 0.092456
O O5 0.915833 0.716625 0.604552
O O6 0.554644 0.909823 0.338108
O O7 0.519240 0.863287 0.472523
O O8 0.000000 0.000000 0.500000
O O9 0.943905 0.937456 0.897931
O O10 0.779477 0.900236 0.748441
O O11 0.182586 0.711209 0.039774
O O12 0.743226 0.482080 0.740042
O O13 0.256811 0.420424 0.703392
O O14 0.922440 0.467244 0.682366
O O15 0.386875 0.588051 0.484439
O O16 0.962842 0.212904 0.781930
O O17 0.500000 0.000000 0.500000
#
# Coordination Sequence:
#
# PCOD9077077 Si02
#       8
#     2   2   2   2   2   2   2   2
#     4  10  19  31  55  85 117 153 184 232 283 336
#     4  10  20  38  60  84 110 138 198 254 280 336
#     4   9  22  33  54  86 123 150 197 231 287 342
#     4  12  20  36  55  85 127 156 182 234 293 355
#     4  10  22  37  54  85 117 155 188 232 298 345
#     4  10  18  34  55  85 113 152 189 234 285 330
#     4  10  20  35  55  83 122 153 189 229 284 354
#     4   9  19  37  57  86 109 144 201 244 281 325
#
# _framework density 19.348787000000002
#
# number of rings (size 3 to 8) (size 9 to 14) (size 15 to 20)
#    0.750    1.250    2.500    2.250    0.000    1.500 
#    2.250    0.000    0.000    3.750    0.000    0.000 
#    0.000    0.000    0.000    0.000    0.000    0.000 
#
# Total GULP energy -89243.838138 kJ/mol
# GULP energy per Si atom -5577.739884 kJ/mol
# Density = 1.930475 g / cm^3
# Si number density = 19.348787 Si / 1000 Ang^3
#
#
#
# Elastic Constant Matrix: (Units=GPa)
#
#
# Indices 1 2 3 4 5 6 
#
# 1 113.1093 12.8794 16.0234 1.6110 -5.1682 -17.4268
# 2 12.8794 71.1051 28.2630 -1.5197 2.3665 2.1296
# 3 16.0234 28.2630 60.9743 4.8640 -0.8495 -7.4923
# 4 1.6110 -1.5197 4.8640 27.7956 -2.7639 -5.0157
# 5 -5.1682 2.3665 -0.8495 -2.7639 26.8407 -3.0019
# 6 -17.4268 2.1296 -7.4923 -5.0157 -3.0019 21.0456
#
#
#
# Elastic Compliance Matrix: (Units=1/GPa)
#
#
# Indices 1 2 3 4 5 6 
#
# 1 0.010821 -0.002026 -0.000779 0.001503 0.003482 0.009743
# 2 -0.002026 0.018307 -0.008928 0.001152 -0.002934 -0.006853
# 3 -0.000779 -0.008928 0.021931 -0.002702 0.001914 0.007695
# 4 0.001503 0.001152 -0.002702 0.038778 0.005231 0.010154
# 5 0.003482 -0.002934 0.001914 0.005231 0.039995 0.010813
# 6 0.009743 -0.006853 0.007695 0.010154 0.010813 0.062978
#
#
# Mechanical properties :
#
#
# Convention : Reuss Voigt Hill
#
# Bulk Modulus (GPa) = 36.24080 39.94668 38.09374
# Shear Modulus (GPa) = 22.17560 27.67124 24.92342
#
# Velocity S-wave (km/s) = 3.38908 3.78581 3.59292
# Velocity P-wave (km/s) = 5.83827 6.30874 6.07806
#
# Compressibility (1/GPa) = 0.02759321
#
# Stress axis : x y z
#
# Youngs Moduli (GPa) = 92.41486 54.62402 45.59733
#
# Poissons Ratio (x) = 0.11067 0.03551
# Poissons Ratio (y) = 0.18724 0.40710
# Poissons Ratio (z) = 0.07196 0.48769
#
# Static dielectric constant tensor:
#      x y z
#    x 1.691150 0.004330 -0.000580 
#    y 0.004330 1.654350 0.014500 
#    z -0.000580 0.014500 1.725550 
# 
# From -- ./inp_files/589884.got.cif
#   From: 2010.05.17/outbox.cif.g08.bks.cpg/sg2_295_cif.got.tgz:589884.got - 2010.06.03 11:33:40.
