data_PCOD9077808
_publ_section_title
;
Structure prediction by ZEFSAII (Michael W. Deem and Ramdas Pophale) SiO2 
 PCOD9077808
Probable space group: P -1
;
_chemical_formula_sum "Si O2"
_cell_formula_units_Z 16
_cell_length_a 8.697633
_cell_length_b 16.778416
_cell_length_c 14.183650
_cell_angle_alpha 149.037895
_cell_angle_beta 137.785021
_cell_angle_gamma 45.191867
_cell_volume 700.838673
_symmetry_space_group_name_H-M "P -1"
_symmetry_group_IT_number 2
_symmetry_cell_setting 'triclinic'
loop_
_space_group_symop_operation_xyz
x,y,z
-x,-y,-z
loop_
_atom_site_type_symbol
_atom_site_label
_atom_site_fract_x
_atom_site_fract_y
_atom_site_fract_z
Si Si1 0.160190 0.402238 0.602518
Si Si2 0.771238 0.999941 0.141982
Si Si3 0.466261 0.875170 0.439047
Si Si4 0.323404 0.537299 0.636060
Si Si5 0.124900 0.678412 0.990160
Si Si6 0.205436 0.890976 0.930587
Si Si7 0.688320 0.964014 0.272571
Si Si8 0.159450 0.411681 0.065122
O O1 0.286398 0.235110 0.531777
O O2 0.258776 0.409609 0.548700
O O3 0.242612 0.549037 0.838236
O O4 0.876764 0.452870 0.525283
O O5 0.828787 0.115181 0.203932
O O6 0.800707 0.031351 0.299146
O O7 0.500000 0.000000 0.000000
O O8 0.928818 0.827109 0.016872
O O9 0.500000 0.000000 0.500000
O O10 0.329082 0.954742 0.550960
O O11 0.313844 0.758193 0.208063
O O12 0.250512 0.718668 0.821700
O O13 0.602255 0.524232 0.738965
O O14 0.995823 0.582543 0.906860
O O15 0.423134 0.971100 0.129569
O O16 0.000000 0.000000 0.000000
O O17 0.786031 0.775119 0.127324
O O18 0.000000 0.500000 0.000000
#
# Coordination Sequence:
#
# PCOD9077808 Si02
#       8
#     2   2   2   2   2   2   2   2
#     4  11  25  46  68 100 141 178 235 299 344 425
#     4   9  20  39  64  99 136 175 217 282 355 409
#     4  12  28  43  69 103 135 191 243 291 353 412
#     4  10  23  41  69 101 134 180 228 276 363 414
#     4  11  25  43  66 100 136 184 234 285 355 408
#     4  10  18  34  69  99 131 171 220 284 345 411
#     4   9  22  41  61  95 136 175 230 276 342 419
#     4  10  22  42  70  99 138 181 219 280 352 424
#
# _framework density 22.829789999999999
#
# number of rings (size 3 to 8) (size 9 to 14) (size 15 to 20)
#    0.000    1.750    0.000    3.375    8.750    5.500 
#    0.000    3.750    0.000    0.000    0.000    0.000 
#    0.000    0.000    0.000    0.000    0.000    0.000 
#
# Total GULP energy -89257.027504 kJ/mol
# GULP energy per Si atom -5578.564219 kJ/mol
# Density = 2.277783 g / cm^3
# Si number density = 22.829790 Si / 1000 Ang^3
#
#
#
# Elastic Constant Matrix: (Units=GPa)
#
#
# Indices 1 2 3 4 5 6 
#
# 1 94.2452 61.9734 33.6156 -7.6092 2.6220 19.8098
# 2 61.9734 139.3083 11.6983 -18.4602 8.4031 19.8926
# 3 33.6156 11.6983 87.0888 -22.9020 -2.8231 7.5037
# 4 -7.6092 -18.4602 -22.9020 24.4262 -9.7863 5.1179
# 5 2.6220 8.4031 -2.8231 -9.7863 40.7194 -1.0403
# 6 19.8098 19.8926 7.5037 5.1179 -1.0403 34.0812
#
#
#
# Elastic Compliance Matrix: (Units=1/GPa)
#
#
# Indices 1 2 3 4 5 6 
#
# 1 0.019059 -0.008272 -0.008170 -0.008137 -0.002126 -0.003294
# 2 -0.008272 0.013149 0.005962 0.014952 0.001663 -0.006374
# 3 -0.008170 0.005962 0.021698 0.026645 0.007017 -0.007295
# 4 -0.008137 0.014952 0.026645 0.087260 0.019686 -0.022367
# 5 -0.002126 0.001663 0.007017 0.019686 0.029485 -0.003336
# 6 -0.003294 -0.006374 -0.007295 -0.022367 -0.003336 0.039839
#
#
# Mechanical properties :
#
#
# Convention : Reuss Voigt Hill
#
# Bulk Modulus (GPa) = 30.35402 59.46856 44.91129
# Shear Modulus (GPa) = 20.62421 34.06904 27.34663
#
# Velocity S-wave (km/s) = 3.00891 3.86723 3.46475
# Velocity P-wave (km/s) = 5.03945 6.78571 5.97670
#
# Compressibility (1/GPa) = 0.03294457
#
# Stress axis : x y z
#
# Youngs Moduli (GPa) = 52.46851 76.05236 46.08664
#
# Poissons Ratio (x) = 0.62912 0.37654
# Poissons Ratio (y) = 0.43403 -0.27476
# Poissons Ratio (z) = 0.42869 -0.45341
#
# Static dielectric constant tensor:
#      x y z
#    x 1.867480 0.027570 0.038170 
#    y 0.027570 1.874000 -0.056770 
#    z 0.038170 -0.056770 1.819640 
# 
# From -- ./inp_files/244197.got.cif
#   From: 2010.05.17/outbox.cif.g08.bks.cpg/sg2_123_cif.got.tgz:244197.got - 2010.06.03 11:33:40.
