data_PCOD9077591
_publ_section_title
;
Structure prediction by ZEFSAII (Michael W. Deem and Ramdas Pophale) SiO2 
 PCOD9077591
Probable space group: P -1
;
_chemical_formula_sum "Si O2"
_cell_formula_units_Z 12
_cell_length_a 14.792231
_cell_length_b 11.936100
_cell_length_c 11.740991
_cell_angle_alpha 33.797413
_cell_angle_beta 138.514263
_cell_angle_gamma 152.549548
_cell_volume 531.018963
_symmetry_space_group_name_H-M "P -1"
_symmetry_group_IT_number 2
_symmetry_cell_setting 'triclinic'
loop_
_space_group_symop_operation_xyz
x,y,z
-x,-y,-z
loop_
_atom_site_type_symbol
_atom_site_label
_atom_site_fract_x
_atom_site_fract_y
_atom_site_fract_z
Si Si1 0.393267 0.670482 0.845715
Si Si2 0.746222 0.278516 0.780300
Si Si3 0.595829 0.779450 0.744233
Si Si4 0.967423 0.359347 0.709767
Si Si5 0.374324 0.071987 0.836617
Si Si6 0.538475 0.683196 0.518348
O O1 0.425882 0.724868 0.693746
O O2 0.170581 0.468224 0.839389
O O3 0.544227 0.964614 0.808261
O O4 0.455550 0.508189 0.061448
O O5 0.897794 0.417006 0.703018
O O6 0.673039 0.428912 0.606329
O O7 0.786721 0.179390 0.012447
O O8 0.621924 0.848829 0.577407
O O9 0.789691 0.020258 0.798155
O O10 0.000000 0.500000 0.500000
O O11 0.497364 0.399205 0.719114
O O12 0.323986 0.097363 0.640931
O O13 0.500000 0.000000 0.000000
#
# Coordination Sequence:
#
# PCOD9077591 Si02
#       6
#     2   2   2   2   2   2
#     4  10  20  36  57  85 121 153 188 231 285 342
#     4  10  20  37  60  86 118 152 188 237 284 335
#     4  10  20  35  58  86 116 155 190 232 285 339
#     4  11  22  35  54  88 121 154 190 229 284 346
#     4   9  19  35  60  88 108 149 197 237 288 336
#     4  10  18  34  61  86 112 149 196 235 283 345
#
# _framework density 22.598064000000001
#
# number of rings (size 3 to 8) (size 9 to 14) (size 15 to 20)
#    0.000    2.000    1.667    2.500    0.000    2.667 
#    3.000    0.000    0.000   19.000    0.000    0.000 
#    0.000    0.000    0.000    0.000    0.000    0.000 
#
# Total GULP energy -66890.851573 kJ/mol
# GULP energy per Si atom -5574.237631 kJ/mol
# Density = 2.254663 g / cm^3
# Si number density = 22.598064 Si / 1000 Ang^3
#
#
#
# Elastic Constant Matrix: (Units=GPa)
#
#
# Indices 1 2 3 4 5 6 
#
# 1 127.0878 26.1866 41.1554 1.3049 -20.4700 0.0903
# 2 26.1866 55.3422 -4.4157 -4.9098 1.0963 6.3494
# 3 41.1554 -4.4157 112.3455 -13.5950 -6.9237 -5.6188
# 4 1.3049 -4.9098 -13.5950 24.2518 -16.1517 -2.0671
# 5 -20.4700 1.0963 -6.9237 -16.1517 51.1000 2.1671
# 6 0.0903 6.3494 -5.6188 -2.0671 2.1671 29.7834
#
#
#
# Elastic Compliance Matrix: (Units=1/GPa)
#
#
# Indices 1 2 3 4 5 6 
#
# 1 0.011008 -0.005792 -0.004289 -0.001945 0.003337 0.000014
# 2 -0.005792 0.022073 0.003576 0.006389 -0.000139 -0.003560
# 3 -0.004289 0.003576 0.012074 0.009792 0.002851 0.002001
# 4 -0.001945 0.006389 0.009792 0.061539 0.019721 0.003328
# 5 0.003337 -0.000139 0.002851 0.019721 0.027532 -0.000077
# 6 0.000014 -0.003560 0.002001 0.003328 -0.000077 0.034949
#
#
# Mechanical properties :
#
#
# Convention : Reuss Voigt Hill
#
# Bulk Modulus (GPa) = 31.10910 46.73643 38.92277
# Shear Modulus (GPa) = 25.92010 36.48367 31.20188
#
# Velocity S-wave (km/s) = 3.39042 4.02239 3.71985
# Velocity P-wave (km/s) = 5.39655 6.50380 5.97587
#
# Compressibility (1/GPa) = 0.03214494
#
# Stress axis : x y z
#
# Youngs Moduli (GPa) = 90.83892 45.30404 82.82440
#
# Poissons Ratio (x) = 0.26238 0.35527
# Poissons Ratio (y) = 0.52610 -0.29616
# Poissons Ratio (z) = 0.38964 -0.16199
#
# Static dielectric constant tensor:
#      x y z
#    x 1.927780 -0.016930 -0.093940 
#    y -0.016930 1.820840 0.032700 
#    z -0.093940 0.032700 1.978780 
# 
# From -- ./inp_files/98492.got.cif
#   From: 2010.05.17/outbox.cif.g08.bks.cpg/sg2_50_cif.got.tgz:98492.got - 2010.06.03 11:33:40.
