data_PCOD9077156
_publ_section_title
;
Structure prediction by ZEFSAII (Michael W. Deem and Ramdas Pophale) SiO2 
 PCOD9077156
Probable space group: P -1
;
_chemical_formula_sum "Si O2"
_cell_formula_units_Z 14
_cell_length_a 6.876088
_cell_length_b 16.425025
_cell_length_c 11.882272
_cell_angle_alpha 37.111688
_cell_angle_beta 92.331354
_cell_angle_gamma 116.936349
_cell_volume 579.671895
_symmetry_space_group_name_H-M "P -1"
_symmetry_group_IT_number 2
_symmetry_cell_setting 'triclinic'
loop_
_space_group_symop_operation_xyz
x,y,z
-x,-y,-z
loop_
_atom_site_type_symbol
_atom_site_label
_atom_site_fract_x
_atom_site_fract_y
_atom_site_fract_z
Si Si1 0.927537 0.142130 0.350687
Si Si2 0.354709 0.018249 0.188844
Si Si3 0.462446 0.550549 0.564898
Si Si4 0.032434 0.144258 0.093020
Si Si5 0.715695 0.937751 0.101742
Si Si6 0.362280 0.752748 0.856887
Si Si7 0.845309 0.647931 0.669062
O O1 0.849196 0.262080 0.202670
O O2 0.993930 0.125911 0.245499
O O3 0.159737 0.258341 0.323782
O O4 0.656789 0.931533 0.614430
O O5 0.203520 0.090771 0.127516
O O6 0.619107 0.170654 0.102752
O O7 0.356907 0.006373 0.068440
O O8 0.164571 0.809810 0.466008
O O9 0.500000 0.500000 0.500000
O O10 0.476526 0.714225 0.357873
O O11 0.697207 0.634651 0.569704
O O12 0.203806 0.357829 0.826794
O O13 0.782567 0.021283 0.135896
O O14 0.000000 0.000000 0.000000
O O15 0.281811 0.558716 0.080096
#
# Coordination Sequence:
#
# PCOD9077156 Si02
#       7
#     2   2   2   2   2   2   2
#     4  10  25  39  55  80 117 150 189 229 279 326
#     4  10  19  36  61  87 107 146 188 228 281 330
#     4  12  19  33  59  88 111 145 181 229 284 328
#     4  11  21  36  55  89 117 140 185 238 273 331
#     4  10  18  34  56  86 118 142 179 230 285 331
#     4  10  21  42  59  75 110 159 188 226 277 334
#     4  11  20  35  59  83 108 149 190 225 276 338
#
# _framework density 24.151593999999999
#
# number of rings (size 3 to 8) (size 9 to 14) (size 15 to 20)
#    0.000    1.429    7.143    0.429    0.000    4.000 
#    0.000    0.714    0.000    6.000    0.000    0.000 
#    0.000    0.000    0.000    0.000    0.000    0.000 
#
# Total GULP energy -78241.025807 kJ/mol
# GULP energy per Si atom -5588.644701 kJ/mol
# Density = 2.409662 g / cm^3
# Si number density = 24.151594 Si / 1000 Ang^3
#
#
#
# Elastic Constant Matrix: (Units=GPa)
#
#
# Indices 1 2 3 4 5 6 
#
# 1 30.8320 25.7447 14.5222 15.0846 1.3036 -4.2879
# 2 25.7447 226.1424 38.0664 20.1475 -10.9274 -15.9173
# 3 14.5222 38.0664 148.0969 -7.4736 13.1041 -24.9590
# 4 15.0846 20.1475 -7.4736 49.4704 1.5632 -0.5173
# 5 1.3036 -10.9274 13.1041 1.5632 24.1954 9.6723
# 6 -4.2879 -15.9173 -24.9590 -0.5173 9.6723 45.0752
#
#
#
# Elastic Compliance Matrix: (Units=1/GPa)
#
#
# Indices 1 2 3 4 5 6 
#
# 1 0.043090 -0.003166 -0.003737 -0.012360 -0.001353 0.001060
# 2 -0.003166 0.005329 -0.001436 -0.001530 0.003442 0.000029
# 3 -0.003737 -0.001436 0.009433 0.003475 -0.008247 0.006170
# 4 -0.012360 -0.001530 0.003475 0.025275 -0.004090 0.001375
# 5 -0.001353 0.003442 -0.008247 -0.004090 0.053705 -0.015051
# 6 0.001060 0.000029 0.006170 0.001375 -0.015051 0.028958
#
#
# Mechanical properties :
#
#
# Convention : Reuss Voigt Hill
#
# Bulk Modulus (GPa) = 24.28766 62.41534 43.35150
# Shear Modulus (GPa) = 25.48524 45.53072 35.50798
#
# Velocity S-wave (km/s) = 3.25194 4.34661 3.83850
# Velocity P-wave (km/s) = 4.91714 7.14772 6.13466
#
# Compressibility (1/GPa) = 0.04117318
#
# Stress axis : x y z
#
# Youngs Moduli (GPa) = 23.20747 187.65639 106.01261
#
# Poissons Ratio (x) = 0.59411 0.39616
# Poissons Ratio (y) = 0.07347 0.15225
# Poissons Ratio (z) = 0.08673 0.26951
#
# Static dielectric constant tensor:
#      x y z
#    x 2.115730 -0.009050 -0.010350 
#    y -0.009050 1.975380 0.030400 
#    z -0.010350 0.030400 1.866760 
# 
# From -- ./inp_files/402846.got.cif
#   From: 2010.05.17/outbox.cif.g08.bks.cpg/sg2_202_cif.got.tgz:402846.got - 2010.06.03 11:33:40.
