data_PCOD9077771
_publ_section_title
;
Structure prediction by ZEFSAII (Michael W. Deem and Ramdas Pophale) SiO2 
 PCOD9077771
Probable space group: P -1
;
_chemical_formula_sum "Si O2"
_cell_formula_units_Z 16
_cell_length_a 16.070813
_cell_length_b 8.482076
_cell_length_c 8.398751
_cell_angle_alpha 73.390624
_cell_angle_beta 45.902175
_cell_angle_gamma 89.826595
_cell_volume 755.291304
_symmetry_space_group_name_H-M "P -1"
_symmetry_group_IT_number 2
_symmetry_cell_setting 'triclinic'
loop_
_space_group_symop_operation_xyz
x,y,z
-x,-y,-z
loop_
_atom_site_type_symbol
_atom_site_label
_atom_site_fract_x
_atom_site_fract_y
_atom_site_fract_z
Si Si1 0.839936 0.199867 0.408898
Si Si2 0.790242 0.297258 0.111448
Si Si3 0.451040 0.406040 0.862494
Si Si4 0.037855 0.381513 0.351459
Si Si5 0.703261 0.031076 0.065656
Si Si6 0.804072 0.844645 0.703625
Si Si7 0.490463 0.733804 0.520269
Si Si8 0.588252 0.179190 0.897835
O O1 0.858656 0.264614 0.186180
O O2 0.710633 0.221648 0.622588
O O3 0.935655 0.305010 0.378715
O O4 0.826899 0.997830 0.502127
O O5 0.802214 0.166085 0.996254
O O6 0.645056 0.255705 0.331939
O O7 0.846457 0.491712 0.926989
O O8 0.483251 0.604350 0.714580
O O9 0.473319 0.330655 0.680691
O O10 0.530329 0.333779 0.902492
O O11 0.313486 0.316202 0.123826
O O12 0.082156 0.226862 0.407612
O O13 0.000000 0.500000 0.500000
O O14 0.602093 0.902554 0.345512
O O15 0.629252 0.134408 0.029292
O O16 0.767658 0.931693 0.886941
O O17 0.500000 0.000000 0.000000
#
# Coordination Sequence:
#
# PCOD9077771 Si02
#       8
#     2   2   2   2   2   2   2   2
#     4  11  23  40  68  94 125 172 207 258 315 376
#     4  12  23  42  61  96 131 166 216 257 312 374
#     4  10  18  34  64  96 128 166 204 256 318 378
#     4  12  26  46  67  89 124 166 221 267 312 372
#     4  10  22  37  65  97 131 170 203 256 318 381
#     4  10  21  43  67  92 124 169 210 257 322 370
#     4  10  19  34  60  96 131 165 204 257 317 369
#     4  11  17  36  63  94 126 165 207 251 312 378
#
# _framework density 21.183879999999998
#
# number of rings (size 3 to 8) (size 9 to 14) (size 15 to 20)
#    0.000    1.250    6.250    2.625    0.000    0.000 
#    0.000    6.875    0.000    0.000    0.000    0.000 
#    0.000    0.000    0.000    0.000    0.000    0.000 
#
# Total GULP energy -89371.418022 kJ/mol
# GULP energy per Si atom -5585.713626 kJ/mol
# Density = 2.113566 g / cm^3
# Si number density = 21.183880 Si / 1000 Ang^3
#
#
#
# Elastic Constant Matrix: (Units=GPa)
#
#
# Indices 1 2 3 4 5 6 
#
# 1 129.6296 47.5307 18.7425 -1.7675 9.5965 -17.1425
# 2 47.5307 64.5019 23.5642 -7.1908 12.3423 -25.0971
# 3 18.7425 23.5642 38.7917 -17.2415 -0.6189 -1.5021
# 4 -1.7675 -7.1908 -17.2415 29.0656 -9.6190 -4.2821
# 5 9.5965 12.3423 -0.6189 -9.6190 33.1452 -4.7480
# 6 -17.1425 -25.0971 -1.5021 -4.2821 -4.7480 31.7262
#
#
#
# Elastic Compliance Matrix: (Units=1/GPa)
#
#
# Indices 1 2 3 4 5 6 
#
# 1 0.010727 -0.007667 -0.001878 -0.002917 -0.001267 -0.000942
# 2 -0.007667 0.040180 -0.021220 -0.002939 -0.010456 0.024676
# 3 -0.001878 -0.021220 0.053064 0.030485 0.017048 -0.008623
# 4 -0.002917 -0.002939 0.030485 0.059876 0.021143 0.008788
# 5 -0.001267 -0.010456 0.017048 0.021143 0.041006 0.000841
# 6 -0.000942 0.024676 -0.008623 0.008788 0.000841 0.051435
#
#
# Mechanical properties :
#
#
# Convention : Reuss Voigt Hill
#
# Bulk Modulus (GPa) = 23.56334 45.84422 34.70378
# Shear Modulus (GPa) = 15.06184 28.32644 21.69414
#
# Velocity S-wave (km/s) = 2.66936 3.66070 3.20361
# Velocity P-wave (km/s) = 4.54401 6.28933 5.48652
#
# Compressibility (1/GPa) = 0.04243880
#
# Stress axis : x y z
#
# Youngs Moduli (GPa) = 93.22528 24.88803 18.84516
#
# Poissons Ratio (x) = 0.19082 0.03540
# Poissons Ratio (y) = 0.71478 0.39990
# Poissons Ratio (z) = 0.17510 0.52813
#
# Static dielectric constant tensor:
#      x y z
#    x 1.756000 0.017660 0.018210 
#    y 0.017660 1.792100 0.014930 
#    z 0.018210 0.014930 1.781860 
# 
# From -- ./inp_files/294733.got.cif
#   From: 2010.05.17/outbox.cif.g08.bks.cpg/sg2_148_cif.got.tgz:294733.got - 2010.06.03 11:33:40.
