data_PCOD9077116
_publ_section_title
;
Structure prediction by ZEFSAII (Michael W. Deem and Ramdas Pophale) SiO2 
 PCOD9077116
Probable space group: P -1
;
_chemical_formula_sum "Si O2"
_cell_formula_units_Z 16
_cell_length_a 7.959924
_cell_length_b 9.160747
_cell_length_c 9.869223
_cell_angle_alpha 58.988265
_cell_angle_beta 83.239333
_cell_angle_gamma 91.895093
_cell_volume 608.772885
_symmetry_space_group_name_H-M "P -1"
_symmetry_group_IT_number 2
_symmetry_cell_setting 'triclinic'
loop_
_space_group_symop_operation_xyz
x,y,z
-x,-y,-z
loop_
_atom_site_type_symbol
_atom_site_label
_atom_site_fract_x
_atom_site_fract_y
_atom_site_fract_z
Si Si1 0.185310 0.520815 0.555267
Si Si2 0.385213 0.201927 0.388161
Si Si3 0.410156 0.821716 0.894079
Si Si4 0.829456 0.151343 0.462746
Si Si5 0.986329 0.967245 0.746133
Si Si6 0.279104 0.570139 0.238627
Si Si7 0.660855 0.818078 0.300683
Si Si8 0.037636 0.665267 0.009580
O O1 0.190946 0.651454 0.616523
O O2 0.302070 0.596312 0.381958
O O3 0.276755 0.357391 0.674645
O O4 0.000000 0.500000 0.500000
O O5 0.483205 0.210652 0.232829
O O6 0.280687 0.368071 0.308508
O O7 0.443262 0.222814 0.529423
O O8 0.306598 0.002977 0.496085
O O9 0.216116 0.763514 0.891605
O O10 0.420691 0.022518 0.836402
O O11 0.418897 0.689029 0.080658
O O12 0.980281 0.131275 0.351040
O O13 0.863183 0.098420 0.640160
O O14 0.919639 0.817940 0.928721
O O15 0.150710 0.087778 0.721111
O O16 0.098502 0.622394 0.173829
O O17 0.000000 0.500000 0.000000
#
# Coordination Sequence:
#
# PCOD9077116 Si02
#       8
#     2   2   2   2   2   2   2   2
#     4  11  21  35  53  79 108 147 174 212 267 320
#     4  10  18  34  56  81 102 141 182 218 258 311
#     4   9  19  34  55  78 109 138 173 225 265 305
#     4  10  20  30  56  76 107 135 187 210 262 308
#     4   9  17  33  51  81 102 137 170 233 255 303
#     4   9  21  34  56  80 110 137 174 217 267 318
#     4   9  18  34  55  78 107 138 179 220 263 310
#     4   9  18  30  52  77 110 127 168 220 270 302
#
# _framework density 26.282378000000001
#
# number of rings (size 3 to 8) (size 9 to 14) (size 15 to 20)
#    0.750    1.750    1.250    1.500    3.500    0.000 
#    0.000    3.750    2.750    0.000    0.000    0.000 
#    0.000    0.000    0.000    0.000    0.000    0.000 
#
# Total GULP energy -89129.532071 kJ/mol
# GULP energy per Si atom -5570.595754 kJ/mol
# Density = 2.622256 g / cm^3
# Si number density = 26.282378 Si / 1000 Ang^3
#
#
#
# Elastic Constant Matrix: (Units=GPa)
#
#
# Indices 1 2 3 4 5 6 
#
# 1 31.2551 12.0387 10.1554 -0.9381 7.0632 3.4473
# 2 12.0387 194.4702 41.6488 -20.8392 0.4806 -11.7136
# 3 10.1554 41.6488 121.0620 -21.9675 9.2577 4.0487
# 4 -0.9381 -20.8392 -21.9675 30.4562 -6.8824 5.1522
# 5 7.0632 0.4806 9.2577 -6.8824 36.4507 -2.8950
# 6 3.4473 -11.7136 4.0487 5.1522 -2.8950 26.8364
#
#
#
# Elastic Compliance Matrix: (Units=1/GPa)
#
#
# Indices 1 2 3 4 5 6 
#
# 1 0.035745 -0.002410 -0.001893 -0.002621 -0.007357 -0.005649
# 2 -0.002410 0.006103 -0.001600 0.002818 0.001551 0.002841
# 3 -0.001893 -0.001600 0.010385 0.006631 -0.001270 -0.003432
# 4 -0.002621 0.002818 0.006631 0.042016 0.006177 -0.006834
# 5 -0.007357 0.001551 -0.001270 0.006177 0.030641 0.003933
# 6 -0.005649 0.002841 -0.003432 -0.006834 0.003933 0.041483
#
#
# Mechanical properties :
#
#
# Convention : Reuss Voigt Hill
#
# Bulk Modulus (GPa) = 24.73643 52.71923 38.72783
# Shear Modulus (GPa) = 26.08862 37.61163 31.85012
#
# Velocity S-wave (km/s) = 3.15402 3.78704 3.48493
# Velocity P-wave (km/s) = 4.76403 6.26295 5.56419
#
# Compressibility (1/GPa) = 0.04042621
#
# Stress axis : x y z
#
# Youngs Moduli (GPa) = 27.97571 163.84721 96.29708
#
# Poissons Ratio (x) = 0.39490 0.18233
# Poissons Ratio (y) = 0.06743 0.15406
# Poissons Ratio (z) = 0.05297 0.26213
#
# Static dielectric constant tensor:
#      x y z
#    x 2.321740 -0.083980 0.012560 
#    y -0.083980 2.012200 -0.071580 
#    z 0.012560 -0.071580 2.160310 
# 
# From -- ./inp_files/416498.got.cif
#   From: 2010.05.17/outbox.cif.g08.bks.cpg/sg2_209_cif.got.tgz:416498.got - 2010.06.03 11:33:40.
