data_PCOD9077296
_publ_section_title
;
Structure prediction by ZEFSAII (Michael W. Deem and Ramdas Pophale) SiO2 
 PCOD9077296
Probable space group: P -1
;
_chemical_formula_sum "Si O2"
_cell_formula_units_Z 12
_cell_length_a 10.118397
_cell_length_b 14.027777
_cell_length_c 7.219316
_cell_angle_alpha 108.154965
_cell_angle_beta 118.943520
_cell_angle_gamma 32.326574
_cell_volume 469.019797
_symmetry_space_group_name_H-M "P -1"
_symmetry_group_IT_number 2
_symmetry_cell_setting 'triclinic'
loop_
_space_group_symop_operation_xyz
x,y,z
-x,-y,-z
loop_
_atom_site_type_symbol
_atom_site_label
_atom_site_fract_x
_atom_site_fract_y
_atom_site_fract_z
Si Si1 0.641683 0.032017 0.247480
Si Si2 0.891036 0.593263 0.713698
Si Si3 0.474696 0.787976 0.057687
Si Si4 0.755481 0.284678 0.037501
Si Si5 0.812934 0.812067 0.538933
Si Si6 0.375562 0.787769 0.396207
O O1 0.315864 0.219280 0.194896
O O2 0.641848 0.057446 0.048439
O O3 0.758374 0.066156 0.455048
O O4 0.796919 0.852874 0.336363
O O5 0.912315 0.647463 0.571570
O O6 0.689533 0.607478 0.575468
O O7 0.200815 0.407214 0.878988
O O8 0.313542 0.772236 0.911276
O O9 0.420880 0.828146 0.263921
O O10 0.999600 0.214331 0.238738
O O11 0.500000 0.500000 0.000000
O O12 0.759585 0.234409 0.801475
O O13 0.500000 0.000000 0.500000
#
# Coordination Sequence:
#
# PCOD9077296 Si02
#       6
#     2   2   2   2   2   2
#     4   9  20  33  55  84 108 147 180 223 273 330
#     4   9  17  35  58  79 111 149 178 223 275 324
#     4  10  18  34  58  81 110 143 186 227 266 326
#     4  10  20  35  59  80 109 149 183 226 277 319
#     4  10  19  36  59  79 114 149 177 225 284 324
#     4   8  20  32  56  81 109 144 184 220 278 319
#
# _framework density 25.585273000000001
#
# number of rings (size 3 to 8) (size 9 to 14) (size 15 to 20)
#    2.000    0.667    1.667    1.000    0.000    1.333 
#    0.000    1.667    0.000    0.000    0.000    0.000 
#    0.000    0.000    0.000    0.000    0.000    0.000 
#
# Total GULP energy -66847.460845 kJ/mol
# GULP energy per Si atom -5570.621737 kJ/mol
# Density = 2.552704 g / cm^3
# Si number density = 25.585273 Si / 1000 Ang^3
#
#
#
# Elastic Constant Matrix: (Units=GPa)
#
#
# Indices 1 2 3 4 5 6 
#
# 1 95.1289 14.6403 65.0438 -13.0143 38.0559 17.3008
# 2 14.6403 63.9330 29.4735 -20.5804 16.7223 12.6085
# 3 65.0438 29.4735 132.0914 -12.6816 27.8426 19.2291
# 4 -13.0143 -20.5804 -12.6816 46.3157 6.2377 5.1973
# 5 38.0559 16.7223 27.8426 6.2377 68.2840 -2.1388
# 6 17.3008 12.6085 19.2291 5.1973 -2.1388 36.1641
#
#
#
# Elastic Compliance Matrix: (Units=1/GPa)
#
#
# Indices 1 2 3 4 5 6 
#
# 1 0.023685 0.007601 -0.007700 0.011095 -0.013319 -0.012269
# 2 0.007601 0.026326 -0.003776 0.015825 -0.011020 -0.013733
# 3 -0.007700 -0.003776 0.012364 -0.000306 0.000155 -0.001521
# 4 0.011095 0.015825 -0.000306 0.035357 -0.013682 -0.016553
# 5 -0.013319 -0.011020 0.000155 -0.013682 0.026381 0.013658
# 6 -0.012269 -0.013733 -0.001521 -0.016553 0.013658 0.042304
#
#
# Mechanical properties :
#
#
# Convention : Reuss Voigt Hill
#
# Bulk Modulus (GPa) = 18.30655 56.60762 37.45709
# Shear Modulus (GPa) = 25.99095 42.28580 34.13838
#
# Velocity S-wave (km/s) = 3.19071 4.06980 3.65677
# Velocity P-wave (km/s) = 4.55465 6.65263 5.70098
#
# Compressibility (1/GPa) = 0.05462524
#
# Stress axis : x y z
#
# Youngs Moduli (GPa) = 42.22167 37.98483 80.88060
#
# Poissons Ratio (x) = -0.28872 0.62277
# Poissons Ratio (y) = -0.32092 0.30539
# Poissons Ratio (z) = 0.32510 0.14342
#
# Static dielectric constant tensor:
#      x y z
#    x 2.083940 -0.020870 -0.003380 
#    y -0.020870 2.049430 0.037720 
#    z -0.003380 0.037720 2.052120 
# 
# From -- ./inp_files/276559.got.cif
#   From: 2010.05.17/outbox.cif.g08.bks.cpg/sg2_139_cif.got.tgz:276559.got - 2010.06.03 11:33:40.
