data_PCOD9077909
_publ_section_title
;
Structure prediction by ZEFSAII (Michael W. Deem and Ramdas Pophale) SiO2 
 PCOD9077909
Probable space group: P -1
;
_chemical_formula_sum "Si O2"
_cell_formula_units_Z 12
_cell_length_a 9.754467
_cell_length_b 9.552890
_cell_length_c 7.207120
_cell_angle_alpha 118.421815
_cell_angle_beta 133.021594
_cell_angle_gamma 70.049156
_cell_volume 431.670046
_symmetry_space_group_name_H-M "P -1"
_symmetry_group_IT_number 2
_symmetry_cell_setting 'triclinic'
loop_
_space_group_symop_operation_xyz
x,y,z
-x,-y,-z
loop_
_atom_site_type_symbol
_atom_site_label
_atom_site_fract_x
_atom_site_fract_y
_atom_site_fract_z
Si Si1 0.689301 0.167012 0.620296
Si Si2 0.212393 0.520997 0.639689
Si Si3 0.180033 0.844876 0.693831
Si Si4 0.222163 0.504395 0.203285
Si Si5 0.248115 0.168672 0.858324
Si Si6 0.349633 0.162046 0.572282
O O1 0.726329 0.167086 0.432572
O O2 0.738305 0.352525 0.810179
O O3 0.488066 0.156265 0.523595
O O4 0.779412 0.997475 0.670772
O O5 0.242948 0.711183 0.815622
O O6 0.266415 0.519313 0.469692
O O7 0.299938 0.350268 0.670541
O O8 0.000000 0.500000 0.500000
O O9 0.958254 0.815957 0.423721
O O10 0.211847 0.029161 0.882850
O O11 0.298016 0.335004 0.097662
O O12 0.000000 0.500000 0.000000
O O13 0.400112 0.126656 0.813205
#
# Coordination Sequence:
#
# PCOD9077909 Si02
#       6
#     2   2   2   2   2   2
#     4   9  20  36  58  79 107 151 179 222 269 337
#     4  11  20  34  56  83 110 141 186 231 262 318
#     4   9  18  33  57  74 107 148 179 209 271 332
#     4  11  20  34  55  82 113 143 181 223 277 322
#     4  10  18  35  56  77 107 147 180 216 267 334
#     4  10  20  37  58  81 107 143 192 219 268 323
#
# _framework density 27.799011
#
# number of rings (size 3 to 8) (size 9 to 14) (size 15 to 20)
#    0.000    2.000    5.000    0.000    0.000    3.333 
#    0.000    5.000    0.000   10.000    0.000    0.000 
#    0.000    0.000    0.000    0.000    0.000    0.000 
#
# Total GULP energy -66801.574475 kJ/mol
# GULP energy per Si atom -5566.797873 kJ/mol
# Density = 2.773574 g / cm^3
# Si number density = 27.799011 Si / 1000 Ang^3
#
#
#
# Elastic Constant Matrix: (Units=GPa)
#
#
# Indices 1 2 3 4 5 6 
#
# 1 159.8603 43.7286 27.5435 6.4727 -2.6665 38.5131
# 2 43.7286 242.3454 44.0172 55.4930 26.9261 59.2217
# 3 27.5435 44.0172 46.1558 15.3930 1.8655 20.0769
# 4 6.4727 55.4930 15.3930 59.3487 12.2309 11.7708
# 5 -2.6665 26.9261 1.8655 12.2309 38.0989 10.8654
# 6 38.5131 59.2217 20.0769 11.7708 10.8654 66.1021
#
#
#
# Elastic Compliance Matrix: (Units=1/GPa)
#
#
# Indices 1 2 3 4 5 6 
#
# 1 0.007758 -0.000258 -0.003002 0.000556 0.001768 -0.003767
# 2 -0.000258 0.006992 -0.003217 -0.004423 -0.002247 -0.003980
# 3 -0.003002 -0.003217 0.029582 -0.004163 0.003129 -0.004126
# 4 0.000556 -0.004423 -0.004163 0.022582 -0.004335 0.001594
# 5 0.001768 -0.002247 0.003129 -0.004335 0.030393 -0.004191
# 6 -0.003767 -0.003980 -0.004126 0.001594 -0.004191 0.022547
#
#
# Mechanical properties :
#
#
# Convention : Reuss Voigt Hill
#
# Bulk Modulus (GPa) = 31.86961 75.43779 53.65370
# Shear Modulus (GPa) = 34.89977 54.91474 44.90726
#
# Velocity S-wave (km/s) = 3.54705 4.44939 4.02360
# Velocity P-wave (km/s) = 5.31645 7.32065 6.39752
#
# Compressibility (1/GPa) = 0.03137786
#
# Stress axis : x y z
#
# Youngs Moduli (GPa) = 128.90489 143.01414 33.80397
#
# Poissons Ratio (x) = 0.03688 0.10148
# Poissons Ratio (y) = 0.03324 0.10876
# Poissons Ratio (z) = 0.38698 0.46012
#
# Static dielectric constant tensor:
#      x y z
#    x 2.137710 -0.194750 0.045360 
#    y -0.194750 2.173860 0.061390 
#    z 0.045360 0.061390 2.464240 
# 
# From -- ./inp_files/145144.got.cif
#   From: 2010.05.17/outbox.cif.g08.bks.cpg/sg2_73_cif.got.tgz:145144.got - 2010.06.03 11:33:40.
