data_PCOD9077605
_publ_section_title
;
Structure prediction by ZEFSAII (Michael W. Deem and Ramdas Pophale) SiO2 
 PCOD9077605
Probable space group: P -1
;
_chemical_formula_sum "Si O2"
_cell_formula_units_Z 16
_cell_length_a 10.062863
_cell_length_b 12.015110
_cell_length_c 15.780230
_cell_angle_alpha 59.614168
_cell_angle_beta 37.641734
_cell_angle_gamma 77.865832
_cell_volume 937.272140
_symmetry_space_group_name_H-M "P -1"
_symmetry_group_IT_number 2
_symmetry_cell_setting 'triclinic'
loop_
_space_group_symop_operation_xyz
x,y,z
-x,-y,-z
loop_
_atom_site_type_symbol
_atom_site_label
_atom_site_fract_x
_atom_site_fract_y
_atom_site_fract_z
Si Si1 0.405503 0.945649 0.975312
Si Si2 0.367336 0.351350 0.731716
Si Si3 0.792520 0.060685 0.587492
Si Si4 0.950938 0.336824 0.685242
Si Si5 0.970629 0.933669 0.948069
Si Si6 0.504812 0.938979 0.429229
Si Si7 0.559160 0.660719 0.501966
Si Si8 0.863209 0.344127 0.527943
O O1 0.604977 0.988854 0.785222
O O2 0.264137 0.780814 0.116161
O O3 0.500000 0.000000 0.000000
O O4 0.215303 0.014733 0.023873
O O5 0.392869 0.508507 0.672696
O O6 0.393906 0.337072 0.623123
O O7 0.593198 0.329496 0.664941
O O8 0.138780 0.231683 0.925740
O O9 0.656352 0.041883 0.573328
O O10 0.890079 0.223659 0.502364
O O11 0.000000 0.000000 0.500000
O O12 0.917218 0.325114 0.605626
O O13 0.188745 0.310932 0.595240
O O14 0.992538 0.495100 0.630063
O O15 0.226001 0.990878 0.759806
O O16 0.000000 0.000000 0.000000
O O17 0.453778 0.776559 0.527954
O O18 0.500000 0.000000 0.500000
#
# Coordination Sequence:
#
# PCOD9077605 Si02
#       8
#     2   2   2   2   2   2   2   2
#     4  12  21  36  64  93 118 152 206 247 292 349
#     4  10  18  34  61  89 112 147 196 258 295 337
#     4  12  26  42  58  86 130 164 191 244 308 361
#     4  10  20  32  63  93 114 148 200 253 288 345
#     4  12  19  38  62  89 117 148 205 257 287 344
#     4  12  26  41  59  88 125 162 199 246 302 359
#     4  10  19  34  60  88 115 147 198 247 303 343
#     4  10  19  38  56  88 124 152 193 244 299 348
#
# _framework density 17.070815
#
# number of rings (size 3 to 8) (size 9 to 14) (size 15 to 20)
#    0.000    1.000    7.500    0.000    3.500    0.000 
#    0.000    1.250    0.000    0.000    0.000    0.000 
#    0.000    0.000    0.000    0.000    0.000    0.000 
#
# Total GULP energy -89251.555754 kJ/mol
# GULP energy per Si atom -5578.222235 kJ/mol
# Density = 1.703196 g / cm^3
# Si number density = 17.070815 Si / 1000 Ang^3
#
#
#
# Elastic Constant Matrix: (Units=GPa)
#
#
# Indices 1 2 3 4 5 6 
#
# 1 165.7692 46.7797 37.6641 10.6132 -1.7757 -5.5092
# 2 46.7797 125.6289 64.0219 -9.9073 -1.5361 0.0934
# 3 37.6641 64.0219 94.6818 -11.2052 -1.7835 -2.0695
# 4 10.6132 -9.9073 -11.2052 36.7015 1.8600 1.4202
# 5 -1.7757 -1.5361 -1.7835 1.8600 21.0034 -0.8651
# 6 -5.5092 0.0934 -2.0695 1.4202 -0.8651 35.0302
#
#
#
# Elastic Compliance Matrix: (Units=1/GPa)
#
#
# Indices 1 2 3 4 5 6 
#
# 1 0.007286 -0.001998 -0.001900 -0.003306 0.000650 0.001189
# 2 -0.001998 0.012726 -0.007627 0.001722 -0.000074 -0.000870
# 3 -0.001900 -0.007627 0.016923 0.003613 0.000423 0.000585
# 4 -0.003306 0.001722 0.003613 0.029962 -0.002565 -0.001589
# 5 0.000650 -0.000074 0.000423 -0.002565 0.047982 0.001416
# 6 0.001189 -0.000870 0.000585 -0.001589 0.001416 0.028870
#
#
# Mechanical properties :
#
#
# Convention : Reuss Voigt Hill
#
# Bulk Modulus (GPa) = 72.02139 75.89014 73.95576
# Shear Modulus (GPa) = 29.16642 34.38797 31.77720
#
# Velocity S-wave (km/s) = 4.13795 4.49311 4.31918
# Velocity P-wave (km/s) = 8.06917 8.45399 8.26382
#
# Compressibility (1/GPa) = 0.01388476
#
# Stress axis : x y z
#
# Youngs Moduli (GPa) = 137.24429 78.57644 59.09066
#
# Poissons Ratio (x) = 0.15703 0.11228
# Poissons Ratio (y) = 0.27428 0.45068
# Poissons Ratio (z) = 0.26078 0.59930
#
# Static dielectric constant tensor:
#      x y z
#    x 1.612910 0.012900 0.012680 
#    y 0.012900 1.578750 -0.056250 
#    z 0.012680 -0.056250 1.561880 
# 
# From -- ./inp_files/279540.got.cif
#   From: 2010.05.17/outbox.cif.g08.bks.cpg/sg2_140_cif.got.tgz:279540.got - 2010.06.03 11:33:40.
