data_PCOD9077772
_publ_section_title
;
Structure prediction by ZEFSAII (Michael W. Deem and Ramdas Pophale) SiO2 
 PCOD9077772
Probable space group: P -1
;
_chemical_formula_sum "Si O2"
_cell_formula_units_Z 16
_cell_length_a 11.814453
_cell_length_b 8.774490
_cell_length_c 14.930835
_cell_angle_alpha 86.454445
_cell_angle_beta 29.514435
_cell_angle_gamma 70.313791
_cell_volume 622.311964
_symmetry_space_group_name_H-M "P -1"
_symmetry_group_IT_number 2
_symmetry_cell_setting 'triclinic'
loop_
_space_group_symop_operation_xyz
x,y,z
-x,-y,-z
loop_
_atom_site_type_symbol
_atom_site_label
_atom_site_fract_x
_atom_site_fract_y
_atom_site_fract_z
Si Si1 0.223192 0.552356 0.140744
Si Si2 0.073206 0.879126 0.720592
Si Si3 0.854903 0.710567 0.554441
Si Si4 0.749495 0.719348 0.988145
Si Si5 0.799175 0.228048 0.554103
Si Si6 0.664581 0.644884 0.373093
Si Si7 0.496143 0.661628 0.691506
Si Si8 0.973258 0.813207 0.135705
O O1 0.988661 0.689630 0.366413
O O2 0.238670 0.367388 0.114411
O O3 0.171346 0.647440 0.076984
O O4 0.500000 0.500000 0.000000
O O5 0.063393 0.909825 0.620045
O O6 0.383130 0.682943 0.524626
O O7 0.813727 0.871130 0.924617
O O8 0.096740 0.009652 0.767469
O O9 0.956690 0.808511 0.544491
O O10 0.000000 0.500000 0.500000
O O11 0.553310 0.763843 0.727668
O O12 0.037453 0.550602 0.844464
O O13 0.460644 0.772944 0.228890
O O14 0.654377 0.444361 0.616450
O O15 0.610451 0.668843 0.516200
O O16 0.715598 0.797969 0.297147
O O17 0.161710 0.766169 0.920476
#
# Coordination Sequence:
#
# PCOD9077772 Si02
#       8
#     2   2   2   2   2   2   2   2
#     4  11  18  39  70  92 122 168 217 254 304 388
#     4  12  27  42  60  97 137 165 210 271 329 362
#     4  10  18  34  64  97 119 157 213 266 302 371
#     4  11  21  39  65  98 123 168 216 261 314 375
#     4  11  22  39  65  95 131 165 209 266 321 378
#     4  11  23  43  69  89 125 175 222 263 305 389
#     4  11  20  40  69  94 120 167 229 255 309 382
#     4  11  25  43  64  97 128 167 215 268 319 376
#
# _framework density 25.710576
#
# number of rings (size 3 to 8) (size 9 to 14) (size 15 to 20)
#    0.000    1.000    7.500    2.250    0.000    3.000 
#    0.000    3.125    0.000    0.000    0.000    0.000 
#    0.000    0.000    0.000    0.000    0.000    0.000 
#
# Total GULP energy -89448.613211 kJ/mol
# GULP energy per Si atom -5590.538326 kJ/mol
# Density = 2.565206 g / cm^3
# Si number density = 25.710576 Si / 1000 Ang^3
#
#
#
# Elastic Constant Matrix: (Units=GPa)
#
#
# Indices 1 2 3 4 5 6 
#
# 1 94.8942 16.7082 18.5816 -9.5719 -12.5041 17.2735
# 2 16.7082 71.9337 47.8900 -4.2754 -1.1338 22.6154
# 3 18.5816 47.8900 118.9909 -35.3804 -6.0292 14.8901
# 4 -9.5719 -4.2754 -35.3804 34.5894 12.3929 -4.8885
# 5 -12.5041 -1.1338 -6.0292 12.3929 38.2267 -4.4271
# 6 17.2735 22.6154 14.8901 -4.8885 -4.4271 29.9618
#
#
#
# Elastic Compliance Matrix: (Units=1/GPa)
#
#
# Indices 1 2 3 4 5 6 
#
# 1 0.012279 -0.000561 -0.000553 0.000885 0.002954 -0.005800
# 2 -0.000561 0.026041 -0.011864 -0.011462 0.000672 -0.015207
# 3 -0.000553 -0.011864 0.018319 0.018720 -0.003397 0.002722
# 4 0.000885 -0.011462 0.018720 0.052483 -0.013486 0.005409
# 5 0.002954 0.000672 -0.003397 -0.013486 0.031201 0.001888
# 6 -0.005800 -0.015207 0.002722 0.005409 0.001888 0.048006
#
#
# Mechanical properties :
#
#
# Convention : Reuss Voigt Hill
#
# Bulk Modulus (GPa) = 32.59241 50.24204 41.41723
# Shear Modulus (GPa) = 22.27041 34.06486 28.16763
#
# Velocity S-wave (km/s) = 2.94631 3.64392 3.31352
# Velocity P-wave (km/s) = 4.92733 6.10639 5.54827
#
# Compressibility (1/GPa) = 0.03068199
#
# Stress axis : x y z
#
# Youngs Moduli (GPa) = 81.43678 38.40124 54.58954
#
# Poissons Ratio (x) = 0.02156 0.03019
# Poissons Ratio (y) = 0.04572 0.64765
# Poissons Ratio (z) = 0.04504 0.45559
#
# Static dielectric constant tensor:
#      x y z
#    x 1.543610 0.256310 -0.276650 
#    y 0.256310 2.016180 0.101840 
#    z -0.276650 0.101840 1.957640 
# 
# From -- ./inp_files/515594.got.cif
#   From: 2010.05.17/outbox.cif.g08.bks.cpg/sg2_258_cif.got.tgz:515594.got - 2010.06.03 11:33:40.
