data_PCOD9077637
_publ_section_title
;
Structure prediction by ZEFSAII (Michael W. Deem and Ramdas Pophale) SiO2 
 PCOD9077637
Probable space group: P -1
;
_chemical_formula_sum "Si O2"
_cell_formula_units_Z 16
_cell_length_a 9.322769
_cell_length_b 9.300048
_cell_length_c 16.477140
_cell_angle_alpha 58.955411
_cell_angle_beta 93.992282
_cell_angle_gamma 49.565371
_cell_volume 731.204290
_symmetry_space_group_name_H-M "P -1"
_symmetry_group_IT_number 2
_symmetry_cell_setting 'triclinic'
loop_
_space_group_symop_operation_xyz
x,y,z
-x,-y,-z
loop_
_atom_site_type_symbol
_atom_site_label
_atom_site_fract_x
_atom_site_fract_y
_atom_site_fract_z
Si Si1 0.945410 0.805271 0.913417
Si Si2 0.794831 0.696195 0.821346
Si Si3 0.973409 0.393191 0.604809
Si Si4 0.325849 0.683049 0.015180
Si Si5 0.588009 0.174403 0.284266
Si Si6 0.024563 0.573849 0.713108
Si Si7 0.537866 0.161170 0.472474
Si Si8 0.524058 0.160948 0.917811
O O1 0.871015 0.809592 0.820992
O O2 0.710059 0.998295 0.900039
O O3 0.140072 0.490120 0.048432
O O4 0.064429 0.872165 0.918204
O O5 0.529604 0.896483 0.724593
O O6 0.952770 0.516203 0.800517
O O7 0.705599 0.572311 0.564158
O O8 0.000000 0.500000 0.500000
O O9 0.049677 0.433634 0.675012
O O10 0.154008 0.076255 0.676261
O O11 0.418782 0.471803 0.150848
O O12 0.370258 0.822569 0.012459
O O13 0.500000 0.500000 0.000000
O O14 0.572817 0.208729 0.370675
O O15 0.264045 0.444988 0.787338
O O16 0.799381 0.911827 0.597027
O O17 0.500000 0.000000 0.500000
O O18 0.500000 0.000000 0.000000
#
# Coordination Sequence:
#
# PCOD9077637 Si02
#       8
#     2   2   2   2   2   2   2   2
#     4  10  22  39  63  92 135 171 225 269 338 402
#     4  10  18  34  61  96 130 174 209 279 324 389
#     4  11  19  34  64 101 130 174 231 270 332 408
#     4  11  27  45  64  96 140 182 217 291 351 391
#     4  11  21  39  63  95 142 175 226 277 337 398
#     4  11  20  35  63  95 132 168 224 275 324 393
#     4  10  19  36  59  98 132 174 222 284 324 399
#     4  12  25  42  66  97 128 179 235 275 335 416
#
# _framework density 21.881710000000002
#
# number of rings (size 3 to 8) (size 9 to 14) (size 15 to 20)
#    0.000    1.250    6.250    1.875    5.250    0.000 
#    2.250    0.625    0.000    0.750    0.000    0.000 
#    0.000    0.000    0.000    0.000    0.000    0.000 
#
# Total GULP energy -89225.257724 kJ/mol
# GULP energy per Si atom -5576.578608 kJ/mol
# Density = 2.183191 g / cm^3
# Si number density = 21.881710 Si / 1000 Ang^3
#
#
#
# Elastic Constant Matrix: (Units=GPa)
#
#
# Indices 1 2 3 4 5 6 
#
# 1 103.5331 45.4670 42.2702 1.1105 27.5635 -6.1147
# 2 45.4670 111.1599 29.8457 13.3212 16.3162 -24.1497
# 3 42.2702 29.8457 79.0022 15.3311 19.5198 -8.9183
# 4 1.1105 13.3212 15.3311 40.0423 -13.3023 8.5163
# 5 27.5635 16.3162 19.5198 -13.3023 35.3739 -3.5879
# 6 -6.1147 -24.1497 -8.9183 8.5163 -3.5879 42.8393
#
#
#
# Elastic Compliance Matrix: (Units=1/GPa)
#
#
# Indices 1 2 3 4 5 6 
#
# 1 0.015529 -0.004602 -0.005497 0.001513 -0.006616 -0.002377
# 2 -0.004602 0.014569 0.001424 -0.009380 -0.006517 0.009172
# 3 -0.005497 0.001424 0.021832 -0.014410 -0.013198 0.006322
# 4 0.001513 -0.009380 -0.014410 0.045623 0.026744 -0.014902
# 5 -0.006616 -0.006517 -0.013198 0.026744 0.052934 -0.008249
# 6 -0.002377 0.009172 0.006322 -0.014902 -0.008249 0.031762
#
#
# Mechanical properties :
#
#
# Convention : Reuss Voigt Hill
#
# Bulk Modulus (GPa) = 28.91862 58.76234 43.84048
# Shear Modulus (GPa) = 23.68239 35.39192 29.53715
#
# Velocity S-wave (km/s) = 3.29339 4.02608 3.67802
# Velocity P-wave (km/s) = 5.26369 6.96601 6.17380
#
# Compressibility (1/GPa) = 0.03457980
#
# Stress axis : x y z
#
# Youngs Moduli (GPa) = 64.39481 68.63700 45.80403
#
# Poissons Ratio (x) = 0.31590 0.25181
# Poissons Ratio (y) = 0.29637 -0.06524
# Poissons Ratio (z) = 0.35401 -0.09777
#
# Static dielectric constant tensor:
#      x y z
#    x 1.849240 -0.013740 0.021440 
#    y -0.013740 1.840530 -0.025120 
#    z 0.021440 -0.025120 1.896500 
# 
# From -- ./inp_files/494686.got.cif
#   From: 2010.05.17/outbox.cif.g08.bks.cpg/sg2_248_cif.got.tgz:494686.got - 2010.06.03 11:33:40.
