data_PCOD9077733
_publ_section_title
;
Structure prediction by ZEFSAII (Michael W. Deem and Ramdas Pophale) SiO2 
 PCOD9077733
Probable space group: P -1
;
_chemical_formula_sum "Si O2"
_cell_formula_units_Z 15
_cell_length_a 9.011515
_cell_length_b 15.335126
_cell_length_c 11.484006
_cell_angle_alpha 62.579622
_cell_angle_beta 48.828478
_cell_angle_gamma 32.850702
_cell_volume 631.160211
_symmetry_space_group_name_H-M "P -1"
_symmetry_group_IT_number 2
_symmetry_cell_setting 'triclinic'
loop_
_space_group_symop_operation_xyz
x,y,z
-x,-y,-z
loop_
_atom_site_type_symbol
_atom_site_label
_atom_site_fract_x
_atom_site_fract_y
_atom_site_fract_z
Si Si1 0.099204 0.480154 0.594577
Si Si2 0.887510 0.185220 0.371057
Si Si3 0.974638 0.062158 0.651546
Si Si4 0.797353 0.739841 0.775026
Si Si5 0.844933 0.400987 0.934232
Si Si6 0.500000 0.000000 0.500000
Si Si7 0.468502 0.333302 0.919330
Si Si8 0.868488 0.879564 0.164382
O O1 0.493480 0.333322 0.483464
O O2 0.000000 0.500000 0.500000
O O3 0.946514 0.639149 0.637821
O O4 0.978752 0.437209 0.763709
O O5 0.019213 0.087485 0.484481
O O6 0.001115 0.251407 0.279489
O O7 0.022196 0.056764 0.281929
O O8 0.636278 0.242897 0.766081
O O9 0.273242 0.990333 0.612950
O O10 0.429595 0.927706 0.825460
O O11 0.761048 0.663390 0.925673
O O12 0.085969 0.212612 0.910710
O O13 0.500000 0.500000 0.000000
O O14 0.736262 0.486449 0.062168
O O15 0.741556 0.867922 0.348201
O O16 0.781672 0.212979 0.922330
#
# Coordination Sequence:
#
# PCOD9077733 Si02
#       8
#     2   2   2   2   2   1   2   2
#     4  11  26  42  66  94 130 166 216 267 324 381
#     4  11  24  42  64  95 130 167 212 269 324 378
#     4  10  22  40  68  94 125 165 222 259 313 383
#     4  11  23  41  62  94 134 168 204 269 331 371
#     4   9  20  40  61  94 125 163 217 262 312 372
#     4  10  18  34  64 100 112 164 214 262 300 368
#     4   9  21  39  62  94 129 166 212 261 320 376
#     4  10  19  34  67  93 127 165 220 260 305 382
#
# _framework density 23.765756
#
# number of rings (size 3 to 8) (size 9 to 14) (size 15 to 20)
#    0.000    1.867    1.333    1.600    7.467    1.600 
#    0.000    4.000    0.000    0.000    0.000    0.000 
#    0.000    0.000    0.000    0.000    0.000    0.000 
#
# Total GULP energy -83584.266037 kJ/mol
# GULP energy per Si atom -5572.284402 kJ/mol
# Density = 2.371166 g / cm^3
# Si number density = 23.765756 Si / 1000 Ang^3
#
#
#
# Elastic Constant Matrix: (Units=GPa)
#
#
# Indices 1 2 3 4 5 6 
#
# 1 157.1163 51.9147 43.4948 11.0659 -10.5511 26.9333
# 2 51.9147 82.8346 -2.5332 21.3706 17.3503 24.6857
# 3 43.4948 -2.5332 56.0158 11.7374 -7.3563 21.0027
# 4 11.0659 21.3706 11.7374 31.8800 11.6062 11.5684
# 5 -10.5511 17.3503 -7.3563 11.6062 26.6815 11.6961
# 6 26.9333 24.6857 21.0027 11.5684 11.6961 52.3648
#
#
#
# Elastic Compliance Matrix: (Units=1/GPa)
#
#
# Indices 1 2 3 4 5 6 
#
# 1 0.013337 -0.011447 -0.010757 0.004058 0.007904 0.000189
# 2 -0.011447 0.027503 0.014895 -0.013841 -0.008760 -0.008038
# 3 -0.010757 0.014895 0.037990 -0.018902 0.011372 -0.015091
# 4 0.004058 -0.013841 -0.018902 0.051362 -0.019115 0.004942
# 5 0.007904 -0.008760 0.011372 -0.019115 0.064153 -0.014603
# 6 0.000189 -0.008038 -0.015091 0.004942 -0.014603 0.031012
#
#
# Mechanical properties :
#
#
# Convention : Reuss Voigt Hill
#
# Bulk Modulus (GPa) = 15.57284 53.52437 34.54860
# Shear Modulus (GPa) = 19.12938 35.72461 27.42699
#
# Velocity S-wave (km/s) = 2.84018 3.88131 3.40082
# Velocity P-wave (km/s) = 4.16201 6.53121 5.47627
#
# Compressibility (1/GPa) = 0.06421437
#
# Stress axis : x y z
#
# Youngs Moduli (GPa) = 74.97720 36.35999 26.32244
#
# Poissons Ratio (x) = 0.41620 0.28315
# Poissons Ratio (y) = 0.85823 -0.39208
# Poissons Ratio (z) = 0.80651 -0.54159
#
# Static dielectric constant tensor:
#      x y z
#    x 1.976290 0.009930 0.062460 
#    y 0.009930 1.935710 0.000710 
#    z 0.062460 0.000710 1.909630 
# 
# From -- ./inp_files/357587.got.cif
#   From: 2010.05.17/outbox.cif.g08.bks.cpg/sg2_179_cif.got.tgz:357587.got - 2010.06.03 11:33:40.
