data_PCOD9077751
_publ_section_title
;
Structure prediction by ZEFSAII (Michael W. Deem and Ramdas Pophale) SiO2 
 PCOD9077751
Probable space group: P -1
;
_chemical_formula_sum "Si O2"
_cell_formula_units_Z 13
_cell_length_a 11.755624
_cell_length_b 8.336582
_cell_length_c 7.679314
_cell_angle_alpha 108.069165
_cell_angle_beta 138.308483
_cell_angle_gamma 76.288838
_cell_volume 475.856186
_symmetry_space_group_name_H-M "P -1"
_symmetry_group_IT_number 2
_symmetry_cell_setting 'triclinic'
loop_
_space_group_symop_operation_xyz
x,y,z
-x,-y,-z
loop_
_atom_site_type_symbol
_atom_site_label
_atom_site_fract_x
_atom_site_fract_y
_atom_site_fract_z
Si Si1 0.068223 0.553485 0.282582
Si Si2 0.794519 0.333982 0.011364
Si Si3 0.500000 0.500000 0.500000
Si Si4 0.543709 0.876066 0.810781
Si Si5 0.213699 0.015221 0.329280
Si Si6 0.909977 0.898477 0.137849
Si Si7 0.610177 0.349946 0.157625
O O1 0.272713 0.561287 0.529227
O O2 0.998416 0.742646 0.282950
O O3 0.000000 0.500000 0.000000
O O4 0.976647 0.425408 0.261946
O O5 0.660692 0.460976 0.808340
O O6 0.804960 0.168092 0.847957
O O7 0.730168 0.296486 0.118013
O O8 0.534897 0.706024 0.626065
O O9 0.405705 0.007621 0.616380
O O10 0.481302 0.801159 0.898858
O O11 0.736794 0.939558 0.054908
O O12 0.069445 0.020049 0.315941
O O13 0.165688 0.138159 0.157131
O O14 0.500000 0.500000 0.000000
#
# Coordination Sequence:
#
# PCOD9077751 Si02
#       7
#     2   2   1   2   2   2   2
#     4  12  22  40  67  96 124 165 219 263 316 381
#     4  11  22  39  63  94 130 165 212 266 320 378
#     4  10  18  34  64  90 122 160 210 262 304 372
#     4  11  21  37  61  93 128 168 210 265 318 380
#     4  10  23  40  63  93 126 167 222 263 314 379
#     4  11  21  39  67  90 124 170 221 263 313 378
#     4  12  24  39  61  99 138 164 204 272 332 376
#
# _framework density 27.319178000000001
#
# number of rings (size 3 to 8) (size 9 to 14) (size 15 to 20)
#    0.000    0.923    6.154    1.846    0.000    0.000 
#    0.000    1.538    0.000    0.000    0.000    0.000 
#    0.000    0.000    0.000    0.000    0.000    0.000 
#
# Total GULP energy -72612.515660 kJ/mol
# GULP energy per Si atom -5585.578128 kJ/mol
# Density = 2.725700 g / cm^3
# Si number density = 27.319178 Si / 1000 Ang^3
#
#
#
# Elastic Constant Matrix: (Units=GPa)
#
#
# Indices 1 2 3 4 5 6 
#
# 1 135.8026 20.0197 24.1583 3.0795 16.1959 42.9519
# 2 20.0197 71.3510 26.0306 -17.1044 1.5762 10.5848
# 3 24.1583 26.0306 135.1164 -22.7891 3.6739 -10.4397
# 4 3.0795 -17.1044 -22.7891 44.0211 -7.4947 4.3655
# 5 16.1959 1.5762 3.6739 -7.4947 40.4047 0.4267
# 6 42.9519 10.5848 -10.4397 4.3655 0.4267 37.9014
#
#
#
# Elastic Compliance Matrix: (Units=1/GPa)
#
#
# Indices 1 2 3 4 5 6 
#
# 1 0.014124 -0.000539 -0.003985 -0.002564 -0.005579 -0.016595
# 2 -0.000539 0.017455 -0.002697 0.006159 0.000983 -0.005727
# 3 -0.003985 -0.002697 0.009818 0.003813 0.001437 0.007518
# 4 -0.002564 0.006159 0.003813 0.028343 0.005710 -0.001093
# 5 -0.005579 0.000983 0.001437 0.005710 0.027818 0.005473
# 6 -0.016595 -0.005727 0.007518 -0.001093 0.005473 0.048925
#
#
# Mechanical properties :
#
#
# Convention : Reuss Voigt Hill
#
# Bulk Modulus (GPa) = 37.09748 53.63192 45.36470
# Shear Modulus (GPa) = 29.42765 42.60286 36.01525
#
# Velocity S-wave (km/s) = 3.28560 3.95327 3.63480
# Velocity P-wave (km/s) = 5.29172 6.36490 5.85296
#
# Compressibility (1/GPa) = 0.02695601
#
# Stress axis : x y z
#
# Youngs Moduli (GPa) = 70.80126 57.29146 101.85577
#
# Poissons Ratio (x) = 0.03087 0.40585
# Poissons Ratio (y) = 0.03816 0.27468
# Poissons Ratio (z) = 0.28211 0.15450
#
# Static dielectric constant tensor:
#      x y z
#    x 2.471950 -0.056900 -0.109800 
#    y -0.056900 2.105510 0.051790 
#    z -0.109800 0.051790 2.203260 
# 
# From -- ./inp_files/194092.got.cif
#   From: 2010.05.17/outbox.cif.g08.bks.cpg/sg2_98_cif.got.tgz:194092.got - 2010.06.03 11:33:40.
