data_PCOD9077293
_publ_section_title
;
Structure prediction by ZEFSAII (Michael W. Deem and Ramdas Pophale) SiO2 
 PCOD9077293
Probable space group: P -1
;
_chemical_formula_sum "Si O2"
_cell_formula_units_Z 10
_cell_length_a 7.279932
_cell_length_b 9.696683
_cell_length_c 8.735525
_cell_angle_alpha 59.204850
_cell_angle_beta 121.343623
_cell_angle_gamma 133.677774
_cell_volume 369.069374
_symmetry_space_group_name_H-M "P -1"
_symmetry_group_IT_number 2
_symmetry_cell_setting 'triclinic'
loop_
_space_group_symop_operation_xyz
x,y,z
-x,-y,-z
loop_
_atom_site_type_symbol
_atom_site_label
_atom_site_fract_x
_atom_site_fract_y
_atom_site_fract_z
Si Si1 0.700765 0.903709 0.188809
Si Si2 0.414927 0.996074 0.227948
Si Si3 0.501711 0.628429 0.791970
Si Si4 0.277494 0.468566 0.303440
Si Si5 0.992533 0.698352 0.433958
O O1 0.654877 0.995995 0.262939
O O2 0.412684 0.687182 0.170741
O O3 0.906682 0.849158 0.324705
O O4 0.742372 0.019949 0.984990
O O5 0.252385 0.816883 0.376658
O O6 0.466836 0.183484 0.231668
O O7 0.734174 0.669703 0.754575
O O8 0.233654 0.483259 0.662928
O O9 0.500000 0.500000 0.000000
O O10 0.500000 0.500000 0.500000
O O11 0.032971 0.382233 0.359401
#
# Coordination Sequence:
#
# PCOD9077293 Si02
#       5
#     2   2   2   2   2
#     4   9  19  35  54  82 111 137 178 227 261 313
#     4  11  20  34  59  82 105 143 182 220 265 316
#     4  10  18  34  58  81 106 141 183 218 261 324
#     4   8  17  36  54  76 113 143 168 222 274 309
#     4  10  21  38  57  77 112 146 171 220 278 311
#
# _framework density 27.095179000000002
#
# number of rings (size 3 to 8) (size 9 to 14) (size 15 to 20)
#    0.000    2.800    4.000    0.600    0.000    1.600 
#    0.000   17.000    0.000    0.000    0.000    0.000 
#    0.000    0.000    0.000    0.000    0.000    0.000 
#
# Total GULP energy -56015.163142 kJ/mol
# GULP energy per Si atom -5601.516314 kJ/mol
# Density = 2.703351 g / cm^3
# Si number density = 27.095179 Si / 1000 Ang^3
#
#
#
# Elastic Constant Matrix: (Units=GPa)
#
#
# Indices 1 2 3 4 5 6 
#
# 1 130.9460 49.1467 49.6517 16.4896 -50.0204 -32.4844
# 2 49.1467 162.4794 34.1292 12.0137 -17.7685 -40.1911
# 3 49.6517 34.1292 134.2994 -7.5154 -42.5277 -1.8126
# 4 16.4896 12.0137 -7.5154 37.8944 -14.3293 -5.9234
# 5 -50.0204 -17.7685 -42.5277 -14.3293 49.3586 3.8189
# 6 -32.4844 -40.1911 -1.8126 -5.9234 3.8189 56.4462
#
#
#
# Elastic Compliance Matrix: (Units=1/GPa)
#
#
# Indices 1 2 3 4 5 6 
#
# 1 0.015542 -0.001213 -0.000960 -0.000214 0.013876 0.007089
# 2 -0.001213 0.008206 -0.001995 -0.002068 -0.000976 0.004930
# 3 -0.000960 -0.001995 0.012225 0.007438 0.011121 -0.001553
# 4 -0.000214 -0.002068 0.007438 0.034631 0.015405 0.001235
# 5 0.013876 -0.000976 0.011121 0.015405 0.047557 0.006047
# 6 0.007089 0.004930 -0.001553 0.001235 0.006047 0.024976
#
#
# Mechanical properties :
#
#
# Convention : Reuss Voigt Hill
#
# Bulk Modulus (GPa) = 36.18321 77.06443 56.62382
# Shear Modulus (GPa) = 31.11645 48.39298 39.75471
#
# Velocity S-wave (km/s) = 3.39250 4.23074 3.83459
# Velocity P-wave (km/s) = 5.35990 7.23667 6.36781
#
# Compressibility (1/GPa) = 0.02763713
#
# Stress axis : x y z
#
# Youngs Moduli (GPa) = 64.34217 121.85808 81.79964
#
# Poissons Ratio (x) = 0.14778 0.07853
# Poissons Ratio (y) = 0.07803 0.16321
# Poissons Ratio (z) = 0.06177 0.24314
#
# Static dielectric constant tensor:
#      x y z
#    x 2.253550 0.057470 0.006970 
#    y 0.057470 2.147570 -0.012070 
#    z 0.006970 -0.012070 2.044600 
# 
# From -- ./inp_files/144335.got.cif
#   From: 2010.05.17/outbox.cif.g08.bks.cpg/sg2_73_cif.got.tgz:144335.got - 2010.06.03 11:33:40.
