data_PCOD9077419
_publ_section_title
;
Structure prediction by ZEFSAII (Michael W. Deem and Ramdas Pophale) SiO2 
 PCOD9077419
Probable space group: P -1
;
_chemical_formula_sum "Si O2"
_cell_formula_units_Z 16
_cell_length_a 14.322916
_cell_length_b 8.604051
_cell_length_c 8.938344
_cell_angle_alpha 73.587830
_cell_angle_beta 57.338863
_cell_angle_gamma 115.517921
_cell_volume 615.241344
_symmetry_space_group_name_H-M "P -1"
_symmetry_group_IT_number 2
_symmetry_cell_setting 'triclinic'
loop_
_space_group_symop_operation_xyz
x,y,z
-x,-y,-z
loop_
_atom_site_type_symbol
_atom_site_label
_atom_site_fract_x
_atom_site_fract_y
_atom_site_fract_z
Si Si1 0.720776 0.085782 0.238472
Si Si2 0.852775 0.128772 0.660962
Si Si3 0.920066 0.676852 0.125074
Si Si4 0.018595 0.030903 0.719860
Si Si5 0.439613 0.755844 0.352721
Si Si6 0.671740 0.526259 0.766210
Si Si7 0.573438 0.889477 0.745348
Si Si8 0.834459 0.407891 0.820834
O O1 0.584351 0.858673 0.311258
O O2 0.909670 0.238127 0.040152
O O3 0.649644 0.984395 0.490978
O O4 0.736490 0.279173 0.093120
O O5 0.693139 0.974919 0.750737
O O6 0.845607 0.245757 0.774672
O O7 0.906640 0.014154 0.711054
O O8 0.987117 0.341199 0.375444
O O9 0.929716 0.785300 0.932789
O O10 0.939803 0.816279 0.212772
O O11 0.740724 0.418563 0.373553
O O12 0.194696 0.195897 0.449322
O O13 0.418460 0.610072 0.273018
O O14 0.481844 0.984034 0.203491
O O15 0.774362 0.471756 0.731548
O O16 0.555491 0.391890 0.046290
#
# Coordination Sequence:
#
# PCOD9077419 Si02
#       8
#     2   2   2   2   2   2   2   2
#     4  12  24  38  58  90 127 160 187 244 303 356
#     4  10  19  34  61  88 114 154 200 244 295 344
#     4  10  22  42  62  89 118 154 206 245 291 350
#     4   9  20  41  64  86 113 156 204 253 284 339
#     4  11  22  39  64  89 121 156 194 249 295 349
#     4  10  20  37  61  88 121 149 197 249 290 350
#     4  12  23  36  56  95 123 154 193 240 306 359
#     4  10  18  34  59  88 118 152 193 245 300 350
#
# _framework density 26.006053999999999
#
# number of rings (size 3 to 8) (size 9 to 14) (size 15 to 20)
#    0.000    1.500    3.750    2.250    0.000    2.000 
#    4.500    3.125    0.000    0.000    0.000    0.000 
#    0.000    0.000    0.000    0.000    0.000    0.000 
#
# Total GULP energy -89405.223050 kJ/mol
# GULP energy per Si atom -5587.826441 kJ/mol
# Density = 2.594686 g / cm^3
# Si number density = 26.006054 Si / 1000 Ang^3
#
#
#
# Elastic Constant Matrix: (Units=GPa)
#
#
# Indices 1 2 3 4 5 6 
#
# 1 95.3649 20.9253 33.1182 -11.9965 10.2976 22.9035
# 2 20.9253 53.0814 32.1334 3.4524 5.6676 8.0767
# 3 33.1182 32.1334 192.4233 -9.4162 17.2536 26.2213
# 4 -11.9965 3.4524 -9.4162 37.8744 7.1290 -3.4338
# 5 10.2976 5.6676 17.2536 7.1290 39.5186 -5.1191
# 6 22.9035 8.0767 26.2213 -3.4338 -5.1191 25.2096
#
#
#
# Elastic Compliance Matrix: (Units=1/GPa)
#
#
# Indices 1 2 3 4 5 6 
#
# 1 0.016142 -0.004253 0.000848 0.005668 -0.006908 -0.014815
# 2 -0.004253 0.022844 -0.003180 -0.004268 -0.000107 -0.000750
# 3 0.000848 -0.003180 0.007142 0.002448 -0.004325 -0.007725
# 4 0.005668 -0.004268 0.002448 0.030338 -0.007899 -0.003800
# 5 -0.006908 -0.000107 -0.004325 -0.007899 0.032550 0.016343
# 6 -0.014815 -0.000750 -0.007725 -0.003800 0.016343 0.064204
#
#
# Mechanical properties :
#
#
# Convention : Reuss Voigt Hill
#
# Bulk Modulus (GPa) = 30.34241 57.02482 43.68362
# Shear Modulus (GPa) = 25.33212 37.50001 31.41607
#
# Velocity S-wave (km/s) = 3.12442 3.80145 3.47944
# Velocity P-wave (km/s) = 4.97079 6.42208 5.74247
#
# Compressibility (1/GPa) = 0.03295717
#
# Stress axis : x y z
#
# Youngs Moduli (GPa) = 61.94985 43.77567 140.01046
#
# Poissons Ratio (x) = 0.18620 -0.11869
# Poissons Ratio (y) = 0.26350 0.44520
# Poissons Ratio (z) = -0.05251 0.13920
#
# Static dielectric constant tensor:
#      x y z
#    x 2.087200 -0.019100 -0.112940 
#    y -0.019100 2.031890 0.019590 
#    z -0.112940 0.019590 2.121370 
# 
# From -- ./inp_files/179197.got.cif
#   From: 2010.05.17/outbox.cif.g08.bks.cpg/sg2_90_cif.got.tgz:179197.got - 2010.06.03 11:33:40.
