data_PCOD9077174
_publ_section_title
;
Structure prediction by ZEFSAII (Michael W. Deem and Ramdas Pophale) SiO2 
 PCOD9077174
Probable space group: P -1
;
_chemical_formula_sum "Si O2"
_cell_formula_units_Z 12
_cell_length_a 11.990987
_cell_length_b 4.878244
_cell_length_c 9.129689
_cell_angle_alpha 109.764886
_cell_angle_beta 117.077603
_cell_angle_gamma 69.680727
_cell_volume 435.419848
_symmetry_space_group_name_H-M "P -1"
_symmetry_group_IT_number 2
_symmetry_cell_setting 'triclinic'
loop_
_space_group_symop_operation_xyz
x,y,z
-x,-y,-z
loop_
_atom_site_type_symbol
_atom_site_label
_atom_site_fract_x
_atom_site_fract_y
_atom_site_fract_z
Si Si1 0.554829 0.875899 0.230574
Si Si2 0.874734 0.180617 0.874214
Si Si3 0.205695 0.568882 0.736439
Si Si4 0.706515 0.772485 0.833800
Si Si5 0.644921 0.474869 0.455384
Si Si6 0.958019 0.835683 0.306437
O O1 0.414850 0.031442 0.116906
O O2 0.625519 0.142625 0.357920
O O3 0.654531 0.613955 0.156844
O O4 0.537019 0.710536 0.342765
O O5 0.810284 0.523958 0.938328
O O6 0.772579 0.986901 0.814580
O O7 0.926806 0.214146 0.748812
O O8 0.000000 0.000000 0.000000
O O9 0.230405 0.504321 0.565220
O O10 0.163215 0.923049 0.793285
O O11 0.091179 0.440276 0.708826
O O12 0.651242 0.576458 0.642535
O O13 0.000000 0.000000 0.500000
#
# Coordination Sequence:
#
# PCOD9077174 Si02
#       6
#     2   2   2   2   2   2
#     4  10  20  34  61  97 134 153 198 265 333 366
#     4  12  28  44  63  88 127 176 216 254 302 371
#     4  10  20  35  59  91 128 149 199 259 320 362
#     4  12  22  40  64  88 127 169 213 254 316 376
#     4  10  18  34  57 103 129 152 196 257 334 368
#     4  12  22  40  62  91 123 165 210 256 310 366
#
# _framework density 27.559604
#
# number of rings (size 3 to 8) (size 9 to 14) (size 15 to 20)
#    1.000    0.000    1.667    7.000    0.000    0.000 
#    0.000    0.000    0.000    6.000    0.000    0.000 
#    0.000    0.000    0.000    0.000    0.000    0.000 
#
# Total GULP energy -67235.666373 kJ/mol
# GULP energy per Si atom -5602.972198 kJ/mol
# Density = 2.749688 g / cm^3
# Si number density = 27.559604 Si / 1000 Ang^3
#
#
#
# Elastic Constant Matrix: (Units=GPa)
#
#
# Indices 1 2 3 4 5 6 
#
# 1 163.7906 53.2487 30.3596 1.9868 8.5215 2.7471
# 2 53.2487 203.2608 27.2566 -18.9224 17.0130 7.0401
# 3 30.3596 27.2566 69.5515 -17.6281 -5.9874 -3.6642
# 4 1.9868 -18.9224 -17.6281 44.8188 -5.2121 11.9877
# 5 8.5215 17.0130 -5.9874 -5.2121 37.0835 -5.4957
# 6 2.7471 7.0401 -3.6642 11.9877 -5.4957 68.5547
#
#
#
# Elastic Compliance Matrix: (Units=1/GPa)
#
#
# Indices 1 2 3 4 5 6 
#
# 1 0.007373 -0.001550 -0.003419 -0.002539 -0.001896 -0.000027
# 2 -0.001550 0.005956 -0.001414 0.002054 -0.002491 -0.001184
# 3 -0.003419 -0.001414 0.018828 0.007496 0.005591 0.000426
# 4 -0.002539 0.002054 0.007496 0.027858 0.004137 -0.004248
# 5 -0.001896 -0.002491 0.005591 0.004137 0.030376 0.002342
# 6 -0.000027 -0.001184 0.000426 -0.004248 0.002342 0.015663
#
#
# Mechanical properties :
#
#
# Convention : Reuss Voigt Hill
#
# Bulk Modulus (GPa) = 51.56901 73.14809 62.35855
# Shear Modulus (GPa) = 39.90941 51.80726 45.85834
#
# Velocity S-wave (km/s) = 3.80954 4.34040 4.08360
# Velocity P-wave (km/s) = 6.17272 7.19153 6.70152
#
# Compressibility (1/GPa) = 0.01939149
#
# Stress axis : x y z
#
# Youngs Moduli (GPa) = 135.63267 167.89351 53.11187
#
# Poissons Ratio (x) = 0.26019 0.18160
# Poissons Ratio (y) = 0.21019 0.07510
# Poissons Ratio (z) = 0.46376 0.23739
#
# Static dielectric constant tensor:
#      x y z
#    x 2.128180 -0.041380 0.004770 
#    y -0.041380 2.131620 -0.090430 
#    z 0.004770 -0.090430 2.253150 
# 
# From -- ./inp_files/407950.got.cif
#   From: 2010.05.17/outbox.cif.g08.bks.cpg/sg2_204_cif.got.tgz:407950.got - 2010.06.03 11:33:40.
