data_PCOD9077904
_publ_section_title
;
Structure prediction by ZEFSAII (Michael W. Deem and Ramdas Pophale) SiO2 
 PCOD9077904
Probable space group: P -1
;
_chemical_formula_sum "Si O2"
_cell_formula_units_Z 16
_cell_length_a 9.132558
_cell_length_b 16.965126
_cell_length_c 7.588122
_cell_angle_alpha 101.149247
_cell_angle_beta 36.469507
_cell_angle_gamma 91.525038
_cell_volume 668.667204
_symmetry_space_group_name_H-M "P -1"
_symmetry_group_IT_number 2
_symmetry_cell_setting 'triclinic'
loop_
_space_group_symop_operation_xyz
x,y,z
-x,-y,-z
loop_
_atom_site_type_symbol
_atom_site_label
_atom_site_fract_x
_atom_site_fract_y
_atom_site_fract_z
Si Si1 0.667656 0.367878 0.222047
Si Si2 0.921214 0.671710 0.894480
Si Si3 0.710693 0.190908 0.990155
Si Si4 0.980431 0.035685 0.838111
Si Si5 0.463701 0.064159 0.274739
Si Si6 0.049838 0.806311 0.610335
Si Si7 0.217105 0.478111 0.928932
Si Si8 0.551260 0.836178 0.306771
O O1 0.912563 0.336327 0.093316
O O2 0.484156 0.142453 0.169745
O O3 0.455402 0.420127 0.576782
O O4 0.718497 0.433894 0.056554
O O5 0.061918 0.712357 0.624074
O O6 0.869200 0.581612 0.871220
O O7 0.665192 0.740692 0.208191
O O8 0.448474 0.101689 0.505438
O O9 0.745529 0.009934 0.959844
O O10 0.884159 0.136325 0.951459
O O11 0.240156 0.017342 0.471861
O O12 0.397122 0.714158 0.825773
O O13 0.000000 0.000000 0.000000
O O14 0.110672 0.813861 0.352033
O O15 0.770765 0.847597 0.965924
O O16 0.274742 0.839801 0.500655
O O17 0.000000 0.500000 0.000000
#
# Coordination Sequence:
#
# PCOD9077904 Si02
#       8
#     2   2   2   2   2   2   2   2
#     4  10  18  35  55  87 112 148 206 239 288 339
#     4   9  18  31  58  77 115 153 193 233 291 336
#     4  10  23  34  61  89 116 153 194 247 288 352
#     4  10  22  38  62  93 120 148 190 248 295 335
#     4  10  20  35  65  85 110 154 201 233 276 353
#     4  10  22  34  55  85 126 149 192 242 301 333
#     4   9  18  31  53  83 117 150 190 253 284 333
#     4  10  20  37  57  87 114 157 200 235 280 348
#
# _framework density 23.928196
#
# number of rings (size 3 to 8) (size 9 to 14) (size 15 to 20)
#    1.500    0.750    0.000    4.125    1.750    1.000 
#    0.000    0.625    0.000   12.000    0.000    0.000 
#    0.000    0.000    0.000    0.000    0.000    0.000 
#
# Total GULP energy -89205.386283 kJ/mol
# GULP energy per Si atom -5575.336643 kJ/mol
# Density = 2.387373 g / cm^3
# Si number density = 23.928196 Si / 1000 Ang^3
#
#
#
# Elastic Constant Matrix: (Units=GPa)
#
#
# Indices 1 2 3 4 5 6 
#
# 1 48.2860 25.0125 56.0186 3.7511 1.8658 -15.9287
# 2 25.0125 216.4740 76.5456 0.2985 2.7774 -32.9291
# 3 56.0186 76.5456 69.2890 -64.3760 -0.1182 12.4952
# 4 3.7511 0.2985 -64.3760 31.5938 1.8141 1.2737
# 5 1.8658 2.7774 -0.1182 1.8141 36.2786 -16.6533
# 6 -15.9287 -32.9291 12.4952 1.2737 -16.6533 10.7074
#
#
#
# Elastic Compliance Matrix: (Units=1/GPa)
#
#
# Indices 1 2 3 4 5 6 
#
# 1 0.013493 -0.004844 0.004992 0.009352 -0.005536 -0.010372
# 2 -0.004844 0.005129 0.003744 0.007602 0.003498 0.008735
# 3 0.004992 0.003744 0.004566 0.006018 0.017794 0.040571
# 4 0.009352 0.007602 0.006018 0.037965 0.031040 0.074028
# 5 -0.005536 0.003498 0.017794 0.031040 0.055999 0.065162
# 6 -0.010372 0.008735 0.040571 0.074028 0.065162 0.150023
#
#
# Mechanical properties :
#
#
# Convention : Reuss Voigt Hill
#
# Bulk Modulus (GPa) = 32.28756 72.13362 52.21059
# Shear Modulus (GPa) = 18.53804 27.48077 23.00941
#
# Velocity S-wave (km/s) = 2.78643 3.39258 3.10434
# Velocity P-wave (km/s) = 4.88621 6.74963 5.89205
#
# Compressibility (1/GPa) = 0.03097168
#
# Stress axis : x y z
#
# Youngs Moduli (GPa) = 74.11122 194.97554 219.01331
#
# Poissons Ratio (x) = 0.94446 -1.09337
# Poissons Ratio (y) = 0.35899 -0.81989
# Poissons Ratio (z) = -0.36998 -0.72990
#
# Static dielectric constant tensor:
#      x y z
#    x 1.943650 0.010700 -0.049350 
#    y 0.010700 2.017420 -0.024200 
#    z -0.049350 -0.024200 1.962560 
# 
# From -- ./inp_files/538562.got.cif
#   From: 2010.05.17/outbox.cif.g08.bks.cpg/sg2_270_cif.got.tgz:538562.got - 2010.06.03 11:33:40.
