data_PCOD9077737
_publ_section_title
;
Structure prediction by ZEFSAII (Michael W. Deem and Ramdas Pophale) SiO2 
 PCOD9077737
Probable space group: P -1
;
_chemical_formula_sum "Si O2"
_cell_formula_units_Z 12
_cell_length_a 13.490263
_cell_length_b 9.319475
_cell_length_c 9.680683
_cell_angle_alpha 117.412996
_cell_angle_beta 133.451119
_cell_angle_gamma 32.974307
_cell_volume 459.486226
_symmetry_space_group_name_H-M "P -1"
_symmetry_group_IT_number 2
_symmetry_cell_setting 'triclinic'
loop_
_space_group_symop_operation_xyz
x,y,z
-x,-y,-z
loop_
_atom_site_type_symbol
_atom_site_label
_atom_site_fract_x
_atom_site_fract_y
_atom_site_fract_z
Si Si1 0.591779 0.046141 0.450801
Si Si2 0.220503 0.306098 0.021708
Si Si3 0.953691 0.462685 0.585961
Si Si4 0.689190 0.426644 0.899835
Si Si5 0.055849 0.023144 0.296430
Si Si6 0.740250 0.376947 0.458354
O O1 0.766493 0.998766 0.516364
O O2 0.409599 0.344481 0.477376
O O3 0.755683 0.782569 0.591222
O O4 0.452319 0.056156 0.223050
O O5 0.156448 0.266292 0.806940
O O6 0.270356 0.435706 0.064010
O O7 0.000000 0.500000 0.000000
O O8 0.850264 0.382360 0.447830
O O9 0.000000 0.500000 0.500000
O O10 0.810259 0.195708 0.800055
O O11 0.431838 0.599699 0.742175
O O12 0.817472 0.294202 0.110631
O O13 0.070733 0.880448 0.371187
#
# Coordination Sequence:
#
# PCOD9077737 Si02
#       6
#     2   2   2   2   2   2
#     4  11  21  39  69  94 126 166 214 265 312 375
#     4  12  22  39  69 100 123 167 218 260 314 379
#     4  12  28  44  60  94 138 169 209 265 321 375
#     4  10  19  33  62  98 127 155 207 267 316 367
#     4  10  18  34  64 100 126 151 207 275 312 359
#     4  11  21  39  66  97 122 164 213 263 314 375
#
# _framework density 26.116128
#
# number of rings (size 3 to 8) (size 9 to 14) (size 15 to 20)
#    0.000    1.000    6.667    1.500    0.000    2.000 
#    0.000    1.667    0.000    0.000    0.000    0.000 
#    0.000    0.000    0.000    0.000    0.000    0.000 
#
# Total GULP energy -67161.168496 kJ/mol
# GULP energy per Si atom -5596.764041 kJ/mol
# Density = 2.605669 g / cm^3
# Si number density = 26.116128 Si / 1000 Ang^3
#
#
#
# Elastic Constant Matrix: (Units=GPa)
#
#
# Indices 1 2 3 4 5 6 
#
# 1 215.7958 27.0698 81.4878 -12.3093 1.6842 26.6335
# 2 27.0698 70.7811 1.8860 -9.9721 2.6856 21.0333
# 3 81.4878 1.8860 187.8919 -6.9609 -0.5980 7.6898
# 4 -12.3093 -9.9721 -6.9609 35.9956 3.0861 0.3477
# 5 1.6842 2.6856 -0.5980 3.0861 46.8255 5.9583
# 6 26.6335 21.0333 7.6898 0.3477 5.9583 42.8715
#
#
#
# Elastic Compliance Matrix: (Units=1/GPa)
#
#
# Indices 1 2 3 4 5 6 
#
# 1 0.006151 -0.001287 -0.002494 0.001284 0.000088 -0.002765
# 2 -0.001287 0.017656 0.000883 0.004721 -0.000245 -0.008026
# 3 -0.002494 0.000883 0.006421 0.000627 0.000086 -0.000053
# 4 0.001284 0.004721 0.000627 0.029840 -0.001867 -0.003209
# 5 0.000088 -0.000245 0.000086 -0.001867 0.021869 -0.002974
# 6 -0.002765 -0.008026 -0.000053 -0.003209 -0.002974 0.029430
#
#
# Mechanical properties :
#
#
# Convention : Reuss Voigt Hill
#
# Bulk Modulus (GPa) = 40.92773 77.26178 59.09475
# Shear Modulus (GPa) = 39.90260 49.40686 44.65473
#
# Velocity S-wave (km/s) = 3.91307 4.35422 4.13952
# Velocity P-wave (km/s) = 6.01012 7.41128 6.74717
#
# Compressibility (1/GPa) = 0.02443331
#
# Stress axis : x y z
#
# Youngs Moduli (GPa) = 162.57774 56.63842 155.75110
#
# Poissons Ratio (x) = 0.07287 0.38839
# Poissons Ratio (y) = 0.20918 -0.13758
# Poissons Ratio (z) = 0.40542 -0.05003
#
# Static dielectric constant tensor:
#      x y z
#    x 2.077910 -0.195310 -0.037240 
#    y -0.195310 2.306050 0.119590 
#    z -0.037240 0.119590 2.030430 
# 
# From -- ./inp_files/173926.got.cif
#   From: 2010.05.17/outbox.cif.g08.bks.cpg/sg2_87_cif.got.tgz:173926.got - 2010.06.03 11:33:40.
