data_PCOD9077405
_publ_section_title
;
Structure prediction by ZEFSAII (Michael W. Deem and Ramdas Pophale) SiO2 
 PCOD9077405
Probable space group: P -1
;
_chemical_formula_sum "Si O2"
_cell_formula_units_Z 16
_cell_length_a 9.583004
_cell_length_b 18.637427
_cell_length_c 18.157354
_cell_angle_alpha 155.938618
_cell_angle_beta 137.994638
_cell_angle_gamma 38.315350
_cell_volume 815.181886
_symmetry_space_group_name_H-M "P -1"
_symmetry_group_IT_number 2
_symmetry_cell_setting 'triclinic'
loop_
_space_group_symop_operation_xyz
x,y,z
-x,-y,-z
loop_
_atom_site_type_symbol
_atom_site_label
_atom_site_fract_x
_atom_site_fract_y
_atom_site_fract_z
Si Si1 0.838887 0.771182 0.064397
Si Si2 0.048722 0.381555 0.203701
Si Si3 0.395779 0.087261 0.620130
Si Si4 0.720006 0.365018 0.503779
Si Si5 0.504562 0.911462 0.839546
Si Si6 0.555642 0.409742 0.020141
Si Si7 0.774249 0.219761 0.683801
Si Si8 0.102276 0.632446 0.273614
O O1 0.013518 0.851058 0.243100
O O2 0.583955 0.928564 0.108040
O O3 0.897659 0.702800 0.938275
O O4 0.874735 0.576682 0.939436
O O5 0.077862 0.583913 0.401766
O O6 0.242523 0.250981 0.214062
O O7 0.798542 0.395004 0.129668
O O8 0.537844 0.204249 0.817846
O O9 0.140835 0.251551 0.675212
O O10 0.500000 0.000000 0.500000
O O11 0.366528 0.914115 0.490526
O O12 0.500000 0.500000 0.500000
O O13 0.697955 0.164707 0.305209
O O14 0.712444 0.410904 0.630148
O O15 0.500000 0.000000 0.000000
O O16 0.500000 0.500000 0.000000
O O17 0.374540 0.566528 0.146999
O O18 0.861162 0.239256 0.655531
#
# Coordination Sequence:
#
# PCOD9077405 Si02
#       8
#     2   2   2   2   2   2   2   2
#     4  10  18  34  59  86 121 160 199 254 308 359
#     4   9  18  34  56  87 123 153 204 261 297 358
#     4  12  24  38  61  90 125 169 210 250 311 376
#     4   9  18  35  61  87 115 156 206 259 299 365
#     4   9  18  32  56  90 115 153 209 260 305 350
#     4  12  21  39  60  91 129 166 208 253 312 373
#     4  12  24  39  62  93 131 165 201 263 317 372
#     4  11  23  40  60  94 125 159 208 262 321 363
#
# _framework density 19.627521999999999
#
# number of rings (size 3 to 8) (size 9 to 14) (size 15 to 20)
#    0.000    1.500    3.750    3.000    0.000    1.000 
#    0.000    0.000    0.000    3.750    3.250    0.000 
#    0.000    0.000    0.000    0.000    0.000    0.000 
#
# Total GULP energy -89139.786237 kJ/mol
# GULP energy per Si atom -5571.236640 kJ/mol
# Density = 1.958285 g / cm^3
# Si number density = 19.627522 Si / 1000 Ang^3
#
#
#
# Elastic Constant Matrix: (Units=GPa)
#
#
# Indices 1 2 3 4 5 6 
#
# 1 67.3118 42.9229 23.8685 -1.6430 14.5465 -6.5596
# 2 42.9229 110.6598 34.1250 -5.6359 14.8881 -5.1389
# 3 23.8685 34.1250 132.7307 -11.0747 27.2145 -7.4108
# 4 -1.6430 -5.6359 -11.0747 32.4354 -2.7927 5.4331
# 5 14.5465 14.8881 27.2145 -2.7927 25.2556 1.4045
# 6 -6.5596 -5.1389 -7.4108 5.4331 1.4045 17.5582
#
#
#
# Elastic Compliance Matrix: (Units=1/GPa)
#
#
# Indices 1 2 3 4 5 6 
#
# 1 0.022034 -0.007066 -0.000028 -0.002175 -0.009156 0.007558
# 2 -0.007066 0.012522 -0.001528 0.001137 -0.001548 0.000152
# 3 -0.000028 -0.001528 0.010439 0.001691 -0.010382 0.004256
# 4 -0.002175 0.001137 0.001691 0.033495 0.003041 -0.010374
# 5 -0.009156 -0.001548 -0.010382 0.003041 0.058075 -0.013842
# 6 0.007558 0.000152 0.004256 -0.010374 -0.013842 0.065935
#
#
# Mechanical properties :
#
#
# Convention : Reuss Voigt Hill
#
# Bulk Modulus (GPa) = 36.03371 56.94834 46.49103
# Shear Modulus (GPa) = 21.83466 29.03556 25.43511
#
# Velocity S-wave (km/s) = 3.33896 3.85038 3.60375
# Velocity P-wave (km/s) = 5.76745 6.98890 6.40735
#
# Compressibility (1/GPa) = 0.02775179
#
# Stress axis : x y z
#
# Youngs Moduli (GPa) = 45.38442 79.86010 95.79256
#
# Poissons Ratio (x) = 0.56429 0.00266
# Poissons Ratio (y) = 0.32068 0.14636
# Poissons Ratio (z) = 0.00126 0.12202
#
# Static dielectric constant tensor:
#      x y z
#    x 1.704300 0.017270 0.041170 
#    y 0.017270 1.771110 0.020400 
#    z 0.041170 0.020400 1.794530 
# 
# From -- ./inp_files/591805.got.cif
#   From: 2010.05.17/outbox.cif.g08.bks.cpg/sg2_296_cif.got.tgz:591805.got - 2010.06.03 11:33:40.
