data_PCOD9077118
_publ_section_title
;
Structure prediction by ZEFSAII (Michael W. Deem and Ramdas Pophale) SiO2 
 PCOD9077118
Probable space group: P -1
;
_chemical_formula_sum "Si O2"
_cell_formula_units_Z 16
_cell_length_a 11.691515
_cell_length_b 14.886104
_cell_length_c 13.421731
_cell_angle_alpha 48.644495
_cell_angle_beta 33.175322
_cell_angle_gamma 62.139929
_cell_volume 938.344893
_symmetry_space_group_name_H-M "P -1"
_symmetry_group_IT_number 2
_symmetry_cell_setting 'triclinic'
loop_
_space_group_symop_operation_xyz
x,y,z
-x,-y,-z
loop_
_atom_site_type_symbol
_atom_site_label
_atom_site_fract_x
_atom_site_fract_y
_atom_site_fract_z
Si Si1 0.102366 0.974902 0.073449
Si Si2 0.329327 0.885863 0.161810
Si Si3 0.646625 0.940725 0.361681
Si Si4 0.721621 0.241731 0.344640
Si Si5 0.631370 0.706800 0.075886
Si Si6 0.948280 0.135396 0.430847
Si Si7 0.508060 0.556935 0.562703
Si Si8 0.861821 0.747663 0.089071
O O1 0.213632 0.927452 0.120723
O O2 0.241981 0.972187 0.873888
O O3 0.854628 0.910635 0.286388
O O4 0.101008 0.117566 0.991168
O O5 0.451801 0.779605 0.124980
O O6 0.162405 0.841845 0.403241
O O7 0.500000 0.000000 0.000000
O O8 0.500000 0.000000 0.500000
O O9 0.487425 0.827836 0.509437
O O10 0.792533 0.150591 0.441110
O O11 0.663024 0.358008 0.357142
O O12 0.918924 0.276637 0.098855
O O13 0.548526 0.561365 0.239096
O O14 0.706285 0.742824 0.109363
O O15 0.839653 0.762955 0.818938
O O16 0.000000 0.000000 0.500000
O O17 0.500000 0.500000 0.500000
O O18 0.740220 0.647304 0.328579
#
# Coordination Sequence:
#
# PCOD9077118 Si02
#       8
#     2   2   2   2   2   2   2   2
#     4  11  22  36  56  89 114 145 190 231 285 346
#     4  12  20  34  58  81 117 149 174 230 295 336
#     4  11  23  36  58  84 115 148 192 234 281 330
#     4  11  21  36  58  83 119 151 187 238 279 332
#     4  10  22  33  51  86 113 148 185 219 279 350
#     4  11  21  32  55  85 116 147 182 223 293 348
#     4  10  21  35  54  79 117 155 191 227 277 339
#     4  10  18  34  56  81 114 148 186 227 280 335
#
# _framework density 17.051300000000001
#
# number of rings (size 3 to 8) (size 9 to 14) (size 15 to 20)
#    0.000    1.250    5.000    3.000    0.000    5.500 
#    0.000    0.000    0.000    0.750    0.000    2.625 
#    0.000    0.000    0.000    0.000    0.000    0.000 
#
# Total GULP energy -89253.671202 kJ/mol
# GULP energy per Si atom -5578.354450 kJ/mol
# Density = 1.701249 g / cm^3
# Si number density = 17.051300 Si / 1000 Ang^3
#
#
#
# Elastic Constant Matrix: (Units=GPa)
#
#
# Indices 1 2 3 4 5 6 
#
# 1 89.8892 37.3540 50.6158 4.7011 -9.2839 -15.0601
# 2 37.3540 106.5205 57.4133 3.1316 -5.4703 -5.2172
# 3 50.6158 57.4133 128.1734 9.1631 7.2065 -13.8429
# 4 4.7011 3.1316 9.1631 34.5284 3.6318 7.2676
# 5 -9.2839 -5.4703 7.2065 3.6318 24.6671 7.1287
# 6 -15.0601 -5.2172 -13.8429 7.2676 7.1287 22.3195
#
#
#
# Elastic Compliance Matrix: (Units=1/GPa)
#
#
# Indices 1 2 3 4 5 6 
#
# 1 0.016800 -0.002565 -0.004862 -0.002794 0.005610 0.006838
# 2 -0.002565 0.013408 -0.005761 0.001010 0.004698 -0.003999
# 3 -0.004862 -0.005761 0.013891 -0.003221 -0.008976 0.007904
# 4 -0.002794 0.001010 -0.003221 0.033171 -0.000655 -0.014239
# 5 0.005610 0.004698 -0.008976 -0.000655 0.051281 -0.016849
# 6 0.006838 -0.003999 0.007904 -0.014239 -0.016849 0.063403
#
#
# Mechanical properties :
#
#
# Convention : Reuss Voigt Hill
#
# Bulk Modulus (GPa) = 56.42796 68.37214 62.40005
# Shear Modulus (GPa) = 22.29742 28.24965 25.27354
#
# Velocity S-wave (km/s) = 3.62009 4.07473 3.85412
# Velocity P-wave (km/s) = 7.11606 7.89448 7.51536
#
# Compressibility (1/GPa) = 0.01772171
#
# Stress axis : x y z
#
# Youngs Moduli (GPa) = 59.52367 74.57960 71.98724
#
# Poissons Ratio (x) = 0.19133 0.35002
# Poissons Ratio (y) = 0.15271 0.41474
# Poissons Ratio (z) = 0.28942 0.42968
#
# Static dielectric constant tensor:
#      x y z
#    x 1.574180 0.011980 0.003180 
#    y 0.011980 1.570720 0.000500 
#    z 0.003180 0.000500 1.609980 
# 
# From -- ./inp_files/433117.got.cif
#   From: 2010.05.17/outbox.cif.g08.bks.cpg/sg2_217_cif.got.tgz:433117.got - 2010.06.03 11:33:40.
