data_PCOD9077543
_publ_section_title
;
Structure prediction by ZEFSAII (Michael W. Deem and Ramdas Pophale) SiO2 
 PCOD9077543
Probable space group: P -1
;
_chemical_formula_sum "Si O2"
_cell_formula_units_Z 15
_cell_length_a 13.201216
_cell_length_b 22.735132
_cell_length_c 19.268461
_cell_angle_alpha 162.606090
_cell_angle_beta 29.912199
_cell_angle_gamma 152.996124
_cell_volume 779.095256
_symmetry_space_group_name_H-M "P -1"
_symmetry_group_IT_number 2
_symmetry_cell_setting 'triclinic'
loop_
_space_group_symop_operation_xyz
x,y,z
-x,-y,-z
loop_
_atom_site_type_symbol
_atom_site_label
_atom_site_fract_x
_atom_site_fract_y
_atom_site_fract_z
Si Si1 0.969928 0.255029 0.731031
Si Si2 0.843705 0.266085 0.293909
Si Si3 0.657434 0.566530 0.082417
Si Si4 0.738069 0.144975 0.598174
Si Si5 0.782889 0.128535 0.399463
Si Si6 0.000000 0.000000 0.000000
Si Si7 0.668155 0.840211 0.518463
Si Si8 0.153742 0.396876 0.132371
O O1 0.879829 0.179548 0.622164
O O2 0.196080 0.225754 0.578934
O O3 0.792133 0.095216 0.712885
O O4 0.000000 0.500000 0.000000
O O5 0.593412 0.241710 0.403151
O O6 0.000000 0.500000 0.500000
O O7 0.958975 0.254491 0.139952
O O8 0.840286 0.090807 0.154378
O O9 0.692499 0.724077 0.302886
O O10 0.396164 0.467523 0.104193
O O11 0.710255 0.366670 0.849536
O O12 0.810325 0.677018 0.048873
O O13 0.826361 0.095928 0.417610
O O14 0.485658 0.960483 0.549842
O O15 0.882565 0.383845 0.610657
O O16 0.875837 0.008886 0.156704
#
# Coordination Sequence:
#
# PCOD9077543 Si02
#       8
#     2   2   2   2   2   1   2   2
#     4  11  23  42  65  90 122 169 213 265 296 370
#     4  12  23  38  58  94 130 159 196 261 316 374
#     4  10  18  34  60  90 123 163 204 252 308 374
#     4  10  20  36  61  89 125 153 212 261 310 352
#     4  10  21  35  57  96 123 160 199 260 312 378
#     4  12  22  34  58  86 128 164 194 230 320 376
#     4  11  24  39  63  94 121 162 218 252 310 374
#     4  10  20  34  56  91 132 159 193 255 322 370
#
# _framework density 19.2531
#
# number of rings (size 3 to 8) (size 9 to 14) (size 15 to 20)
#    0.000    1.333    4.000    2.400    0.000    4.267 
#    0.000    0.000    0.000   12.000    0.000    0.000 
#    0.000    0.000    0.000    0.000    0.000    0.000 
#
# Total GULP energy -83564.610461 kJ/mol
# GULP energy per Si atom -5570.974031 kJ/mol
# Density = 1.920928 g / cm^3
# Si number density = 19.253100 Si / 1000 Ang^3
#
#
#
# Elastic Constant Matrix: (Units=GPa)
#
#
# Indices 1 2 3 4 5 6 
#
# 1 156.2196 48.1067 31.5502 -13.5944 -11.7358 -3.7400
# 2 48.1067 90.3541 41.7173 -17.9627 -4.6949 -4.9273
# 3 31.5502 41.7173 51.8389 -10.1904 1.3416 -8.0856
# 4 -13.5944 -17.9627 -10.1904 34.6705 -6.4556 1.3520
# 5 -11.7358 -4.6949 1.3416 -6.4556 34.8257 -6.6042
# 6 -3.7400 -4.9273 -8.0856 1.3520 -6.6042 29.7605
#
#
#
# Elastic Compliance Matrix: (Units=1/GPa)
#
#
# Indices 1 2 3 4 5 6 
#
# 1 0.008084 -0.002690 -0.002449 0.001566 0.002834 0.000463
# 2 -0.002690 0.020076 -0.013450 0.006034 0.003401 -0.000188
# 3 -0.002449 -0.013450 0.032762 0.000987 -0.002629 0.005738
# 4 0.001566 0.006034 0.000987 0.034294 0.007978 0.001677
# 5 0.002834 0.003401 -0.002629 0.007978 0.033070 0.007181
# 6 0.000463 -0.000188 0.005738 0.001677 0.007181 0.036705
#
#
# Mechanical properties :
#
#
# Convention : Reuss Voigt Hill
#
# Bulk Modulus (GPa) = 42.11471 60.12902 51.12186
# Shear Modulus (GPa) = 23.80004 31.65389 27.72697
#
# Velocity S-wave (km/s) = 3.51973 4.05914 3.79902
# Velocity P-wave (km/s) = 6.19998 7.29846 6.77153
#
# Compressibility (1/GPa) = 0.02374467
#
# Stress axis : x y z
#
# Youngs Moduli (GPa) = 123.69458 49.81154 30.52296
#
# Poissons Ratio (x) = 0.13398 0.07475
# Poissons Ratio (y) = 0.33270 0.41054
# Poissons Ratio (z) = 0.30294 0.66997
#
# Static dielectric constant tensor:
#      x y z
#    x 1.673520 -0.025040 -0.010400 
#    y -0.025040 1.673600 0.050700 
#    z -0.010400 0.050700 1.740490 
# 
# From -- ./inp_files/436196.got.cif
#   From: 2010.05.17/outbox.cif.g08.bks.cpg/sg2_219_cif.got.tgz:436196.got - 2010.06.03 11:33:40.
