data_PCOD9077306
_publ_section_title
;
Structure prediction by ZEFSAII (Michael W. Deem and Ramdas Pophale) SiO2 
 PCOD9077306
Probable space group: P -1
;
_chemical_formula_sum "Si O2"
_cell_formula_units_Z 14
_cell_length_a 11.486390
_cell_length_b 13.611897
_cell_length_c 14.518392
_cell_angle_alpha 46.276940
_cell_angle_beta 143.791631
_cell_angle_gamma 101.949795
_cell_volume 552.805057
_symmetry_space_group_name_H-M "P -1"
_symmetry_group_IT_number 2
_symmetry_cell_setting 'triclinic'
loop_
_space_group_symop_operation_xyz
x,y,z
-x,-y,-z
loop_
_atom_site_type_symbol
_atom_site_label
_atom_site_fract_x
_atom_site_fract_y
_atom_site_fract_z
Si Si1 0.721734 0.667320 0.013955
Si Si2 0.777795 0.363432 0.893902
Si Si3 0.452580 0.984477 0.222026
Si Si4 0.306676 0.775492 0.907586
Si Si5 0.770916 0.770087 0.255803
Si Si6 0.216745 0.525162 0.988162
Si Si7 0.978454 0.235388 0.910134
O O1 0.887376 0.460090 0.319358
O O2 0.594858 0.680796 0.827816
O O3 0.021764 0.606893 0.223245
O O4 0.466836 0.914122 0.744201
O O5 0.033845 0.209316 0.071329
O O6 0.397670 0.607607 0.452364
O O7 0.781661 0.220704 0.046336
O O8 0.818130 0.457949 0.934678
O O9 0.810916 0.737776 0.566251
O O10 0.190448 0.162174 0.856007
O O11 0.265559 0.012559 0.168239
O O12 0.374670 0.585512 0.034059
O O13 0.592029 0.731065 0.131258
O O14 0.000000 0.000000 0.500000
O O15 0.500000 0.000000 0.000000
#
# Coordination Sequence:
#
# PCOD9077306 Si02
#       7
#     2   2   2   2   2   2   2
#     4  10  20  35  57  87 114 154 195 238 287 346
#     4   9  19  37  61  82 117 162 185 243 295 341
#     4  10  21  35  59  89 114 149 204 237 282 354
#     4  10  18  34  58  83 115 154 188 239 293 339
#     4  12  19  36  62  83 116 159 195 236 299 344
#     4  10  20  37  59  82 120 151 192 238 295 335
#     4   9  20  37  61  82 116 157 198 232 295 339
#
# _framework density 25.325385000000001
#
# number of rings (size 3 to 8) (size 9 to 14) (size 15 to 20)
#    1.714    0.286    4.286    0.429    0.000    1.143 
#    0.000    2.143    0.000    4.286    0.000    0.000 
#    0.000    0.000    0.000    0.000    0.000    0.000 
#
# Total GULP energy -78013.928256 kJ/mol
# GULP energy per Si atom -5572.423447 kJ/mol
# Density = 2.526774 g / cm^3
# Si number density = 25.325385 Si / 1000 Ang^3
#
#
#
# Elastic Constant Matrix: (Units=GPa)
#
#
# Indices 1 2 3 4 5 6 
#
# 1 97.5325 15.8958 9.3392 4.1205 -8.5204 -32.7973
# 2 15.8958 100.3612 19.1507 -3.1734 -4.0101 -24.5271
# 3 9.3392 19.1507 63.7865 3.4941 -2.7958 -4.8476
# 4 4.1205 -3.1734 3.4941 34.6244 -6.2858 -3.6942
# 5 -8.5204 -4.0101 -2.7958 -6.2858 31.5744 16.8568
# 6 -32.7973 -24.5271 -4.8476 -3.6942 16.8568 35.8996
#
#
#
# Elastic Compliance Matrix: (Units=1/GPa)
#
#
# Indices 1 2 3 4 5 6 
#
# 1 0.015667 0.001989 -0.001735 -0.000567 -0.005334 0.017884
# 2 0.001989 0.013339 -0.003628 0.001892 -0.004526 0.012761
# 3 -0.001735 -0.003628 0.016986 -0.001829 0.001677 -0.002746
# 4 -0.000567 0.001892 -0.001829 0.030403 0.005373 0.001133
# 5 -0.005334 -0.004526 0.001677 0.005373 0.046324 -0.028938
# 6 0.017884 0.012761 -0.002746 0.001133 -0.028938 0.066246
#
#
# Mechanical properties :
#
#
# Convention : Reuss Voigt Hill
#
# Bulk Modulus (GPa) = 25.48183 38.93908 32.21045
# Shear Modulus (GPa) = 23.94716 34.90599 29.42658
#
# Velocity S-wave (km/s) = 3.07836 3.71657 3.41242
# Velocity P-wave (km/s) = 4.76642 5.81602 5.31718
#
# Compressibility (1/GPa) = 0.03924365
#
# Stress axis : x y z
#
# Youngs Moduli (GPa) = 63.82974 74.96943 58.87346
#
# Poissons Ratio (x) = -0.14912 0.10212
# Poissons Ratio (y) = -0.12697 0.21361
# Poissons Ratio (z) = 0.11072 0.27200
#
# Static dielectric constant tensor:
#      x y z
#    x 2.065370 -0.020200 -0.016060 
#    y -0.020200 1.991950 0.001510 
#    z -0.016060 0.001510 2.032310 
# 
# From -- ./inp_files/289970.got.cif
#   From: 2010.05.17/outbox.cif.g08.bks.cpg/sg2_145_cif.got.tgz:289970.got - 2010.06.03 11:33:40.
