data_PCOD9077933
_publ_section_title
;
Structure prediction by ZEFSAII (Michael W. Deem and Ramdas Pophale) SiO2 
 PCOD9077933
Probable space group: P -1
;
_chemical_formula_sum "Si O2"
_cell_formula_units_Z 16
_cell_length_a 8.721154
_cell_length_b 12.193382
_cell_length_c 12.344918
_cell_angle_alpha 38.474657
_cell_angle_beta 92.077063
_cell_angle_gamma 95.493158
_cell_volume 811.420011
_symmetry_space_group_name_H-M "P -1"
_symmetry_group_IT_number 2
_symmetry_cell_setting 'triclinic'
loop_
_space_group_symop_operation_xyz
x,y,z
-x,-y,-z
loop_
_atom_site_type_symbol
_atom_site_label
_atom_site_fract_x
_atom_site_fract_y
_atom_site_fract_z
Si Si1 0.575685 0.178540 0.425357
Si Si2 0.102062 0.564618 0.192794
Si Si3 0.747282 0.712739 0.683905
Si Si4 0.137688 0.877363 0.101120
Si Si5 0.884924 0.707451 0.908127
Si Si6 0.652737 0.127130 0.085859
Si Si7 0.802158 0.106374 0.328046
Si Si8 0.689317 0.000594 0.778964
O O1 0.435352 0.298462 0.335791
O O2 0.715431 0.235208 0.303123
O O3 0.642458 0.123084 0.584276
O O4 0.500000 0.000000 0.500000
O O5 0.148956 0.367998 0.342542
O O6 0.081505 0.677288 0.213659
O O7 0.958827 0.588123 0.092146
O O8 0.261135 0.673153 0.065893
O O9 0.782054 0.628251 0.866520
O O10 0.807364 0.921516 0.533002
O O11 0.217208 0.889074 0.210253
O O12 0.263667 0.948142 0.957673
O O13 0.000000 0.000000 0.000000
O O14 0.036960 0.804374 0.779357
O O15 0.791220 0.851633 0.852620
O O16 0.702966 0.051853 0.259741
O O17 0.469864 0.096897 0.100905
#
# Coordination Sequence:
#
# PCOD9077933 Si02
#       8
#     2   2   2   2   2   2   2   2
#     4  10  19  32  56  81 110 140 184 218 271 320
#     4   9  22  36  52  84 112 144 177 228 283 313
#     4  11  19  35  55  81 120 139 173 233 281 320
#     4  10  20  37  59  79 109 142 190 226 262 325
#     4  11  20  33  60  82 110 146 189 220 268 329
#     4   9  19  35  57  82 103 142 193 220 267 321
#     4  10  18  35  56  85 107 145 189 218 270 323
#     4  12  18  35  60  85 101 144 195 225 255 321
#
# _framework density 19.718518
#
# number of rings (size 3 to 8) (size 9 to 14) (size 15 to 20)
#    0.750    1.000    6.250    1.125    0.000    0.000 
#    0.000    7.500    0.000    3.000    0.000    0.000 
#    0.000    0.000    0.000    0.000    0.000    0.000 
#
# Total GULP energy -89104.316045 kJ/mol
# GULP energy per Si atom -5569.019753 kJ/mol
# Density = 1.967364 g / cm^3
# Si number density = 19.718518 Si / 1000 Ang^3
#
#
#
# Elastic Constant Matrix: (Units=GPa)
#
#
# Indices 1 2 3 4 5 6 
#
# 1 130.3136 45.7651 31.6440 10.5555 21.1912 -24.8693
# 2 45.7651 108.7688 26.1244 21.5393 25.8564 -11.2588
# 3 31.6440 26.1244 34.2488 19.5013 16.5116 2.0380
# 4 10.5555 21.5393 19.5013 30.8449 1.9261 6.2658
# 5 21.1912 25.8564 16.5116 1.9261 37.0276 6.7727
# 6 -24.8693 -11.2588 2.0380 6.2658 6.7727 39.0744
#
#
#
# Elastic Compliance Matrix: (Units=1/GPa)
#
#
# Indices 1 2 3 4 5 6 
#
# 1 0.012801 -0.001596 -0.010806 0.002039 -0.003045 0.008452
# 2 -0.001596 0.015194 0.001471 -0.011744 -0.011037 0.007082
# 3 -0.010806 0.001471 0.075731 -0.043799 -0.026558 0.001223
# 4 0.002039 -0.011744 -0.043799 0.069124 0.025777 -0.015354
# 5 -0.003045 -0.011037 -0.026558 0.025777 0.049983 -0.016530
# 6 0.008452 0.007082 0.001223 -0.015354 -0.016530 0.038276
#
#
# Mechanical properties :
#
#
# Convention : Reuss Voigt Hill
#
# Bulk Modulus (GPa) = 12.21535 53.37756 32.79646
# Shear Modulus (GPa) = 16.11559 32.70926 24.41242
#
# Velocity S-wave (km/s) = 2.86192 4.07727 3.52240
# Velocity P-wave (km/s) = 4.13873 7.02097 5.76294
#
# Compressibility (1/GPa) = 0.08186422
#
# Stress axis : x y z
#
# Youngs Moduli (GPa) = 78.11635 65.81400 13.20471
#
# Poissons Ratio (x) = 0.10502 0.14269
# Poissons Ratio (y) = 0.12465 -0.01942
# Poissons Ratio (z) = 0.84415 -0.09681
#
# Static dielectric constant tensor:
#      x y z
#    x 1.756150 -0.006170 -0.011380 
#    y -0.006170 1.718520 -0.020910 
#    z -0.011380 -0.020910 1.725760 
# 
# From -- ./inp_files/386705.got.cif
#   From: 2010.05.17/outbox.cif.g08.bks.cpg/sg2_194_cif.got.tgz:386705.got - 2010.06.03 11:33:40.
