data_PCOD9077486
_publ_section_title
;
Structure prediction by ZEFSAII (Michael W. Deem and Ramdas Pophale) SiO2 
 PCOD9077486
Probable space group: P -1
;
_chemical_formula_sum "Si O2"
_cell_formula_units_Z 16
_cell_length_a 11.831720
_cell_length_b 12.580041
_cell_length_c 8.911953
_cell_angle_alpha 109.569247
_cell_angle_beta 116.555661
_cell_angle_gamma 110.738402
_cell_volume 896.243239
_symmetry_space_group_name_H-M "P -1"
_symmetry_group_IT_number 2
_symmetry_cell_setting 'triclinic'
loop_
_space_group_symop_operation_xyz
x,y,z
-x,-y,-z
loop_
_atom_site_type_symbol
_atom_site_label
_atom_site_fract_x
_atom_site_fract_y
_atom_site_fract_z
Si Si1 0.903903 0.351806 0.791554
Si Si2 0.460005 0.863174 0.990877
Si Si3 0.410947 0.843792 0.309657
Si Si4 0.953168 0.789633 0.330289
Si Si5 0.164491 0.583459 0.545557
Si Si6 0.232486 0.095636 0.748872
Si Si7 0.530197 0.679241 0.229376
Si Si8 0.690591 0.539882 0.268167
O O1 0.761215 0.243126 0.763918
O O2 0.856121 0.381288 0.617392
O O3 0.997801 0.287321 0.781741
O O4 0.000000 0.500000 0.000000
O O5 0.434685 0.862847 0.153749
O O6 0.613619 0.866049 0.054801
O O7 0.296370 0.731746 0.768740
O O8 0.500000 0.000000 0.000000
O O9 0.466239 0.743753 0.328287
O O10 0.500000 0.000000 0.500000
O O11 0.860937 0.844043 0.221309
O O12 0.836831 0.672926 0.328781
O O13 0.107507 0.929912 0.563086
O O14 0.239784 0.500016 0.578052
O O15 0.000000 0.500000 0.500000
O O16 0.312097 0.182209 0.682873
O O17 0.577732 0.581928 0.273004
O O18 0.407862 0.585492 0.974891
#
# Coordination Sequence:
#
# PCOD9077486 Si02
#       8
#     2   2   2   2   2   2   2   2
#     4  12  24  38  57  85 121 155 186 239 309 357
#     4  11  22  39  62  89 114 149 202 251 284 338
#     4  11  21  37  58  86 120 155 186 229 300 358
#     4  10  19  34  58  86 116 151 193 237 282 344
#     4  12  22  38  59  89 115 151 204 248 286 338
#     4   9  18  34  58  90 109 145 198 244 278 331
#     4   9  18  35  58  85 113 154 193 242 293 334
#     4  10  18  34  60  85 113 146 203 251 276 337
#
# _framework density 17.852298000000001
#
# number of rings (size 3 to 8) (size 9 to 14) (size 15 to 20)
#    0.000    1.500    3.750    4.500    0.000    0.000 
#    0.000    0.625    2.750    0.750    0.000    0.000 
#    0.000    0.000    0.000    0.000    0.000    0.000 
#
# Total GULP energy -89118.512144 kJ/mol
# GULP energy per Si atom -5569.907009 kJ/mol
# Density = 1.781167 g / cm^3
# Si number density = 17.852298 Si / 1000 Ang^3
#
#
#
# Elastic Constant Matrix: (Units=GPa)
#
#
# Indices 1 2 3 4 5 6 
#
# 1 112.3071 39.4899 49.5402 3.1026 1.6532 -22.3984
# 2 39.4899 94.0568 48.8895 14.1860 4.2114 -8.1276
# 3 49.5402 48.8895 118.5364 22.4974 5.0949 -7.4498
# 4 3.1026 14.1860 22.4974 41.7224 -1.3033 7.5999
# 5 1.6532 4.2114 5.0949 -1.3033 27.5574 8.2328
# 6 -22.3984 -8.1276 -7.4498 7.5999 8.2328 40.9231
#
#
#
# Elastic Compliance Matrix: (Units=1/GPa)
#
#
# Indices 1 2 3 4 5 6 
#
# 1 0.012811 -0.002945 -0.003927 0.001076 -0.001264 0.005766
# 2 -0.002945 0.014638 -0.004087 -0.002879 -0.001878 0.001464
# 3 -0.003927 -0.004087 0.012950 -0.005517 -0.002044 0.000832
# 4 0.001076 -0.002879 -0.005517 0.029354 0.005008 -0.007446
# 5 -0.001264 -0.001878 -0.002044 0.005008 0.040401 -0.010495
# 6 0.005766 0.001464 0.000832 -0.007446 -0.010495 0.031529
#
#
# Mechanical properties :
#
#
# Convention : Reuss Voigt Hill
#
# Bulk Modulus (GPa) = 54.11062 66.74881 60.42972
# Shear Modulus (GPa) = 29.45316 34.50594 31.97955
#
# Velocity S-wave (km/s) = 4.06621 4.40120 4.23701
# Velocity P-wave (km/s) = 7.24026 7.95601 7.60656
#
# Compressibility (1/GPa) = 0.01848066
#
# Stress axis : x y z
#
# Youngs Moduli (GPa) = 78.05895 68.31706 77.21800
#
# Poissons Ratio (x) = 0.20119 0.30323
# Poissons Ratio (y) = 0.22987 0.31561
# Poissons Ratio (z) = 0.30654 0.27923
#
# Static dielectric constant tensor:
#      x y z
#    x 1.640780 -0.079130 0.049590 
#    y -0.079130 1.619980 0.005680 
#    z 0.049590 0.005680 1.597170 
# 
# From -- ./inp_files/181676.got.cif
#   From: 2010.05.17/outbox.cif.g08.bks.cpg/sg2_91_cif.got.tgz:181676.got - 2010.06.03 11:33:40.
