data_PCOD9077393
_publ_section_title
;
Structure prediction by ZEFSAII (Michael W. Deem and Ramdas Pophale) SiO2 
 PCOD9077393
Probable space group: P -1
;
_chemical_formula_sum "Si O2"
_cell_formula_units_Z 16
_cell_length_a 10.921015
_cell_length_b 16.855699
_cell_length_c 8.972701
_cell_angle_alpha 123.496952
_cell_angle_beta 69.775407
_cell_angle_gamma 147.182766
_cell_volume 720.545686
_symmetry_space_group_name_H-M "P -1"
_symmetry_group_IT_number 2
_symmetry_cell_setting 'triclinic'
loop_
_space_group_symop_operation_xyz
x,y,z
-x,-y,-z
loop_
_atom_site_type_symbol
_atom_site_label
_atom_site_fract_x
_atom_site_fract_y
_atom_site_fract_z
Si Si1 0.800866 0.591151 0.410014
Si Si2 0.815001 0.004120 0.973534
Si Si3 0.473419 0.887491 0.758428
Si Si4 0.602037 0.904755 0.281385
Si Si5 0.467418 0.698353 0.376789
Si Si6 0.025464 0.320126 0.237222
Si Si7 0.218448 0.814655 0.294203
Si Si8 0.702357 0.752445 0.620028
O O1 0.796698 0.703245 0.522788
O O2 0.534587 0.395228 0.334315
O O3 0.916779 0.631345 0.560949
O O4 0.942923 0.639624 0.258146
O O5 0.727588 0.958310 0.130874
O O6 0.021544 0.205910 0.083395
O O7 0.601270 0.914248 0.868870
O O8 0.862835 0.928764 0.812083
O O9 0.404231 0.760771 0.544911
O O10 0.235242 0.798155 0.802128
O O11 0.663063 0.068691 0.781594
O O12 0.597687 0.810679 0.290886
O O13 0.342402 0.789085 0.241693
O O14 0.714660 0.064901 0.483512
O O15 0.628326 0.740831 0.473170
O O16 0.229512 0.496466 0.246096
#
# Coordination Sequence:
#
# PCOD9077393 Si02
#       8
#     2   2   2   2   2   2   2   2
#     4  10  19  39  63  80 106 154 199 223 268 343
#     4  11  21  37  57  86 120 145 176 241 287 321
#     4  10  20  35  56  86 118 143 184 231 282 333
#     4  10  19  35  57  87 119 140 183 230 285 335
#     4   9  20  36  57  81 111 154 190 223 271 341
#     4  11  19  34  60  82 114 149 183 224 284 338
#     4  10  18  34  59  84 108 154 185 225 276 342
#     4   9  22  39  59  81 112 147 194 237 271 322
#
# _framework density 22.205392
#
# number of rings (size 3 to 8) (size 9 to 14) (size 15 to 20)
#    0.000    2.000    2.500    2.250    0.000    2.500 
#    2.250    6.875    0.000    2.250    0.000    0.000 
#    0.000    0.000    0.000    0.000    0.000    0.000 
#
# Total GULP energy -89411.808770 kJ/mol
# GULP energy per Si atom -5588.238048 kJ/mol
# Density = 2.215485 g / cm^3
# Si number density = 22.205392 Si / 1000 Ang^3
#
#
#
# Elastic Constant Matrix: (Units=GPa)
#
#
# Indices 1 2 3 4 5 6 
#
# 1 77.5676 27.1348 6.9765 -13.7753 4.5963 -4.6306
# 2 27.1348 71.8473 26.7977 2.8502 0.4021 -7.8380
# 3 6.9765 26.7977 52.8479 -0.5511 0.6281 -10.7308
# 4 -13.7753 2.8502 -0.5511 18.9054 -13.4567 0.7353
# 5 4.5963 0.4021 0.6281 -13.4567 15.2762 0.5346
# 6 -4.6306 -7.8380 -10.7308 0.7353 0.5346 33.3954
#
#
#
# Elastic Compliance Matrix: (Units=1/GPa)
#
#
# Indices 1 2 3 4 5 6 
#
# 1 0.020790 -0.010235 0.002556 0.033293 0.023230 0.000197
# 2 -0.010235 0.022730 -0.009885 -0.024715 -0.018939 0.001587
# 3 0.002556 -0.009885 0.024790 0.007023 0.004456 0.005774
# 4 0.033293 -0.024715 0.007023 0.199991 0.166726 -0.006000
# 5 0.023230 -0.018939 0.004456 0.166726 0.205891 -0.006759
# 6 0.000197 0.001587 0.005774 -0.006000 -0.006759 0.032440
#
#
# Mechanical properties :
#
#
# Convention : Reuss Voigt Hill
#
# Bulk Modulus (GPa) = 30.13561 36.00898 33.07229
# Shear Modulus (GPa) = 9.04452 22.93897 15.99174
#
# Velocity S-wave (km/s) = 2.02039 3.21757 2.68652
# Velocity P-wave (km/s) = 4.36387 5.48227 4.95473
#
# Compressibility (1/GPa) = 0.03318334
#
# Stress axis : x y z
#
# Youngs Moduli (GPa) = 48.09955 43.99416 40.33879
#
# Poissons Ratio (x) = 0.45026 -0.10312
# Poissons Ratio (y) = 0.49228 0.39876
# Poissons Ratio (z) = -0.12296 0.43489
#
# Static dielectric constant tensor:
#      x y z
#    x 1.822180 -0.001840 0.025990 
#    y -0.001840 1.823440 0.032470 
#    z 0.025990 0.032470 1.823880 
# 
# From -- ./inp_files/187869.got.cif
#   From: 2010.05.17/outbox.cif.g08.bks.cpg/sg2_94_cif.got.tgz:187869.got - 2010.06.03 11:33:40.
