data_PCOD9077881
_publ_section_title
;
Structure prediction by ZEFSAII (Michael W. Deem and Ramdas Pophale) SiO2 
 PCOD9077881
Probable space group: P -1
;
_chemical_formula_sum "Si O2"
_cell_formula_units_Z 16
_cell_length_a 11.899630
_cell_length_b 9.053115
_cell_length_c 15.824735
_cell_angle_alpha 107.778109
_cell_angle_beta 66.920880
_cell_angle_gamma 50.442608
_cell_volume 752.960721
_symmetry_space_group_name_H-M "P -1"
_symmetry_group_IT_number 2
_symmetry_cell_setting 'triclinic'
loop_
_space_group_symop_operation_xyz
x,y,z
-x,-y,-z
loop_
_atom_site_type_symbol
_atom_site_label
_atom_site_fract_x
_atom_site_fract_y
_atom_site_fract_z
Si Si1 0.257183 0.939660 0.165998
Si Si2 0.744139 0.443350 0.025312
Si Si3 0.285563 0.249991 0.176743
Si Si4 0.166558 0.397222 0.860772
Si Si5 0.339487 0.499501 0.297487
Si Si6 0.106487 0.184027 0.733057
Si Si7 0.172388 0.963734 0.003506
Si Si8 0.923605 0.085328 0.394938
O O1 0.224500 0.158479 0.225533
O O2 0.047553 0.061577 0.285966
O O3 0.509969 0.627725 0.082771
O O4 0.271802 0.907596 0.055814
O O5 0.661151 0.674609 0.151224
O O6 0.891227 0.147087 0.978901
O O7 0.915334 0.326467 0.882624
O O8 0.360677 0.297368 0.230135
O O9 0.051175 0.559803 0.247716
O O10 0.500000 0.000000 0.000000
O O11 0.251053 0.162559 0.735297
O O12 0.008110 0.699370 0.909559
O O13 0.000000 0.500000 0.000000
O O14 0.246751 0.635667 0.442026
O O15 0.601442 0.286323 0.169967
O O16 0.145055 0.780922 0.336224
O O17 0.206532 0.919067 0.612285
#
# Coordination Sequence:
#
# PCOD9077881 Si02
#       8
#     2   2   2   2   2   2   2   2
#     4  12  20  33  62  93 118 146 191 247 294 337
#     4  11  21  33  57  93 119 147 193 245 291 342
#     4  11  18  30  56  87 118 144 186 239 292 337
#     4  10  23  37  56  90 118 153 194 244 293 340
#     4  10  21  34  56  87 123 153 188 236 298 348
#     4  10  18  35  55  80 118 155 186 233 293 342
#     4  12  20  37  61  92 115 151 196 245 290 341
#     4  10  21  36  54  89 122 153 188 239 293 349
#
# _framework density 21.249447
#
# number of rings (size 3 to 8) (size 9 to 14) (size 15 to 20)
#    0.000    1.250    6.250    1.500    1.750    0.500 
#    0.000    0.000    0.000    3.750    0.000    0.000 
#    0.000    0.000    0.000    0.000    0.000    0.000 
#
# Total GULP energy -89272.320380 kJ/mol
# GULP energy per Si atom -5579.520024 kJ/mol
# Density = 2.120108 g / cm^3
# Si number density = 21.249447 Si / 1000 Ang^3
#
#
#
# Elastic Constant Matrix: (Units=GPa)
#
#
# Indices 1 2 3 4 5 6 
#
# 1 116.0984 21.6220 27.9555 -0.2583 39.4605 15.3474
# 2 21.6220 100.5504 0.4469 -3.4353 2.8128 21.9682
# 3 27.9555 0.4469 65.6585 -1.2935 25.6403 1.5031
# 4 -0.2583 -3.4353 -1.2935 8.9626 1.5945 5.6232
# 5 39.4605 2.8128 25.6403 1.5945 33.9726 1.5744
# 6 15.3474 21.9682 1.5031 5.6232 1.5744 35.0418
#
#
#
# Elastic Compliance Matrix: (Units=1/GPa)
#
#
# Indices 1 2 3 4 5 6 
#
# 1 0.016102 -0.001181 0.001062 0.007859 -0.019463 -0.006744
# 2 -0.001181 0.012566 0.001049 0.010743 -0.000543 -0.009105
# 3 0.001062 0.001049 0.022153 0.008532 -0.018319 -0.002619
# 4 0.007859 0.010743 0.008532 0.141215 -0.021591 -0.032234
# 5 -0.019463 -0.000543 -0.018319 -0.021591 0.066457 0.010130
# 6 -0.006744 -0.009105 -0.002619 -0.032234 0.010130 0.042029
#
#
# Mechanical properties :
#
#
# Convention : Reuss Voigt Hill
#
# Bulk Modulus (GPa) = 18.98185 42.48401 30.73293
# Shear Modulus (GPa) = 15.81169 31.08094 23.44631
#
# Velocity S-wave (km/s) = 2.73078 3.82864 3.32533
# Velocity P-wave (km/s) = 4.34685 6.29134 5.40722
#
# Compressibility (1/GPa) = 0.05268191
#
# Stress axis : x y z
#
# Youngs Moduli (GPa) = 62.10483 79.57936 45.14107
#
# Poissons Ratio (x) = 0.09397 -0.04794
# Poissons Ratio (y) = 0.07333 -0.04737
# Poissons Ratio (z) = -0.06596 -0.08351
#
# Static dielectric constant tensor:
#      x y z
#    x 1.860290 -0.022580 0.055570 
#    y -0.022580 1.810530 0.037070 
#    z 0.055570 0.037070 1.741090 
# 
# From -- ./inp_files/182516.got.cif
#   From: 2010.05.17/outbox.cif.g08.bks.cpg/sg2_92_cif.got.tgz:182516.got - 2010.06.03 11:33:40.
