data_PCOD9077376
_publ_section_title
;
Structure prediction by ZEFSAII (Michael W. Deem and Ramdas Pophale) SiO2 
 PCOD9077376
Probable space group: P -1
;
_chemical_formula_sum "Si O2"
_cell_formula_units_Z 16
_cell_length_a 7.129020
_cell_length_b 8.495843
_cell_length_c 19.016184
_cell_angle_alpha 39.621208
_cell_angle_beta 95.723259
_cell_angle_gamma 78.031151
_cell_volume 653.423205
_symmetry_space_group_name_H-M "P -1"
_symmetry_group_IT_number 2
_symmetry_cell_setting 'triclinic'
loop_
_space_group_symop_operation_xyz
x,y,z
-x,-y,-z
loop_
_atom_site_type_symbol
_atom_site_label
_atom_site_fract_x
_atom_site_fract_y
_atom_site_fract_z
Si Si1 0.523925 0.131298 0.846358
Si Si2 0.599776 0.710312 0.499838
Si Si3 0.138659 0.901759 0.222459
Si Si4 0.086670 0.219268 0.443067
Si Si5 0.884902 0.598209 0.886422
Si Si6 0.284096 0.489096 0.579722
Si Si7 0.142309 0.381622 0.831268
Si Si8 0.721508 0.174115 0.038371
O O1 0.397694 0.301319 0.715263
O O2 0.383187 0.321248 0.840039
O O3 0.756891 0.082189 0.854017
O O4 0.490742 0.853845 0.942608
O O5 0.372285 0.718450 0.497893
O O6 0.652702 0.686842 0.427946
O O7 0.670757 0.903556 0.481289
O O8 0.756781 0.409729 0.641455
O O9 0.204015 0.075840 0.219938
O O10 0.887880 0.042235 0.154533
O O11 0.957748 0.370817 0.456412
O O12 0.011412 0.426671 0.302049
O O13 0.000000 0.000000 0.500000
O O14 0.043018 0.504568 0.859125
O O15 0.726885 0.458152 0.922184
O O16 0.000000 0.500000 0.000000
O O17 0.174392 0.067930 0.932577
#
# Coordination Sequence:
#
# PCOD9077376 Si02
#       8
#     2   2   2   2   2   2   2   2
#     4   8  18  34  58  78 109 147 187 219 277 339
#     4  10  19  36  57  81 115 153 182 229 285 330
#     4  10  18  34  59  81 108 147 186 228 278 337
#     4  11  22  35  57  85 112 148 194 228 274 343
#     4  10  21  34  58  85 108 143 191 238 283 326
#     4   9  19  35  57  82 113 149 187 226 278 339
#     4   9  19  39  55  77 114 151 179 234 285 332
#     4   9  18  36  58  74 110 144 182 230 280 328
#
# _framework density 24.486428
#
# number of rings (size 3 to 8) (size 9 to 14) (size 15 to 20)
#    0.750    1.750    1.250    0.750    1.750    1.000 
#    2.250    2.500    5.500    0.000    0.000    0.000 
#    0.000    0.000    0.000    0.000    0.000    0.000 
#
# Total GULP energy -89255.793919 kJ/mol
# GULP energy per Si atom -5578.487120 kJ/mol
# Density = 2.443070 g / cm^3
# Si number density = 24.486428 Si / 1000 Ang^3
#
#
#
# Elastic Constant Matrix: (Units=GPa)
#
#
# Indices 1 2 3 4 5 6 
#
# 1 78.3460 11.5133 11.2892 19.3373 -20.0209 -1.6895
# 2 11.5133 91.7047 23.0671 24.6423 -21.2229 -5.6554
# 3 11.2892 23.0671 65.7994 28.2433 -12.8563 3.1380
# 4 19.3373 24.6423 28.2433 38.5379 1.1072 -7.5647
# 5 -20.0209 -21.2229 -12.8563 1.1072 35.5038 3.0978
# 6 -1.6895 -5.6554 3.1380 -7.5647 3.0978 24.7901
#
#
#
# Elastic Compliance Matrix: (Units=1/GPa)
#
#
# Indices 1 2 3 4 5 6 
#
# 1 0.020907 0.005134 0.007965 -0.021608 0.019061 -0.007388
# 2 0.005134 0.017422 0.003765 -0.017601 0.015523 -0.003463
# 3 0.007965 0.003765 0.031389 -0.032978 0.020462 -0.015192
# 4 -0.021608 -0.017601 -0.032978 0.078779 -0.039518 0.027664
# 5 0.019061 0.015523 0.020462 -0.039518 0.058327 -0.017097
# 6 -0.007388 -0.003463 -0.015192 0.027664 -0.017097 0.051546
#
#
# Mechanical properties :
#
#
# Convention : Reuss Voigt Hill
#
# Bulk Modulus (GPa) = 9.66713 36.39882 23.03297
# Shear Modulus (GPa) = 19.29570 32.43172 25.86371
#
# Velocity S-wave (km/s) = 2.81021 3.64329 3.25352
# Velocity P-wave (km/s) = 3.80608 5.70922 4.85188
#
# Compressibility (1/GPa) = 0.10344336
#
# Stress axis : x y z
#
# Youngs Moduli (GPa) = 47.83182 57.40025 31.85822
#
# Poissons Ratio (x) = -0.29468 -0.25374
# Poissons Ratio (y) = -0.24555 -0.11994
# Poissons Ratio (z) = -0.38096 -0.21610
#
# Static dielectric constant tensor:
#      x y z
#    x 2.064020 0.042330 -0.005230 
#    y 0.042330 1.987920 -0.041280 
#    z -0.005230 -0.041280 1.978210 
# 
# From -- ./inp_files/586499.got.cif
#   From: 2010.05.17/outbox.cif.g08.bks.cpg/sg2_294_cif.got.tgz:586499.got - 2010.06.03 11:33:40.
