data_PCOD9077232
_publ_section_title
;
Structure prediction by ZEFSAII (Michael W. Deem and Ramdas Pophale) SiO2 
 PCOD9077232
Probable space group: P -1
;
_chemical_formula_sum "Si O2"
_cell_formula_units_Z 16
_cell_length_a 20.315017
_cell_length_b 13.273890
_cell_length_c 9.286123
_cell_angle_alpha 138.947709
_cell_angle_beta 30.117692
_cell_angle_gamma 141.606239
_cell_volume 756.700364
_symmetry_space_group_name_H-M "P -1"
_symmetry_group_IT_number 2
_symmetry_cell_setting 'triclinic'
loop_
_space_group_symop_operation_xyz
x,y,z
-x,-y,-z
loop_
_atom_site_type_symbol
_atom_site_label
_atom_site_fract_x
_atom_site_fract_y
_atom_site_fract_z
Si Si1 0.643323 0.140732 0.313692
Si Si2 0.656810 0.457134 0.294139
Si Si3 0.893310 0.335218 0.609005
Si Si4 0.846434 0.652363 0.712096
Si Si5 0.269215 0.746349 0.437647
Si Si6 0.336193 0.264536 0.638349
Si Si7 0.572262 0.952319 0.952705
Si Si8 0.654201 0.513706 0.670327
O O1 0.748503 0.175349 0.291526
O O2 0.641653 0.323364 0.496674
O O3 0.500000 0.000000 0.500000
O O4 0.651838 0.077889 0.068047
O O5 0.495240 0.319030 0.461441
O O6 0.662975 0.576168 0.278785
O O7 0.682509 0.562921 0.504316
O O8 0.772893 0.380358 0.963835
O O9 0.815735 0.215958 0.493351
O O10 0.000000 0.500000 0.500000
O O11 0.988498 0.286460 0.489521
O O12 0.780634 0.453302 0.664584
O O13 0.784917 0.636307 0.650834
O O14 0.777679 0.758291 0.047380
O O15 0.433899 0.815413 0.147946
O O16 0.322163 0.121981 0.397805
O O17 0.500000 0.000000 0.000000
O O18 0.500000 0.500000 0.000000
#
# Coordination Sequence:
#
# PCOD9077232 Si02
#       8
#     2   2   2   2   2   2   2   2
#     4   9  21  34  50  82 114 151 179 226 290 345
#     4  11  20  32  58  85 115 144 185 236 290 324
#     4  10  18  34  57  85 110 150 185 225 288 351
#     4  10  20  35  57  86 111 145 183 230 294 336
#     4   9  17  35  54  76 109 143 180 230 276 336
#     4  11  19  33  55  84 111 142 189 239 274 335
#     4  11  21  32  53  82 112 146 192 233 279 336
#     4  11  22  34  57  88 119 139 184 251 286 321
#
# _framework density 21.144434
#
# number of rings (size 3 to 8) (size 9 to 14) (size 15 to 20)
#    0.000    1.750    5.000    1.500    3.500    0.500 
#    0.000    0.000    0.000    1.500    0.000    0.000 
#    0.000    0.000    0.000    0.000    0.000    0.000 
#
# Total GULP energy -89148.287896 kJ/mol
# GULP energy per Si atom -5571.767994 kJ/mol
# Density = 2.109631 g / cm^3
# Si number density = 21.144434 Si / 1000 Ang^3
#
#
#
# Elastic Constant Matrix: (Units=GPa)
#
#
# Indices 1 2 3 4 5 6 
#
# 1 144.0072 5.4487 78.7870 10.1027 22.2407 46.5239
# 2 5.4487 28.2646 11.9539 5.0060 3.3032 12.8546
# 3 78.7870 11.9539 136.0690 18.0647 7.9732 34.8759
# 4 10.1027 5.0060 18.0647 28.8057 11.6600 13.1058
# 5 22.2407 3.3032 7.9732 11.6600 38.1467 4.8578
# 6 46.5239 12.8546 34.8759 13.1058 4.8578 28.7408
#
#
#
# Elastic Compliance Matrix: (Units=1/GPa)
#
#
# Indices 1 2 3 4 5 6 
#
# 1 0.027873 0.019694 -0.006009 0.021695 -0.016488 -0.053742
# 2 0.019694 0.058804 -0.002509 0.017697 -0.013705 -0.060888
# 3 -0.006009 -0.002509 0.012057 -0.005441 0.003096 -0.001825
# 4 0.021695 0.017697 -0.005441 0.066005 -0.025291 -0.062255
# 5 -0.016488 -0.013705 0.003096 -0.025291 0.039784 0.033871
# 6 -0.053742 -0.060888 -0.001825 -0.062255 0.033871 0.173899
#
#
# Mechanical properties :
#
#
# Convention : Reuss Voigt Hill
#
# Bulk Modulus (GPa) = 8.25860 55.63557 31.94708
# Shear Modulus (GPa) = 12.61251 33.28206 22.94728
#
# Velocity S-wave (km/s) = 2.44497 3.97171 3.29791
# Velocity P-wave (km/s) = 3.44743 6.88491 5.44457
#
# Compressibility (1/GPa) = 0.12108590
#
# Stress axis : x y z
#
# Youngs Moduli (GPa) = 35.87693 17.00578 82.93632
#
# Poissons Ratio (x) = -0.33491 0.49834
# Poissons Ratio (y) = -0.70656 0.20812
# Poissons Ratio (z) = 0.21557 0.04268
#
# Static dielectric constant tensor:
#      x y z
#    x 1.678710 0.072600 0.026380 
#    y 0.072600 1.793870 0.014070 
#    z 0.026380 0.014070 1.751410 
# 
# From -- ./inp_files/347357.got.cif
#   From: 2010.05.17/outbox.cif.g08.bks.cpg/sg2_174_cif.got.tgz:347357.got - 2010.06.03 11:33:40.
