data_PCOD9077508
_publ_section_title
;
Structure prediction by ZEFSAII (Michael W. Deem and Ramdas Pophale) SiO2 
 PCOD9077508
Probable space group: P -1
;
_chemical_formula_sum "Si O2"
_cell_formula_units_Z 16
_cell_length_a 14.779104
_cell_length_b 8.710150
_cell_length_c 8.935221
_cell_angle_alpha 62.277327
_cell_angle_beta 79.177731
_cell_angle_gamma 123.874842
_cell_volume 670.978760
_symmetry_space_group_name_H-M "P -1"
_symmetry_group_IT_number 2
_symmetry_cell_setting 'triclinic'
loop_
_space_group_symop_operation_xyz
x,y,z
-x,-y,-z
loop_
_atom_site_type_symbol
_atom_site_label
_atom_site_fract_x
_atom_site_fract_y
_atom_site_fract_z
Si Si1 0.735227 0.140414 0.194374
Si Si2 0.048786 0.541272 0.254593
Si Si3 0.736480 0.036425 0.565031
Si Si4 0.938186 0.823767 0.454546
Si Si5 0.185345 0.066225 0.129320
Si Si6 0.416872 0.333131 0.746385
Si Si7 0.487053 0.935045 0.783767
Si Si8 0.633407 0.408897 0.739892
O O1 0.735774 0.017464 0.394005
O O2 0.624395 0.138494 0.262258
O O3 0.667440 0.947417 0.162749
O O4 0.883079 0.390569 0.962593
O O5 0.075290 0.399118 0.399628
O O6 0.120184 0.799970 0.200506
O O7 0.884624 0.341518 0.395725
O O8 0.755412 0.905819 0.737875
O O9 0.599106 0.950890 0.689373
O O10 0.787099 0.677474 0.534903
O O11 0.056325 0.011727 0.210102
O O12 0.000000 0.000000 0.500000
O O13 0.307928 0.300348 0.878741
O O14 0.500000 0.500000 0.500000
O O15 0.529911 0.423788 0.784249
O O16 0.579080 0.211518 0.711511
O O17 0.386247 0.722835 0.041414
#
# Coordination Sequence:
#
# PCOD9077508 Si02
#       8
#     2   2   2   2   2   2   2   2
#     4  10  21  35  56  89 122 148 196 259 302 342
#     4  10  20  38  62  83 121 164 206 239 284 373
#     4  11  19  32  57  94 116 146 194 254 303 340
#     4  11  22  37  58  94 125 155 195 253 305 352
#     4  10  21  40  64  87 114 166 214 237 290 373
#     4  10  22  41  60  83 114 159 206 250 294 364
#     4  10  18  34  60  87 113 153 206 243 292 352
#     4  10  19  37  61  82 115 162 198 242 296 363
#
# _framework density 23.845763999999999
#
# number of rings (size 3 to 8) (size 9 to 14) (size 15 to 20)
#    0.000    1.750    2.500    3.750    0.000    2.000 
#    2.250    3.125    0.000    0.000    0.000    0.000 
#    0.000    0.000    0.000    0.000    0.000    0.000 
#
# Total GULP energy -89259.825517 kJ/mol
# GULP energy per Si atom -5578.739095 kJ/mol
# Density = 2.379149 g / cm^3
# Si number density = 23.845764 Si / 1000 Ang^3
#
#
#
# Elastic Constant Matrix: (Units=GPa)
#
#
# Indices 1 2 3 4 5 6 
#
# 1 72.7434 20.0080 47.4760 1.5022 -39.1179 13.4188
# 2 20.0080 32.1129 3.7591 4.6226 -9.0489 10.4612
# 3 47.4760 3.7591 132.0572 9.5017 -47.5396 9.7568
# 4 1.5022 4.6226 9.5017 20.3417 -0.3429 0.7816
# 5 -39.1179 -9.0489 -47.5396 -0.3429 52.2876 3.6727
# 6 13.4188 10.4612 9.7568 0.7816 3.6727 27.9859
#
#
#
# Elastic Compliance Matrix: (Units=1/GPa)
#
#
# Indices 1 2 3 4 5 6 
#
# 1 0.031612 -0.009651 -0.002993 0.002105 0.020201 -0.013216
# 2 -0.009651 0.045447 0.007140 -0.012214 0.008151 -0.015579
# 3 -0.002993 0.007140 0.013881 -0.007395 0.012092 -0.007453
# 4 0.002105 -0.012214 -0.007395 0.054898 -0.007293 0.005558
# 5 0.020201 0.008151 0.012092 -0.007293 0.048215 -0.023072
# 6 -0.013216 -0.015579 -0.007453 0.005558 -0.023072 0.053364
#
#
# Mechanical properties :
#
#
# Convention : Reuss Voigt Hill
#
# Bulk Modulus (GPa) = 12.51062 42.15552 27.33307
# Shear Modulus (GPa) = 17.53951 31.16772 24.35361
#
# Velocity S-wave (km/s) = 2.71503 3.61924 3.19924
# Velocity P-wave (km/s) = 3.88412 5.93144 5.01340
#
# Compressibility (1/GPa) = 0.07993208
#
# Stress axis : x y z
#
# Youngs Moduli (GPa) = 31.63316 22.00348 72.04011
#
# Poissons Ratio (x) = 0.21236 0.21563
# Poissons Ratio (y) = 0.30530 -0.51437
# Poissons Ratio (z) = 0.09469 -0.15710
#
# Static dielectric constant tensor:
#      x y z
#    x 1.978740 -0.012200 -0.017850 
#    y -0.012200 1.944960 -0.036190 
#    z -0.017850 -0.036190 2.023280 
# 
# From -- ./inp_files/297637.got.cif
#   From: 2010.05.17/outbox.cif.g08.bks.cpg/sg2_149_cif.got.tgz:297637.got - 2010.06.03 11:33:40.
