data_PCOD9077577
_publ_section_title
;
Structure prediction by ZEFSAII (Michael W. Deem and Ramdas Pophale) SiO2 
 PCOD9077577
Probable space group: P -1
;
_chemical_formula_sum "Si O2"
_cell_formula_units_Z 16
_cell_length_a 10.694876
_cell_length_b 11.130907
_cell_length_c 9.593852
_cell_angle_alpha 114.928735
_cell_angle_beta 56.773883
_cell_angle_gamma 122.244731
_cell_volume 794.457243
_symmetry_space_group_name_H-M "P -1"
_symmetry_group_IT_number 2
_symmetry_cell_setting 'triclinic'
loop_
_space_group_symop_operation_xyz
x,y,z
-x,-y,-z
loop_
_atom_site_type_symbol
_atom_site_label
_atom_site_fract_x
_atom_site_fract_y
_atom_site_fract_z
Si Si1 0.974282 0.109879 0.858135
Si Si2 0.457400 0.285579 0.807016
Si Si3 0.374426 0.967306 0.685938
Si Si4 0.705681 0.570030 0.818985
Si Si5 0.997760 0.169859 0.202490
Si Si6 0.315306 0.303333 0.615903
Si Si7 0.364484 0.864153 0.940957
Si Si8 0.487712 0.628767 0.742414
O O1 0.128862 0.200746 0.712465
O O2 0.017766 0.159061 0.017398
O O3 0.813572 0.134555 0.926878
O O4 0.944277 0.941213 0.805072
O O5 0.641485 0.397267 0.779828
O O6 0.419583 0.272077 0.659839
O O7 0.399679 0.122710 0.813394
O O8 0.351555 0.365295 0.980278
O O9 0.195436 0.889300 0.692303
O O10 0.389513 0.876817 0.764095
O O11 0.500000 0.000000 0.500000
O O12 0.600298 0.599316 0.774680
O O13 0.895034 0.668098 0.735986
O O14 0.358408 0.474608 0.690061
O O15 0.387397 0.288606 0.416516
O O16 0.392571 0.723185 0.900785
O O17 0.500000 0.000000 0.000000
#
# Coordination Sequence:
#
# PCOD9077577 Si02
#       8
#     2   2   2   2   2   2   2   2
#     4  10  19  34  61  81 111 150 192 232 272 335
#     4  10  18  34  61  83 107 143 195 229 278 328
#     4  11  22  37  60  82 110 152 189 233 282 333
#     4  10  19  34  60  87 108 143 185 243 275 323
#     4  10  18  35  58  87 109 139 199 236 271 331
#     4  10  19  37  59  84 110 154 188 228 279 340
#     4  11  23  38  54  82 118 149 184 234 284 334
#     4  10  22  36  56  84 122 147 183 227 290 341
#
# _framework density 20.139534999999999
#
# number of rings (size 3 to 8) (size 9 to 14) (size 15 to 20)
#    0.000    1.750    2.500    3.750    0.000    0.500 
#    2.250    1.875    0.000    0.000    0.000    0.000 
#    0.000    0.000    0.000    0.000    0.000    0.000 
#
# Total GULP energy -89275.154561 kJ/mol
# GULP energy per Si atom -5579.697160 kJ/mol
# Density = 2.009370 g / cm^3
# Si number density = 20.139535 Si / 1000 Ang^3
#
#
#
# Elastic Constant Matrix: (Units=GPa)
#
#
# Indices 1 2 3 4 5 6 
#
# 1 72.7338 44.1078 16.1232 1.6292 -9.5404 18.6831
# 2 44.1078 101.4447 1.9964 -6.8688 -20.4096 35.2084
# 3 16.1232 1.9964 50.9409 -25.2415 -3.9843 11.7104
# 4 1.6292 -6.8688 -25.2415 33.7942 0.8218 -1.1026
# 5 -9.5404 -20.4096 -3.9843 0.8218 20.2402 -6.9012
# 6 18.6831 35.2084 11.7104 -1.1026 -6.9012 37.5703
#
#
#
# Elastic Compliance Matrix: (Units=1/GPa)
#
#
# Indices 1 2 3 4 5 6 
#
# 1 0.024408 -0.013677 -0.016479 -0.016031 -0.003261 0.004746
# 2 -0.013677 0.027558 0.019092 0.019412 0.017059 -0.021271
# 3 -0.016479 0.019092 0.050696 0.041524 0.012267 -0.022026
# 4 -0.016031 0.019412 0.041524 0.064428 0.011013 -0.019248
# 5 -0.003261 0.017059 0.012267 0.011013 0.065019 -0.005922
# 6 0.004746 -0.021271 -0.022026 -0.019248 -0.005922 0.049403
#
#
# Mechanical properties :
#
#
# Convention : Reuss Voigt Hill
#
# Bulk Modulus (GPa) = 12.41727 38.84160 25.62944
# Shear Modulus (GPa) = 15.12920 29.18040 22.15480
#
# Velocity S-wave (km/s) = 2.74381 3.81059 3.32032
# Velocity P-wave (km/s) = 4.02703 6.22004 5.23956
#
# Compressibility (1/GPa) = 0.08053298
#
# Stress axis : x y z
#
# Youngs Moduli (GPa) = 40.97001 36.28747 19.72529
#
# Poissons Ratio (x) = 0.49631 0.32505
# Poissons Ratio (y) = 0.56036 -0.37659
# Poissons Ratio (z) = 0.67514 -0.69279
#
# Static dielectric constant tensor:
#      x y z
#    x 1.703880 -0.009110 -0.005860 
#    y -0.009110 1.783590 -0.014600 
#    z -0.005860 -0.014600 1.726970 
# 
# From -- ./inp_files/259910.got.cif
#   From: 2010.05.17/outbox.cif.g08.bks.cpg/sg2_130_cif.got.tgz:259910.got - 2010.06.03 11:33:40.
