data_PCOD9077099
_publ_section_title
;
Structure prediction by ZEFSAII (Michael W. Deem and Ramdas Pophale) SiO2 
 PCOD9077099
Probable space group: P -1
;
_chemical_formula_sum "Si O2"
_cell_formula_units_Z 16
_cell_length_a 8.192640
_cell_length_b 18.577427
_cell_length_c 6.655296
_cell_angle_alpha 75.850901
_cell_angle_beta 108.547521
_cell_angle_gamma 137.022553
_cell_volume 654.547521
_symmetry_space_group_name_H-M "P -1"
_symmetry_group_IT_number 2
_symmetry_cell_setting 'triclinic'
loop_
_space_group_symop_operation_xyz
x,y,z
-x,-y,-z
loop_
_atom_site_type_symbol
_atom_site_label
_atom_site_fract_x
_atom_site_fract_y
_atom_site_fract_z
Si Si1 0.265683 0.670587 0.891298
Si Si2 0.738581 0.500576 0.883627
Si Si3 0.091160 0.196203 0.118441
Si Si4 0.154758 0.961018 0.178269
Si Si5 0.223795 0.377899 0.831676
Si Si6 0.666049 0.854372 0.610159
Si Si7 0.634399 0.150627 0.065525
Si Si8 0.743750 0.171645 0.567346
O O1 0.459257 0.746925 0.737944
O O2 0.316239 0.748420 0.026492
O O3 0.976617 0.589218 0.780714
O O4 0.291321 0.596522 0.038818
O O5 0.476525 0.454148 0.756593
O O6 0.797317 0.555110 0.088182
O O7 0.163224 0.165026 0.353771
O O8 0.818932 0.148267 0.047593
O O9 0.245956 0.316886 0.046972
O O10 0.088684 0.140465 0.961238
O O11 0.255014 0.916031 0.343009
O O12 0.163034 0.031862 0.287195
O O13 0.350528 0.045632 0.028089
O O14 0.991144 0.283689 0.672626
O O15 0.490516 0.855866 0.413645
O O16 0.713603 0.171672 0.317884
#
# Coordination Sequence:
#
# PCOD9077099 Si02
#       8
#     2   2   2   2   2   2   2   2
#     4   9  18  32  54  79 103 137 170 218 266 300
#     4  10  18  34  56  78 106 136 178 224 256 306
#     4  11  19  33  56  84 103 136 183 220 250 310
#     4   9  19  35  58  74 106 144 177 206 268 311
#     4  10  20  34  58  80 103 137 183 214 264 307
#     4  10  19  35  54  79 110 139 171 219 264 309
#     4  10  19  35  54  79 110 139 171 219 264 309
#     4   9  20  38  54  74 111 144 167 209 273 322
#
# _framework density 24.444368999999998
#
# number of rings (size 3 to 8) (size 9 to 14) (size 15 to 20)
#    0.000    2.500    2.500    2.250    0.000    0.000 
#    0.000   10.000    0.000    0.000    0.000    0.000 
#    0.000    0.000    0.000    0.000    0.000    0.000 
#
# Total GULP energy -89136.829341 kJ/mol
# GULP energy per Si atom -5571.051834 kJ/mol
# Density = 2.438873 g / cm^3
# Si number density = 24.444369 Si / 1000 Ang^3
#
#
#
# Elastic Constant Matrix: (Units=GPa)
#
#
# Indices 1 2 3 4 5 6 
#
# 1 82.8167 26.1204 1.5203 -3.4442 23.3982 -14.8124
# 2 26.1204 136.7506 14.2545 -3.3400 5.4880 -25.8395
# 3 1.5203 14.2545 22.8524 -5.3135 2.1525 -17.4929
# 4 -3.4442 -3.3400 -5.3135 30.8675 -5.9843 10.8940
# 5 23.3982 5.4880 2.1525 -5.9843 31.8165 -7.9473
# 6 -14.8124 -25.8395 -17.4929 10.8940 -7.9473 50.4142
#
#
#
# Elastic Compliance Matrix: (Units=1/GPa)
#
#
# Indices 1 2 3 4 5 6 
#
# 1 0.016565 -0.002498 0.003843 -0.001159 -0.011386 0.003376
# 2 -0.002498 0.008611 -0.003275 -0.000701 0.001160 0.002878
# 3 0.003843 -0.003275 0.061737 0.003493 -0.000787 0.019994
# 4 -0.001159 -0.000701 0.003493 0.036195 0.005954 -0.006371
# 5 -0.011386 0.001160 -0.000787 0.005954 0.041327 0.002205
# 6 0.003376 0.002878 0.019994 -0.006371 0.002205 0.030964
#
#
# Mechanical properties :
#
#
# Convention : Reuss Voigt Hill
#
# Bulk Modulus (GPa) = 12.04041 36.24555 24.14298
# Shear Modulus (GPa) = 22.03194 35.98792 29.00993
#
# Velocity S-wave (km/s) = 3.00544 3.84114 3.44870
# Velocity P-wave (km/s) = 4.12066 5.87643 5.07505
#
# Compressibility (1/GPa) = 0.08305368
#
# Stress axis : x y z
#
# Youngs Moduli (GPa) = 60.36972 116.12834 16.19774
#
# Poissons Ratio (x) = 0.29010 -0.06225
# Poissons Ratio (y) = 0.15081 0.05304
# Poissons Ratio (z) = -0.23201 0.38027
#
# Static dielectric constant tensor:
#      x y z
#    x 2.085420 0.039760 0.010680 
#    y 0.039760 1.929420 -0.019560 
#    z 0.010680 -0.019560 2.047040 
# 
# From -- ./inp_files/200149.got.cif
#   From: 2010.05.17/outbox.cif.g08.bks.cpg/sg2_101_cif.got.tgz:200149.got - 2010.06.03 11:33:40.
