data_PCOD9077519
_publ_section_title
;
Structure prediction by ZEFSAII (Michael W. Deem and Ramdas Pophale) SiO2 
 PCOD9077519
Probable space group: P -1
;
_chemical_formula_sum "Si O2"
_cell_formula_units_Z 16
_cell_length_a 12.206284
_cell_length_b 15.210209
_cell_length_c 11.150494
_cell_angle_alpha 83.658986
_cell_angle_beta 112.213019
_cell_angle_gamma 152.617837
_cell_volume 748.029357
_symmetry_space_group_name_H-M "P -1"
_symmetry_group_IT_number 2
_symmetry_cell_setting 'triclinic'
loop_
_space_group_symop_operation_xyz
x,y,z
-x,-y,-z
loop_
_atom_site_type_symbol
_atom_site_label
_atom_site_fract_x
_atom_site_fract_y
_atom_site_fract_z
Si Si1 0.822974 0.664580 0.888758
Si Si2 0.261968 0.586689 0.085582
Si Si3 0.750628 0.021105 0.751039
Si Si4 0.140625 0.612504 0.246172
Si Si5 0.761769 0.443059 0.302079
Si Si6 0.361040 0.455532 0.835644
Si Si7 0.660524 0.089019 0.390860
Si Si8 0.678599 0.043286 0.135392
O O1 0.649390 0.453852 0.880319
O O2 0.570447 0.566870 0.796842
O O3 0.025468 0.782967 0.839943
O O4 0.064828 0.852493 0.065542
O O5 0.173929 0.546737 0.193537
O O6 0.483349 0.817995 0.102208
O O7 0.975847 0.402100 0.906830
O O8 0.008828 0.188955 0.733045
O O9 0.496842 0.772298 0.688575
O O10 0.574538 0.992377 0.678373
O O11 0.898487 0.458451 0.274010
O O12 0.462876 0.868854 0.385030
O O13 0.631182 0.432993 0.169279
O O14 0.038911 0.676301 0.452484
O O15 0.500000 0.500000 0.000000
O O16 0.736795 0.120064 0.280473
O O17 0.500000 0.000000 0.000000
#
# Coordination Sequence:
#
# PCOD9077519 Si02
#       8
#     2   2   2   2   2   2   2   2
#     4  11  21  39  63  88 124 159 202 254 299 357
#     4  10  20  34  59  91 120 156 197 251 304 354
#     4  11  22  39  61  94 124 156 208 250 305 372
#     4  10  18  34  60  87 122 155 191 248 315 353
#     4  12  24  39  62  91 126 167 197 254 314 356
#     4  10  24  42  61  86 122 165 211 248 293 364
#     4  11  22  39  59  96 129 154 199 257 313 367
#     4  11  21  37  63  93 123 154 202 256 306 360
#
# _framework density 21.389533
#
# number of rings (size 3 to 8) (size 9 to 14) (size 15 to 20)
#    0.000    1.250    3.750    3.750    1.750    3.000 
#    0.000    0.625    0.000    3.750    0.000    0.000 
#    0.000    0.000    0.000    0.000    0.000    0.000 
#
# Total GULP energy -89356.007329 kJ/mol
# GULP energy per Si atom -5584.750458 kJ/mol
# Density = 2.134085 g / cm^3
# Si number density = 21.389533 Si / 1000 Ang^3
#
#
#
# Elastic Constant Matrix: (Units=GPa)
#
#
# Indices 1 2 3 4 5 6 
#
# 1 99.3054 46.1849 28.4966 13.9730 1.2907 24.5214
# 2 46.1849 115.2763 20.8744 21.6833 6.8211 14.6307
# 3 28.4966 20.8744 63.3382 16.8982 -7.8059 3.1994
# 4 13.9730 21.6833 16.8982 24.2596 2.0770 -4.2950
# 5 1.2907 6.8211 -7.8059 2.0770 28.8573 2.2479
# 6 24.5214 14.6307 3.1994 -4.2950 2.2479 48.3333
#
#
#
# Elastic Compliance Matrix: (Units=1/GPa)
#
#
# Indices 1 2 3 4 5 6 
#
# 1 0.015202 -0.003804 -0.004352 -0.003472 -0.000196 -0.006572
# 2 -0.003804 0.012352 -0.000037 -0.009108 -0.001907 -0.002528
# 3 -0.004352 -0.000037 0.022393 -0.013833 0.007321 -0.000833
# 4 -0.003472 -0.009108 -0.013833 0.063607 -0.006900 0.011407
# 5 -0.000196 -0.001907 0.007321 -0.006900 0.037760 -0.002177
# 6 -0.006572 -0.002528 -0.000833 0.011407 -0.002177 0.025959
#
#
# Mechanical properties :
#
#
# Convention : Reuss Voigt Hill
#
# Bulk Modulus (GPa) = 29.79533 52.11462 40.95498
# Shear Modulus (GPa) = 24.40860 32.44762 28.42811
#
# Velocity S-wave (km/s) = 3.38175 3.89908 3.64959
# Velocity P-wave (km/s) = 5.40448 6.68490 6.07850
#
# Compressibility (1/GPa) = 0.03356230
#
# Stress axis : x y z
#
# Youngs Moduli (GPa) = 65.78217 80.95641 44.65624
#
# Poissons Ratio (x) = 0.30793 0.19434
# Poissons Ratio (y) = 0.25021 0.00165
# Poissons Ratio (z) = 0.28627 0.00300
#
# Static dielectric constant tensor:
#      x y z
#    x 1.775970 0.026240 -0.017980 
#    y 0.026240 1.849430 -0.018800 
#    z -0.017980 -0.018800 1.793110 
# 
# From -- ./inp_files/433963.got.cif
#   From: 2010.05.17/outbox.cif.g08.bks.cpg/sg2_217_cif.got.tgz:433963.got - 2010.06.03 11:33:40.
