data_PCOD9077090
_publ_section_title
;
Structure prediction by ZEFSAII (Michael W. Deem and Ramdas Pophale) SiO2 
 PCOD9077090
Probable space group: P -1
;
_chemical_formula_sum "Si O2"
_cell_formula_units_Z 16
_cell_length_a 8.848430
_cell_length_b 9.074474
_cell_length_c 16.327119
_cell_angle_alpha 59.294895
_cell_angle_beta 106.630250
_cell_angle_gamma 137.470049
_cell_volume 752.744652
_symmetry_space_group_name_H-M "P -1"
_symmetry_group_IT_number 2
_symmetry_cell_setting 'triclinic'
loop_
_space_group_symop_operation_xyz
x,y,z
-x,-y,-z
loop_
_atom_site_type_symbol
_atom_site_label
_atom_site_fract_x
_atom_site_fract_y
_atom_site_fract_z
Si Si1 0.774791 0.860432 0.374048
Si Si2 0.484646 0.258193 0.083364
Si Si3 0.604786 0.897100 0.067292
Si Si4 0.851112 0.422412 0.598193
Si Si5 0.519098 0.695793 0.541176
Si Si6 0.470082 0.844240 0.234491
Si Si7 0.159924 0.905601 0.409379
Si Si8 0.896793 0.798961 0.971307
O O1 0.727593 0.833222 0.471562
O O2 0.599925 0.580207 0.391602
O O3 0.690991 0.966404 0.287451
O O4 0.016257 0.967545 0.364036
O O5 0.733441 0.526970 0.061601
O O6 0.464406 0.044203 0.163441
O O7 0.456622 0.254188 0.981042
O O8 0.279461 0.213230 0.100226
O O9 0.491849 0.765970 0.173444
O O10 0.500000 0.000000 0.000000
O O11 0.878106 0.104962 0.062193
O O12 0.656322 0.327053 0.530815
O O13 0.750842 0.376342 0.684784
O O14 0.877569 0.241954 0.633947
O O15 0.057653 0.702721 0.523224
O O16 0.594169 0.845422 0.593280
O O17 0.000000 0.000000 0.000000
#
# Coordination Sequence:
#
# PCOD9077090 Si02
#       8
#     2   2   2   2   2   2   2   2
#     4   9  19  32  50  77 105 133 174 223 264 319
#     4   9  19  37  61  80 107 146 179 221 275 326
#     4   9  19  35  56  80 109 144 177 218 272 326
#     4   9  20  34  52  78 106 138 183 226 259 316
#     4   9  17  34  53  72 104 140 173 216 271 322
#     4  10  20  36  51  79 114 135 177 233 267 311
#     4  10  18  34  56  74 102 148 182 212 272 324
#     4   9  18  37  60  81 103 140 184 218 268 333
#
# _framework density 21.255548000000001
#
# number of rings (size 3 to 8) (size 9 to 14) (size 15 to 20)
#    0.000    2.750    0.000    1.500    0.000    3.000 
#    0.000   18.750    0.000    0.000    0.000    0.000 
#    0.000    0.000    0.000    0.000    0.000    0.000 
#
# Total GULP energy -89108.975604 kJ/mol
# GULP energy per Si atom -5569.310975 kJ/mol
# Density = 2.120717 g / cm^3
# Si number density = 21.255548 Si / 1000 Ang^3
#
#
#
# Elastic Constant Matrix: (Units=GPa)
#
#
# Indices 1 2 3 4 5 6 
#
# 1 105.8383 1.5522 21.9181 -3.9531 0.9380 3.4542
# 2 1.5522 66.9927 -0.6462 -2.9790 -5.4495 5.4128
# 3 21.9181 -0.6462 63.6939 6.4143 -5.1444 3.8630
# 4 -3.9531 -2.9790 6.4143 9.0022 -2.7782 1.6969
# 5 0.9380 -5.4495 -5.1444 -2.7782 34.2724 -3.7313
# 6 3.4542 5.4128 3.8630 1.6969 -3.7313 15.4647
#
#
#
# Elastic Compliance Matrix: (Units=1/GPa)
#
#
# Indices 1 2 3 4 5 6 
#
# 1 0.010752 0.000227 -0.004424 0.008243 -0.000516 -0.002405
# 2 0.000227 0.015915 -0.000100 0.007293 0.002469 -0.005800
# 3 -0.004424 -0.000100 0.018928 -0.014653 0.001571 -0.001718
# 4 0.008243 0.007293 -0.014653 0.132550 0.008027 -0.013341
# 5 -0.000516 0.002469 0.001571 0.008027 0.031067 0.005474
# 6 -0.002405 -0.005800 -0.001718 -0.013341 0.005474 0.070445
#
#
# Mechanical properties :
#
#
# Convention : Reuss Voigt Hill
#
# Bulk Modulus (GPa) = 27.02554 31.35258 29.18906
# Shear Modulus (GPa) = 16.63433 25.99457 21.31445
#
# Velocity S-wave (km/s) = 2.80051 3.50087 3.17009
# Velocity P-wave (km/s) = 4.81657 5.57887 5.21168
#
# Compressibility (1/GPa) = 0.03700203
#
# Stress axis : x y z
#
# Youngs Moduli (GPa) = 93.00562 62.83555 52.83153
#
# Poissons Ratio (x) = -0.01427 0.23370
# Poissons Ratio (y) = -0.02112 0.00528
# Poissons Ratio (z) = 0.41141 0.00628
#
# Static dielectric constant tensor:
#      x y z
#    x 1.882130 -0.020160 -0.010910 
#    y -0.020160 1.792010 0.007140 
#    z -0.010910 0.007140 1.798650 
# 
# From -- ./inp_files/556095.got.cif
#   From: 2010.05.17/outbox.cif.g08.bks.cpg/sg2_279_cif.got.tgz:556095.got - 2010.06.03 11:33:40.
