data_PCOD9077286
_publ_section_title
;
Structure prediction by ZEFSAII (Michael W. Deem and Ramdas Pophale) SiO2 
 PCOD9077286
Probable space group: P -1
;
_chemical_formula_sum "Si O2"
_cell_formula_units_Z 12
_cell_length_a 14.360739
_cell_length_b 20.120285
_cell_length_c 7.688884
_cell_angle_alpha 98.231620
_cell_angle_beta 111.667262
_cell_angle_gamma 21.248990
_cell_volume 600.531228
_symmetry_space_group_name_H-M "P -1"
_symmetry_group_IT_number 2
_symmetry_cell_setting 'triclinic'
loop_
_space_group_symop_operation_xyz
x,y,z
-x,-y,-z
loop_
_atom_site_type_symbol
_atom_site_label
_atom_site_fract_x
_atom_site_fract_y
_atom_site_fract_z
Si Si1 0.239341 0.775743 0.880960
Si Si2 0.789161 0.649796 0.585000
Si Si3 0.387130 0.509246 0.310956
Si Si4 0.557118 0.701594 0.006562
Si Si5 0.147339 0.071864 0.089642
Si Si6 0.528471 0.274621 0.437037
O O1 0.360879 0.663238 0.744077
O O2 0.506045 0.664407 0.060569
O O3 0.841224 0.226595 0.027957
O O4 0.879298 0.043256 0.697268
O O5 0.046766 0.531974 0.823453
O O6 0.423779 0.912492 0.369686
O O7 0.716786 0.625490 0.618721
O O8 0.000000 0.500000 0.500000
O O9 0.500000 0.500000 0.500000
O O10 0.394375 0.436225 0.399159
O O11 0.020066 0.760454 0.067853
O O12 0.410626 0.783538 0.744368
O O13 0.343878 0.895735 0.028914
#
# Coordination Sequence:
#
# PCOD9077286 Si02
#       6
#     2   2   2   2   2   2
#     4  10  20  35  56  81 107 140 179 216 260 316
#     4   9  20  36  55  77 106 143 179 213 260 319
#     4  11  21  34  54  83 110 137 174 224 268 306
#     4  10  18  34  58  80 104 142 180 215 258 316
#     4  10  20  35  54  81 110 138 174 221 263 308
#     4  10  20  36  56  80 106 140 180 217 260 317
#
# _framework density 19.982309000000001
#
# number of rings (size 3 to 8) (size 9 to 14) (size 15 to 20)
#    0.000    2.000    0.000    5.500    0.000    2.667 
#    0.000    6.667    0.000   10.000    0.000    0.000 
#    0.000    0.000    0.000    0.000    0.000    0.000 
#
# Total GULP energy -66980.696363 kJ/mol
# GULP energy per Si atom -5581.724697 kJ/mol
# Density = 1.993683 g / cm^3
# Si number density = 19.982309 Si / 1000 Ang^3
#
#
#
# Elastic Constant Matrix: (Units=GPa)
#
#
# Indices 1 2 3 4 5 6 
#
# 1 104.9653 35.1787 42.1003 -21.5629 11.6768 -2.8551
# 2 35.1787 61.5629 7.9268 -2.5708 0.7566 5.9763
# 3 42.1003 7.9268 55.9053 -14.5324 1.1116 17.6695
# 4 -21.5629 -2.5708 -14.5324 25.6632 -1.0468 -3.6839
# 5 11.6768 0.7566 1.1116 -1.0468 30.5661 -4.8063
# 6 -2.8551 5.9763 17.6695 -3.6839 -4.8063 32.9699
#
#
#
# Elastic Compliance Matrix: (Units=1/GPa)
#
#
# Indices 1 2 3 4 5 6 
#
# 1 0.024110 -0.012333 -0.018081 0.010619 -0.005623 0.014380
# 2 -0.012333 0.022994 0.007730 -0.004973 0.002178 -0.009617
# 3 -0.018081 0.007730 0.038755 0.004304 0.001839 -0.022988
# 4 0.010619 -0.004973 0.004304 0.050469 -0.001588 0.004922
# 5 -0.005623 0.002178 0.001839 -0.001588 0.035174 0.003083
# 6 0.014380 -0.009617 -0.022988 0.004922 0.003083 0.046638
#
#
# Mechanical properties :
#
#
# Convention : Reuss Voigt Hill
#
# Bulk Modulus (GPa) = 24.69513 43.64945 34.17229
# Shear Modulus (GPa) = 18.05026 26.98836 22.51931
#
# Velocity S-wave (km/s) = 3.00878 3.67906 3.36067
# Velocity P-wave (km/s) = 4.94526 6.31971 5.67426
#
# Compressibility (1/GPa) = 0.04049382
#
# Stress axis : x y z
#
# Youngs Moduli (GPa) = 41.47624 43.48870 25.80319
#
# Poissons Ratio (x) = 0.53633 0.46654
# Poissons Ratio (y) = 0.51151 -0.19947
# Poissons Ratio (z) = 0.74992 -0.33619
#
# Static dielectric constant tensor:
#      x y z
#    x 1.744500 -0.014470 0.021370 
#    y -0.014470 1.699360 -0.007490 
#    z 0.021370 -0.007490 1.776080 
# 
# From -- ./inp_files/318381.got.cif
#   From: 2010.05.17/outbox.cif.g08.bks.cpg/sg2_160_cif.got.tgz:318381.got - 2010.06.03 11:33:40.
