data_PCOD9077079
_publ_section_title
;
Structure prediction by ZEFSAII (Michael W. Deem and Ramdas Pophale) SiO2 
 PCOD9077079
Probable space group: P -1
;
_chemical_formula_sum "Si O2"
_cell_formula_units_Z 16
_cell_length_a 13.796197
_cell_length_b 25.757141
_cell_length_c 17.346571
_cell_angle_alpha 17.172605
_cell_angle_beta 31.222228
_cell_angle_gamma 23.770212
_cell_volume 723.953845
_symmetry_space_group_name_H-M "P -1"
_symmetry_group_IT_number 2
_symmetry_cell_setting 'triclinic'
loop_
_space_group_symop_operation_xyz
x,y,z
-x,-y,-z
loop_
_atom_site_type_symbol
_atom_site_label
_atom_site_fract_x
_atom_site_fract_y
_atom_site_fract_z
Si Si1 0.943546 0.476155 0.444329
Si Si2 0.412426 0.249700 0.835141
Si Si3 0.891393 0.435155 0.275156
Si Si4 0.239322 0.965867 0.408931
Si Si5 0.304876 0.250877 0.377392
Si Si6 0.826191 0.844415 0.651232
Si Si7 0.531853 0.466873 0.933631
Si Si8 0.043844 0.190973 0.928335
O O1 0.932078 0.666647 0.227510
O O2 0.172116 0.326488 0.443253
O O3 0.976137 0.310690 0.721459
O O4 0.711171 0.603329 0.366584
O O5 0.292971 0.125477 0.108887
O O6 0.697822 0.055936 0.905474
O O7 0.336830 0.418192 0.719634
O O8 0.121169 0.290341 0.382605
O O9 0.956253 0.263531 0.405294
O O10 0.873277 0.631522 0.964565
O O11 0.467525 0.698762 0.616377
O O12 0.208491 0.008622 0.460800
O O13 0.000000 0.000000 0.500000
O O14 0.565480 0.000499 0.563437
O O15 0.350802 0.429610 0.076850
O O16 0.800711 0.241241 0.049765
O O17 0.500000 0.500000 0.000000
#
# Coordination Sequence:
#
# PCOD9077079 Si02
#       8
#     2   2   2   2   2   2   2   2
#     4  10  19  34  53  77 112 146 192 232 274 344
#     4  10  21  36  55  81 112 153 191 231 279 334
#     4   9  20  34  56  85 110 143 200 238 270 333
#     4  11  21  35  58  89 121 147 183 234 293 341
#     4  11  20  36  58  83 114 149 186 240 286 331
#     4  10  18  34  55  85 116 146 184 239 286 322
#     4  12  22  36  53  85 120 147 181 231 292 347
#     4  11  21  34  53  79 114 154 187 226 284 344
#
# _framework density 22.100857000000001
#
# number of rings (size 3 to 8) (size 9 to 14) (size 15 to 20)
#    0.000    1.500    2.500    6.000    0.000    0.000 
#    0.000    0.000    0.000    0.750    0.000   37.625 
#    0.000    0.000    0.000    0.000    0.000    0.000 
#
# Total GULP energy -89360.096525 kJ/mol
# GULP energy per Si atom -5585.006033 kJ/mol
# Density = 2.205055 g / cm^3
# Si number density = 22.100857 Si / 1000 Ang^3
#
#
#
# Elastic Constant Matrix: (Units=GPa)
#
#
# Indices 1 2 3 4 5 6 
#
# 1 47.8972 40.3387 19.2821 3.5751 12.5286 17.7162
# 2 40.3387 158.1822 30.6525 -22.6669 2.2888 12.7391
# 3 19.2821 30.6525 80.8794 -46.0271 -6.7723 -3.5632
# 4 3.5751 -22.6669 -46.0271 77.8957 18.0864 7.0577
# 5 12.5286 2.2888 -6.7723 18.0864 33.9092 6.5715
# 6 17.7162 12.7391 -3.5632 7.0577 6.5715 35.0865
#
#
#
# Elastic Compliance Matrix: (Units=1/GPa)
#
#
# Indices 1 2 3 4 5 6 
#
# 1 0.042180 -0.007907 -0.013345 -0.008297 -0.010149 -0.016213
# 2 -0.007907 0.008665 0.000302 0.002853 0.000847 0.000145
# 3 -0.013345 0.000302 0.023704 0.013915 0.001052 0.006040
# 4 -0.008297 0.002853 0.013915 0.023862 -0.007295 0.001133
# 5 -0.010149 0.000847 0.001052 -0.007295 0.037403 -0.000614
# 6 -0.016213 0.000145 0.006040 0.001133 -0.000614 0.037135
#
#
# Mechanical properties :
#
#
# Convention : Reuss Voigt Hill
#
# Bulk Modulus (GPa) = 30.62824 51.94506 41.28665
# Shear Modulus (GPa) = 22.15019 42.49063 32.32041
#
# Velocity S-wave (km/s) = 3.16924 4.38948 3.82829
# Velocity P-wave (km/s) = 5.22308 7.01746 6.18568
#
# Compressibility (1/GPa) = 0.03264961
#
# Stress axis : x y z
#
# Youngs Moduli (GPa) = 23.70789 115.41274 42.18671
#
# Poissons Ratio (x) = 0.91256 0.56297
# Poissons Ratio (y) = 0.18746 -0.01275
# Poissons Ratio (z) = 0.31638 -0.03487
#
# Static dielectric constant tensor:
#      x y z
#    x 1.788810 -0.010280 -0.012700 
#    y -0.010280 1.839320 0.001360 
#    z -0.012700 0.001360 1.849390 
# 
# From -- ./inp_files/255307.got.cif
#   From: 2010.05.17/outbox.cif.g08.bks.cpg/sg2_128_cif.got.tgz:255307.got - 2010.06.03 11:33:40.
