data_PCOD9077373
_publ_section_title
;
Structure prediction by ZEFSAII (Michael W. Deem and Ramdas Pophale) SiO2 
 PCOD9077373
Probable space group: P -1
;
_chemical_formula_sum "Si O2"
_cell_formula_units_Z 16
_cell_length_a 16.972662
_cell_length_b 8.637145
_cell_length_c 7.240106
_cell_angle_alpha 108.405484
_cell_angle_beta 70.479145
_cell_angle_gamma 142.883406
_cell_volume 601.384503
_symmetry_space_group_name_H-M "P -1"
_symmetry_group_IT_number 2
_symmetry_cell_setting 'triclinic'
loop_
_space_group_symop_operation_xyz
x,y,z
-x,-y,-z
loop_
_atom_site_type_symbol
_atom_site_label
_atom_site_fract_x
_atom_site_fract_y
_atom_site_fract_z
Si Si1 0.920343 0.599478 0.730492
Si Si2 0.879408 0.700411 0.424853
Si Si3 0.249817 0.796009 0.758275
Si Si4 0.655220 0.605766 0.430356
Si Si5 0.696486 0.429783 0.902180
Si Si6 0.474370 0.880228 0.713145
Si Si7 0.186438 0.883608 0.471678
Si Si8 0.353959 0.290441 0.950785
O O1 0.849712 0.586176 0.609233
O O2 0.837212 0.580179 0.931638
O O3 0.882008 0.352762 0.694162
O O4 0.072028 0.821192 0.636020
O O5 0.875102 0.519308 0.250130
O O6 0.772818 0.654964 0.395394
O O7 0.000000 0.000000 0.500000
O O8 0.377563 0.873065 0.707039
O O9 0.235879 0.849444 0.587049
O O10 0.275518 0.001136 0.932046
O O11 0.532398 0.303509 0.457326
O O12 0.644775 0.668394 0.257033
O O13 0.701415 0.833561 0.595317
O O14 0.612986 0.172520 0.751458
O O15 0.594195 0.275924 0.099194
O O16 0.706106 0.629593 0.897297
O O17 0.500000 0.500000 0.000000
#
# Coordination Sequence:
#
# PCOD9077373 Si02
#       8
#     2   2   2   2   2   2   2   2
#     4  10  20  35  57  83 112 152 190 226 287 344
#     4  10  18  34  59  80 110 150 188 233 283 330
#     4   9  18  33  58  84 107 150 194 225 287 342
#     4   9  18  33  58  84 107 150 194 225 287 342
#     4  10  20  35  57  83 112 152 190 226 287 344
#     4   9  18  35  57  81 111 148 186 238 281 331
#     4   9  18  35  57  81 111 148 186 238 281 331
#     4  10  18  34  59  80 110 150 188 233 283 330
#
# _framework density 26.605274999999999
#
# number of rings (size 3 to 8) (size 9 to 14) (size 15 to 20)
#    0.000    2.500    2.500    0.000    0.000    0.000 
#    0.000   13.750    0.000    0.000    0.000    0.000 
#    0.000    0.000    0.000    0.000    0.000    0.000 
#
# Total GULP energy -89069.861774 kJ/mol
# GULP energy per Si atom -5566.866361 kJ/mol
# Density = 2.654472 g / cm^3
# Si number density = 26.605275 Si / 1000 Ang^3
#
#
#
# Elastic Constant Matrix: (Units=GPa)
#
#
# Indices 1 2 3 4 5 6 
#
# 1 162.0897 66.6552 27.5736 11.8473 -11.7194 -3.9899
# 2 66.6552 206.4637 29.1898 40.8464 -24.4807 -35.0106
# 3 27.5736 29.1898 40.5275 18.0365 -4.4480 -6.6163
# 4 11.8473 40.8464 18.0365 34.7945 -5.9219 -12.5658
# 5 -11.7194 -24.4807 -4.4480 -5.9219 44.9349 0.0975
# 6 -3.9899 -35.0106 -6.6163 -12.5658 0.0975 51.8026
#
#
#
# Elastic Compliance Matrix: (Units=1/GPa)
#
#
# Indices 1 2 3 4 5 6 
#
# 1 0.007818 -0.002439 -0.004726 0.002356 0.000555 -0.001079
# 2 -0.002439 0.007886 -0.000217 -0.006575 0.002765 0.003514
# 3 -0.004726 -0.000217 0.035378 -0.016474 -0.000020 0.000012
# 4 0.002356 -0.006575 -0.016474 0.046195 0.001479 0.004836
# 5 0.000555 0.002765 -0.000020 0.001479 0.024093 0.002222
# 6 -0.001079 0.003514 0.000012 0.004836 0.002222 0.022766
#
#
# Mechanical properties :
#
#
# Convention : Reuss Voigt Hill
#
# Bulk Modulus (GPa) = 27.53523 72.87980 50.20752
# Shear Modulus (GPa) = 29.23870 45.35054 37.29462
#
# Velocity S-wave (km/s) = 3.31869 4.13312 3.74809
# Velocity P-wave (km/s) = 5.00569 7.08727 6.13540
#
# Compressibility (1/GPa) = 0.03631710
#
# Stress axis : x y z
#
# Youngs Moduli (GPa) = 127.91416 126.80547 28.26640
#
# Poissons Ratio (x) = 0.30928 0.13359
# Poissons Ratio (y) = 0.31199 0.00614
# Poissons Ratio (z) = 0.60452 0.02754
#
# Static dielectric constant tensor:
#      x y z
#    x 2.340110 0.358920 -0.785990 
#    y 0.358920 2.486920 -0.766690 
#    z -0.785990 -0.766690 4.422890 
# 
# From -- ./inp_files/329296.got.cif
#   From: 2010.05.17/outbox.cif.g08.bks.cpg/sg2_165_cif.got.tgz:329296.got - 2010.06.03 11:33:40.
