data_PCOD9078455
_publ_section_title
;
Structure prediction by ZEFSAII (Michael W. Deem and Ramdas Pophale) SiO2 
 PCOD9078455
Probable space group: P -1
;
_chemical_formula_sum "Si O2"
_cell_formula_units_Z 14
_cell_length_a 10.853017
_cell_length_b 9.489967
_cell_length_c 9.457249
_cell_angle_alpha 53.130551
_cell_angle_beta 72.532261
_cell_angle_gamma 54.813643
_cell_volume 635.312113
_symmetry_space_group_name_H-M "P -1"
_symmetry_group_IT_number 2
_symmetry_cell_setting 'triclinic'
loop_
_space_group_symop_operation_xyz
x,y,z
-x,-y,-z
loop_
_atom_site_type_symbol
_atom_site_label
_atom_site_fract_x
_atom_site_fract_y
_atom_site_fract_z
Si Si1 0.749839 0.385631 0.999609
Si Si2 0.300688 0.112083 0.871262
Si Si3 0.519576 0.214564 0.195696
Si Si4 0.089490 0.964729 0.635093
Si Si5 0.009948 0.800501 0.187633
Si Si6 0.495145 0.282075 0.779501
Si Si7 0.423197 0.737785 0.562111
O O1 0.642994 0.285892 0.084365
O O2 0.870381 0.242170 0.164240
O O3 0.546659 0.493408 0.291159
O O4 0.633929 0.624217 0.926920
O O5 0.402555 0.011171 0.757184
O O6 0.129445 0.210996 0.821722
O O7 0.350271 0.255919 0.842071
O O8 0.367512 0.906960 0.069371
O O9 0.484360 0.237376 0.359337
O O10 0.253159 0.911827 0.557478
O O11 0.011755 0.148920 0.667579
O O12 0.000000 0.000000 0.500000
O O13 0.166120 0.628365 0.167958
O O14 0.000000 0.000000 0.000000
O O15 0.546117 0.254838 0.615692
#
# Coordination Sequence:
#
# PCOD9078455 Si02
#       7
#     2   2   2   2   2   2   2
#     4   9  18  32  56  90 111 155 192 240 281 357
#     4  11  20  39  60  92 119 151 200 247 286 353
#     4  10  18  35  63  84 115 150 208 237 282 355
#     4  10  20  31  55  87 115 148 201 242 280 346
#     4  10  19  33  57  88 111 159 191 238 290 352
#     4  10  24  35  61  88 123 153 195 247 299 337
#     4  10  21  39  57  88 114 164 191 245 291 351
#
# _framework density 22.036413
#
# number of rings (size 3 to 8) (size 9 to 14) (size 15 to 20)
#    0.000    2.000    4.286    2.571    4.000    1.714 
#    0.000    0.000    3.143   11.143    0.000    0.000 
#    0.000    0.000    0.000    0.000    0.000    0.000 
#
# Total GULP energy -78051.726385 kJ/mol
# GULP energy per Si atom -5575.123313 kJ/mol
# Density = 2.198626 g / cm^3
# Si number density = 22.036413 Si / 1000 Ang^3
#
#
#
# Elastic Constant Matrix: (Units=GPa)
#
#
# Indices 1 2 3 4 5 6 
#
# 1 50.7720 32.6059 40.3164 3.9231 18.7484 -7.9240
# 2 32.6059 65.0936 27.3603 23.8543 -0.2089 -9.6244
# 3 40.3164 27.3603 130.2221 32.9678 23.7421 -2.2941
# 4 3.9231 23.8543 32.9678 31.8286 2.9074 2.3573
# 5 18.7484 -0.2089 23.7421 2.9074 30.7240 1.0943
# 6 -7.9240 -9.6244 -2.2941 2.3573 1.0943 36.4333
#
#
#
# Elastic Compliance Matrix: (Units=1/GPa)
#
#
# Indices 1 2 3 4 5 6 
#
# 1 0.075473 -0.048081 -0.019324 0.050029 -0.036196 0.000347
# 2 -0.048081 0.053669 0.011570 -0.049088 0.025165 0.006869
# 3 -0.019324 0.011570 0.017290 -0.024379 0.000763 0.001497
# 4 0.050029 -0.049088 -0.024379 0.089792 -0.020206 -0.008824
# 5 -0.036196 0.025165 0.000763 -0.020206 0.056184 -0.001557
# 6 0.000347 0.006869 0.001497 -0.008824 -0.001557 0.030049
#
#
# Mechanical properties :
#
#
# Convention : Reuss Voigt Hill
#
# Bulk Modulus (GPa) = 28.76811 49.62811 39.19811
# Shear Modulus (GPa) = 11.21792 29.51750 20.36771
#
# Velocity S-wave (km/s) = 2.25869 3.66387 3.04349
# Velocity P-wave (km/s) = 4.45930 6.36148 5.49335
#
# Compressibility (1/GPa) = 0.03476071
#
# Stress axis : x y z
#
# Youngs Moduli (GPa) = 13.24980 18.63280 57.83630
#
# Poissons Ratio (x) = 0.89589 1.11766
# Poissons Ratio (y) = 0.63707 -0.66917
# Poissons Ratio (z) = 0.25605 -0.21558
#
# Static dielectric constant tensor:
#      x y z
#    x 1.846930 -0.018390 -0.003520 
#    y -0.018390 1.844640 0.020830 
#    z -0.003520 0.020830 1.919220 
# 
# From -- ./inp_files/264243.got.cif
#   From: 2010.05.17/outbox.cif.g08.bks.cpg/sg2_133_cif.got.tgz:264243.got - 2010.06.03 11:33:40.
