data_PCOD9078920
_publ_section_title
;
Structure prediction by ZEFSAII (Michael W. Deem and Ramdas Pophale) SiO2 
 PCOD9078920
Probable space group: P -1
;
_chemical_formula_sum "Si O2"
_cell_formula_units_Z 16
_cell_length_a 8.833997
_cell_length_b 11.626134
_cell_length_c 12.318328
_cell_angle_alpha 118.826769
_cell_angle_beta 134.548799
_cell_angle_gamma 68.872661
_cell_volume 789.391538
_symmetry_space_group_name_H-M "P -1"
_symmetry_group_IT_number 2
_symmetry_cell_setting 'triclinic'
loop_
_space_group_symop_operation_xyz
x,y,z
-x,-y,-z
loop_
_atom_site_type_symbol
_atom_site_label
_atom_site_fract_x
_atom_site_fract_y
_atom_site_fract_z
Si Si1 0.134177 0.725850 0.875915
Si Si2 0.264650 0.958633 0.897956
Si Si3 0.274703 0.619115 0.122957
Si Si4 0.258365 0.199601 0.153656
Si Si5 0.167288 0.193622 0.696723
Si Si6 0.879377 0.662521 0.055629
Si Si7 0.672412 0.542593 0.199329
Si Si8 0.733961 0.093050 0.367101
O O1 0.246129 0.830140 0.904178
O O2 0.166772 0.582397 0.772125
O O3 0.893736 0.771253 0.807212
O O4 0.244924 0.710584 0.043633
O O5 0.174218 0.926786 0.719116
O O6 0.500000 0.000000 0.000000
O O7 0.176977 0.076787 0.984588
O O8 0.519148 0.575502 0.239198
O O9 0.130248 0.680532 0.172935
O O10 0.158053 0.481376 0.981792
O O11 0.504234 0.165564 0.286033
O O12 0.228602 0.319274 0.107823
O O13 0.220916 0.233169 0.864723
O O14 0.223134 0.321664 0.715919
O O15 0.917776 0.167800 0.553390
O O16 0.283343 0.055322 0.664028
O O17 0.500000 0.500000 0.000000
#
# Coordination Sequence:
#
# PCOD9078920 Si02
#       8
#     2   2   2   2   2   2   2   2
#     4  10  20  35  55  90 118 143 194 246 291 328
#     4  10  21  34  57  83 115 156 195 233 281 345
#     4   9  20  31  59  92 115 145 187 245 283 342
#     4  10  21  35  60  87 116 151 192 245 283 343
#     4  11  21  41  59  85 118 153 197 237 289 347
#     4  10  18  36  60  88 116 144 197 233 287 341
#     4  10  20  33  61  86 111 148 190 241 285 335
#     4  10  24  38  59  84 118 160 192 234 290 350
#
# _framework density 20.268775000000002
#
# number of rings (size 3 to 8) (size 9 to 14) (size 15 to 20)
#    0.000    2.000    3.750    0.375   10.500    0.000 
#    0.000    2.500    0.000    3.000    0.000    0.000 
#    0.000    0.000    0.000    0.000    0.000    0.000 
#
# Total GULP energy -89107.724235 kJ/mol
# GULP energy per Si atom -5569.232765 kJ/mol
# Density = 2.022264 g / cm^3
# Si number density = 20.268775 Si / 1000 Ang^3
#
#
#
# Elastic Constant Matrix: (Units=GPa)
#
#
# Indices 1 2 3 4 5 6 
#
# 1 118.6036 62.7464 5.1726 -0.4991 11.7147 -11.2275
# 2 62.7464 132.7571 17.5298 6.9942 13.9485 5.1171
# 3 5.1726 17.5298 27.4805 -3.1311 10.2319 1.6311
# 4 -0.4991 6.9942 -3.1311 18.2779 1.3069 6.9428
# 5 11.7147 13.9485 10.2319 1.3069 14.4478 -6.0507
# 6 -11.2275 5.1171 1.6311 6.9428 -6.0507 49.9947
#
#
#
# Elastic Compliance Matrix: (Units=1/GPa)
#
#
# Indices 1 2 3 4 5 6 
#
# 1 0.012200 -0.005851 0.004114 0.002992 -0.006593 0.001991
# 2 -0.005851 0.011677 -0.005644 -0.004606 -0.002972 -0.002045
# 3 0.004114 -0.005644 0.058370 0.018624 -0.044411 -0.008364
# 4 0.002992 -0.004606 0.018624 0.065560 -0.021792 -0.011206
# 5 -0.006593 -0.002972 -0.044411 -0.021792 0.118227 0.017607
# 6 0.001991 -0.002045 -0.008364 -0.011206 0.017607 0.024619
#
#
# Mechanical properties :
#
#
# Convention : Reuss Voigt Hill
#
# Bulk Modulus (GPa) = 14.81847 49.97098 32.39473
# Shear Modulus (GPa) = 15.24808 29.43689 22.34249
#
# Velocity S-wave (km/s) = 2.74577 3.81508 3.32371
# Velocity P-wave (km/s) = 4.16884 6.64184 5.54497
#
# Compressibility (1/GPa) = 0.06748335
#
# Stress axis : x y z
#
# Youngs Moduli (GPa) = 81.96927 85.63897 17.13215
#
# Poissons Ratio (x) = 0.50106 -0.07047
# Poissons Ratio (y) = 0.47959 0.09670
# Poissons Ratio (z) = -0.33718 0.48336
#
# Static dielectric constant tensor:
#      x y z
#    x 1.789060 -0.039970 -0.021860 
#    y -0.039970 1.783000 -0.014170 
#    z -0.021860 -0.014170 1.748320 
# 
# From -- ./inp_files/392896.got.cif
#   From: 2010.05.17/outbox.cif.g08.bks.cpg/sg2_197_cif.got.tgz:392896.got - 2010.06.03 11:33:40.
