data_PCOD9078466
_publ_section_title
;
Structure prediction by ZEFSAII (Michael W. Deem and Ramdas Pophale) SiO2 
 PCOD9078466
Probable space group: P -1
;
_chemical_formula_sum "Si O2"
_cell_formula_units_Z 16
_cell_length_a 11.002897
_cell_length_b 15.210987
_cell_length_c 12.128881
_cell_angle_alpha 98.804086
_cell_angle_beta 108.780147
_cell_angle_gamma 142.708601
_cell_volume 816.041878
_symmetry_space_group_name_H-M "P -1"
_symmetry_group_IT_number 2
_symmetry_cell_setting 'triclinic'
loop_
_space_group_symop_operation_xyz
x,y,z
-x,-y,-z
loop_
_atom_site_type_symbol
_atom_site_label
_atom_site_fract_x
_atom_site_fract_y
_atom_site_fract_z
Si Si1 0.769535 0.403849 0.581068
Si Si2 0.338687 0.981254 0.386597
Si Si3 0.177429 0.557815 0.154374
Si Si4 0.797772 0.183974 0.292707
Si Si5 0.161518 0.951302 0.550324
Si Si6 0.113709 0.807148 0.052187
Si Si7 0.310235 0.271036 0.479645
Si Si8 0.105782 0.250298 0.223505
O O1 0.603870 0.210438 0.461013
O O2 0.927915 0.484890 0.760509
O O3 0.502362 0.304409 0.517630
O O4 0.991013 0.596586 0.603911
O O5 0.865260 0.170239 0.805889
O O6 0.500000 0.000000 0.500000
O O7 0.155879 0.919484 0.415184
O O8 0.516967 0.802365 0.290637
O O9 0.000000 0.500000 0.000000
O O10 0.111663 0.413250 0.087806
O O11 0.854757 0.150268 0.402287
O O12 0.898496 0.192576 0.215047
O O13 0.450745 0.990725 0.152744
O O14 0.913167 0.861176 0.509193
O O15 0.009607 0.824814 0.949513
O O16 0.125134 0.178648 0.296872
O O17 0.558588 0.501239 0.624344
#
# Coordination Sequence:
#
# PCOD9078466 Si02
#       8
#     2   2   2   2   2   2   2   2
#     4  10  22  38  63  87 112 155 200 234 287 349
#     4  11  23  41  54  85 126 160 182 232 300 358
#     4  11  20  34  55  88 115 149 192 244 283 340
#     4  10  18  35  63  88 114 148 198 244 292 334
#     4  10  21  37  64  83 117 160 192 234 290 348
#     4  12  20  35  58  86 126 148 191 242 303 337
#     4   9  18  38  62  84 113 146 208 238 279 337
#     4   9  19  33  59  93 108 146 193 260 282 327
#
# _framework density 19.606836999999999
#
# number of rings (size 3 to 8) (size 9 to 14) (size 15 to 20)
#    0.000    1.750    5.000    1.875    0.000    2.500 
#    0.000    1.250    0.000    0.000    0.000    0.000 
#    0.000    0.000    0.000    0.000    0.000    0.000 
#
# Total GULP energy -89221.025492 kJ/mol
# GULP energy per Si atom -5576.314093 kJ/mol
# Density = 1.956221 g / cm^3
# Si number density = 19.606837 Si / 1000 Ang^3
#
#
#
# Elastic Constant Matrix: (Units=GPa)
#
#
# Indices 1 2 3 4 5 6 
#
# 1 31.4750 22.7249 16.8740 3.4938 6.3315 13.4011
# 2 22.7249 116.8578 22.1788 4.5508 -0.8084 4.6940
# 3 16.8740 22.1788 75.3782 -20.4699 -5.9510 13.9095
# 4 3.4938 4.5508 -20.4699 41.4153 -3.4365 0.1613
# 5 6.3315 -0.8084 -5.9510 -3.4365 32.0235 1.3981
# 6 13.4011 4.6940 13.9095 0.1613 1.3981 34.0859
#
#
#
# Elastic Compliance Matrix: (Units=1/GPa)
#
#
# Indices 1 2 3 4 5 6 
#
# 1 0.052835 -0.007360 -0.010652 -0.009937 -0.013030 -0.014830
# 2 -0.007360 0.010371 -0.002156 -0.001506 0.001054 0.002309
# 3 -0.010652 -0.002156 0.020992 0.012147 0.007450 -0.004445
# 4 -0.009937 -0.001506 0.012147 0.031793 0.007653 -0.001307
# 5 -0.013030 0.001054 0.007450 0.007653 0.036017 0.000424
# 6 -0.014830 0.002309 -0.004445 -0.001307 0.000424 0.036653
#
#
# Mechanical properties :
#
#
# Convention : Reuss Voigt Hill
#
# Bulk Modulus (GPa) = 22.79915 38.58516 30.69215
# Shear Modulus (GPa) = 20.52397 32.30050 26.41223
#
# Velocity S-wave (km/s) = 3.23890 4.06323 3.67426
# Velocity P-wave (km/s) = 5.06367 6.46029 5.80414
#
# Compressibility (1/GPa) = 0.04386128
#
# Stress axis : x y z
#
# Youngs Moduli (GPa) = 18.92701 96.42263 47.63672
#
# Poissons Ratio (x) = 0.70969 0.50745
# Poissons Ratio (y) = 0.13931 0.10269
# Poissons Ratio (z) = 0.20162 0.20785
#
# Static dielectric constant tensor:
#      x y z
#    x 1.710480 -0.025860 -0.004440 
#    y -0.025860 1.761120 -0.027800 
#    z -0.004440 -0.027800 1.683190 
# 
# From -- ./inp_files/520272.got.cif
#   From: 2010.05.17/outbox.cif.g08.bks.cpg/sg2_261_cif.got.tgz:520272.got - 2010.06.03 11:33:40.
