data_PCOD9078132
_publ_section_title
;
Structure prediction by ZEFSAII (Michael W. Deem and Ramdas Pophale) SiO2 
 PCOD9078132
Probable space group: P -1
;
_chemical_formula_sum "Si O2"
_cell_formula_units_Z 14
_cell_length_a 14.677213
_cell_length_b 7.257693
_cell_length_c 14.628401
_cell_angle_alpha 65.470218
_cell_angle_beta 28.731347
_cell_angle_gamma 80.370010
_cell_volume 608.577324
_symmetry_space_group_name_H-M "P -1"
_symmetry_group_IT_number 2
_symmetry_cell_setting 'triclinic'
loop_
_space_group_symop_operation_xyz
x,y,z
-x,-y,-z
loop_
_atom_site_type_symbol
_atom_site_label
_atom_site_fract_x
_atom_site_fract_y
_atom_site_fract_z
Si Si1 0.350378 0.211350 0.124775
Si Si2 0.554903 0.681325 0.775223
Si Si3 0.453472 0.125832 0.429742
Si Si4 0.826207 0.276872 0.649770
Si Si5 0.984788 0.024406 0.899976
Si Si6 0.813687 0.508220 0.446705
Si Si7 0.440393 0.406161 0.673961
O O1 0.333454 0.216832 0.247980
O O2 0.188855 0.972108 0.272761
O O3 0.360418 0.438592 0.024272
O O4 0.590735 0.240670 0.892198
O O5 0.496377 0.845232 0.729065
O O6 0.708388 0.612343 0.592695
O O7 0.568676 0.388464 0.305627
O O8 0.500000 0.000000 0.500000
O O9 0.198415 0.021306 0.677360
O O10 0.862402 0.337090 0.498178
O O11 0.000000 0.500000 0.500000
O O12 0.773490 0.821830 0.090894
O O13 0.005550 0.270642 0.805000
O O14 0.000000 0.000000 0.000000
O O15 0.635682 0.383383 0.553023
O O16 0.500000 0.500000 0.500000
#
# Coordination Sequence:
#
# PCOD9078132 Si02
#       7
#     2   2   2   2   2   2   2
#     4   9  18  37  60  75 109 149 189 230 282 339
#     4   8  17  38  56  76 108 154 186 221 285 342
#     4  10  22  36  53  88 121 143 190 244 283 337
#     4  10  21  36  54  89 113 139 188 245 283 333
#     4  10  18  36  58  80 110 157 193 223 281 345
#     4   9  20  34  55  83 115 142 195 235 279 337
#     4  10  18  35  59  78 109 158 195 232 278 338
#
# _framework density 23.004470999999999
#
# number of rings (size 3 to 8) (size 9 to 14) (size 15 to 20)
#    0.000    2.857    2.857    0.000    0.000    6.286 
#    2.571   12.143    0.000    0.000    0.000    0.000 
#    0.000    0.000    0.000    0.000    0.000    0.000 
#
# Total GULP energy -78036.574900 kJ/mol
# GULP energy per Si atom -5574.041064 kJ/mol
# Density = 2.295211 g / cm^3
# Si number density = 23.004471 Si / 1000 Ang^3
#
#
#
# Elastic Constant Matrix: (Units=GPa)
#
#
# Indices 1 2 3 4 5 6 
#
# 1 106.5317 11.8909 78.5250 -16.1688 18.7297 8.6143
# 2 11.8909 43.1523 42.1823 -24.0648 -4.2030 7.1492
# 3 78.5250 42.1823 150.9858 -40.7346 -15.4406 10.9455
# 4 -16.1688 -24.0648 -40.7346 46.0619 9.5181 -4.2635
# 5 18.7297 -4.2030 -15.4406 9.5181 59.0447 -4.5931
# 6 8.6143 7.1492 10.9455 -4.2635 -4.5931 29.8936
#
#
#
# Elastic Compliance Matrix: (Units=1/GPa)
#
#
# Indices 1 2 3 4 5 6 
#
# 1 0.020546 0.007654 -0.013212 0.001189 -0.009952 -0.004274
# 2 0.007654 0.040987 -0.011649 0.014304 -0.005370 -0.006528
# 3 -0.013212 -0.011649 0.018566 0.004260 0.007653 0.001578
# 4 0.001189 0.014304 0.004260 0.034059 -0.003817 -0.001052
# 5 -0.009952 -0.005370 0.007653 -0.003817 0.022661 0.004287
# 6 -0.004274 -0.006528 0.001578 -0.001052 0.004287 0.036175
#
#
# Mechanical properties :
#
#
# Convention : Reuss Voigt Hill
#
# Bulk Modulus (GPa) = 21.88757 62.87401 42.38079
# Shear Modulus (GPa) = 22.45821 38.20481 30.33151
#
# Velocity S-wave (km/s) = 3.12790 4.07966 3.63506
# Velocity P-wave (km/s) = 4.75185 7.04145 6.00675
#
# Compressibility (1/GPa) = 0.04568803
#
# Stress axis : x y z
#
# Youngs Moduli (GPa) = 48.67040 24.39808 53.86132
#
# Poissons Ratio (x) = -0.18675 0.71159
# Poissons Ratio (y) = -0.37254 0.62741
# Poissons Ratio (z) = 0.64301 0.28420
#
# Static dielectric constant tensor:
#      x y z
#    x 1.928580 -0.063470 0.033870 
#    y -0.063470 1.959770 0.033340 
#    z 0.033870 0.033340 1.875920 
# 
# From -- ./inp_files/504712.got.cif
#   From: 2010.05.17/outbox.cif.g08.bks.cpg/sg2_253_cif.got.tgz:504712.got - 2010.06.03 11:33:40.
