data_PCOD9078987
_publ_section_title
;
Structure prediction by ZEFSAII (Michael W. Deem and Ramdas Pophale) SiO2 
 PCOD9078987
Probable space group: P -1
;
_chemical_formula_sum "Si O2"
_cell_formula_units_Z 16
_cell_length_a 15.331268
_cell_length_b 16.145483
_cell_length_c 12.981216
_cell_angle_alpha 35.452611
_cell_angle_beta 130.621060
_cell_angle_gamma 151.160033
_cell_volume 876.297439
_symmetry_space_group_name_H-M "P -1"
_symmetry_group_IT_number 2
_symmetry_cell_setting 'triclinic'
loop_
_space_group_symop_operation_xyz
x,y,z
-x,-y,-z
loop_
_atom_site_type_symbol
_atom_site_label
_atom_site_fract_x
_atom_site_fract_y
_atom_site_fract_z
Si Si1 0.584541 0.736148 0.445386
Si Si2 0.665486 0.769088 0.244587
Si Si3 0.750015 0.042452 0.837906
Si Si4 0.299708 0.233807 0.102568
Si Si5 0.171012 0.363821 0.534512
Si Si6 0.203599 0.952910 0.510469
Si Si7 0.468046 0.904733 0.459691
Si Si8 0.147886 0.366569 0.757317
O O1 0.654066 0.822351 0.295463
O O2 0.522018 0.508031 0.638158
O O3 0.385455 0.620765 0.425581
O O4 0.728098 0.921490 0.454928
O O5 0.818796 0.792671 0.332752
O O6 0.700023 0.914530 0.034402
O O7 0.642848 0.085685 0.699977
O O8 0.971471 0.275644 0.760335
O O9 0.696399 0.884492 0.862130
O O10 0.241651 0.107617 0.293680
O O11 0.500000 0.500000 0.000000
O O12 0.168427 0.232893 0.961960
O O13 0.123247 0.325385 0.657354
O O14 0.014704 0.289898 0.423176
O O15 0.337829 0.953091 0.584357
O O16 0.336950 0.638842 0.639684
O O17 0.500000 0.000000 0.500000
#
# Coordination Sequence:
#
# PCOD9078987 Si02
#       8
#     2   2   2   2   2   2   2   2
#     4   9  20  39  59  85 116 151 198 244 293 331
#     4   9  19  39  58  85 117 151 193 250 286 339
#     4  12  22  35  59  87 118 157 192 236 299 347
#     4  12  19  33  57  85 115 148 192 239 287 345
#     4  10  18  36  61  86 111 148 197 235 292 344
#     4  12  21  34  59  84 115 157 192 238 286 348
#     4  12  23  38  53  87 126 157 188 235 300 355
#     4  12  21  37  58  88 122 153 191 242 296 353
#
# _framework density 18.25864
#
# number of rings (size 3 to 8) (size 9 to 14) (size 15 to 20)
#    0.750    0.250    6.250    2.250    0.000    0.500 
#    0.000    0.625    0.000    0.750    0.000    0.000 
#    0.000    0.000    0.000    0.000    0.000    0.000 
#
# Total GULP energy -89271.677841 kJ/mol
# GULP energy per Si atom -5579.479865 kJ/mol
# Density = 1.821708 g / cm^3
# Si number density = 18.258640 Si / 1000 Ang^3
#
#
#
# Elastic Constant Matrix: (Units=GPa)
#
#
# Indices 1 2 3 4 5 6 
#
# 1 73.9146 25.5837 42.1832 25.6097 -7.9391 -4.2767
# 2 25.5837 91.2770 7.9238 18.6391 -6.2644 -0.4863
# 3 42.1832 7.9238 47.4487 12.7040 -2.0501 7.3339
# 4 25.6097 18.6391 12.7040 23.5112 0.8923 1.9390
# 5 -7.9391 -6.2644 -2.0501 0.8923 38.5813 12.0668
# 6 -4.2767 -0.4863 7.3339 1.9390 12.0668 33.6949
#
#
#
# Elastic Compliance Matrix: (Units=1/GPa)
#
#
# Indices 1 2 3 4 5 6 
#
# 1 0.045547 -0.003421 -0.033881 -0.029845 0.003458 0.013585
# 2 -0.003421 0.013580 0.003453 -0.008885 0.002297 -0.001301
# 3 -0.033881 0.003453 0.051079 0.007863 0.001204 -0.016252
# 4 -0.029845 -0.008885 0.007863 0.078730 -0.006543 -0.007815
# 5 0.003458 0.002297 0.001204 -0.006543 0.030446 -0.010317
# 6 0.013585 -0.001301 -0.016252 -0.007815 -0.010317 0.039065
#
#
# Mechanical properties :
#
#
# Convention : Reuss Voigt Hill
#
# Bulk Modulus (GPa) = 23.52537 40.44685 31.98611
# Shear Modulus (GPa) = 14.69229 28.28744 21.48987
#
# Velocity S-wave (km/s) = 2.83976 3.94034 3.43442
# Velocity P-wave (km/s) = 4.86465 6.54996 5.76917
#
# Compressibility (1/GPa) = 0.04250730
#
# Stress axis : x y z
#
# Youngs Moduli (GPa) = 21.95523 73.63873 19.57758
#
# Poissons Ratio (x) = 0.25191 0.66331
# Poissons Ratio (y) = 0.07511 -0.06760
# Poissons Ratio (z) = 0.74387 -0.25425
#
# Static dielectric constant tensor:
#      x y z
#    x 1.636600 0.031050 0.010980 
#    y 0.031050 1.661810 -0.008470 
#    z 0.010980 -0.008470 1.597110 
# 
# From -- ./inp_files/454534.got.cif
#   From: 2010.05.17/outbox.cif.g08.bks.cpg/sg2_228_cif.got.tgz:454534.got - 2010.06.03 11:33:40.
