data_PCOD9078203
_publ_section_title
;
Structure prediction by ZEFSAII (Michael W. Deem and Ramdas Pophale) SiO2 
 PCOD9078203
Probable space group: P -1
;
_chemical_formula_sum "Si O2"
_cell_formula_units_Z 16
_cell_length_a 9.829105
_cell_length_b 10.668163
_cell_length_c 16.828280
_cell_angle_alpha 56.056346
_cell_angle_beta 146.018692
_cell_angle_gamma 124.333926
_cell_volume 798.549426
_symmetry_space_group_name_H-M "P -1"
_symmetry_group_IT_number 2
_symmetry_cell_setting 'triclinic'
loop_
_space_group_symop_operation_xyz
x,y,z
-x,-y,-z
loop_
_atom_site_type_symbol
_atom_site_label
_atom_site_fract_x
_atom_site_fract_y
_atom_site_fract_z
Si Si1 0.133725 0.556521 0.127975
Si Si2 0.406241 0.518919 0.693796
Si Si3 0.133435 0.970469 0.761695
Si Si4 0.080023 0.744842 0.484445
Si Si5 0.349429 0.445931 0.026797
Si Si6 0.298346 0.891846 0.025670
Si Si7 0.273824 0.088704 0.079711
Si Si8 0.818054 0.113889 0.354859
O O1 0.383190 0.491143 0.265811
O O2 0.218543 0.743614 0.095720
O O3 0.000000 0.500000 0.000000
O O4 0.923626 0.514853 0.108590
O O5 0.308135 0.677435 0.585536
O O6 0.507615 0.504677 0.838038
O O7 0.170530 0.378513 0.615039
O O8 0.409314 0.085405 0.860145
O O9 0.945837 0.085064 0.617517
O O10 0.142321 0.860606 0.729003
O O11 0.120217 0.873638 0.869802
O O12 0.111458 0.753587 0.592480
O O13 0.305561 0.261502 0.063270
O O14 0.500000 0.500000 0.000000
O O15 0.282490 0.052707 0.003140
O O16 0.523635 0.038331 0.249908
O O17 0.000000 0.000000 0.000000
O O18 0.000000 0.000000 0.500000
#
# Coordination Sequence:
#
# PCOD9078203 Si02
#       8
#     2   2   2   2   2   2   2   2
#     4  10  21  38  59  87 124 162 203 260 321 361
#     4  10  21  36  60  89 124 170 207 246 311 385
#     4   9  19  32  59  90 121 152 205 258 303 367
#     4  10  18  35  59  89 124 169 212 240 308 392
#     4  11  24  39  62  96 123 159 211 268 316 370
#     4  10  19  34  57  91 122 156 204 259 313 363
#     4  11  21  37  63  89 120 158 204 263 317 363
#     4   9  19  34  57  90 118 160 204 254 305 374
#
# _framework density 20.036328999999999
#
# number of rings (size 3 to 8) (size 9 to 14) (size 15 to 20)
#    0.000    2.000    3.750    0.000    1.750    3.000 
#    0.000    0.000    0.000   16.500    3.250    0.000 
#    0.000    0.000    0.000    0.000    0.000    0.000 
#
# Total GULP energy -89078.893681 kJ/mol
# GULP energy per Si atom -5567.430855 kJ/mol
# Density = 1.999073 g / cm^3
# Si number density = 20.036329 Si / 1000 Ang^3
#
#
#
# Elastic Constant Matrix: (Units=GPa)
#
#
# Indices 1 2 3 4 5 6 
#
# 1 137.3896 28.6626 62.9797 -4.8349 26.3738 -13.8097
# 2 28.6626 66.3464 29.2478 13.3111 2.0425 -13.1702
# 3 62.9797 29.2478 93.0586 7.1620 12.7136 -7.8821
# 4 -4.8349 13.3111 7.1620 30.4407 -12.8989 0.1366
# 5 26.3738 2.0425 12.7136 -12.8989 40.9699 4.6663
# 6 -13.8097 -13.1702 -7.8821 0.1366 4.6663 32.6436
#
#
#
# Elastic Compliance Matrix: (Units=1/GPa)
#
#
# Indices 1 2 3 4 5 6 
#
# 1 0.012272 -0.001813 -0.006843 0.002023 -0.005457 0.003580
# 2 -0.001813 0.020921 -0.003628 -0.009732 -0.002636 0.007215
# 3 -0.006843 -0.003628 0.017164 -0.004452 -0.002155 0.000112
# 4 0.002023 -0.009732 -0.004452 0.045073 0.015501 -0.006550
# 5 -0.005457 -0.002636 -0.002155 0.015501 0.034616 -0.008905
# 6 0.003580 0.007215 0.000112 -0.006550 -0.008905 0.036387
#
#
# Mechanical properties :
#
#
# Convention : Reuss Voigt Hill
#
# Bulk Modulus (GPa) = 38.77562 59.84164 49.30863
# Shear Modulus (GPa) = 25.05068 32.53782 28.79425
#
# Velocity S-wave (km/s) = 3.53974 4.03419 3.79503
# Velocity P-wave (km/s) = 6.00841 7.18547 6.62314
#
# Compressibility (1/GPa) = 0.02578940
#
# Stress axis : x y z
#
# Youngs Moduli (GPa) = 81.48680 47.79911 58.26210
#
# Poissons Ratio (x) = 0.08664 0.39867
# Poissons Ratio (y) = 0.14770 0.21140
# Poissons Ratio (z) = 0.55759 0.17343
#
# Static dielectric constant tensor:
#      x y z
#    x 1.642000 0.016960 0.002230 
#    y 0.016960 1.720680 -0.005490 
#    z 0.002230 -0.005490 1.752430 
# 
# From -- ./inp_files/395530.got.cif
#   From: 2010.05.17/outbox.cif.g08.bks.cpg/sg2_198_cif.got.tgz:395530.got - 2010.06.03 11:33:40.
