data_PCOD9078471
_publ_section_title
;
Structure prediction by ZEFSAII (Michael W. Deem and Ramdas Pophale) SiO2 
 PCOD9078471
Probable space group: P -1
;
_chemical_formula_sum "Si O2"
_cell_formula_units_Z 16
_cell_length_a 7.266165
_cell_length_b 7.693044
_cell_length_c 16.633400
_cell_angle_alpha 79.336329
_cell_angle_beta 67.406909
_cell_angle_gamma 55.173597
_cell_volume 703.951943
_symmetry_space_group_name_H-M "P -1"
_symmetry_group_IT_number 2
_symmetry_cell_setting 'triclinic'
loop_
_space_group_symop_operation_xyz
x,y,z
-x,-y,-z
loop_
_atom_site_type_symbol
_atom_site_label
_atom_site_fract_x
_atom_site_fract_y
_atom_site_fract_z
Si Si1 0.901543 0.650090 0.228625
Si Si2 0.920067 0.781746 0.753731
Si Si3 0.006960 0.869536 0.902360
Si Si4 0.992815 0.646496 0.396482
Si Si5 0.161524 0.918864 0.400574
Si Si6 0.216466 0.658814 0.040569
Si Si7 0.332974 0.169884 0.423401
Si Si8 0.437449 0.876900 0.759973
O O1 0.967438 0.687071 0.302929
O O2 0.858891 0.462400 0.260228
O O3 0.102775 0.591856 0.133770
O O4 0.680216 0.876826 0.220543
O O5 0.700292 0.767056 0.761698
O O6 0.881463 0.861907 0.843993
O O7 0.939151 0.931187 0.674115
O O8 0.261557 0.822794 0.833314
O O9 0.076649 0.701946 0.975999
O O10 0.850526 0.107252 0.942935
O O11 0.739440 0.800827 0.473037
O O12 0.176394 0.705616 0.394003
O O13 0.094738 0.399460 0.415864
O O14 0.354256 0.964513 0.397763
O O15 0.000000 0.000000 0.500000
O O16 0.500000 0.500000 0.000000
O O17 0.534684 0.169824 0.337073
#
# Coordination Sequence:
#
# PCOD9078471 Si02
#       8
#     2   2   2   2   2   2   2   2
#     4  11  22  38  63  91 127 168 215 265 321 388
#     4  11  22  42  63  91 131 168 212 270 318 387
#     4  10  23  42  65  93 128 164 215 266 320 390
#     4  10  18  35  63  88 126 172 209 263 324 373
#     4   9  17  32  59  89 121 168 214 255 316 376
#     4  10  22  41  65  95 125 165 213 266 327 382
#     4   9  19  35  59  92 126 168 215 261 317 382
#     4  10  21  41  62  93 127 168 211 267 319 374
#
# _framework density 22.728823999999999
#
# number of rings (size 3 to 8) (size 9 to 14) (size 15 to 20)
#    0.000    2.000    2.500    2.250    0.000    2.000 
#    4.500   10.000    0.000    4.500    0.000    0.000 
#    0.000    0.000    0.000    0.000    0.000    0.000 
#
# Total GULP energy -89129.852232 kJ/mol
# GULP energy per Si atom -5570.615765 kJ/mol
# Density = 2.267709 g / cm^3
# Si number density = 22.728824 Si / 1000 Ang^3
#
#
#
# Elastic Constant Matrix: (Units=GPa)
#
#
# Indices 1 2 3 4 5 6 
#
# 1 60.8313 16.9794 34.5858 -0.5525 14.9514 2.1258
# 2 16.9794 61.8247 26.0011 -9.9847 2.5434 7.5817
# 3 34.5858 26.0011 180.8965 -10.3170 7.4430 -12.9230
# 4 -0.5525 -9.9847 -10.3170 37.1673 -4.2016 4.4985
# 5 14.9514 2.5434 7.4430 -4.2016 40.7832 2.2109
# 6 2.1258 7.5817 -12.9230 4.4985 2.2109 21.1960
#
#
#
# Elastic Compliance Matrix: (Units=1/GPa)
#
#
# Indices 1 2 3 4 5 6 
#
# 1 0.021368 -0.004366 -0.003404 -0.002435 -0.007115 -0.001398
# 2 -0.004366 0.020602 -0.002570 0.006191 0.001966 -0.010017
# 3 -0.003404 -0.002570 0.006969 0.000527 -0.000103 0.005408
# 4 -0.002435 0.006191 0.000527 0.030152 0.003976 -0.008463
# 5 -0.007115 0.001966 -0.000103 0.003976 0.027639 -0.003779
# 6 -0.001398 -0.010017 0.005408 -0.008463 -0.003779 0.056390
#
#
# Mechanical properties :
#
#
# Convention : Reuss Voigt Hill
#
# Bulk Modulus (GPa) = 35.38638 50.96500 43.17569
# Shear Modulus (GPa) = 25.87723 34.89504 30.38614
#
# Velocity S-wave (km/s) = 3.37786 3.92251 3.66033
# Velocity P-wave (km/s) = 5.55121 6.55641 6.07464
#
# Compressibility (1/GPa) = 0.02825946
#
# Stress axis : x y z
#
# Youngs Moduli (GPa) = 46.79794 48.53884 143.49602
#
# Poissons Ratio (x) = 0.21193 0.48844
# Poissons Ratio (y) = 0.20433 0.36876
# Poissons Ratio (z) = 0.15929 0.12474
#
# Static dielectric constant tensor:
#      x y z
#    x 1.944430 0.007850 -0.020790 
#    y 0.007850 1.889700 -0.035880 
#    z -0.020790 -0.035880 1.894730 
# 
# From -- ./inp_files/556174.got.cif
#   From: 2010.05.17/outbox.cif.g08.bks.cpg/sg2_279_cif.got.tgz:556174.got - 2010.06.03 11:33:40.
