data_PCOD9078580
_publ_section_title
;
Structure prediction by ZEFSAII (Michael W. Deem and Ramdas Pophale) SiO2 
 PCOD9078580
Probable space group: P -1
;
_chemical_formula_sum "Si O2"
_cell_formula_units_Z 16
_cell_length_a 13.665617
_cell_length_b 14.987037
_cell_length_c 6.848199
_cell_angle_alpha 108.560763
_cell_angle_beta 33.587456
_cell_angle_gamma 120.448823
_cell_volume 652.846198
_symmetry_space_group_name_H-M "P -1"
_symmetry_group_IT_number 2
_symmetry_cell_setting 'triclinic'
loop_
_space_group_symop_operation_xyz
x,y,z
-x,-y,-z
loop_
_atom_site_type_symbol
_atom_site_label
_atom_site_fract_x
_atom_site_fract_y
_atom_site_fract_z
Si Si1 0.972712 0.551686 0.881951
Si Si2 0.287683 0.334813 0.701140
Si Si3 0.094142 0.784631 0.287806
Si Si4 0.345595 0.898322 0.575542
Si Si5 0.408778 0.711834 0.330536
Si Si6 0.665885 0.609182 0.892226
Si Si7 0.963061 0.098864 0.191467
Si Si8 0.317718 0.667492 0.918955
O O1 0.201058 0.635057 0.515512
O O2 0.829379 0.608741 0.171872
O O3 0.858548 0.451549 0.862509
O O4 0.000000 0.500000 0.000000
O O5 0.490935 0.332592 0.298760
O O6 0.347252 0.395380 0.854243
O O7 0.132162 0.211799 0.908038
O O8 0.049355 0.869097 0.540642
O O9 0.901824 0.669411 0.507681
O O10 0.180151 0.828605 0.963573
O O11 0.245698 0.755942 0.140741
O O12 0.452954 0.829072 0.288748
O O13 0.241846 0.923905 0.588170
O O14 0.500000 0.000000 0.500000
O O15 0.369199 0.690589 0.615845
O O16 0.595738 0.691460 0.980989
O O17 0.500000 0.500000 0.000000
O O18 0.000000 0.000000 0.000000
#
# Coordination Sequence:
#
# PCOD9078580 Si02
#       8
#     2   2   2   2   2   2   2   2
#     4  10  18  35  65  98 137 183 227 279 351 420
#     4  10  21  40  64 100 140 181 234 289 347 415
#     4  10  24  46  72 105 143 185 238 290 357 428
#     4  11  25  45  73  97 139 184 237 299 363 409
#     4   9  19  38  63  91 134 180 225 286 343 410
#     4  10  21  41  67  99 144 186 234 286 344 428
#     4  11  26  47  72  98 141 182 237 305 349 415
#     4   9  19  36  65  95 134 177 227 280 343 421
#
# _framework density 24.50807
#
# number of rings (size 3 to 8) (size 9 to 14) (size 15 to 20)
#    0.000    2.000    1.250    1.125    7.000    4.000 
#    4.500    1.875    0.000    0.000    0.000    0.000 
#    0.000    0.000    0.000    0.000    0.000    0.000 
#
# Total GULP energy -89440.537399 kJ/mol
# GULP energy per Si atom -5590.033587 kJ/mol
# Density = 2.445229 g / cm^3
# Si number density = 24.508070 Si / 1000 Ang^3
#
#
#
# Elastic Constant Matrix: (Units=GPa)
#
#
# Indices 1 2 3 4 5 6 
#
# 1 130.1940 27.2307 19.5871 18.4520 -21.2685 5.3680
# 2 27.2307 121.5462 7.9655 29.7172 -23.8630 4.5170
# 3 19.5871 7.9655 68.0823 11.9203 -30.8432 -3.6567
# 4 18.4520 29.7172 11.9203 44.2647 -5.9920 -16.7851
# 5 -21.2685 -23.8630 -30.8432 -5.9920 43.8542 3.4484
# 6 5.3680 4.5170 -3.6567 -16.7851 3.4484 42.2553
#
#
#
# Elastic Compliance Matrix: (Units=1/GPa)
#
#
# Indices 1 2 3 4 5 6 
#
# 1 0.009120 -0.000083 -0.000285 -0.004373 0.003834 -0.003224
# 2 -0.000083 0.012425 0.003946 -0.010419 0.008530 -0.005811
# 3 -0.000285 0.003946 0.023510 -0.007517 0.017736 -0.002785
# 4 -0.004373 -0.010419 -0.007517 0.038694 -0.009137 0.017135
# 5 0.003834 0.008530 0.017736 -0.009137 0.041067 -0.006845
# 6 -0.003224 -0.005811 -0.002785 0.017135 -0.006845 0.031821
#
#
# Mechanical properties :
#
#
# Convention : Reuss Voigt Hill
#
# Bulk Modulus (GPa) = 19.15252 47.70991 33.43122
# Shear Modulus (GPa) = 29.96105 43.74412 36.85259
#
# Velocity S-wave (km/s) = 3.50022 4.22938 3.88195
# Velocity P-wave (km/s) = 4.91600 6.58479 5.81062
#
# Compressibility (1/GPa) = 0.05221245
#
# Stress axis : x y z
#
# Youngs Moduli (GPa) = 109.64876 80.48178 42.53551
#
# Poissons Ratio (x) = 0.00667 0.01212
# Poissons Ratio (y) = 0.00909 -0.16787
# Poissons Ratio (z) = 0.03124 -0.31762
#
# Static dielectric constant tensor:
#      x y z
#    x 2.013300 0.017080 0.072240 
#    y 0.017080 1.922870 0.033590 
#    z 0.072240 0.033590 2.010080 
# 
# From -- ./inp_files/315523.got.cif
#   From: 2010.05.17/outbox.cif.g08.bks.cpg/sg2_158_cif.got.tgz:315523.got - 2010.06.03 11:33:40.
