data_PCOD9078280
_publ_section_title
;
Structure prediction by ZEFSAII (Michael W. Deem and Ramdas Pophale) SiO2 
 PCOD9078280
Probable space group: P -1
;
_chemical_formula_sum "Si O2"
_cell_formula_units_Z 16
_cell_length_a 5.311515
_cell_length_b 18.005517
_cell_length_c 11.796289
_cell_angle_alpha 131.697062
_cell_angle_beta 123.444557
_cell_angle_gamma 76.586011
_cell_volume 686.280285
_symmetry_space_group_name_H-M "P -1"
_symmetry_group_IT_number 2
_symmetry_cell_setting 'triclinic'
loop_
_space_group_symop_operation_xyz
x,y,z
-x,-y,-z
loop_
_atom_site_type_symbol
_atom_site_label
_atom_site_fract_x
_atom_site_fract_y
_atom_site_fract_z
Si Si1 0.051483 0.468378 0.316599
Si Si2 0.495931 0.660182 0.629558
Si Si3 0.386967 0.710117 0.883509
Si Si4 0.883996 0.825893 0.786398
Si Si5 0.667156 0.733929 0.208301
Si Si6 0.923171 0.399433 0.957191
Si Si7 0.148121 0.996528 0.874216
Si Si8 0.173113 0.035863 0.463827
O O1 0.154565 0.589759 0.473508
O O2 0.287365 0.421222 0.405265
O O3 0.729074 0.408097 0.226971
O O4 0.055767 0.435996 0.153019
O O5 0.601845 0.713235 0.830860
O O6 0.557321 0.748054 0.641410
O O7 0.124581 0.758667 0.811638
O O8 0.489242 0.762229 0.080317
O O9 0.951560 0.885617 0.747933
O O10 0.937926 0.915888 0.982290
O O11 0.430322 0.656131 0.152349
O O12 0.781925 0.841629 0.406221
O O13 0.917723 0.680158 0.153558
O O14 0.000000 0.500000 0.000000
O O15 0.064225 0.013707 0.743342
O O16 0.500000 0.000000 0.000000
O O17 0.500000 0.000000 0.500000
O O18 0.000000 0.000000 0.500000
#
# Coordination Sequence:
#
# PCOD9078280 Si02
#       8
#     2   2   2   2   2   2   2   2
#     4   9  20  34  56  92 124 168 220 280 331 414
#     4  10  18  35  60  89 127 166 224 278 345 403
#     4  10  19  36  63  92 130 173 226 282 355 413
#     4  10  23  39  66  95 132 179 228 287 368 420
#     4  11  24  44  69  98 137 182 239 294 356 434
#     4  11  23  44  65  94 137 187 229 289 355 429
#     4  11  26  47  69  99 145 179 237 300 369 429
#     4  12  29  49  79 111 147 194 251 306 367 442
#
# _framework density 23.314091999999999
#
# number of rings (size 3 to 8) (size 9 to 14) (size 15 to 20)
#    0.000    1.500    1.250    3.000    7.000    1.000 
#    4.500    0.000    0.000    0.000    0.000    0.000 
#    0.000    0.000    0.000    0.000    0.000    0.000 
#
# Total GULP energy -89244.818643 kJ/mol
# GULP energy per Si atom -5577.801165 kJ/mol
# Density = 2.326103 g / cm^3
# Si number density = 23.314092 Si / 1000 Ang^3
#
#
#
# Elastic Constant Matrix: (Units=GPa)
#
#
# Indices 1 2 3 4 5 6 
#
# 1 109.3529 43.8430 26.0469 0.1204 -17.0970 20.6302
# 2 43.8430 98.7922 26.2765 14.9780 -5.7592 24.9685
# 3 26.0469 26.2765 90.1688 2.0522 -13.7468 3.4103
# 4 0.1204 14.9780 2.0522 40.3074 7.3479 4.2428
# 5 -17.0970 -5.7592 -13.7468 7.3479 27.1747 8.5581
# 6 20.6302 24.9685 3.4103 4.2428 8.5581 38.8318
#
#
#
# Elastic Compliance Matrix: (Units=1/GPa)
#
#
# Indices 1 2 3 4 5 6 
#
# 1 0.013595 -0.003446 -0.001249 0.000344 0.009297 -0.006983
# 2 -0.003446 0.015414 -0.002474 -0.005443 0.003877 -0.008123
# 3 -0.001249 -0.002474 0.013026 -0.000738 0.005484 -0.000017
# 4 0.000344 -0.005443 -0.000738 0.028391 -0.009752 0.002429
# 5 0.009297 0.003877 0.005484 -0.009752 0.054844 -0.018935
# 6 -0.006983 -0.008123 -0.000017 0.002429 -0.018935 0.038594
#
#
# Mechanical properties :
#
#
# Convention : Reuss Voigt Hill
#
# Bulk Modulus (GPa) = 36.10721 54.51630 45.31176
# Shear Modulus (GPa) = 26.67614 34.73929 30.70771
#
# Velocity S-wave (km/s) = 3.38628 3.86431 3.63317
# Velocity P-wave (km/s) = 5.55069 6.58367 6.08912
#
# Compressibility (1/GPa) = 0.02769530
#
# Stress axis : x y z
#
# Youngs Moduli (GPa) = 73.55897 64.87708 76.77133
#
# Poissons Ratio (x) = 0.22357 0.09590
# Poissons Ratio (y) = 0.25349 0.18995
# Poissons Ratio (z) = 0.09188 0.16052
#
# Static dielectric constant tensor:
#      x y z
#    x 2.038010 0.064780 -0.017390 
#    y 0.064780 1.902330 -0.020220 
#    z -0.017390 -0.020220 1.963770 
# 
# From -- ./inp_files/369541.got.cif
#   From: 2010.05.17/outbox.cif.g08.bks.cpg/sg2_185_cif.got.tgz:369541.got - 2010.06.03 11:33:40.
