data_PCOD9078994
_publ_section_title
;
Structure prediction by ZEFSAII (Michael W. Deem and Ramdas Pophale) SiO2 
 PCOD9078994
Probable space group: P -1
;
_chemical_formula_sum "Si O2"
_cell_formula_units_Z 16
_cell_length_a 27.233347
_cell_length_b 6.092141
_cell_length_c 9.075102
_cell_angle_alpha 128.142911
_cell_angle_beta 133.310135
_cell_angle_gamma 42.069275
_cell_volume 715.691285
_symmetry_space_group_name_H-M "P -1"
_symmetry_group_IT_number 2
_symmetry_cell_setting 'triclinic'
loop_
_space_group_symop_operation_xyz
x,y,z
-x,-y,-z
loop_
_atom_site_type_symbol
_atom_site_label
_atom_site_fract_x
_atom_site_fract_y
_atom_site_fract_z
Si Si1 0.472817 0.240494 0.323268
Si Si2 0.622512 0.721254 0.563238
Si Si3 0.335244 0.730632 0.064016
Si Si4 0.949889 0.937800 0.751894
Si Si5 0.211271 0.190152 0.791825
Si Si6 0.067242 0.166688 0.634408
Si Si7 0.813366 0.140036 0.990497
Si Si8 0.203801 0.957070 0.390898
O O1 0.500000 0.500000 0.500000
O O2 0.418585 0.292531 0.376298
O O3 0.413768 0.363223 0.110943
O O4 0.553767 0.869114 0.354929
O O5 0.704570 0.364534 0.558199
O O6 0.642523 0.001864 0.741565
O O7 0.261880 0.803599 0.048965
O O8 0.292683 0.840780 0.863105
O O9 0.952231 0.004719 0.609186
O O10 0.990660 0.535463 0.667935
O O11 0.857870 0.123019 0.695646
O O12 0.000000 0.000000 0.000000
O O13 0.135206 0.210581 0.716757
O O14 0.203398 0.213213 0.609597
O O15 0.211986 0.502735 0.978753
O O16 0.110362 0.982507 0.797770
O O17 0.827709 0.913940 0.784814
#
# Coordination Sequence:
#
# PCOD9078994 Si02
#       8
#     2   2   2   2   2   2   2   2
#     4   9  18  33  62  92 118 162 198 239 304 362
#     4  10  19  36  60  91 125 152 202 252 292 360
#     4  10  18  36  61  86 119 164 199 238 304 356
#     4  10  21  39  62  86 122 159 199 251 299 353
#     4  10  21  38  58  86 125 156 203 253 292 355
#     4   9  22  40  58  85 118 163 202 240 305 357
#     4  11  21  38  61  86 120 161 201 247 298 354
#     4  11  22  38  60  91 120 158 200 253 302 346
#
# _framework density 22.356007999999999
#
# number of rings (size 3 to 8) (size 9 to 14) (size 15 to 20)
#    0.000    2.000    2.500    0.750    1.750    1.500 
#    4.500    9.375    0.000   10.500    0.000    0.000 
#    0.000    0.000    0.000    0.000    0.000    0.000 
#
# Total GULP energy -89258.812792 kJ/mol
# GULP energy per Si atom -5578.675800 kJ/mol
# Density = 2.230512 g / cm^3
# Si number density = 22.356008 Si / 1000 Ang^3
#
#
#
# Elastic Constant Matrix: (Units=GPa)
#
#
# Indices 1 2 3 4 5 6 
#
# 1 73.3480 20.7207 24.0803 -1.6362 14.2237 -9.8145
# 2 20.7207 79.1118 26.8030 -35.7226 -1.1982 -14.9851
# 3 24.0803 26.8030 110.1643 -30.4945 -21.8895 -5.3599
# 4 -1.6362 -35.7226 -30.4945 44.2355 4.0061 3.0365
# 5 14.2237 -1.1982 -21.8895 4.0061 37.5492 -2.7909
# 6 -9.8145 -14.9851 -5.3599 3.0365 -2.7909 31.7127
#
#
#
# Elastic Compliance Matrix: (Units=1/GPa)
#
#
# Indices 1 2 3 4 5 6 
#
# 1 0.020051 -0.006542 -0.007300 -0.008697 -0.011002 0.001745
# 2 -0.006542 0.024239 0.002013 0.019900 0.002906 0.008120
# 3 -0.007300 0.002013 0.015394 0.010915 0.010728 0.001193
# 4 -0.008697 0.019900 0.010915 0.045023 0.005842 0.004760
# 5 -0.011002 0.002906 0.010728 0.005842 0.036705 0.002452
# 6 0.001745 0.008120 0.001193 0.004760 0.002452 0.035872
#
#
# Mechanical properties :
#
#
# Convention : Reuss Voigt Hill
#
# Bulk Modulus (GPa) = 27.75584 45.09249 36.42417
# Shear Modulus (GPa) = 23.47964 35.43415 29.45689
#
# Velocity S-wave (km/s) = 3.24429 3.98552 3.63385
# Velocity P-wave (km/s) = 5.14550 6.43375 5.82535
#
# Compressibility (1/GPa) = 0.03602845
#
# Stress axis : x y z
#
# Youngs Moduli (GPa) = 49.87217 41.25505 64.96021
#
# Poissons Ratio (x) = 0.26988 0.47420
# Poissons Ratio (y) = 0.32625 -0.13079
# Poissons Ratio (z) = 0.36406 -0.08306
#
# Static dielectric constant tensor:
#      x y z
#    x 1.797240 0.018130 -0.014980 
#    y 0.018130 1.837300 -0.082210 
#    z -0.014980 -0.082210 1.880170 
# 
# From -- ./inp_files/56739.got.cif
#   From: 2010.05.17/outbox.cif.g08.bks.cpg/sg2_29_cif.got.tgz:56739.got - 2010.06.03 11:33:40.
