data_PCOD9078808
_publ_section_title
;
Structure prediction by ZEFSAII (Michael W. Deem and Ramdas Pophale) SiO2 
 PCOD9078808
Probable space group: P -1
;
_chemical_formula_sum "Si O2"
_cell_formula_units_Z 16
_cell_length_a 18.034751
_cell_length_b 14.830486
_cell_length_c 6.998575
_cell_angle_alpha 61.896980
_cell_angle_beta 48.960953
_cell_angle_gamma 26.879094
_cell_volume 601.211959
_symmetry_space_group_name_H-M "P -1"
_symmetry_group_IT_number 2
_symmetry_cell_setting 'triclinic'
loop_
_space_group_symop_operation_xyz
x,y,z
-x,-y,-z
loop_
_atom_site_type_symbol
_atom_site_label
_atom_site_fract_x
_atom_site_fract_y
_atom_site_fract_z
Si Si1 0.378263 0.274029 0.699635
Si Si2 0.769972 0.939032 0.831092
Si Si3 0.945681 0.572996 0.796761
Si Si4 0.494069 0.487897 0.249180
Si Si5 0.337802 0.271093 0.321399
Si Si6 0.126126 0.703593 0.629843
Si Si7 0.748078 0.060024 0.375488
Si Si8 0.798294 0.380589 0.874014
O O1 0.262709 0.299499 0.006536
O O2 0.357378 0.263666 0.524973
O O3 0.251378 0.494392 0.710733
O O4 0.613948 0.083483 0.521768
O O5 0.725571 0.071428 0.630974
O O6 0.572827 0.049382 0.091311
O O7 0.889465 0.884153 0.859006
O O8 0.912640 0.724842 0.701012
O O9 0.000000 0.500000 0.000000
O O10 0.147229 0.366894 0.536093
O O11 0.255115 0.683627 0.503742
O O12 0.635088 0.260685 0.281078
O O13 0.500000 0.500000 0.000000
O O14 0.615666 0.471446 0.149638
O O15 0.274727 0.436885 0.171579
O O16 0.160261 0.675435 0.368361
O O17 0.990812 0.834433 0.158299
#
# Coordination Sequence:
#
# PCOD9078808 Si02
#       8
#     2   2   2   2   2   2   2   2
#     4   9  18  34  56  80 110 147 184 229 270 324
#     4  11  20  35  57  82 115 148 179 233 279 320
#     4  10  18  36  59  79 112 147 191 226 269 326
#     4   9  17  30  59  84 105 145 189 221 272 339
#     4  10  20  36  57  80 112 150 189 221 273 331
#     4   8  15  32  51  78 110 140 180 227 267 319
#     4  10  19  34  56  83 115 143 179 233 285 316
#     4   9  16  33  53  77 110 144 181 223 270 330
#
# _framework density 26.612908999999998
#
# number of rings (size 3 to 8) (size 9 to 14) (size 15 to 20)
#    0.000    2.500    5.000    1.125    0.000    2.500 
#    0.000    4.375    0.000    0.000    0.000    0.000 
#    0.000    0.000    0.000    0.000    0.000    0.000 
#
# Total GULP energy -89354.043805 kJ/mol
# GULP energy per Si atom -5584.627738 kJ/mol
# Density = 2.655234 g / cm^3
# Si number density = 26.612909 Si / 1000 Ang^3
#
#
#
# Elastic Constant Matrix: (Units=GPa)
#
#
# Indices 1 2 3 4 5 6 
#
# 1 79.7194 41.2491 46.7356 11.4251 -34.2958 -28.0803
# 2 41.2491 126.0104 50.2690 5.6944 -17.6021 -23.2989
# 3 46.7356 50.2690 142.9050 26.2259 -44.9437 -9.0942
# 4 11.4251 5.6944 26.2259 55.1348 -22.7692 -9.2976
# 5 -34.2958 -17.6021 -44.9437 -22.7692 59.2863 7.3017
# 6 -28.0803 -23.2989 -9.0942 -9.2976 7.3017 42.2082
#
#
#
# Elastic Compliance Matrix: (Units=1/GPa)
#
#
# Indices 1 2 3 4 5 6 
#
# 1 0.024752 -0.002975 -0.003559 0.003370 0.010431 0.012996
# 2 -0.002975 0.010615 -0.003016 0.001225 -0.000834 0.003645
# 3 -0.003559 -0.003016 0.011017 -0.002764 0.004715 -0.003084
# 4 0.003370 0.001225 -0.002764 0.023080 0.008348 0.005963
# 5 0.010431 -0.000834 0.004715 0.008348 0.028900 0.004334
# 6 0.012996 0.003645 -0.003084 0.005963 0.004334 0.034249
#
#
# Mechanical properties :
#
#
# Convention : Reuss Voigt Hill
#
# Bulk Modulus (GPa) = 36.65372 69.46026 53.05699
# Shear Modulus (GPa) = 31.09285 45.35129 38.22207
#
# Velocity S-wave (km/s) = 3.42180 4.13256 3.79386
# Velocity P-wave (km/s) = 5.42351 6.99483 6.25868
#
# Compressibility (1/GPa) = 0.02728236
#
# Stress axis : x y z
#
# Youngs Moduli (GPa) = 40.40061 94.20693 90.77130
#
# Poissons Ratio (x) = 0.28025 0.32310
# Poissons Ratio (y) = 0.12019 0.27380
# Poissons Ratio (z) = 0.14381 0.28416
#
# Static dielectric constant tensor:
#      x y z
#    x 2.189610 -0.091390 -0.040030 
#    y -0.091390 2.072120 0.073210 
#    z -0.040030 0.073210 2.203360 
# 
# From -- ./inp_files/213290.got.cif
#   From: 2010.05.17/outbox.cif.g08.bks.cpg/sg2_107_cif.got.tgz:213290.got - 2010.06.03 11:33:40.
