data_PCOD9078475
_publ_section_title
;
Structure prediction by ZEFSAII (Michael W. Deem and Ramdas Pophale) SiO2 
 PCOD9078475
Probable space group: P -1
;
_chemical_formula_sum "Si O2"
_cell_formula_units_Z 16
_cell_length_a 7.801494
_cell_length_b 20.948513
_cell_length_c 17.406657
_cell_angle_alpha 18.637995
_cell_angle_beta 135.910998
_cell_angle_gamma 130.611430
_cell_volume 626.910173
_symmetry_space_group_name_H-M "P -1"
_symmetry_group_IT_number 2
_symmetry_cell_setting 'triclinic'
loop_
_space_group_symop_operation_xyz
x,y,z
-x,-y,-z
loop_
_atom_site_type_symbol
_atom_site_label
_atom_site_fract_x
_atom_site_fract_y
_atom_site_fract_z
Si Si1 0.385534 0.279273 0.994561
Si Si2 0.768581 0.003411 0.863634
Si Si3 0.295749 0.448826 0.153654
Si Si4 0.888773 0.796569 0.359620
Si Si5 0.437804 0.857131 0.047098
Si Si6 0.789330 0.259296 0.341477
Si Si7 0.977498 0.802082 0.889396
Si Si8 0.320216 0.122011 0.431813
O O1 0.510913 0.483920 0.799630
O O2 0.198970 0.272242 0.015581
O O3 0.261861 0.190261 0.981188
O O4 0.630891 0.116604 0.274863
O O5 0.865537 0.162300 0.654331
O O6 0.550246 0.003300 0.856158
O O7 0.000000 0.000000 0.000000
O O8 0.338622 0.573577 0.947799
O O9 0.332612 0.213788 0.414961
O O10 0.000000 0.500000 0.000000
O O11 0.009283 0.669813 0.615379
O O12 0.746262 0.009014 0.105245
O O13 0.673426 0.734786 0.306086
O O14 0.258717 0.733189 0.082495
O O15 0.560007 0.177456 0.401979
O O16 0.929737 0.048991 0.593617
O O17 0.904872 0.774013 0.809991
#
# Coordination Sequence:
#
# PCOD9078475 Si02
#       8
#     2   2   2   2   2   2   2   2
#     4  11  21  41  61  88 125 160 202 255 308 368
#     4  10  19  33  58  92 120 157 206 251 302 364
#     4  12  27  38  56  94 129 158 207 256 301 370
#     4   9  17  34  55  87 124 154 204 257 297 363
#     4   9  18  29  55  92 119 155 206 252 303 360
#     4  10  18  39  59  84 120 160 202 252 305 371
#     4  10  18  35  63  89 118 158 206 248 303 373
#     4  11  21  38  64  86 115 165 204 241 317 366
#
# _framework density 25.521998
#
# number of rings (size 3 to 8) (size 9 to 14) (size 15 to 20)
#    0.000    1.750    6.250    1.125    1.750    2.500 
#    0.000    0.000    0.000    1.500    0.000    0.000 
#    0.000    0.000    0.000    0.000    0.000    0.000 
#
# Total GULP energy -89198.648378 kJ/mol
# GULP energy per Si atom -5574.915524 kJ/mol
# Density = 2.546391 g / cm^3
# Si number density = 25.521998 Si / 1000 Ang^3
#
#
#
# Elastic Constant Matrix: (Units=GPa)
#
#
# Indices 1 2 3 4 5 6 
#
# 1 72.6347 10.1946 7.8317 -9.0888 4.4675 16.7203
# 2 10.1946 204.8137 11.3011 21.7827 -0.8839 0.8327
# 3 7.8317 11.3011 46.9018 -1.0883 -3.6580 -1.5382
# 4 -9.0888 21.7827 -1.0883 36.4564 -10.2833 1.2609
# 5 4.4675 -0.8839 -3.6580 -10.2833 19.6589 8.0825
# 6 16.7203 0.8327 -1.5382 1.2609 8.0825 39.2212
#
#
#
# Elastic Compliance Matrix: (Units=1/GPa)
#
#
# Indices 1 2 3 4 5 6 
#
# 1 0.016560 -0.001243 -0.002448 0.005570 0.001796 -0.007678
# 2 -0.001243 0.005465 -0.001364 -0.004327 -0.002397 0.000993
# 3 -0.002448 -0.001364 0.022583 0.002461 0.005694 0.000706
# 4 0.005570 -0.004327 0.002461 0.038002 0.022154 -0.007973
# 5 0.001796 -0.002397 0.005694 0.022154 0.069372 -0.015499
# 6 -0.007678 0.000993 0.000706 -0.007973 -0.015499 0.032227
#
#
# Mechanical properties :
#
#
# Convention : Reuss Voigt Hill
#
# Bulk Modulus (GPa) = 28.98702 42.55611 35.77156
# Shear Modulus (GPa) = 24.29321 38.73549 31.51435
#
# Velocity S-wave (km/s) = 3.08856 3.90003 3.51777
# Velocity P-wave (km/s) = 4.90930 6.08201 5.52685
#
# Compressibility (1/GPa) = 0.03449820
#
# Stress axis : x y z
#
# Youngs Moduli (GPa) = 60.38650 182.96994 44.28100
#
# Poissons Ratio (x) = 0.22736 0.10841
# Poissons Ratio (y) = 0.07504 0.06041
# Poissons Ratio (z) = 0.14784 0.24961
#
# Static dielectric constant tensor:
#      x y z
#    x 2.084640 -0.061790 -0.024180 
#    y -0.061790 2.150640 -0.027170 
#    z -0.024180 -0.027170 2.200660 
# 
# From -- ./inp_files/591919.got.cif
#   From: 2010.05.17/outbox.cif.g08.bks.cpg/sg2_296_cif.got.tgz:591919.got - 2010.06.03 11:33:40.
