data_PCOD9078243
_publ_section_title
;
Structure prediction by ZEFSAII (Michael W. Deem and Ramdas Pophale) SiO2 
 PCOD9078243
Probable space group: P -1
;
_chemical_formula_sum "Si O2"
_cell_formula_units_Z 14
_cell_length_a 13.168411
_cell_length_b 20.608315
_cell_length_c 9.574952
_cell_angle_alpha 29.872109
_cell_angle_beta 36.667967
_cell_angle_gamma 28.343469
_cell_volume 606.043791
_symmetry_space_group_name_H-M "P -1"
_symmetry_group_IT_number 2
_symmetry_cell_setting 'triclinic'
loop_
_space_group_symop_operation_xyz
x,y,z
-x,-y,-z
loop_
_atom_site_type_symbol
_atom_site_label
_atom_site_fract_x
_atom_site_fract_y
_atom_site_fract_z
Si Si1 0.358278 0.801336 0.597489
Si Si2 0.403966 0.361602 0.092155
Si Si3 0.709462 0.300894 0.430685
Si Si4 0.975075 0.804699 0.117527
Si Si5 0.806288 0.846098 0.922436
Si Si6 0.933531 0.515623 0.381581
Si Si7 0.228459 0.923793 0.962925
O O1 0.544512 0.664693 0.750198
O O2 0.367172 0.737928 0.551364
O O3 0.346668 0.963452 0.309330
O O4 0.134230 0.848381 0.821310
O O5 0.159507 0.431044 0.208515
O O6 0.579079 0.185960 0.154105
O O7 0.421119 0.504004 0.762306
O O8 0.954505 0.230413 0.256064
O O9 0.717119 0.202584 0.736912
O O10 0.121665 0.608126 0.351588
O O11 0.818962 0.917100 0.206164
O O12 0.833297 0.842399 0.066677
O O13 0.774414 0.712038 0.160691
O O14 0.000000 0.500000 0.500000
O O15 0.000000 0.000000 0.000000
#
# Coordination Sequence:
#
# PCOD9078243 Si02
#       7
#     2   2   2   2   2   2   2
#     4  11  18  36  65  90 110 149 207 244 277 339
#     4  11  23  35  58  91 118 153 194 240 291 351
#     4  10  19  34  56  88 117 149 195 249 284 331
#     4  10  18  35  60  85 115 157 191 237 293 338
#     4   9  16  34  61  83 110 155 193 236 287 339
#     4   9  21  38  58  83 121 156 187 242 299 339
#     4  12  21  36  59  89 120 154 194 242 288 347
#
# _framework density 23.100641
#
# number of rings (size 3 to 8) (size 9 to 14) (size 15 to 20)
#    0.000    1.714    4.286    2.571    0.000    0.571 
#    0.000    2.857    3.143    7.714    0.000    0.000 
#    0.000    0.000    0.000    0.000    0.000    0.000 
#
# Total GULP energy -78279.866236 kJ/mol
# GULP energy per Si atom -5591.419017 kJ/mol
# Density = 2.304806 g / cm^3
# Si number density = 23.100641 Si / 1000 Ang^3
#
#
#
# Elastic Constant Matrix: (Units=GPa)
#
#
# Indices 1 2 3 4 5 6 
#
# 1 39.3713 22.2635 29.4842 2.2789 6.0739 1.0563
# 2 22.2635 135.5407 25.6578 -12.4335 -15.6379 9.0463
# 3 29.4842 25.6578 107.1526 -38.4369 -11.2296 12.8937
# 4 2.2789 -12.4335 -38.4369 46.2948 8.0420 -1.8342
# 5 6.0739 -15.6379 -11.2296 8.0420 26.3170 -2.0298
# 6 1.0563 9.0463 12.8937 -1.8342 -2.0298 32.5731
#
#
#
# Elastic Compliance Matrix: (Units=1/GPa)
#
#
# Indices 1 2 3 4 5 6 
#
# 1 0.050285 -0.008661 -0.021443 -0.018927 -0.019580 0.006977
# 2 -0.008661 0.009714 0.002498 0.003699 0.007496 -0.002730
# 3 -0.021443 0.002498 0.023476 0.019179 0.010005 -0.007588
# 4 -0.018927 0.003699 0.019179 0.038798 0.002457 -0.005667
# 5 -0.019580 0.007496 0.010005 0.002457 0.050326 -0.002133
# 6 0.006977 -0.002730 -0.007588 -0.005667 -0.002133 0.033784
#
#
# Mechanical properties :
#
#
# Convention : Reuss Voigt Hill
#
# Bulk Modulus (GPa) = 35.38351 48.54175 41.96263
# Shear Modulus (GPa) = 18.44914 34.68092 26.56503
#
# Velocity S-wave (km/s) = 2.82909 3.87886 3.39480
# Velocity P-wave (km/s) = 5.10118 6.41245 5.79403
#
# Compressibility (1/GPa) = 0.02826175
#
# Stress axis : x y z
#
# Youngs Moduli (GPa) = 19.88684 102.94376 42.59674
#
# Poissons Ratio (x) = 0.89163 0.91342
# Poissons Ratio (y) = 0.17225 -0.10642
# Poissons Ratio (z) = 0.42644 -0.25718
#
# Static dielectric constant tensor:
#      x y z
#    x 1.843520 -0.014160 -0.028060 
#    y -0.014160 1.897880 -0.001900 
#    z -0.028060 -0.001900 1.904500 
# 
# From -- ./inp_files/184955.got.cif
#   From: 2010.05.17/outbox.cif.g08.bks.cpg/sg2_93_cif.got.tgz:184955.got - 2010.06.03 11:33:40.
