data_PCOD9078683
_publ_section_title
;
Structure prediction by ZEFSAII (Michael W. Deem and Ramdas Pophale) SiO2 
 PCOD9078683
Probable space group: P -1
;
_chemical_formula_sum "Si O2"
_cell_formula_units_Z 15
_cell_length_a 11.716201
_cell_length_b 10.619108
_cell_length_c 10.775593
_cell_angle_alpha 36.587906
_cell_angle_beta 130.271485
_cell_angle_gamma 137.891175
_cell_volume 531.497621
_symmetry_space_group_name_H-M "P -1"
_symmetry_group_IT_number 2
_symmetry_cell_setting 'triclinic'
loop_
_space_group_symop_operation_xyz
x,y,z
-x,-y,-z
loop_
_atom_site_type_symbol
_atom_site_label
_atom_site_fract_x
_atom_site_fract_y
_atom_site_fract_z
Si Si1 0.656175 0.273865 0.215467
Si Si2 0.694003 0.036488 0.102699
Si Si3 0.563289 0.540235 0.304029
Si Si4 0.847895 0.021498 0.484987
Si Si5 0.225597 0.485034 0.159854
Si Si6 0.073108 0.279316 0.819309
Si Si7 0.869459 0.517241 0.581101
Si Si8 0.500000 0.500000 0.000000
O O1 0.731960 0.095283 0.434829
O O2 0.734705 0.539718 0.134371
O O3 0.723740 0.367981 0.051087
O O4 0.467962 0.209772 0.170973
O O5 0.758568 0.981480 0.320653
O O6 0.684621 0.832579 0.164680
O O7 0.809249 0.328449 0.931238
O O8 0.500000 0.000000 0.000000
O O9 0.403915 0.494300 0.313749
O O10 0.667665 0.412722 0.528238
O O11 0.494442 0.451948 0.188496
O O12 0.029501 0.266158 0.422948
O O13 0.881556 0.800557 0.716598
O O14 0.084223 0.355762 0.624245
O O15 0.953505 0.348712 0.761348
O O16 0.000000 0.000000 0.000000
#
# Coordination Sequence:
#
# PCOD9078683 Si02
#       8
#     2   2   2   2   2   2   2   1
#     4   9  18  34  55  79 111 149 183 229 284 331
#     4   9  20  38  59  82 114 152 189 234 289 336
#     4  10  20  37  58  86 116 148 192 237 284 335
#     4  10  20  37  60  81 114 150 189 239 280 338
#     4   9  19  37  60  84 110 151 196 227 284 343
#     4  10  19  35  55  77 115 156 189 220 284 347
#     4  10  21  36  56  85 117 148 189 238 284 334
#     4  10  18  36  56  76 116 148 178 234 288 324
#
# _framework density 28.22214
#
# number of rings (size 3 to 8) (size 9 to 14) (size 15 to 20)
#    0.000    2.400    1.333    1.600    0.000    2.667 
#    2.400    3.333    0.000    0.000    0.000    0.000 
#    0.000    0.000    0.000    0.000    0.000    0.000 
#
# Total GULP energy -83634.356580 kJ/mol
# GULP energy per Si atom -5575.623772 kJ/mol
# Density = 2.815791 g / cm^3
# Si number density = 28.222140 Si / 1000 Ang^3
#
#
#
# Elastic Constant Matrix: (Units=GPa)
#
#
# Indices 1 2 3 4 5 6 
#
# 1 77.7021 7.2462 40.2777 -21.5030 31.5999 -17.7221
# 2 7.2462 151.8119 57.6459 -5.7154 -12.3800 -15.7645
# 3 40.2777 57.6459 135.6069 -31.2649 22.6453 -7.1434
# 4 -21.5030 -5.7154 -31.2649 72.3156 -2.4651 3.6526
# 5 31.5999 -12.3800 22.6453 -2.4651 53.2227 -7.1191
# 6 -17.7221 -15.7645 -7.1434 3.6526 -7.1191 39.0335
#
#
#
# Elastic Compliance Matrix: (Units=1/GPa)
#
#
# Indices 1 2 3 4 5 6 
#
# 1 0.021527 0.000389 -0.003541 0.004202 -0.010045 0.007057
# 2 0.000389 0.009113 -0.004817 -0.001294 0.004400 0.003899
# 3 -0.003541 -0.004817 0.011903 0.003694 -0.004245 -0.002495
# 4 0.004202 -0.001294 0.003694 0.016456 -0.003624 -0.000140
# 5 -0.010045 0.004400 -0.004245 -0.003624 0.027659 0.001823
# 6 0.007057 0.003899 -0.002495 -0.000140 0.001823 0.030287
#
#
# Mechanical properties :
#
#
# Convention : Reuss Voigt Hill
#
# Bulk Modulus (GPa) = 37.58857 63.94007 50.76432
# Shear Modulus (GPa) = 35.27359 50.24441 42.75900
#
# Velocity S-wave (km/s) = 3.53916 4.22396 3.89663
# Velocity P-wave (km/s) = 5.48167 6.81867 6.18639
#
# Compressibility (1/GPa) = 0.02660383
#
# Stress axis : x y z
#
# Youngs Moduli (GPa) = 46.45430 109.73895 84.01439
#
# Poissons Ratio (x) = -0.04269 0.29751
# Poissons Ratio (y) = -0.01807 0.40468
# Poissons Ratio (z) = 0.16450 0.52859
#
# Static dielectric constant tensor:
#      x y z
#    x 2.670950 0.272760 0.169440 
#    y 0.272760 2.456810 0.095850 
#    z 0.169440 0.095850 2.497520 
# 
# From -- ./inp_files/458053.got.cif
#   From: 2010.05.17/outbox.cif.g08.bks.cpg/sg2_230_cif.got.tgz:458053.got - 2010.06.03 11:33:40.
