data_PCOD9078678
_publ_section_title
;
Structure prediction by ZEFSAII (Michael W. Deem and Ramdas Pophale) SiO2 
 PCOD9078678
Probable space group: P -1
;
_chemical_formula_sum "Si O2"
_cell_formula_units_Z 12
_cell_length_a 8.426092
_cell_length_b 11.084510
_cell_length_c 9.578026
_cell_angle_alpha 89.881490
_cell_angle_beta 71.140095
_cell_angle_gamma 39.747538
_cell_volume 494.346901
_symmetry_space_group_name_H-M "P -1"
_symmetry_group_IT_number 2
_symmetry_cell_setting 'triclinic'
loop_
_space_group_symop_operation_xyz
x,y,z
-x,-y,-z
loop_
_atom_site_type_symbol
_atom_site_label
_atom_site_fract_x
_atom_site_fract_y
_atom_site_fract_z
Si Si1 0.236124 0.641417 0.298925
Si Si2 0.645978 0.213174 0.327998
Si Si3 0.290469 0.830412 0.108007
Si Si4 0.393410 0.949294 0.437277
Si Si5 0.265096 0.258680 0.947989
Si Si6 0.968695 0.822937 0.089041
O O1 0.427482 0.437596 0.330294
O O2 0.381945 0.681603 0.203733
O O3 0.103222 0.673716 0.185957
O O4 0.951867 0.839741 0.466800
O O5 0.541812 0.214949 0.502638
O O6 0.703393 0.057585 0.220415
O O7 0.979074 0.062299 0.243266
O O8 0.522244 0.794756 0.010999
O O9 0.210016 0.786192 0.003634
O O10 0.543933 0.866015 0.245833
O O11 0.500000 0.000000 0.500000
O O12 0.123793 0.210349 0.006429
O O13 0.000000 0.500000 0.000000
#
# Coordination Sequence:
#
# PCOD9078678 Si02
#       6
#     2   2   2   2   2   2
#     4   8  16  35  62  82 109 146 183 239 289 316
#     4   8  16  35  62  82 109 146 183 239 289 316
#     4   7  19  36  57  85 115 139 196 228 273 345
#     4  10  18  36  55  92 111 140 199 229 270 349
#     4  12  21  37  60  81 118 158 181 229 285 329
#     4   7  18  37  55  87 110 139 196 221 276 343
#
# _framework density 24.274450999999999
#
# number of rings (size 3 to 8) (size 9 to 14) (size 15 to 20)
#    2.000    1.333    3.333    0.000    0.000    4.000 
#    0.000    5.000    0.000   11.000    0.000    0.000 
#    0.000    0.000    0.000    0.000    0.000    0.000 
#
# Total GULP energy -66863.861438 kJ/mol
# GULP energy per Si atom -5571.988453 kJ/mol
# Density = 2.421920 g / cm^3
# Si number density = 24.274451 Si / 1000 Ang^3
#
#
#
# Elastic Constant Matrix: (Units=GPa)
#
#
# Indices 1 2 3 4 5 6 
#
# 1 168.1122 20.1538 7.7342 -2.0481 -7.9901 -5.0044
# 2 20.1538 215.4029 11.8722 -7.8208 -11.6363 9.3085
# 3 7.7342 11.8722 59.9491 5.9325 -1.5885 -5.4751
# 4 -2.0481 -7.8208 5.9325 21.9986 1.7923 -0.9827
# 5 -7.9901 -11.6363 -1.5885 1.7923 18.7426 12.9847
# 6 -5.0044 9.3085 -5.4751 -0.9827 12.9847 8.1149
#
#
#
# Elastic Compliance Matrix: (Units=1/GPa)
#
#
# Indices 1 2 3 4 5 6 
#
# 1 0.006140 -0.000351 -0.000742 0.000404 0.002678 -0.000548
# 2 -0.000351 0.002343 0.001479 0.003361 -0.019789 0.030165
# 3 -0.000742 0.001479 0.015093 -0.006767 0.022723 -0.029150
# 4 0.000404 0.003361 -0.006767 0.046894 0.009871 -0.018288
# 5 0.002678 -0.019789 0.022723 0.009871 -0.137028 0.260137
# 6 -0.000548 0.030165 -0.029150 -0.018288 0.260137 -0.349837
#
#
# Mechanical properties :
#
#
# Convention : Reuss Voigt Hill
#
# Bulk Modulus (GPa) = 41.06758 58.10939 49.58848
# Shear Modulus (GPa) = -12.22341 36.68482 12.23071
#
# Velocity S-wave (km/s) = -2.24643 3.89170 2.24710
# Velocity P-wave (km/s) = 3.19784 6.64712 5.21586
#
# Compressibility (1/GPa) = 0.02435011
#
# Stress axis : x y z
#
# Youngs Moduli (GPa) = 162.85394 426.76513 66.25532
#
# Poissons Ratio (x) = 0.14961 0.04915
# Poissons Ratio (y) = 0.05709 -0.09800
# Poissons Ratio (z) = 0.12082 -0.63123
#
# Static dielectric constant tensor:
#      x y z
#    x 2.087890 -0.006520 0.013930 
#    y -0.006520 1.977110 -0.022190 
#    z 0.013930 -0.022190 1.949180 
# 
# From -- ./inp_files/390178.got.cif
#   From: 2010.05.17/outbox.cif.g08.bks.cpg/sg2_196_cif.got.tgz:390178.got - 2010.06.03 11:33:40.
