data_PCOD9078653
_publ_section_title
;
Structure prediction by ZEFSAII (Michael W. Deem and Ramdas Pophale) SiO2 
 PCOD9078653
Probable space group: P -1
;
_chemical_formula_sum "Si O2"
_cell_formula_units_Z 13
_cell_length_a 9.695047
_cell_length_b 9.037321
_cell_length_c 7.926890
_cell_angle_alpha 69.278666
_cell_angle_beta 135.415440
_cell_angle_gamma 99.799735
_cell_volume 452.444822
_symmetry_space_group_name_H-M "P -1"
_symmetry_group_IT_number 2
_symmetry_cell_setting 'triclinic'
loop_
_space_group_symop_operation_xyz
x,y,z
-x,-y,-z
loop_
_atom_site_type_symbol
_atom_site_label
_atom_site_fract_x
_atom_site_fract_y
_atom_site_fract_z
Si Si1 0.949254 0.935520 0.665751
Si Si2 0.039928 0.238537 0.807196
Si Si3 0.853483 0.411719 0.027520
Si Si4 0.505951 0.124528 0.740402
Si Si5 0.000000 0.500000 0.500000
Si Si6 0.598438 0.763876 0.053788
Si Si7 0.568669 0.691137 0.708209
O O1 0.725011 0.900180 0.468506
O O2 0.095372 0.775182 0.896397
O O3 0.000000 0.000000 0.500000
O O4 0.971892 0.074037 0.764045
O O5 0.879469 0.388318 0.585858
O O6 0.170984 0.313304 0.729473
O O7 0.215580 0.236777 0.096127
O O8 0.885898 0.429522 0.249434
O O9 0.643898 0.519406 0.771150
O O10 0.000000 0.500000 0.000000
O O11 0.556443 0.196990 0.577932
O O12 0.613312 0.950609 0.949796
O O13 0.502996 0.234274 0.858006
O O14 0.492892 0.697909 0.830283
#
# Coordination Sequence:
#
# PCOD9078653 Si02
#       7
#     2   2   2   2   1   2   2
#     4  12  20  35  58  90 115 145 184 245 280 327
#     4   9  20  35  55  82 115 142 184 229 286 319
#     4  11  21  34  56  83 114 151 190 224 287 335
#     4  11  19  34  59  81 115 146 192 225 286 335
#     4  10  18  36  54  80 116 146 178 238 274 336
#     4   9  20  35  54  88 105 152 188 230 274 349
#     4   9  20  36  56  82 109 149 189 232 268 343
#
# _framework density 28.732787999999999
#
# number of rings (size 3 to 8) (size 9 to 14) (size 15 to 20)
#    0.923    0.923    4.615    0.462    0.000    0.615 
#    0.000    0.000    0.000    4.615    4.000    0.000 
#    0.000    0.000    0.000    0.000    0.000    0.000 
#
# Total GULP energy -72549.665591 kJ/mol
# GULP energy per Si atom -5580.743507 kJ/mol
# Density = 2.866739 g / cm^3
# Si number density = 28.732788 Si / 1000 Ang^3
#
#
#
# Elastic Constant Matrix: (Units=GPa)
#
#
# Indices 1 2 3 4 5 6 
#
# 1 84.8234 30.1275 31.4927 6.1014 -8.5338 -9.7886
# 2 30.1275 180.4690 58.4540 -29.8679 0.4123 -18.4982
# 3 31.4927 58.4540 197.2408 -3.5545 -16.7071 -9.9829
# 4 6.1014 -29.8679 -3.5545 53.8092 1.8386 3.7657
# 5 -8.5338 0.4123 -16.7071 1.8386 45.9326 -3.4506
# 6 -9.7886 -18.4982 -9.9829 3.7657 -3.4506 38.7659
#
#
#
# Elastic Compliance Matrix: (Units=1/GPa)
#
#
# Indices 1 2 3 4 5 6 
#
# 1 0.013799 -0.002134 -0.001286 -0.003103 0.002439 0.002653
# 2 -0.002134 0.007356 -0.001757 0.004106 -0.001114 0.002021
# 3 -0.001286 -0.001757 0.005989 -0.000546 0.002023 0.000612
# 4 -0.003103 0.004106 -0.000546 0.021322 -0.001755 -0.001193
# 5 0.002439 -0.001114 0.002023 -0.001755 0.023254 0.002845
# 6 0.002653 0.002021 0.000612 -0.001193 0.002845 0.027957
#
#
# Mechanical properties :
#
#
# Convention : Reuss Voigt Hill
#
# Bulk Modulus (GPa) = 59.56387 78.07576 68.81981
# Shear Modulus (GPa) = 43.24213 50.53217 46.88715
#
# Velocity S-wave (km/s) = 3.88361 4.19823 4.04398
# Velocity P-wave (km/s) = 6.39415 7.12265 6.76821
#
# Compressibility (1/GPa) = 0.01678870
#
# Stress axis : x y z
#
# Youngs Moduli (GPa) = 72.46649 135.94807 166.98627
#
# Poissons Ratio (x) = 0.29017 0.21471
# Poissons Ratio (y) = 0.15468 0.29344
# Poissons Ratio (z) = 0.09318 0.23890
#
# Static dielectric constant tensor:
#      x y z
#    x 2.356500 0.013390 -0.051100 
#    y 0.013390 2.312320 -0.011870 
#    z -0.051100 -0.011870 2.243600 
# 
# From -- ./inp_files/289809.got.cif
#   From: 2010.05.17/outbox.cif.g08.bks.cpg/sg2_145_cif.got.tgz:289809.got - 2010.06.03 11:33:40.
