data_PCOD9078133
_publ_section_title
;
Structure prediction by ZEFSAII (Michael W. Deem and Ramdas Pophale) SiO2 
 PCOD9078133
Probable space group: P -1
;
_chemical_formula_sum "Si O2"
_cell_formula_units_Z 16
_cell_length_a 11.551225
_cell_length_b 9.306549
_cell_length_c 16.733043
_cell_angle_alpha 67.637083
_cell_angle_beta 147.276951
_cell_angle_gamma 99.715180
_cell_volume 857.084671
_symmetry_space_group_name_H-M "P -1"
_symmetry_group_IT_number 2
_symmetry_cell_setting 'triclinic'
loop_
_space_group_symop_operation_xyz
x,y,z
-x,-y,-z
loop_
_atom_site_type_symbol
_atom_site_label
_atom_site_fract_x
_atom_site_fract_y
_atom_site_fract_z
Si Si1 0.047618 0.160864 0.026723
Si Si2 0.764683 0.920867 0.670109
Si Si3 0.780789 0.614630 0.028383
Si Si4 0.554623 0.417108 0.677539
Si Si5 0.188817 0.971754 0.861959
Si Si6 0.261841 0.379112 0.375962
Si Si7 0.440994 0.238233 0.975082
Si Si8 0.440249 0.625668 0.135111
O O1 0.158579 0.130480 0.184409
O O2 0.204106 0.229067 0.045165
O O3 0.808592 0.300564 0.859801
O O4 0.000000 0.000000 0.000000
O O5 0.811252 0.768716 0.669852
O O6 0.923172 0.023436 0.707555
O O7 0.500000 0.000000 0.500000
O O8 0.033237 0.525816 0.225161
O O9 0.611869 0.668041 0.992817
O O10 0.707244 0.487732 0.956260
O O11 0.408669 0.343814 0.548690
O O12 0.586852 0.571074 0.615444
O O13 0.459316 0.439262 0.707058
O O14 0.304202 0.881609 0.866407
O O15 0.292196 0.817660 0.014684
O O16 0.286749 0.119206 0.904240
O O17 0.401678 0.360116 0.850464
#
# Coordination Sequence:
#
# PCOD9078133 Si02
#       8
#     2   2   2   2   2   2   2   2
#     4  11  21  34  54  85 115 152 195 233 286 351
#     4  12  22  37  58  84 119 149 188 239 295 341
#     4  11  20  33  60  85 114 147 194 240 284 337
#     4  10  20  35  56  77 116 152 189 232 289 339
#     4   9  19  36  58  82 113 150 191 233 285 336
#     4  10  21  36  52  86 116 151 183 240 291 337
#     4   9  19  35  59  86 110 153 194 238 277 338
#     4  10  18  35  59  80 106 151 194 236 274 337
#
# _framework density 18.667933999999999
#
# number of rings (size 3 to 8) (size 9 to 14) (size 15 to 20)
#    0.750    1.000    2.500    2.625    0.000    4.000 
#    0.000    0.625    0.000    4.500    0.000    0.000 
#    0.000    0.000    0.000    0.000    0.000    0.000 
#
# Total GULP energy -89114.976180 kJ/mol
# GULP energy per Si atom -5569.686011 kJ/mol
# Density = 1.862544 g / cm^3
# Si number density = 18.667934 Si / 1000 Ang^3
#
#
#
# Elastic Constant Matrix: (Units=GPa)
#
#
# Indices 1 2 3 4 5 6 
#
# 1 116.8147 26.3519 45.0075 13.6551 -11.7894 9.7019
# 2 26.3519 56.8585 16.3395 14.2957 -14.6030 17.1589
# 3 45.0075 16.3395 92.4854 19.4367 -9.8234 -3.8031
# 4 13.6551 14.2957 19.4367 19.3953 -9.0452 3.2396
# 5 -11.7894 -14.6030 -9.8234 -9.0452 31.4074 5.0130
# 6 9.7019 17.1589 -3.8031 3.2396 5.0130 27.7006
#
#
#
# Elastic Compliance Matrix: (Units=1/GPa)
#
#
# Indices 1 2 3 4 5 6 
#
# 1 0.011597 -0.002160 -0.005272 0.000531 0.002485 -0.003959
# 2 -0.002160 0.031088 -0.001721 -0.010087 0.013389 -0.019980
# 3 -0.005272 -0.001721 0.016691 -0.014317 -0.002862 0.007396
# 4 0.000531 -0.010087 -0.014317 0.081785 0.015918 -0.008349
# 5 0.002485 0.013389 -0.002862 0.015918 0.045833 -0.019713
# 6 -0.003959 -0.019980 0.007396 -0.008349 -0.019713 0.055423
#
#
# Mechanical properties :
#
#
# Convention : Reuss Voigt Hill
#
# Bulk Modulus (GPa) = 24.34901 49.06181 36.70541
# Shear Modulus (GPa) = 18.22070 27.59798 22.90934
#
# Velocity S-wave (km/s) = 3.12756 3.84912 3.50695
# Velocity P-wave (km/s) = 5.11016 6.78916 6.00859
#
# Compressibility (1/GPa) = 0.04106942
#
# Stress axis : x y z
#
# Youngs Moduli (GPa) = 86.23104 32.16700 59.91163
#
# Poissons Ratio (x) = 0.06949 0.31588
# Poissons Ratio (y) = 0.18628 0.10308
# Poissons Ratio (z) = 0.45464 0.05534
#
# Static dielectric constant tensor:
#      x y z
#    x 1.695390 0.012260 0.027610 
#    y 0.012260 1.651610 -0.016060 
#    z 0.027610 -0.016060 1.652130 
# 
# From -- ./inp_files/566703.got.cif
#   From: 2010.05.17/outbox.cif.g08.bks.cpg/sg2_284_cif.got.tgz:566703.got - 2010.06.03 11:33:40.
