data_PCOD9078984
_publ_section_title
;
Structure prediction by ZEFSAII (Michael W. Deem and Ramdas Pophale) SiO2 
 PCOD9078984
Probable space group: P -1
;
_chemical_formula_sum "Si O2"
_cell_formula_units_Z 16
_cell_length_a 11.570500
_cell_length_b 15.011902
_cell_length_c 12.207581
_cell_angle_alpha 67.948064
_cell_angle_beta 55.973573
_cell_angle_gamma 29.620798
_cell_volume 836.082519
_symmetry_space_group_name_H-M "P -1"
_symmetry_group_IT_number 2
_symmetry_cell_setting 'triclinic'
loop_
_space_group_symop_operation_xyz
x,y,z
-x,-y,-z
loop_
_atom_site_type_symbol
_atom_site_label
_atom_site_fract_x
_atom_site_fract_y
_atom_site_fract_z
Si Si1 0.360360 0.930089 0.058559
Si Si2 0.569651 0.902121 0.157695
Si Si3 0.969452 0.561703 0.637381
Si Si4 0.842732 0.334455 0.858546
Si Si5 0.296334 0.452107 0.342081
Si Si6 0.135963 0.492168 0.080678
Si Si7 0.851721 0.157338 0.089052
Si Si8 0.536118 0.004761 0.350903
O O1 0.361892 0.963321 0.168198
O O2 0.589806 0.712183 0.022055
O O3 0.073885 0.066616 0.097653
O O4 0.443972 0.978057 0.926482
O O5 0.527922 0.924602 0.300660
O O6 0.873407 0.685064 0.065003
O O7 0.915197 0.492975 0.634526
O O8 0.978392 0.526241 0.774316
O O9 0.221388 0.471728 0.496648
O O10 0.703837 0.781237 0.651284
O O11 0.755735 0.412113 0.744792
O O12 0.795180 0.457657 0.901203
O O13 0.167402 0.126954 0.768783
O O14 0.740681 0.307230 0.998838
O O15 0.605106 0.250783 0.238017
O O16 0.000000 0.000000 0.000000
O O17 0.500000 0.000000 0.500000
#
# Coordination Sequence:
#
# PCOD9078984 Si02
#       8
#     2   2   2   2   2   2   2   2
#     4  11  21  38  59  86 123 152 196 240 298 347
#     4  10  22  36  58  92 116 155 194 246 288 347
#     4  10  19  34  53  87 114 149 199 233 291 342
#     4  10  19  34  53  88 119 148 192 240 294 352
#     4  10  21  31  52  80 118 156 187 241 287 344
#     4  10  18  36  61  85 118 150 194 244 285 347
#     4  12  22  37  56  83 125 154 191 246 297 346
#     4  11  18  33  58  86 118 145 194 242 286 337
#
# _framework density 19.136866999999999
#
# number of rings (size 3 to 8) (size 9 to 14) (size 15 to 20)
#    0.000    1.500    5.000    3.000    1.750    0.000 
#    0.000    0.000    0.000    1.500    0.000    0.000 
#    0.000    0.000    0.000    0.000    0.000    0.000 
#
# Total GULP energy -89146.918446 kJ/mol
# GULP energy per Si atom -5571.682403 kJ/mol
# Density = 1.909331 g / cm^3
# Si number density = 19.136867 Si / 1000 Ang^3
#
#
#
# Elastic Constant Matrix: (Units=GPa)
#
#
# Indices 1 2 3 4 5 6 
#
# 1 66.2040 7.1532 25.0201 0.0605 3.9815 -13.1421
# 2 7.1532 88.7189 13.8138 0.1476 -2.6365 11.9799
# 3 25.0201 13.8138 96.9003 11.8471 -7.1362 2.4692
# 4 0.0605 0.1476 11.8471 28.2781 -4.0613 -2.3216
# 5 3.9815 -2.6365 -7.1362 -4.0613 22.5383 -3.0277
# 6 -13.1421 11.9799 2.4692 -2.3216 -3.0277 20.3800
#
#
#
# Elastic Compliance Matrix: (Units=1/GPa)
#
#
# Indices 1 2 3 4 5 6 
#
# 1 0.021099 -0.003020 -0.006076 0.003365 -0.003246 0.016019
# 2 -0.003020 0.012918 -0.000731 -0.000463 0.000462 -0.009437
# 3 -0.006076 -0.000731 0.013036 -0.005373 0.003453 -0.005167
# 4 0.003365 -0.000463 -0.005373 0.039138 0.005834 0.008418
# 5 -0.003246 0.000462 0.003453 0.005834 0.047810 0.004984
# 6 0.016019 -0.009437 -0.005167 0.008418 0.004984 0.067270
#
#
# Mechanical properties :
#
#
# Convention : Reuss Voigt Hill
#
# Bulk Modulus (GPa) = 36.49759 38.19972 37.34865
# Shear Modulus (GPa) = 21.73364 27.96170 24.84767
#
# Velocity S-wave (km/s) = 3.37366 3.82664 3.60727
# Velocity P-wave (km/s) = 5.85566 6.28720 6.07526
#
# Compressibility (1/GPa) = 0.02739907
#
# Stress axis : x y z
#
# Youngs Moduli (GPa) = 47.39455 77.41401 76.71212
#
# Poissons Ratio (x) = 0.23381 0.46611
# Poissons Ratio (y) = 0.14314 0.05604
# Poissons Ratio (z) = 0.28797 0.05655
#
# Static dielectric constant tensor:
#      x y z
#    x 1.698680 -0.009210 0.032110 
#    y -0.009210 1.747270 -0.011900 
#    z 0.032110 -0.011900 1.715060 
# 
# From -- ./inp_files/432683.got.cif
#   From: 2010.05.17/outbox.cif.g08.bks.cpg/sg2_217_cif.got.tgz:432683.got - 2010.06.03 11:33:40.
