data_PCOD9078821
_publ_section_title
;
Structure prediction by ZEFSAII (Michael W. Deem and Ramdas Pophale) SiO2 
 PCOD9078821
Probable space group: P -1
;
_chemical_formula_sum "Si O2"
_cell_formula_units_Z 16
_cell_length_a 13.743069
_cell_length_b 10.813419
_cell_length_c 11.817742
_cell_angle_alpha 128.935685
_cell_angle_beta 121.198732
_cell_angle_gamma 33.148942
_cell_volume 746.862233
_symmetry_space_group_name_H-M "P -1"
_symmetry_group_IT_number 2
_symmetry_cell_setting 'triclinic'
loop_
_space_group_symop_operation_xyz
x,y,z
-x,-y,-z
loop_
_atom_site_type_symbol
_atom_site_label
_atom_site_fract_x
_atom_site_fract_y
_atom_site_fract_z
Si Si1 0.479456 0.077099 0.355595
Si Si2 0.552729 0.200235 0.956510
Si Si3 0.056364 0.811382 0.698659
Si Si4 0.526637 0.366764 0.581094
Si Si5 0.319561 0.751840 0.159307
Si Si6 0.203670 0.342004 0.542605
Si Si7 0.760707 0.073673 0.219301
Si Si8 0.096894 0.053102 0.544992
O O1 0.486071 0.936242 0.183957
O O2 0.676421 0.869477 0.411181
O O3 0.444128 0.299276 0.435259
O O4 0.326833 0.190570 0.418554
O O5 0.650215 0.189634 0.906193
O O6 0.384275 0.498724 0.046976
O O7 0.673554 0.064163 0.063362
O O8 0.191674 0.542430 0.681099
O O9 0.127112 0.909234 0.767285
O O10 0.016369 0.769247 0.528653
O O11 0.881375 0.014255 0.785177
O O12 0.558990 0.304645 0.699504
O O13 0.399105 0.653665 0.663716
O O14 0.718238 0.191824 0.543766
O O15 0.000000 0.500000 0.500000
O O16 0.864934 0.889730 0.284228
O O17 0.000000 0.000000 0.500000
#
# Coordination Sequence:
#
# PCOD9078821 Si02
#       8
#     2   2   2   2   2   2   2   2
#     4  11  22  36  56  87 122 154 186 236 292 352
#     4  10  21  35  52  82 123 153 184 226 296 355
#     4  10  19  35  57  86 108 145 198 245 277 328
#     4  10  18  36  59  83 108 148 193 239 285 336
#     4   9  19  34  55  80 115 152 187 236 281 343
#     4  11  21  35  59  86 117 153 196 233 286 342
#     4  10  20  35  57  82 111 149 193 237 285 339
#     4   9  19  35  60  85 107 140 201 254 279 323
#
# _framework density 21.422958999999999
#
# number of rings (size 3 to 8) (size 9 to 14) (size 15 to 20)
#    0.000    2.000    1.250    4.125    3.500    0.500 
#    2.250    0.625    0.000    0.750    0.000    0.000 
#    0.000    0.000    0.000    0.000    0.000    0.000 
#
# Total GULP energy -89262.434965 kJ/mol
# GULP energy per Si atom -5578.902185 kJ/mol
# Density = 2.137420 g / cm^3
# Si number density = 21.422959 Si / 1000 Ang^3
#
#
#
# Elastic Constant Matrix: (Units=GPa)
#
#
# Indices 1 2 3 4 5 6 
#
# 1 61.6313 13.5459 19.8531 3.7107 -3.3287 -17.9335
# 2 13.5459 47.7711 25.7226 -2.4166 -7.1116 -17.5165
# 3 19.8531 25.7226 124.5259 -5.9940 19.1454 2.0392
# 4 3.7107 -2.4166 -5.9940 29.5974 -0.4485 -4.9694
# 5 -3.3287 -7.1116 19.1454 -0.4485 30.0469 -2.7480
# 6 -17.9335 -17.5165 2.0392 -4.9694 -2.7480 28.6228
#
#
#
# Elastic Compliance Matrix: (Units=1/GPa)
#
#
# Indices 1 2 3 4 5 6 
#
# 1 0.023403 0.005617 -0.006770 -0.000426 0.010010 0.019470
# 2 0.005617 0.042556 -0.013391 0.006060 0.022401 0.033719
# 3 -0.006770 -0.013391 0.014332 -0.000054 -0.014410 -0.014850
# 4 -0.000426 0.006060 -0.000054 0.036043 0.002872 0.009979
# 5 0.010010 0.022401 -0.014410 0.002872 0.051335 0.026434
# 6 0.019470 0.033719 -0.014850 0.009979 0.026434 0.073100
#
#
# Mechanical properties :
#
#
# Convention : Reuss Voigt Hill
#
# Bulk Modulus (GPa) = 19.52961 39.13015 29.32988
# Shear Modulus (GPa) = 17.42619 29.30720 23.36669
#
# Velocity S-wave (km/s) = 2.85517 3.70270 3.30621
# Velocity P-wave (km/s) = 4.47273 6.04857 5.31933
#
# Compressibility (1/GPa) = 0.05120431
#
# Stress axis : x y z
#
# Youngs Moduli (GPa) = 42.72882 23.49833 69.77428
#
# Poissons Ratio (x) = -0.13199 0.47235
# Poissons Ratio (y) = -0.24000 0.93433
# Poissons Ratio (z) = 0.28926 0.31466
#
# Static dielectric constant tensor:
#      x y z
#    x 1.797640 0.016360 0.003550 
#    y 0.016360 1.834690 -0.059330 
#    z 0.003550 -0.059330 1.799150 
# 
# From -- ./inp_files/445574.got.cif
#   From: 2010.05.17/outbox.cif.g08.bks.cpg/sg2_223_cif.got.tgz:445574.got - 2010.06.03 11:33:40.
