data_PCOD9078341
_publ_section_title
;
Structure prediction by ZEFSAII (Michael W. Deem and Ramdas Pophale) SiO2 
 PCOD9078341
Probable space group: P -1
;
_chemical_formula_sum "Si O2"
_cell_formula_units_Z 14
_cell_length_a 19.592833
_cell_length_b 8.417480
_cell_length_c 12.026452
_cell_angle_alpha 99.835414
_cell_angle_beta 141.994402
_cell_angle_gamma 47.294331
_cell_volume 534.169828
_symmetry_space_group_name_H-M "P -1"
_symmetry_group_IT_number 2
_symmetry_cell_setting 'triclinic'
loop_
_space_group_symop_operation_xyz
x,y,z
-x,-y,-z
loop_
_atom_site_type_symbol
_atom_site_label
_atom_site_fract_x
_atom_site_fract_y
_atom_site_fract_z
Si Si1 0.844325 0.115347 0.474421
Si Si2 0.324386 0.945692 0.878971
Si Si3 0.773940 0.998345 0.564428
Si Si4 0.085494 0.112783 0.809219
Si Si5 0.832771 0.875507 0.868100
Si Si6 0.550488 0.964147 0.216550
Si Si7 0.351258 0.127869 0.218402
O O1 0.864596 0.912980 0.420609
O O2 0.070675 0.943836 0.734009
O O3 0.778627 0.155682 0.521534
O O4 0.602116 0.517113 0.160813
O O5 0.259346 0.978457 0.925402
O O6 0.354696 0.099017 0.920444
O O7 0.707097 0.098628 0.621293
O O8 0.595941 0.096824 0.290372
O O9 0.064946 0.560473 0.887593
O O10 0.823690 0.539259 0.494756
O O11 0.045378 0.150305 0.899641
O O12 0.670302 0.026140 0.782742
O O13 0.000000 0.500000 0.000000
O O14 0.490094 0.002068 0.272500
O O15 0.500000 0.000000 0.500000
#
# Coordination Sequence:
#
# PCOD9078341 Si02
#       7
#     2   2   2   2   2   2   2
#     4  10  25  41  61  87 128 160 204 253 299 358
#     4  10  22  43  64  86 114 174 210 240 300 357
#     4  11  22  38  58  98 126 153 197 257 306 351
#     4  11  20  40  65  87 119 164 206 245 299 369
#     4  10  18  35  61  89 117 150 196 243 303 357
#     4  11  19  35  65  89 119 157 207 249 293 359
#     4  11  19  35  62  91 120 161 196 242 305 365
#
# _framework density 26.208893
#
# number of rings (size 3 to 8) (size 9 to 14) (size 15 to 20)
#    0.000    1.429    5.714    1.286    0.000    2.286 
#    0.000    3.571    0.000    0.000    0.000    0.000 
#    0.000    0.000    0.000    0.000    0.000    0.000 
#
# Total GULP energy -77969.373536 kJ/mol
# GULP energy per Si atom -5569.240967 kJ/mol
# Density = 2.614924 g / cm^3
# Si number density = 26.208893 Si / 1000 Ang^3
#
#
#
# Elastic Constant Matrix: (Units=GPa)
#
#
# Indices 1 2 3 4 5 6 
#
# 1 60.6327 -1.8793 -82.8053 -48.1221 -18.4774 -8.1888
# 2 -1.8793 56.6130 34.6018 -6.1052 -1.3981 -13.9585
# 3 -82.8053 34.6018 -145.2120 -107.5056 -45.6110 -16.7466
# 4 -48.1221 -6.1052 -107.5056 -14.4883 -30.9755 -14.6598
# 5 -18.4774 -1.3981 -45.6110 -30.9755 36.4368 5.6259
# 6 -8.1888 -13.9585 -16.7466 -14.6598 5.6259 37.5748
#
#
#
# Elastic Compliance Matrix: (Units=1/GPa)
#
#
# Indices 1 2 3 4 5 6 
#
# 1 0.010042 0.003441 -0.004579 -0.000264 -0.000958 0.001467
# 2 0.003441 0.026472 -0.007114 0.012502 0.002648 0.011895
# 3 -0.004579 -0.007114 0.006582 -0.013868 -0.005323 -0.005320
# 4 -0.000264 0.012502 -0.013868 0.021726 0.000402 0.006822
# 5 -0.000958 0.002648 -0.005323 0.000402 0.021457 -0.004654
# 6 0.001467 0.011895 -0.005320 0.006822 -0.004654 0.032339
#
#
# Mechanical properties :
#
#
# Convention : Reuss Voigt Hill
#
# Bulk Modulus (GPa) = 37.60214 -14.23689 11.68263
# Shear Modulus (GPa) = 34.72582 13.37909 24.05246
#
# Velocity S-wave (km/s) = 3.64395 2.26183 3.03268
# Velocity P-wave (km/s) = 5.66417 1.17358 4.09024
#
# Compressibility (1/GPa) = 0.02659423
#
# Stress axis : x y z
#
# Youngs Moduli (GPa) = 99.57871 37.77547 151.93347
#
# Poissons Ratio (x) = -0.13000 0.69568
# Poissons Ratio (y) = -0.34268 1.08079
# Poissons Ratio (z) = 0.45595 0.26872
#
# Static dielectric constant tensor:
#      x y z
#    x 2.046860 -0.022390 0.015060 
#    y -0.022390 2.049220 -0.041700 
#    z 0.015060 -0.041700 1.892770 
# 
# From -- ./inp_files/279857.got.cif
#   From: 2010.05.17/outbox.cif.g08.bks.cpg/sg2_140_cif.got.tgz:279857.got - 2010.06.03 11:33:40.
