data_PCOD9078025
_publ_section_title
;
Structure prediction by ZEFSAII (Michael W. Deem and Ramdas Pophale) SiO2 
 PCOD9078025
Probable space group: P -1
;
_chemical_formula_sum "Si O2"
_cell_formula_units_Z 16
_cell_length_a 8.485246
_cell_length_b 14.752290
_cell_length_c 11.827497
_cell_angle_alpha 58.963403
_cell_angle_beta 38.488721
_cell_angle_gamma 72.976470
_cell_volume 772.279656
_symmetry_space_group_name_H-M "P -1"
_symmetry_group_IT_number 2
_symmetry_cell_setting 'triclinic'
loop_
_space_group_symop_operation_xyz
x,y,z
-x,-y,-z
loop_
_atom_site_type_symbol
_atom_site_label
_atom_site_fract_x
_atom_site_fract_y
_atom_site_fract_z
Si Si1 0.761774 0.534107 0.405642
Si Si2 0.577197 0.857322 0.118820
Si Si3 0.006520 0.574804 0.838380
Si Si4 0.777512 0.340636 0.685073
Si Si5 0.744373 0.773551 0.551372
Si Si6 0.438441 0.261922 0.566074
Si Si7 0.484474 0.383244 0.028138
Si Si8 0.102387 0.978174 0.330914
O O1 0.500000 0.500000 0.500000
O O2 0.977541 0.510167 0.215841
O O3 0.762428 0.451165 0.559597
O O4 0.744453 0.651552 0.378786
O O5 0.436313 0.753813 0.191755
O O6 0.638685 0.816609 0.234025
O O7 0.363723 0.929558 0.219048
O O8 0.809870 0.921101 0.869163
O O9 0.264858 0.670099 0.631573
O O10 0.760458 0.626011 0.915143
O O11 0.000000 0.500000 0.000000
O O12 0.040841 0.299868 0.542242
O O13 0.717052 0.363255 0.833091
O O14 0.605707 0.787300 0.502323
O O15 0.562525 0.706116 0.790838
O O16 0.888226 0.886836 0.449829
O O17 0.500000 0.500000 0.000000
O O18 0.000000 0.000000 0.500000
#
# Coordination Sequence:
#
# PCOD9078025 Si02
#       8
#     2   2   2   2   2   2   2   2
#     4  10  18  35  57  86 126 166 204 245 296 361
#     4  10  21  41  67  92 117 158 213 257 318 378
#     4  11  21  36  56  87 129 172 216 248 295 363
#     4  11  21  40  63  90 125 171 210 254 304 371
#     4  11  24  42  61  93 130 162 211 260 315 374
#     4  11  23  40  61  91 131 169 204 257 307 377
#     4  12  24  37  60  91 129 171 213 253 303 365
#     4  10  22  44  70  90 116 158 207 268 325 379
#
# _framework density 20.717884000000002
#
# number of rings (size 3 to 8) (size 9 to 14) (size 15 to 20)
#    0.000    1.250    3.750    4.500    1.750    1.500 
#    0.000    0.625    0.000    0.000    0.000    0.000 
#    0.000    0.000    0.000    0.000    0.000    0.000 
#
# Total GULP energy -89384.883986 kJ/mol
# GULP energy per Si atom -5586.555249 kJ/mol
# Density = 2.067073 g / cm^3
# Si number density = 20.717884 Si / 1000 Ang^3
#
#
#
# Elastic Constant Matrix: (Units=GPa)
#
#
# Indices 1 2 3 4 5 6 
#
# 1 104.4794 33.2144 53.3438 -8.3099 23.2814 16.6294
# 2 33.2144 74.0771 43.4590 9.0347 16.6828 11.6511
# 3 53.3438 43.4590 146.0622 -1.8531 45.5781 10.7158
# 4 -8.3099 9.0347 -1.8531 37.8746 -5.1048 7.9790
# 5 23.2814 16.6828 45.5781 -5.1048 43.5663 11.4668
# 6 16.6294 11.6511 10.7158 7.9790 11.4668 27.0236
#
#
#
# Elastic Compliance Matrix: (Units=1/GPa)
#
#
# Indices 1 2 3 4 5 6 
#
# 1 0.014119 -0.003844 -0.003430 0.005392 0.000066 -0.007291
# 2 -0.003844 0.018621 -0.003633 -0.005193 -0.001324 -0.002127
# 3 -0.003430 -0.003633 0.012241 -0.001552 -0.010778 0.003855
# 4 0.005392 -0.005193 -0.001552 0.032704 0.008135 -0.013572
# 5 0.000066 -0.001324 -0.010778 0.008135 0.039425 -0.014327
# 6 -0.007291 -0.002127 0.003855 -0.013572 -0.014327 0.050966
#
#
# Mechanical properties :
#
#
# Convention : Reuss Voigt Hill
#
# Bulk Modulus (GPa) = 43.16654 64.96146 54.06400
# Shear Modulus (GPa) = 25.30194 34.66635 29.98415
#
# Velocity S-wave (km/s) = 3.49845 4.09498 3.80841
# Velocity P-wave (km/s) = 6.09914 7.33361 6.74468
#
# Compressibility (1/GPa) = 0.02316609
#
# Stress axis : x y z
#
# Youngs Moduli (GPa) = 70.82557 53.70391 81.69291
#
# Poissons Ratio (x) = 0.20645 0.28021
# Poissons Ratio (y) = 0.27226 0.29680
# Poissons Ratio (z) = 0.24294 0.19511
#
# Static dielectric constant tensor:
#      x y z
#    x 1.864920 -0.018990 -0.024810 
#    y -0.018990 1.742860 0.006960 
#    z -0.024810 0.006960 1.757660 
# 
# From -- ./inp_files/306022.got.cif
#   From: 2010.05.17/outbox.cif.g08.bks.cpg/sg2_154_cif.got.tgz:306022.got - 2010.06.03 11:33:40.
