data_PCOD9078344
_publ_section_title
;
Structure prediction by ZEFSAII (Michael W. Deem and Ramdas Pophale) SiO2 
 PCOD9078344
Probable space group: P -1
;
_chemical_formula_sum "Si O2"
_cell_formula_units_Z 16
_cell_length_a 10.717251
_cell_length_b 21.113776
_cell_length_c 14.951491
_cell_angle_alpha 26.719151
_cell_angle_beta 42.841693
_cell_angle_gamma 26.807524
_cell_volume 650.985201
_symmetry_space_group_name_H-M "P -1"
_symmetry_group_IT_number 2
_symmetry_cell_setting 'triclinic'
loop_
_space_group_symop_operation_xyz
x,y,z
-x,-y,-z
loop_
_atom_site_type_symbol
_atom_site_label
_atom_site_fract_x
_atom_site_fract_y
_atom_site_fract_z
Si Si1 0.257537 0.572137 0.698126
Si Si2 0.195180 0.228610 0.687380
Si Si3 0.355001 0.284646 0.151752
Si Si4 0.562220 0.623614 0.585382
Si Si5 0.054878 0.990600 0.734870
Si Si6 0.268495 0.873451 0.088543
Si Si7 0.319184 0.197711 0.468480
Si Si8 0.320790 0.737895 0.756139
O O1 0.443656 0.595095 0.606374
O O2 0.974122 0.825592 0.498393
O O3 0.457950 0.383055 0.757173
O O4 0.202730 0.483720 0.912117
O O5 0.396438 0.232011 0.616876
O O6 0.113210 0.311786 0.520906
O O7 0.910889 0.378073 0.710979
O O8 0.350668 0.987591 0.898534
O O9 0.202594 0.327628 0.270555
O O10 0.511305 0.052518 0.319395
O O11 0.627277 0.219256 0.124430
O O12 0.348900 0.709839 0.670864
O O13 0.834004 0.090260 0.803251
O O14 0.039658 0.915541 0.744309
O O15 0.000000 0.000000 0.000000
O O16 0.536462 0.194110 0.387416
O O17 0.500000 0.500000 0.000000
#
# Coordination Sequence:
#
# PCOD9078344 Si02
#       8
#     2   2   2   2   2   2   2   2
#     4  12  23  39  65  93 123 160 205 251 307 361
#     4  10  18  35  61  89 119 164 199 248 304 356
#     4  10  19  38  61  89 120 158 197 249 309 348
#     4  10  21  34  58  91 120 160 205 247 298 362
#     4  11  24  39  63  93 121 158 208 255 297 367
#     4  12  20  38  67  88 121 163 201 249 311 360
#     4   9  18  33  61  88 119 156 203 246 295 366
#     4  10  20  38  62  87 121 163 209 245 302 361
#
# _framework density 24.578132
#
# number of rings (size 3 to 8) (size 9 to 14) (size 15 to 20)
#    0.000    1.500    3.750    2.625    0.000    0.500 
#    0.000    6.250    2.750    0.000    0.000    0.000 
#    0.000    0.000    0.000    0.000    0.000    0.000 
#
# Total GULP energy -89258.642785 kJ/mol
# GULP energy per Si atom -5578.665174 kJ/mol
# Density = 2.452219 g / cm^3
# Si number density = 24.578132 Si / 1000 Ang^3
#
#
#
# Elastic Constant Matrix: (Units=GPa)
#
#
# Indices 1 2 3 4 5 6 
#
# 1 76.9164 28.8117 24.1015 3.1287 -30.4065 11.0632
# 2 28.8117 160.4360 36.5864 7.6016 -2.7527 42.2509
# 3 24.1015 36.5864 130.5130 1.3863 -11.0399 22.8544
# 4 3.1287 7.6016 1.3863 39.1317 14.9943 -3.0636
# 5 -30.4065 -2.7527 -11.0399 14.9943 41.1950 -0.9195
# 6 11.0632 42.2509 22.8544 -3.0636 -0.9195 38.3628
#
#
#
# Elastic Compliance Matrix: (Units=1/GPa)
#
#
# Indices 1 2 3 4 5 6 
#
# 1 0.022861 -0.002025 -0.001205 -0.009244 0.019693 -0.003911
# 2 -0.002025 0.009340 -0.000587 -0.002212 -0.000436 -0.009540
# 3 -0.001205 -0.000587 0.008985 -0.001141 0.001796 -0.004407
# 4 -0.009244 -0.002212 -0.001141 0.034998 -0.019834 0.008101
# 5 0.019693 -0.000436 0.001796 -0.019834 0.046331 -0.006743
# 6 -0.003911 -0.009540 -0.004407 0.008101 -0.006743 0.040813
#
#
# Mechanical properties :
#
#
# Convention : Reuss Voigt Hill
#
# Bulk Modulus (GPa) = 29.80487 60.76272 45.28379
# Shear Modulus (GPa) = 27.45051 42.29560 34.87306
#
# Velocity S-wave (km/s) = 3.34558 4.15283 3.77087
# Velocity P-wave (km/s) = 5.20354 6.91163 6.11749
#
# Compressibility (1/GPa) = 0.03355157
#
# Stress axis : x y z
#
# Youngs Moduli (GPa) = 43.74329 107.06301 111.29752
#
# Poissons Ratio (x) = 0.21678 0.13414
# Poissons Ratio (y) = 0.08857 0.06535
# Poissons Ratio (z) = 0.05272 0.06286
#
# Static dielectric constant tensor:
#      x y z
#    x 1.999660 0.022230 0.074260 
#    y 0.022230 2.012500 0.048480 
#    z 0.074260 0.048480 1.991240 
# 
# From -- ./inp_files/524046.got.cif
#   From: 2010.05.17/outbox.cif.g08.bks.cpg/sg2_263_cif.got.tgz:524046.got - 2010.06.03 11:33:40.
