data_PCOD9078347
_publ_section_title
;
Structure prediction by ZEFSAII (Michael W. Deem and Ramdas Pophale) SiO2 
 PCOD9078347
Probable space group: P -1
;
_chemical_formula_sum "Si O2"
_cell_formula_units_Z 16
_cell_length_a 15.406485
_cell_length_b 14.780229
_cell_length_c 11.646386
_cell_angle_alpha 28.681159
_cell_angle_beta 143.986407
_cell_angle_gamma 146.267263
_cell_volume 674.813128
_symmetry_space_group_name_H-M "P -1"
_symmetry_group_IT_number 2
_symmetry_cell_setting 'triclinic'
loop_
_space_group_symop_operation_xyz
x,y,z
-x,-y,-z
loop_
_atom_site_type_symbol
_atom_site_label
_atom_site_fract_x
_atom_site_fract_y
_atom_site_fract_z
Si Si1 0.583467 0.365734 0.956128
Si Si2 0.330333 0.918112 0.474129
Si Si3 0.004542 0.207054 0.334049
Si Si4 0.170963 0.468845 0.578283
Si Si5 0.212490 0.162062 0.787198
Si Si6 0.092560 0.557998 0.862915
Si Si7 0.523683 0.655225 0.744754
Si Si8 0.985695 0.159189 0.901186
O O1 0.730219 0.448053 0.931365
O O2 0.669332 0.258022 0.247788
O O3 0.397192 0.192525 0.929766
O O4 0.567765 0.555438 0.793026
O O5 0.337395 0.116502 0.331934
O O6 0.500000 0.000000 0.500000
O O7 0.183435 0.836687 0.319983
O O8 0.169499 0.271844 0.512813
O O9 0.891608 0.230673 0.290346
O O10 0.987190 0.356045 0.052785
O O11 0.000000 0.000000 0.500000
O O12 0.216421 0.298223 0.751091
O O13 0.348076 0.662843 0.538346
O O14 0.017936 0.468377 0.341921
O O15 0.122416 0.380367 0.754780
O O16 0.060040 0.940816 0.908667
O O17 0.500000 0.500000 0.000000
O O18 0.000000 0.000000 0.000000
#
# Coordination Sequence:
#
# PCOD9078347 Si02
#       8
#     2   2   2   2   2   2   2   2
#     4  11  22  39  61  91 122 163 209 251 312 360
#     4  12  21  37  58  85 131 170 197 247 302 361
#     4  10  23  44  65  87 120 158 208 262 317 362
#     4   9  19  37  60  91 126 165 204 249 306 365
#     4   9  19  36  61  87 123 163 197 256 314 358
#     4  10  22  43  65  90 120 159 209 262 304 369
#     4  11  22  38  57  89 135 170 204 242 301 377
#     4  10  18  35  61  89 125 167 198 245 311 363
#
# _framework density 23.710269
#
# number of rings (size 3 to 8) (size 9 to 14) (size 15 to 20)
#    0.000    1.750    3.750    1.500    0.000    2.500 
#    2.250    1.875    0.000    0.000    0.000    0.000 
#    0.000    0.000    0.000    0.000    0.000    0.000 
#
# Total GULP energy -89089.819876 kJ/mol
# GULP energy per Si atom -5568.113742 kJ/mol
# Density = 2.365630 g / cm^3
# Si number density = 23.710269 Si / 1000 Ang^3
#
#
#
# Elastic Constant Matrix: (Units=GPa)
#
#
# Indices 1 2 3 4 5 6 
#
# 1 78.4468 31.5629 21.7045 10.9436 25.4571 2.2331
# 2 31.5629 59.9827 11.1596 3.1394 10.0475 4.0232
# 3 21.7045 11.1596 82.5261 8.3569 6.1485 2.5502
# 4 10.9436 3.1394 8.3569 41.3990 -3.6665 20.3425
# 5 25.4571 10.0475 6.1485 -3.6665 48.4965 -0.3288
# 6 2.2331 4.0232 2.5502 20.3425 -0.3288 34.1222
#
#
#
# Elastic Compliance Matrix: (Units=1/GPa)
#
#
# Indices 1 2 3 4 5 6 
#
# 1 0.021057 -0.008847 -0.003053 -0.007085 -0.009342 0.004027
# 2 -0.008847 0.021487 -0.000770 0.002596 0.000463 -0.003440
# 3 -0.003053 -0.000770 0.013223 -0.002074 -0.000068 0.000538
# 4 -0.007085 0.002596 -0.002074 0.037636 0.006140 -0.022066
# 5 -0.009342 0.000463 -0.000068 0.006140 0.025881 -0.002849
# 6 0.004027 -0.003440 0.000538 -0.022066 -0.002849 0.042536
#
#
# Mechanical properties :
#
#
# Convention : Reuss Voigt Hill
#
# Bulk Modulus (GPa) = 32.86411 38.86776 35.86593
# Shear Modulus (GPa) = 25.34190 35.23878 30.29034
#
# Velocity S-wave (km/s) = 3.27282 3.85934 3.57812
# Velocity P-wave (km/s) = 5.30779 6.02393 5.67716
#
# Compressibility (1/GPa) = 0.03042833
#
# Stress axis : x y z
#
# Youngs Moduli (GPa) = 47.49044 46.53935 75.62688
#
# Poissons Ratio (x) = 0.41172 0.23086
# Poissons Ratio (y) = 0.42013 0.05823
# Poissons Ratio (z) = 0.14497 0.03583
#
# Static dielectric constant tensor:
#      x y z
#    x 1.935250 -0.184820 0.120730 
#    y -0.184820 1.939210 -0.000580 
#    z 0.120730 -0.000580 1.944770 
# 
# From -- ./inp_files/454411.got.cif
#   From: 2010.05.17/outbox.cif.g08.bks.cpg/sg2_228_cif.got.tgz:454411.got - 2010.06.03 11:33:40.
