data_PCOD9078688
_publ_section_title
;
Structure prediction by ZEFSAII (Michael W. Deem and Ramdas Pophale) SiO2 
 PCOD9078688
Probable space group: P -1
;
_chemical_formula_sum "Si O2"
_cell_formula_units_Z 16
_cell_length_a 18.827198
_cell_length_b 9.221672
_cell_length_c 11.399735
_cell_angle_alpha 65.284747
_cell_angle_beta 62.320634
_cell_angle_gamma 22.756566
_cell_volume 677.671252
_symmetry_space_group_name_H-M "P -1"
_symmetry_group_IT_number 2
_symmetry_cell_setting 'triclinic'
loop_
_space_group_symop_operation_xyz
x,y,z
-x,-y,-z
loop_
_atom_site_type_symbol
_atom_site_label
_atom_site_fract_x
_atom_site_fract_y
_atom_site_fract_z
Si Si1 0.076522 0.539002 0.959650
Si Si2 0.205792 0.456996 0.414161
Si Si3 0.687818 0.960772 0.705739
Si Si4 0.687015 0.404273 0.675453
Si Si5 0.101505 0.158413 0.779763
Si Si6 0.382321 0.792595 0.095771
Si Si7 0.737709 0.781168 0.298848
Si Si8 0.210440 0.900296 0.539099
O O1 0.127038 0.529412 0.802076
O O2 0.000000 0.500000 0.000000
O O3 0.939411 0.852360 0.059893
O O4 0.271189 0.138856 0.007375
O O5 0.342156 0.139728 0.317312
O O6 0.188070 0.678069 0.344874
O O7 0.267608 0.309153 0.548349
O O8 0.007645 0.724829 0.458135
O O9 0.711198 0.065192 0.562155
O O10 0.892982 0.568878 0.744750
O O11 0.544031 0.268333 0.816161
O O12 0.736321 0.144667 0.782172
O O13 0.470537 0.829524 0.725099
O O14 0.691983 0.384373 0.536867
O O15 0.195646 0.159753 0.736201
O O16 0.213041 0.871076 0.686221
O O17 0.500000 0.500000 0.000000
#
# Coordination Sequence:
#
# PCOD9078688 Si02
#       8
#     2   2   2   2   2   2   2   2
#     4   9  19  32  57  82  98 145 184 222 254 316
#     4  11  20  37  54  82 111 144 185 214 272 334
#     4   9  17  33  61  78  99 145 191 223 254 316
#     4  11  24  32  53  87 115 142 166 231 290 310
#     4   9  16  32  57  79  99 137 194 222 248 316
#     4  10  19  38  55  80 108 136 188 226 264 317
#     4  11  19  34  54  82 114 141 177 222 272 329
#     4  10  18  36  56  80 103 143 187 232 259 304
#
# _framework density 23.610267
#
# number of rings (size 3 to 8) (size 9 to 14) (size 15 to 20)
#    0.000    2.000    3.750    1.500    1.750    0.500 
#    0.000    0.625    0.000    0.750    0.000    0.000 
#    0.000    0.000    0.000    0.000    0.000    0.000 
#
# Total GULP energy -89236.869634 kJ/mol
# GULP energy per Si atom -5577.304352 kJ/mol
# Density = 2.355653 g / cm^3
# Si number density = 23.610267 Si / 1000 Ang^3
#
#
#
# Elastic Constant Matrix: (Units=GPa)
#
#
# Indices 1 2 3 4 5 6 
#
# 1 58.1746 8.2950 46.5261 3.2040 20.6507 26.1279
# 2 8.2950 37.3947 35.6369 1.7656 4.1447 -0.1785
# 3 46.5261 35.6369 136.0903 36.5752 56.4753 25.4707
# 4 3.2040 1.7656 36.5752 31.4270 9.8703 10.8241
# 5 20.6507 4.1447 56.4753 9.8703 20.0394 3.1199
# 6 26.1279 -0.1785 25.4707 10.8241 3.1199 30.9860
#
#
#
# Elastic Compliance Matrix: (Units=1/GPa)
#
#
# Indices 1 2 3 4 5 6 
#
# 1 0.042063 0.009069 -0.021540 0.028058 0.006042 -0.028119
# 2 0.009069 0.020235 0.008977 0.003957 -0.038851 -0.012380
# 3 -0.021540 0.008977 -0.009345 -0.011195 0.048307 0.024943
# 4 0.028058 0.003957 -0.011195 0.060350 -0.022734 -0.033226
# 5 0.006042 -0.038851 0.048307 -0.022734 -0.068532 -0.030185
# 6 -0.028119 -0.012380 0.024943 -0.033226 -0.030185 0.050054
#
#
# Mechanical properties :
#
#
# Convention : Reuss Voigt Hill
#
# Bulk Modulus (GPa) = 21.75611 45.84173 33.79892
# Shear Modulus (GPa) = 42.68522 25.90393 34.29458
#
# Velocity S-wave (km/s) = 4.25656 3.31591 3.81534
# Velocity P-wave (km/s) = 5.77862 5.84111 5.80995
#
# Compressibility (1/GPa) = 0.04596411
#
# Stress axis : x y z
#
# Youngs Moduli (GPa) = 23.77391 49.41907 -107.01184
#
# Poissons Ratio (x) = -0.44816 -2.30508
# Poissons Ratio (y) = -0.21560 0.96067
# Poissons Ratio (z) = 0.51210 -0.44365
#
# Static dielectric constant tensor:
#      x y z
#    x 1.637560 0.636040 -0.026010 
#    y 0.636040 0.216100 0.268650 
#    z -0.026010 0.268650 1.925580 
# 
# From -- ./inp_files/244173.got.cif
#   From: 2010.05.17/outbox.cif.g08.bks.cpg/sg2_123_cif.got.tgz:244173.got - 2010.06.03 11:33:40.
