data_PCOD9078356
_publ_section_title
;
Structure prediction by ZEFSAII (Michael W. Deem and Ramdas Pophale) SiO2 
 PCOD9078356
Probable space group: P -1
;
_chemical_formula_sum "Si O2"
_cell_formula_units_Z 15
_cell_length_a 21.426464
_cell_length_b 16.169196
_cell_length_c 8.650120
_cell_angle_alpha 50.307961
_cell_angle_beta 51.162975
_cell_angle_gamma 16.834045
_cell_volume 666.140957
_symmetry_space_group_name_H-M "P -1"
_symmetry_group_IT_number 2
_symmetry_cell_setting 'triclinic'
loop_
_space_group_symop_operation_xyz
x,y,z
-x,-y,-z
loop_
_atom_site_type_symbol
_atom_site_label
_atom_site_fract_x
_atom_site_fract_y
_atom_site_fract_z
Si Si1 0.611909 0.619982 0.178709
Si Si2 0.776982 0.008465 0.846199
Si Si3 0.802474 0.770095 0.599479
Si Si4 0.158996 0.701668 0.096091
Si Si5 0.500000 0.000000 0.000000
Si Si6 0.596401 0.186404 0.210839
Si Si7 0.924146 0.833624 0.520878
Si Si8 0.480589 0.451249 0.372010
O O1 0.395949 0.852245 0.141493
O O2 0.635529 0.505292 0.418062
O O3 0.802769 0.374021 0.051526
O O4 0.572904 0.786562 0.100670
O O5 0.669624 0.259134 0.733825
O O6 0.974105 0.764633 0.708691
O O7 0.794640 0.946818 0.068215
O O8 0.699588 0.801639 0.816400
O O9 0.873146 0.780356 0.591607
O O10 0.000000 0.500000 0.500000
O O11 0.620927 0.048244 0.437083
O O12 0.385731 0.452555 0.115774
O O13 0.083965 0.694888 0.324124
O O14 0.000000 0.000000 0.000000
O O15 0.566075 0.316499 0.229592
O O16 0.706264 0.179044 0.439396
#
# Coordination Sequence:
#
# PCOD9078356 Si02
#       8
#     2   2   2   2   1   2   2   2
#     4  10  20  36  64  91 126 179 218 268 343 393
#     4  10  18  35  61  90 127 166 207 271 334 399
#     4  11  24  45  70  94 128 183 233 282 330 397
#     4  11  22  39  64 100 139 173 214 277 348 410
#     4  12  20  44  70  92 136 176 232 284 332 384
#     4  10  22  40  61 100 132 167 223 273 343 397
#     4  10  19  38  59  91 126 166 225 258 329 405
#     4  10  18  37  63  91 125 168 220 267 331 406
#
# _framework density 22.517757
#
# number of rings (size 3 to 8) (size 9 to 14) (size 15 to 20)
#    0.000    1.600    4.000    5.200    0.000    1.067 
#    2.400   10.667    0.000    0.000    0.000    0.000 
#    0.000    0.000    0.000    0.000    0.000    0.000 
#
# Total GULP energy -83503.752879 kJ/mol
# GULP energy per Si atom -5566.916859 kJ/mol
# Density = 2.246651 g / cm^3
# Si number density = 22.517757 Si / 1000 Ang^3
#
#
#
# Elastic Constant Matrix: (Units=GPa)
#
#
# Indices 1 2 3 4 5 6 
#
# 1 51.3754 20.6875 62.0545 -0.1106 -8.2910 16.2935
# 2 20.6875 78.6311 33.6721 20.6344 0.1100 21.5499
# 3 62.0545 33.6721 162.8164 44.9528 -13.3697 23.4120
# 4 -0.1106 20.6344 44.9528 47.7828 11.4645 5.8480
# 5 -8.2910 0.1100 -13.3697 11.4645 43.5013 -0.3690
# 6 16.2935 21.5499 23.4120 5.8480 -0.3690 26.1983
#
#
#
# Elastic Compliance Matrix: (Units=1/GPa)
#
#
# Indices 1 2 3 4 5 6 
#
# 1 0.064699 -0.009941 -0.031897 0.037727 -0.007492 -0.012083
# 2 -0.009941 0.019643 0.005110 -0.012562 0.002837 -0.011698
# 3 -0.031897 0.005110 0.026252 -0.029147 0.009648 -0.001183
# 4 0.037727 -0.012562 -0.029147 0.057976 -0.017018 -0.000264
# 5 -0.007492 0.002837 0.009648 -0.017018 0.028985 -0.002089
# 6 -0.012083 -0.011698 -0.001183 -0.000264 -0.002089 0.056394
#
#
# Mechanical properties :
#
#
# Convention : Reuss Voigt Hill
#
# Bulk Modulus (GPa) = 26.92661 58.40569 42.66615
# Shear Modulus (GPa) = 14.71519 35.25707 24.98613
#
# Velocity S-wave (km/s) = 2.55912 3.96124 3.33471
# Velocity P-wave (km/s) = 4.55149 6.84951 5.81515
#
# Compressibility (1/GPa) = 0.03713798
#
# Stress axis : x y z
#
# Youngs Moduli (GPa) = 15.45626 50.90778 38.09268
#
# Poissons Ratio (x) = 0.50608 1.21503
# Poissons Ratio (y) = 0.15365 -0.19464
# Poissons Ratio (z) = 0.49300 -0.26013
#
# Static dielectric constant tensor:
#      x y z
#    x 1.846310 -0.035220 0.043860 
#    y -0.035220 1.871640 0.063170 
#    z 0.043860 0.063170 1.920870 
# 
# From -- ./inp_files/168845.got.cif
#   From: 2010.05.17/outbox.cif.g08.bks.cpg/sg2_85_cif.got.tgz:168845.got - 2010.06.03 11:33:40.
