data_PCOD9078996
_publ_section_title
;
Structure prediction by ZEFSAII (Michael W. Deem and Ramdas Pophale) SiO2 
 PCOD9078996
Probable space group: P -1
;
_chemical_formula_sum "Si O2"
_cell_formula_units_Z 16
_cell_length_a 12.725590
_cell_length_b 11.669651
_cell_length_c 8.241620
_cell_angle_alpha 145.094676
_cell_angle_beta 68.696028
_cell_angle_gamma 105.668309
_cell_volume 651.595811
_symmetry_space_group_name_H-M "P -1"
_symmetry_group_IT_number 2
_symmetry_cell_setting 'triclinic'
loop_
_space_group_symop_operation_xyz
x,y,z
-x,-y,-z
loop_
_atom_site_type_symbol
_atom_site_label
_atom_site_fract_x
_atom_site_fract_y
_atom_site_fract_z
Si Si1 0.557673 0.734724 0.520691
Si Si2 0.198565 0.744059 0.239057
Si Si3 0.252954 0.488576 0.208012
Si Si4 0.519613 0.756872 0.200100
Si Si5 0.827437 0.650200 0.340455
Si Si6 0.594303 0.208167 0.027948
Si Si7 0.905561 0.433245 0.348430
Si Si8 0.085302 0.164430 0.783937
O O1 0.508919 0.685312 0.311458
O O2 0.689401 0.662552 0.405634
O O3 0.570561 0.974363 0.780394
O O4 0.467204 0.699035 0.671537
O O5 0.267812 0.655823 0.254811
O O6 0.274788 0.779903 0.078683
O O7 0.128519 0.944480 0.558431
O O8 0.128299 0.556795 0.011662
O O9 0.202788 0.604479 0.525982
O O10 0.355695 0.334876 0.010722
O O11 0.165632 0.329833 0.005213
O O12 0.457966 0.701363 0.004061
O O13 0.500000 0.000000 0.500000
O O14 0.866266 0.614409 0.460361
O O15 0.886976 0.820714 0.405938
O O16 0.000000 0.500000 0.500000
O O17 0.962413 0.243919 0.002207
#
# Coordination Sequence:
#
# PCOD9078996 Si02
#       8
#     2   2   2   2   2   2   2   2
#     4  10  19  38  61  88 125 163 217 250 305 380
#     4  11  22  39  63  88 130 164 205 259 314 373
#     4  10  21  41  60  91 127 160 207 261 311 370
#     4  10  18  36  61  86 127 164 203 258 302 365
#     4  11  21  41  64  88 125 162 205 266 310 383
#     4  10  21  35  60  92 122 170 209 254 307 370
#     4  10  23  41  67  92 120 162 209 263 323 378
#     4  10  20  41  65  88 117 164 210 253 321 373
#
# _framework density 24.555098999999998
#
# number of rings (size 3 to 8) (size 9 to 14) (size 15 to 20)
#    0.000    1.750    3.750    1.875    0.000    2.000 
#    2.250    2.500    0.000    0.000    0.000    0.000 
#    0.000    0.000    0.000    0.000    0.000    0.000 
#
# Total GULP energy -89291.739185 kJ/mol
# GULP energy per Si atom -5580.733699 kJ/mol
# Density = 2.449921 g / cm^3
# Si number density = 24.555099 Si / 1000 Ang^3
#
#
#
# Elastic Constant Matrix: (Units=GPa)
#
#
# Indices 1 2 3 4 5 6 
#
# 1 97.7699 41.9877 51.7971 -13.5494 -17.8038 -30.9131
# 2 41.9877 128.9674 71.9180 -6.0289 -25.5966 -28.8768
# 3 51.7971 71.9180 152.5944 -11.7010 -39.2701 -8.2486
# 4 -13.5494 -6.0289 -11.7010 45.2573 2.0762 -3.3917
# 5 -17.8038 -25.5966 -39.2701 2.0762 40.8915 1.0655
# 6 -30.9131 -28.8768 -8.2486 -3.3917 1.0655 42.9083
#
#
#
# Elastic Compliance Matrix: (Units=1/GPa)
#
#
# Indices 1 2 3 4 5 6 
#
# 1 0.017489 0.000258 -0.004197 0.004960 0.003173 0.012280
# 2 0.000258 0.012790 -0.004769 0.000987 0.003283 0.007873
# 3 -0.004197 -0.004769 0.011725 0.000533 0.006527 -0.004100
# 4 0.004960 0.000987 0.000533 0.024228 0.001897 0.006208
# 5 0.003173 0.003283 0.006527 0.001897 0.033931 0.005058
# 6 0.012280 0.007873 -0.004100 0.006208 0.005058 0.037028
#
#
# Mechanical properties :
#
#
# Convention : Reuss Voigt Hill
#
# Bulk Modulus (GPa) = 40.67309 78.97081 59.82195
# Shear Modulus (GPa) = 30.71172 40.05333 35.38253
#
# Velocity S-wave (km/s) = 3.54040 4.04315 3.80010
# Velocity P-wave (km/s) = 5.77170 7.35027 6.60829
#
# Compressibility (1/GPa) = 0.02458628
#
# Stress axis : x y z
#
# Youngs Moduli (GPa) = 57.17936 78.18521 85.28943
#
# Poissons Ratio (x) = -0.02017 0.35799
# Poissons Ratio (y) = -0.01475 0.40678
# Poissons Ratio (z) = 0.24000 0.37290
#
# Static dielectric constant tensor:
#      x y z
#    x 2.058480 -0.003170 -0.016880 
#    y -0.003170 1.995090 -0.048680 
#    z -0.016880 -0.048680 1.976600 
# 
# From -- ./inp_files/305968.got.cif
#   From: 2010.05.17/outbox.cif.g08.bks.cpg/sg2_153_cif.got.tgz:305968.got - 2010.06.03 11:33:40.
