data_PCOD9078927
_publ_section_title
;
Structure prediction by ZEFSAII (Michael W. Deem and Ramdas Pophale) SiO2 
 PCOD9078927
Probable space group: P -1
;
_chemical_formula_sum "Si O2"
_cell_formula_units_Z 15
_cell_length_a 9.821723
_cell_length_b 8.139703
_cell_length_c 14.082344
_cell_angle_alpha 71.770664
_cell_angle_beta 127.317873
_cell_angle_gamma 132.455387
_cell_volume 651.617464
_symmetry_space_group_name_H-M "P -1"
_symmetry_group_IT_number 2
_symmetry_cell_setting 'triclinic'
loop_
_space_group_symop_operation_xyz
x,y,z
-x,-y,-z
loop_
_atom_site_type_symbol
_atom_site_label
_atom_site_fract_x
_atom_site_fract_y
_atom_site_fract_z
Si Si1 0.886153 0.556730 0.548231
Si Si2 0.500000 0.000000 0.500000
Si Si3 0.759916 0.494437 0.302686
Si Si4 0.322883 0.004254 0.978485
Si Si5 0.822241 0.740044 0.093742
Si Si6 0.078153 0.659940 0.093656
Si Si7 0.300955 0.166101 0.257923
Si Si8 0.125543 0.347276 0.269710
O O1 0.699214 0.283166 0.524396
O O2 0.856004 0.624995 0.420557
O O3 0.869250 0.665927 0.612882
O O4 0.126608 0.619411 0.640120
O O5 0.342469 0.018926 0.361680
O O6 0.822739 0.644607 0.211630
O O7 0.496696 0.315223 0.238814
O O8 0.111003 0.852576 0.843762
O O9 0.365521 0.234649 0.976824
O O10 0.265790 0.895162 0.079127
O O11 0.500000 0.000000 0.000000
O O12 0.866805 0.627230 0.051776
O O13 0.058587 0.996274 0.138857
O O14 0.164846 0.575328 0.220785
O O15 0.000000 0.500000 0.000000
O O16 0.297998 0.329615 0.296551
#
# Coordination Sequence:
#
# PCOD9078927 Si02
#       8
#     2   1   2   2   2   2   2   2
#     4  10  20  39  63  93 132 168 210 263 312 393
#     4  10  18  36  60  88 126 170 208 246 310 382
#     4  10  21  36  66  93 127 164 220 248 317 393
#     4  10  24  41  66  95 125 162 225 274 326 388
#     4  11  21  44  66  91 131 172 211 267 332 386
#     4  10  21  41  63  87 124 166 209 271 326 374
#     4  10  22  36  64  91 125 174 211 255 321 384
#     4  10  21  41  63  90 132 167 210 270 329 373
#
# _framework density 23.019641
#
# number of rings (size 3 to 8) (size 9 to 14) (size 15 to 20)
#    0.000    1.867    2.667    0.400    1.867    3.200 
#    0.000    6.667    0.000    0.000    0.000    0.000 
#    0.000    0.000    0.000    0.000    0.000    0.000 
#
# Total GULP energy -83504.622330 kJ/mol
# GULP energy per Si atom -5566.974822 kJ/mol
# Density = 2.296725 g / cm^3
# Si number density = 23.019641 Si / 1000 Ang^3
#
#
#
# Elastic Constant Matrix: (Units=GPa)
#
#
# Indices 1 2 3 4 5 6 
#
# 1 187.5125 55.3943 41.5890 1.5858 -18.2484 -0.9370
# 2 55.3943 39.6017 18.3005 -4.6297 -8.0952 0.0699
# 3 41.5890 18.3005 67.9536 -18.8580 -21.7272 -8.0344
# 4 1.5858 -4.6297 -18.8580 30.7493 0.8260 4.3336
# 5 -18.2484 -8.0952 -21.7272 0.8260 37.2226 2.4448
# 6 -0.9370 0.0699 -8.0344 4.3336 2.4448 37.2892
#
#
#
# Elastic Compliance Matrix: (Units=1/GPa)
#
#
# Indices 1 2 3 4 5 6 
#
# 1 0.010046 -0.012748 -0.004149 -0.004974 -0.000157 -0.000029
# 2 -0.012748 0.045272 -0.002069 0.006388 0.002361 -0.001748
# 3 -0.004149 -0.002069 0.026375 0.015324 0.012375 0.002990
# 4 -0.004974 0.006388 0.015324 0.043275 0.007088 -0.002329
# 5 -0.000157 0.002361 0.012375 0.007088 0.034396 -0.000421
# 6 -0.000029 -0.001748 0.002990 -0.002329 -0.000421 0.027763
#
#
# Mechanical properties :
#
#
# Convention : Reuss Voigt Hill
#
# Bulk Modulus (GPa) = 22.85145 58.40395 40.62770
# Shear Modulus (GPa) = 20.86411 33.03782 26.95097
#
# Velocity S-wave (km/s) = 3.01385 3.79252 3.42538
# Velocity P-wave (km/s) = 4.69676 6.67862 5.77337
#
# Compressibility (1/GPa) = 0.04376091
#
# Stress axis : x y z
#
# Youngs Moduli (GPa) = 99.54372 22.08871 37.91418
#
# Poissons Ratio (x) = 0.28159 0.15731
# Poissons Ratio (y) = 1.26900 0.07844
# Poissons Ratio (z) = 0.41301 0.04570
#
# Static dielectric constant tensor:
#      x y z
#    x 1.883000 -0.013120 0.022830 
#    y -0.013120 1.976960 0.028000 
#    z 0.022830 0.028000 1.911280 
# 
# From -- ./inp_files/490841.got.cif
#   From: 2010.05.17/outbox.cif.g08.bks.cpg/sg2_246_cif.got.tgz:490841.got - 2010.06.03 11:33:40.
