data_PCOD9078528
_publ_section_title
;
Structure prediction by ZEFSAII (Michael W. Deem and Ramdas Pophale) SiO2 
 PCOD9078528
Probable space group: P -1
;
_chemical_formula_sum "Si O2"
_cell_formula_units_Z 16
_cell_length_a 14.985442
_cell_length_b 13.605440
_cell_length_c 9.147354
_cell_angle_alpha 117.602615
_cell_angle_beta 95.469682
_cell_angle_gamma 137.833220
_cell_volume 749.244827
_symmetry_space_group_name_H-M "P -1"
_symmetry_group_IT_number 2
_symmetry_cell_setting 'triclinic'
loop_
_space_group_symop_operation_xyz
x,y,z
-x,-y,-z
loop_
_atom_site_type_symbol
_atom_site_label
_atom_site_fract_x
_atom_site_fract_y
_atom_site_fract_z
Si Si1 0.418941 0.131576 0.042249
Si Si2 0.050363 0.787677 0.890711
Si Si3 0.549906 0.396242 0.826929
Si Si4 0.522787 0.907618 0.265281
Si Si5 0.157878 0.596431 0.172444
Si Si6 0.333673 0.389787 0.720468
Si Si7 0.646222 0.443353 0.554459
Si Si8 0.826584 0.843792 0.754173
O O1 0.516064 0.353619 0.149447
O O2 0.496832 0.208272 0.273394
O O3 0.478691 0.103732 0.917629
O O4 0.186213 0.881842 0.855223
O O5 0.970092 0.624472 0.896488
O O6 0.858385 0.627901 0.675536
O O7 0.176727 0.028225 0.145005
O O8 0.426054 0.160759 0.718046
O O9 0.434133 0.380478 0.755207
O O10 0.628884 0.427163 0.713816
O O11 0.705770 0.604747 0.120127
O O12 0.307980 0.703215 0.154642
O O13 0.689247 0.170356 0.537290
O O14 0.000000 0.500000 0.000000
O O15 0.163348 0.183148 0.431792
O O16 0.646864 0.573483 0.601179
O O17 0.000000 0.000000 0.000000
#
# Coordination Sequence:
#
# PCOD9078528 Si02
#       8
#     2   2   2   2   2   2   2   2
#     4  10  22  39  67  94 129 164 204 258 320 377
#     4  11  22  38  63  95 121 164 215 259 308 373
#     4  10  18  35  64  89 127 168 208 257 312 379
#     4  10  24  46  63  90 128 167 210 267 317 372
#     4  11  26  44  67  90 122 167 220 263 318 370
#     4   9  19  34  59  98 128 168 212 246 317 394
#     4  10  20  37  64  93 129 167 204 251 319 387
#     4   9  19  35  57  91 133 168 205 256 311 379
#
# _framework density 21.354834
#
# number of rings (size 3 to 8) (size 9 to 14) (size 15 to 20)
#    0.000    2.000    1.250    1.500    3.500    3.500 
#    0.000    3.750    2.750    0.000    0.000    0.000 
#    0.000    0.000    0.000    0.000    0.000    0.000 
#
# Total GULP energy -89159.277581 kJ/mol
# GULP energy per Si atom -5572.454849 kJ/mol
# Density = 2.130623 g / cm^3
# Si number density = 21.354834 Si / 1000 Ang^3
#
#
#
# Elastic Constant Matrix: (Units=GPa)
#
#
# Indices 1 2 3 4 5 6 
#
# 1 68.6055 35.1431 37.0690 -6.2489 -0.0895 11.5493
# 2 35.1431 85.1782 44.7029 -10.1929 -11.1707 16.4773
# 3 37.0690 44.7029 113.7744 -31.9305 -5.8385 20.1766
# 4 -6.2489 -10.1929 -31.9305 38.4369 6.8637 -8.1557
# 5 -0.0895 -11.1707 -5.8385 6.8637 31.8271 -5.3375
# 6 11.5493 16.4773 20.1766 -8.1557 -5.3375 35.5316
#
#
#
# Elastic Compliance Matrix: (Units=1/GPa)
#
#
# Indices 1 2 3 4 5 6 
#
# 1 0.020389 -0.006253 -0.004542 -0.002038 -0.002874 -0.002048
# 2 -0.006253 0.017850 -0.004624 -0.001745 0.005233 -0.003234
# 3 -0.004542 -0.004624 0.015499 0.010556 -0.001571 -0.002993
# 4 -0.002038 -0.001745 0.010556 0.035633 -0.005902 0.002770
# 5 -0.002874 0.005233 -0.001571 -0.005902 0.034781 0.003270
# 6 -0.002048 -0.003234 -0.002993 0.002770 0.003270 0.033136
#
#
# Mechanical properties :
#
#
# Convention : Reuss Voigt Hill
#
# Bulk Modulus (GPa) = 43.66973 55.70977 49.68975
# Shear Modulus (GPa) = 25.54167 31.20200 28.37183
#
# Velocity S-wave (km/s) = 3.46216 3.82661 3.64894
# Velocity P-wave (km/s) = 6.03954 6.75783 6.40875
#
# Compressibility (1/GPa) = 0.02289916
#
# Stress axis : x y z
#
# Youngs Moduli (GPa) = 49.04638 56.02385 64.52170
#
# Poissons Ratio (x) = 0.35031 0.29309
# Poissons Ratio (y) = 0.30668 0.29832
# Poissons Ratio (z) = 0.22279 0.25903
#
# Static dielectric constant tensor:
#      x y z
#    x 1.832540 -0.022930 0.011080 
#    y -0.022930 1.820660 -0.040120 
#    z 0.011080 -0.040120 1.821790 
# 
# From -- ./inp_files/313929.got.cif
#   From: 2010.05.17/outbox.cif.g08.bks.cpg/sg2_157_cif.got.tgz:313929.got - 2010.06.03 11:33:40.
