data_PCOD9078671
_publ_section_title
;
Structure prediction by ZEFSAII (Michael W. Deem and Ramdas Pophale) SiO2 
 PCOD9078671
Probable space group: P -1
;
_chemical_formula_sum "Si O2"
_cell_formula_units_Z 16
_cell_length_a 14.944999
_cell_length_b 14.731352
_cell_length_c 10.525580
_cell_angle_alpha 110.370338
_cell_angle_beta 97.791690
_cell_angle_gamma 143.821769
_cell_volume 844.231723
_symmetry_space_group_name_H-M "P -1"
_symmetry_group_IT_number 2
_symmetry_cell_setting 'triclinic'
loop_
_space_group_symop_operation_xyz
x,y,z
-x,-y,-z
loop_
_atom_site_type_symbol
_atom_site_label
_atom_site_fract_x
_atom_site_fract_y
_atom_site_fract_z
Si Si1 0.539848 0.679919 0.979943
Si Si2 0.421920 0.580072 0.421304
Si Si3 0.991741 0.048368 0.154340
Si Si4 0.634750 0.694024 0.285648
Si Si5 0.111786 0.654459 0.224166
Si Si6 0.255322 0.556615 0.979437
Si Si7 0.067742 0.940302 0.272747
Si Si8 0.396132 0.760565 0.384536
O O1 0.592098 0.696245 0.141737
O O2 0.375050 0.431471 0.776811
O O3 0.425045 0.670592 0.970293
O O4 0.774989 0.905256 0.056447
O O5 0.232392 0.342922 0.356209
O O6 0.440384 0.537939 0.272223
O O7 0.687723 0.837283 0.643417
O O8 0.359092 0.626397 0.390766
O O9 0.965782 0.938766 0.199980
O O10 0.000000 0.000000 0.000000
O O11 0.857175 0.962207 0.521404
O O12 0.204259 0.653739 0.321207
O O13 0.911342 0.530966 0.164941
O O14 0.348634 0.947983 0.392879
O O15 0.000000 0.500000 0.000000
O O16 0.379543 0.722061 0.210151
O O17 0.092445 0.310195 0.882913
#
# Coordination Sequence:
#
# PCOD9078671 Si02
#       8
#     2   2   2   2   2   2   2   2
#     4  11  21  33  53  79 116 157 192 233 283 320
#     4  10  19  35  54  78 115 151 186 231 276 328
#     4  12  22  35  50  77 119 163 194 226 268 335
#     4   9  19  35  51  79 107 154 196 237 269 321
#     4   9  19  33  59  85 109 136 175 245 294 340
#     4  11  19  33  55  85 113 145 187 240 285 326
#     4  10  20  35  55  79 115 154 197 229 276 328
#     4  10  18  36  55  86 112 136 187 234 295 333
#
# _framework density 18.952143
#
# number of rings (size 3 to 8) (size 9 to 14) (size 15 to 20)
#    0.750    1.000    3.750    2.625    0.000    2.000 
#    0.000    0.000    0.000    0.750    0.000    7.875 
#    0.000    0.000    0.000    0.000    0.000    0.000 
#
# Total GULP energy -89150.990100 kJ/mol
# GULP energy per Si atom -5571.936881 kJ/mol
# Density = 1.890901 g / cm^3
# Si number density = 18.952143 Si / 1000 Ang^3
#
#
#
# Elastic Constant Matrix: (Units=GPa)
#
#
# Indices 1 2 3 4 5 6 
#
# 1 148.5588 22.2168 22.2405 7.0040 21.9485 10.7490
# 2 22.2168 34.8055 11.8805 16.0552 -0.1329 14.5409
# 3 22.2405 11.8805 88.1917 18.5031 -5.3475 2.7332
# 4 7.0040 16.0552 18.5031 22.4355 1.3019 8.1953
# 5 21.9485 -0.1329 -5.3475 1.3019 31.3755 7.6041
# 6 10.7490 14.5409 2.7332 8.1953 7.6041 26.8328
#
#
#
# Elastic Compliance Matrix: (Units=1/GPa)
#
#
# Indices 1 2 3 4 5 6 
#
# 1 0.009056 -0.007717 -0.002759 0.004874 -0.007390 0.001441
# 2 -0.007717 0.057350 0.002743 -0.033755 0.012736 -0.021566
# 3 -0.002759 0.002743 0.014865 -0.014014 0.004809 0.001022
# 4 0.004874 -0.033755 -0.014014 0.080930 -0.008176 -0.004634
# 5 -0.007390 0.012736 0.004809 -0.008176 0.041579 -0.013717
# 6 0.001441 -0.021566 0.001022 -0.004634 -0.013717 0.053576
#
#
# Mechanical properties :
#
#
# Convention : Reuss Voigt Hill
#
# Bulk Modulus (GPa) = 15.19665 42.69240 28.94453
# Shear Modulus (GPa) = 16.96304 30.47667 23.71985
#
# Velocity S-wave (km/s) = 2.99498 4.01444 3.54159
# Velocity P-wave (km/s) = 4.47165 6.63800 5.65945
#
# Compressibility (1/GPa) = 0.06580397
#
# Stress axis : x y z
#
# Youngs Moduli (GPa) = 110.42051 17.43693 67.27027
#
# Poissons Ratio (x) = 0.13456 0.18563
# Poissons Ratio (y) = 0.85212 -0.18452
# Poissons Ratio (z) = 0.30470 -0.04783
#
# Static dielectric constant tensor:
#      x y z
#    x 1.719580 0.030010 0.023290 
#    y 0.030010 1.638650 0.020100 
#    z 0.023290 0.020100 1.716630 
# 
# From -- ./inp_files/453943.got.cif
#   From: 2010.05.17/outbox.cif.g08.bks.cpg/sg2_227_cif.got.tgz:453943.got - 2010.06.03 11:33:40.
