data_PCOD9078909
_publ_section_title
;
Structure prediction by ZEFSAII (Michael W. Deem and Ramdas Pophale) SiO2 
 PCOD9078909
Probable space group: P -1
;
_chemical_formula_sum "Si O2"
_cell_formula_units_Z 16
_cell_length_a 9.202209
_cell_length_b 11.814203
_cell_length_c 11.479086
_cell_angle_alpha 50.041818
_cell_angle_beta 105.161496
_cell_angle_gamma 125.377899
_cell_volume 767.712517
_symmetry_space_group_name_H-M "P -1"
_symmetry_group_IT_number 2
_symmetry_cell_setting 'triclinic'
loop_
_space_group_symop_operation_xyz
x,y,z
-x,-y,-z
loop_
_atom_site_type_symbol
_atom_site_label
_atom_site_fract_x
_atom_site_fract_y
_atom_site_fract_z
Si Si1 0.074479 0.073399 0.835271
Si Si2 0.709141 0.745779 0.907032
Si Si3 0.562170 0.120137 0.549613
Si Si4 0.533246 0.433736 0.241083
Si Si5 0.716198 0.221077 0.864160
Si Si6 0.473678 0.357288 0.683192
Si Si7 0.068528 0.694397 0.351886
Si Si8 0.529533 0.119208 0.114671
O O1 0.282832 0.163775 0.783646
O O2 0.061763 0.241057 0.699008
O O3 0.915908 0.909547 0.838087
O O4 0.000000 0.000000 0.000000
O O5 0.633754 0.678141 0.807561
O O6 0.574771 0.798990 0.901500
O O7 0.685311 0.586714 0.086456
O O8 0.567429 0.296023 0.402631
O O9 0.753520 0.182892 0.610585
O O10 0.500000 0.000000 0.500000
O O11 0.430701 0.983726 0.712621
O O12 0.501578 0.542471 0.257268
O O13 0.625821 0.316787 0.725624
O O14 0.902472 0.298507 0.786328
O O15 0.607885 0.023702 0.915699
O O16 0.700940 0.236261 0.988567
O O17 0.500000 0.500000 0.500000
O O18 0.000000 0.500000 0.500000
#
# Coordination Sequence:
#
# PCOD9078909 Si02
#       8
#     2   2   2   2   2   2   2   2
#     4  12  22  40  63  94 125 165 216 258 310 372
#     4  11  21  40  64  92 125 169 215 259 312 376
#     4  11  20  36  60  88 120 159 212 250 303 371
#     4  11  22  38  61  96 127 164 213 264 311 378
#     4  10  20  36  61  87 124 159 206 252 313 374
#     4  12  24  39  63  99 130 161 207 268 320 373
#     4  11  23  39  61  92 121 160 205 262 310 362
#     4  10  18  36  60  86 116 163 207 246 303 367
#
# _framework density 20.841134
#
# number of rings (size 3 to 8) (size 9 to 14) (size 15 to 20)
#    0.000    1.000    6.250    3.000    1.750    0.000 
#    0.000    0.625    0.000    3.750    0.000    0.000 
#    0.000    0.000    0.000    0.000    0.000    0.000 
#
# Total GULP energy -89159.696964 kJ/mol
# GULP energy per Si atom -5572.481060 kJ/mol
# Density = 2.079370 g / cm^3
# Si number density = 20.841134 Si / 1000 Ang^3
#
#
#
# Elastic Constant Matrix: (Units=GPa)
#
#
# Indices 1 2 3 4 5 6 
#
# 1 39.2335 16.9285 11.6004 3.2829 12.7315 -3.4161
# 2 16.9285 93.3741 12.3664 5.8106 -10.6559 0.5497
# 3 11.6004 12.3664 129.4979 2.8431 8.9414 4.5665
# 4 3.2829 5.8106 2.8431 37.0526 -9.3424 -0.0236
# 5 12.7315 -10.6559 8.9414 -9.3424 35.2706 -2.7786
# 6 -3.4161 0.5497 4.5665 -0.0236 -2.7786 8.3086
#
#
#
# Elastic Compliance Matrix: (Units=1/GPa)
#
#
# Indices 1 2 3 4 5 6 
#
# 1 0.035776 -0.007742 -0.001656 -0.005727 -0.015489 0.010936
# 2 -0.007742 0.013024 -0.001006 0.000491 0.007025 -0.001142
# 3 -0.001656 -0.001006 0.008380 -0.000991 -0.002572 -0.006083
# 4 -0.005727 0.000491 -0.000991 0.030169 0.010599 0.001788
# 5 -0.015489 0.007025 -0.002572 0.010599 0.040158 0.008041
# 6 0.010936 -0.001142 -0.006083 0.001788 0.008041 0.130967
#
#
# Mechanical properties :
#
#
# Convention : Reuss Voigt Hill
#
# Bulk Modulus (GPa) = 27.49302 38.21067 32.85184
# Shear Modulus (GPa) = 17.15811 30.87371 24.01591
#
# Velocity S-wave (km/s) = 2.87240 3.85305 3.39828
# Velocity P-wave (km/s) = 4.92151 6.17808 5.58525
#
# Compressibility (1/GPa) = 0.03637287
#
# Stress axis : x y z
#
# Youngs Moduli (GPa) = 27.95136 76.77940 119.32598
#
# Poissons Ratio (x) = 0.59446 0.19759
# Poissons Ratio (y) = 0.21641 0.12001
# Poissons Ratio (z) = 0.04629 0.07722
#
# Static dielectric constant tensor:
#      x y z
#    x 1.428340 -0.027120 0.826120 
#    y -0.027120 1.760610 0.096030 
#    z 0.826120 0.096030 -0.034560 
# 
# From -- ./inp_files/392127.got.cif
#   From: 2010.05.17/outbox.cif.g08.bks.cpg/sg2_197_cif.got.tgz:392127.got - 2010.06.03 11:33:40.
