data_PCOD9078601
_publ_section_title
;
Structure prediction by ZEFSAII (Michael W. Deem and Ramdas Pophale) SiO2 
 PCOD9078601
Probable space group: P -1
;
_chemical_formula_sum "Si O2"
_cell_formula_units_Z 16
_cell_length_a 21.708593
_cell_length_b 8.153497
_cell_length_c 21.107638
_cell_angle_alpha 143.815349
_cell_angle_beta 158.978528
_cell_angle_gamma 31.253146
_cell_volume 694.483121
_symmetry_space_group_name_H-M "P -1"
_symmetry_group_IT_number 2
_symmetry_cell_setting 'triclinic'
loop_
_space_group_symop_operation_xyz
x,y,z
-x,-y,-z
loop_
_atom_site_type_symbol
_atom_site_label
_atom_site_fract_x
_atom_site_fract_y
_atom_site_fract_z
Si Si1 0.432136 0.959729 0.189618
Si Si2 0.361776 0.902854 0.764031
Si Si3 0.688402 0.281309 0.533397
Si Si4 0.698741 0.060646 0.670406
Si Si5 0.010237 0.156024 0.414276
Si Si6 0.400350 0.740733 0.899687
Si Si7 0.850207 0.407125 0.857915
Si Si8 0.555110 0.196154 0.704382
O O1 0.476997 0.640129 0.099264
O O2 0.377352 0.926071 0.198747
O O3 0.618720 0.016134 0.390195
O O4 0.264868 0.298246 0.112662
O O5 0.354244 0.857624 0.818198
O O6 0.504480 0.556406 0.766388
O O7 0.150254 0.027535 0.569759
O O8 0.457697 0.117764 0.900985
O O9 0.503283 0.601117 0.428746
O O10 0.266631 0.621220 0.324718
O O11 0.875428 0.102839 0.611908
O O12 0.876783 0.100962 0.826507
O O13 0.705940 0.000848 0.733256
O O14 0.643656 0.822308 0.506940
O O15 0.000000 0.500000 0.500000
O O16 0.802099 0.174584 0.233856
O O17 0.000000 0.500000 0.000000
#
# Coordination Sequence:
#
# PCOD9078601 Si02
#       8
#     2   2   2   2   2   2   2   2
#     4  10  19  40  63  84 121 162 204 246 312 367
#     4  10  23  42  64  92 127 168 213 261 315 367
#     4  11  20  40  59  89 122 158 202 251 305 377
#     4  10  19  36  65  86 115 161 199 248 309 362
#     4  12  24  40  64  95 127 166 216 255 315 377
#     4  10  23  43  66  90 127 171 210 264 310 372
#     4  11  23  38  59  92 126 157 200 257 312 374
#     4  10  18  35  67  87 112 161 207 249 305 367
#
# _framework density 23.038716000000001
#
# number of rings (size 3 to 8) (size 9 to 14) (size 15 to 20)
#    0.000    1.500    5.000    1.125    0.000    2.500 
#    0.000    4.375    0.000    0.000    0.000    0.000 
#    0.000    0.000    0.000    0.000    0.000    0.000 
#
# Total GULP energy -89307.289067 kJ/mol
# GULP energy per Si atom -5581.705567 kJ/mol
# Density = 2.298628 g / cm^3
# Si number density = 23.038716 Si / 1000 Ang^3
#
#
#
# Elastic Constant Matrix: (Units=GPa)
#
#
# Indices 1 2 3 4 5 6 
#
# 1 78.2987 0.8097 24.5929 -0.0874 22.8251 -5.1924
# 2 0.8097 73.5115 30.5898 31.7752 3.6214 -13.5930
# 3 24.5929 30.5898 110.0051 28.6290 34.2945 -3.7896
# 4 -0.0874 31.7752 28.6290 41.4028 9.1501 2.1464
# 5 22.8251 3.6214 34.2945 9.1501 42.5959 -2.1906
# 6 -5.1924 -13.5930 -3.7896 2.1464 -2.1906 30.2554
#
#
#
# Elastic Compliance Matrix: (Units=1/GPa)
#
#
# Indices 1 2 3 4 5 6 
#
# 1 0.015635 0.000085 -0.001892 0.002815 -0.007377 0.001751
# 2 0.000085 0.025212 -0.003295 -0.018868 0.005167 0.012642
# 3 -0.001892 -0.003295 0.014834 -0.005632 -0.009451 -0.000232
# 4 0.002815 -0.018868 -0.005632 0.044393 -0.005536 -0.012250
# 5 -0.007377 0.005167 -0.009451 -0.005536 0.035936 0.002866
# 6 0.001751 0.012642 -0.000232 -0.012250 0.002866 0.040080
#
#
# Mechanical properties :
#
#
# Convention : Reuss Voigt Hill
#
# Bulk Modulus (GPa) = 21.98843 41.53335 31.76089
# Shear Modulus (GPa) = 24.82000 36.57233 30.69617
#
# Velocity S-wave (km/s) = 3.28581 3.98858 3.65413
# Velocity P-wave (km/s) = 4.89492 6.26725 5.62311
#
# Compressibility (1/GPa) = 0.04547845
#
# Stress axis : x y z
#
# Youngs Moduli (GPa) = 63.96099 39.66313 67.41399
#
# Poissons Ratio (x) = -0.00338 0.12752
# Poissons Ratio (y) = -0.00545 0.22211
# Poissons Ratio (z) = 0.12099 0.13068
#
# Static dielectric constant tensor:
#      x y z
#    x 1.918720 -0.001410 0.013580 
#    y -0.001410 1.910010 -0.032660 
#    z 0.013580 -0.032660 1.881300 
# 
# From -- ./inp_files/614017.got.cif
#   From: 2010.05.17/outbox.cif.g08.bks.cpg/sg2_308_cif.got.tgz:614017.got - 2010.06.03 11:33:40.
