data_PCOD9078539
_publ_section_title
;
Structure prediction by ZEFSAII (Michael W. Deem and Ramdas Pophale) SiO2 
 PCOD9078539
Probable space group: P -1
;
_chemical_formula_sum "Si O2"
_cell_formula_units_Z 16
_cell_length_a 14.794344
_cell_length_b 8.352377
_cell_length_c 8.728396
_cell_angle_alpha 60.387267
_cell_angle_beta 141.643024
_cell_angle_gamma 117.503286
_cell_volume 576.335577
_symmetry_space_group_name_H-M "P -1"
_symmetry_group_IT_number 2
_symmetry_cell_setting 'triclinic'
loop_
_space_group_symop_operation_xyz
x,y,z
-x,-y,-z
loop_
_atom_site_type_symbol
_atom_site_label
_atom_site_fract_x
_atom_site_fract_y
_atom_site_fract_z
Si Si1 0.360840 0.805595 0.285508
Si Si2 0.995213 0.906107 0.271864
Si Si3 0.354124 0.569814 0.967990
Si Si4 0.682667 0.809722 0.027499
Si Si5 0.601935 0.733143 0.450095
Si Si6 0.104686 0.633876 0.803556
Si Si7 0.150897 0.299946 0.398147
Si Si8 0.254008 0.854924 0.460507
O O1 0.500161 0.698176 0.482637
O O2 0.306021 0.813560 0.380501
O O3 0.223570 0.737429 0.027620
O O4 0.406805 0.018716 0.187108
O O5 0.053433 0.780943 0.544195
O O6 0.078784 0.852948 0.256267
O O7 0.820723 0.866813 0.069899
O O8 0.046762 0.119635 0.283729
O O9 0.399960 0.386121 0.042528
O O10 0.203826 0.511815 0.894724
O O11 0.305739 0.699649 0.710682
O O12 0.477948 0.692592 0.173857
O O13 0.751215 0.775594 0.300680
O O14 0.735545 0.627164 0.619506
O O15 0.680845 0.942994 0.479407
O O16 0.955327 0.566190 0.730470
#
# Coordination Sequence:
#
# PCOD9078539 Si02
#       8
#     2   2   2   2   2   2   2   2
#     4  11  21  38  66  92 122 159 211 247 311 361
#     4   9  17  35  61  91 118 153 207 247 299 356
#     4  10  23  39  65  90 126 158 208 253 308 358
#     4  11  21  36  65  98 121 154 207 264 300 359
#     4  10  23  41  63  86 122 173 210 244 295 382
#     4   9  17  36  63  86 119 164 200 248 298 373
#     4  10  18  35  64  94 118 155 219 250 293 357
#     4  10  22  38  64  92 121 162 206 255 301 371
#
# _framework density 27.761604999999999
#
# number of rings (size 3 to 8) (size 9 to 14) (size 15 to 20)
#    0.000    2.000    2.500    1.500    3.500    5.500 
#    0.000    0.625   11.000    6.000    0.000    0.000 
#    0.000    0.000    0.000    0.000    0.000    0.000 
#
# Total GULP energy -89720.006325 kJ/mol
# GULP energy per Si atom -5607.500395 kJ/mol
# Density = 2.769842 g / cm^3
# Si number density = 27.761605 Si / 1000 Ang^3
#
#
#
# Elastic Constant Matrix: (Units=GPa)
#
#
# Indices 1 2 3 4 5 6 
#
# 1 233.2482 45.1891 37.5907 -0.1829 31.5197 -6.9027
# 2 45.1891 71.8304 18.3795 7.4563 -9.3134 -13.1341
# 3 37.5907 18.3795 71.2239 5.8767 -3.8883 -3.2367
# 4 -0.1829 7.4563 5.8767 22.2433 -3.1405 -0.1049
# 5 31.5197 -9.3134 -3.8883 -3.1405 48.2137 2.0546
# 6 -6.9027 -13.1341 -3.2367 -0.1049 2.0546 35.6024
#
#
#
# Elastic Compliance Matrix: (Units=1/GPa)
#
#
# Indices 1 2 3 4 5 6 
#
# 1 0.006141 -0.004024 -0.002596 0.001392 -0.004901 -0.000243
# 2 -0.004024 0.019255 -0.001847 -0.005179 0.005616 0.005816
# 3 -0.002596 -0.001847 0.016304 -0.003366 0.002430 0.000147
# 4 0.001392 -0.005179 -0.003366 0.047728 0.001006 -0.001864
# 5 -0.004901 0.005616 0.002430 0.001006 0.025296 -0.000114
# 6 -0.000243 0.005816 0.000147 -0.001864 -0.000114 0.030201
#
#
# Mechanical properties :
#
#
# Convention : Reuss Voigt Hill
#
# Bulk Modulus (GPa) = 40.37716 64.29122 52.33419
# Shear Modulus (GPa) = 29.39202 39.55476 34.47339
#
# Velocity S-wave (km/s) = 3.25734 3.77875 3.52769
# Velocity P-wave (km/s) = 5.35937 6.49978 5.95693
#
# Compressibility (1/GPa) = 0.02476648
#
# Stress axis : x y z
#
# Youngs Moduli (GPa) = 162.83013 51.93548 61.33346
#
# Poissons Ratio (x) = 0.20896 0.15925
# Poissons Ratio (y) = 0.65515 0.11328
# Poissons Ratio (z) = 0.42278 0.09592
#
# Static dielectric constant tensor:
#      x y z
#    x 2.226220 0.016960 -0.001670 
#    y 0.016960 2.089850 -0.009030 
#    z -0.001670 -0.009030 2.092680 
# 
# From -- ./inp_files/295019.got.cif
#   From: 2010.05.17/outbox.cif.g08.bks.cpg/sg2_148_cif.got.tgz:295019.got - 2010.06.03 11:33:40.
