data_PCOD9078084
_publ_section_title
;
Structure prediction by ZEFSAII (Michael W. Deem and Ramdas Pophale) SiO2 
 PCOD9078084
Probable space group: P -1
;
_chemical_formula_sum "Si O2"
_cell_formula_units_Z 15
_cell_length_a 19.490073
_cell_length_b 14.955283
_cell_length_c 6.672305
_cell_angle_alpha 124.804773
_cell_angle_beta 77.442752
_cell_angle_gamma 150.909959
_cell_volume 550.765234
_symmetry_space_group_name_H-M "P -1"
_symmetry_group_IT_number 2
_symmetry_cell_setting 'triclinic'
loop_
_space_group_symop_operation_xyz
x,y,z
-x,-y,-z
loop_
_atom_site_type_symbol
_atom_site_label
_atom_site_fract_x
_atom_site_fract_y
_atom_site_fract_z
Si Si1 0.174962 0.557980 0.693244
Si Si2 0.664614 0.379363 0.608243
Si Si3 0.267045 0.107386 0.915910
Si Si4 0.689129 0.786224 0.554062
Si Si5 0.000000 0.500000 0.500000
Si Si6 0.711670 0.574384 0.434980
Si Si7 0.646466 0.002808 0.366053
Si Si8 0.926388 0.715924 0.252383
O O1 0.323574 0.712814 0.648693
O O2 0.120051 0.600012 0.722057
O O3 0.206461 0.566922 0.912436
O O4 0.958355 0.182125 0.322985
O O5 0.700256 0.526468 0.612578
O O6 0.464945 0.112328 0.517449
O O7 0.835235 0.611202 0.960916
O O8 0.461455 0.462260 0.215383
O O9 0.268821 0.069573 0.105532
O O10 0.306565 0.056574 0.699729
O O11 0.706715 0.693669 0.535152
O O12 0.854550 0.015289 0.575436
O O13 0.149291 0.662595 0.437048
O O14 0.900699 0.789165 0.489286
O O15 0.524388 0.249319 0.020701
#
# Coordination Sequence:
#
# PCOD9078084 Si02
#       8
#     2   2   2   2   1   2   2   2
#     4  10  21  41  61  85 116 149 191 248 288 344
#     4  10  20  40  61  83 121 151 191 241 284 334
#     4   9  19  37  53  85 122 152 190 238 277 340
#     4  10  18  35  58  84 121 164 191 228 283 340
#     4  10  22  44  64  86 116 142 192 242 300 354
#     4   9  20  37  59  87 120 154 194 236 275 339
#     4   9  20  41  61  85 116 148 189 247 285 345
#     4  10  20  36  59  87 120 154 195 237 281 334
#
# _framework density 27.234832999999998
#
# number of rings (size 3 to 8) (size 9 to 14) (size 15 to 20)
#    0.000    2.400    1.333    0.400    0.000    1.600 
#   21.600    8.667    0.000    0.000    0.000    0.000 
#    0.000    0.000    0.000    0.000    0.000    0.000 
#
# Total GULP energy -83626.398609 kJ/mol
# GULP energy per Si atom -5575.093241 kJ/mol
# Density = 2.717285 g / cm^3
# Si number density = 27.234833 Si / 1000 Ang^3
#
#
#
# Elastic Constant Matrix: (Units=GPa)
#
#
# Indices 1 2 3 4 5 6 
#
# 1 130.3183 36.4970 25.2392 -9.5536 24.3645 6.4791
# 2 36.4970 232.8877 44.3487 -27.6198 -11.9558 43.9532
# 3 25.2392 44.3487 68.1442 -0.5805 11.6612 -4.2281
# 4 -9.5536 -27.6198 -0.5805 29.9615 -8.1439 15.4112
# 5 24.3645 -11.9558 11.6612 -8.1439 24.2571 -14.3215
# 6 6.4791 43.9532 -4.2281 15.4112 -14.3215 57.4254
#
#
#
# Elastic Compliance Matrix: (Units=1/GPa)
#
#
# Indices 1 2 3 4 5 6 
#
# 1 0.010971 -0.001480 -0.001054 0.000356 -0.013236 -0.003579
# 2 -0.001480 0.011085 -0.009058 0.018269 0.010835 -0.011185
# 3 -0.001054 -0.009058 0.023984 -0.017299 -0.015006 0.009718
# 4 0.000356 0.018269 -0.017299 0.071142 0.024091 -0.028381
# 5 -0.013236 0.010835 -0.015006 0.024091 0.078191 0.005130
# 6 -0.003579 -0.011185 0.009718 -0.028381 0.005130 0.035990
#
#
# Mechanical properties :
#
#
# Convention : Reuss Voigt Hill
#
# Bulk Modulus (GPa) = 43.75544 71.50220 57.62882
# Shear Modulus (GPa) = 19.07194 44.01316 31.54255
#
# Velocity S-wave (km/s) = 2.64915 4.02439 3.40688
# Velocity P-wave (km/s) = 5.04561 6.92136 6.05654
#
# Compressibility (1/GPa) = 0.02285430
#
# Stress axis : x y z
#
# Youngs Moduli (GPa) = 91.15045 90.21524 41.69494
#
# Poissons Ratio (x) = 0.13355 0.04395
# Poissons Ratio (y) = 0.13494 0.37768
# Poissons Ratio (z) = 0.09607 0.81718
#
# Static dielectric constant tensor:
#      x y z
#    x 2.155050 -0.081010 -0.068780 
#    y -0.081010 2.177630 0.025830 
#    z -0.068780 0.025830 2.303900 
# 
# From -- ./inp_files/27636.got.cif
#   From: 2010.05.17/outbox.cif.g08.bks.cpg/sg2_14_cif.got.tgz:27636.got - 2010.06.03 11:33:40.
