data_PCOD9078309
_publ_section_title
;
Structure prediction by ZEFSAII (Michael W. Deem and Ramdas Pophale) SiO2 
 PCOD9078309
Probable space group: P -1
;
_chemical_formula_sum "Si O2"
_cell_formula_units_Z 14
_cell_length_a 7.806479
_cell_length_b 15.854103
_cell_length_c 17.980571
_cell_angle_alpha 158.997003
_cell_angle_beta 125.544556
_cell_angle_gamma 64.651067
_cell_volume 596.791695
_symmetry_space_group_name_H-M "P -1"
_symmetry_group_IT_number 2
_symmetry_cell_setting 'triclinic'
loop_
_space_group_symop_operation_xyz
x,y,z
-x,-y,-z
loop_
_atom_site_type_symbol
_atom_site_label
_atom_site_fract_x
_atom_site_fract_y
_atom_site_fract_z
Si Si1 0.108862 0.638075 0.376432
Si Si2 0.005502 0.227360 0.792888
Si Si3 0.368924 0.157444 0.910346
Si Si4 0.252758 0.280628 0.749920
Si Si5 0.801833 0.641495 0.439108
Si Si6 0.254747 0.834778 0.899711
Si Si7 0.997523 0.898631 0.037560
O O1 0.923773 0.614198 0.246677
O O2 0.994386 0.685367 0.462569
O O3 0.325728 0.904620 0.641054
O O4 0.136983 0.377353 0.186316
O O5 0.137947 0.207147 0.883639
O O6 0.167932 0.200969 0.746343
O O7 0.776074 0.973667 0.513889
O O8 0.000000 0.500000 0.000000
O O9 0.567196 0.439830 0.177012
O O10 0.474203 0.083651 0.950432
O O11 0.500000 0.500000 0.000000
O O12 0.829228 0.471783 0.375298
O O13 0.830355 0.908471 0.701123
O O14 0.144152 0.875881 0.984367
O O15 0.175815 0.981662 0.939358
#
# Coordination Sequence:
#
# PCOD9078309 Si02
#       7
#     2   2   2   2   2   2   2
#     4  10  21  36  54  86 114 141 188 233 274 333
#     4  10  22  40  59  85 114 150 195 233 281 345
#     4   9  20  39  55  79 120 142 179 240 276 321
#     4  10  22  39  61  82 118 151 184 243 288 326
#     4   9  19  36  55  79 114 147 182 230 273 326
#     4   8  19  36  57  80 114 145 184 228 279 328
#     4  10  18  35  61  81 108 152 186 222 278 338
#
# _framework density 23.458772
#
# number of rings (size 3 to 8) (size 9 to 14) (size 15 to 20)
#    0.857    1.714    0.000    1.286    0.000    4.571 
#    7.714    0.714    0.000    0.000    0.000    0.000 
#    0.000    0.000    0.000    0.000    0.000    0.000 
#
# Total GULP energy -77937.694391 kJ/mol
# GULP energy per Si atom -5566.978171 kJ/mol
# Density = 2.340538 g / cm^3
# Si number density = 23.458772 Si / 1000 Ang^3
#
#
#
# Elastic Constant Matrix: (Units=GPa)
#
#
# Indices 1 2 3 4 5 6 
#
# 1 30.3673 3.7897 17.7341 -3.5274 0.0552 5.6592
# 2 3.7897 152.7975 62.7589 19.0842 10.0353 -10.2681
# 3 17.7341 62.7589 173.6102 9.9250 10.7868 -17.4134
# 4 -3.5274 19.0842 9.9250 42.2354 -8.3168 -2.2011
# 5 0.0552 10.0353 10.7868 -8.3168 18.1064 1.8635
# 6 5.6592 -10.2681 -17.4134 -2.2011 1.8635 22.2657
#
#
#
# Elastic Compliance Matrix: (Units=1/GPa)
#
#
# Indices 1 2 3 4 5 6 
#
# 1 0.040281 -0.000781 -0.006266 0.006034 0.008421 -0.015607
# 2 -0.000781 0.008544 -0.002148 -0.004421 -0.005741 0.002502
# 3 -0.006266 -0.002148 0.008395 -0.002238 -0.005583 0.007413
# 4 0.006034 -0.004421 -0.002238 0.030040 0.017961 -0.003857
# 5 0.008421 -0.005741 -0.005583 0.017961 0.071335 -0.013349
# 6 -0.015607 0.002502 0.007413 -0.003857 -0.013349 0.056567
#
#
# Mechanical properties :
#
#
# Convention : Reuss Voigt Hill
#
# Bulk Modulus (GPa) = 25.75372 58.37115 42.06244
# Shear Modulus (GPa) = 20.28432 34.68765 27.48599
#
# Velocity S-wave (km/s) = 2.94373 3.84951 3.42668
# Velocity P-wave (km/s) = 4.74934 6.68542 5.79875
#
# Compressibility (1/GPa) = 0.03882934
#
# Stress axis : x y z
#
# Youngs Moduli (GPa) = 24.82559 117.04460 119.11688
#
# Poissons Ratio (x) = 0.09141 0.74638
# Poissons Ratio (y) = 0.01939 0.25590
# Poissons Ratio (z) = 0.15556 0.25145
#
# Static dielectric constant tensor:
#      x y z
#    x 1.906280 -0.020050 -0.013160 
#    y -0.020050 1.884680 -0.000270 
#    z -0.013160 -0.000270 2.002260 
# 
# From -- ./inp_files/591135.got.cif
#   From: 2010.05.17/outbox.cif.g08.bks.cpg/sg2_296_cif.got.tgz:591135.got - 2010.06.03 11:33:40.
