data_PCOD9078691
_publ_section_title
;
Structure prediction by ZEFSAII (Michael W. Deem and Ramdas Pophale) SiO2 
 PCOD9078691
Probable space group: P -1
;
_chemical_formula_sum "Si O2"
_cell_formula_units_Z 14
_cell_length_a 14.463897
_cell_length_b 17.374394
_cell_length_c 13.490743
_cell_angle_alpha 22.294138
_cell_angle_beta 27.201792
_cell_angle_gamma 23.491000
_cell_volume 493.609934
_symmetry_space_group_name_H-M "P -1"
_symmetry_group_IT_number 2
_symmetry_cell_setting 'triclinic'
loop_
_space_group_symop_operation_xyz
x,y,z
-x,-y,-z
loop_
_atom_site_type_symbol
_atom_site_label
_atom_site_fract_x
_atom_site_fract_y
_atom_site_fract_z
Si Si1 0.229906 0.776265 0.156928
Si Si2 0.335027 0.079947 0.835027
Si Si3 0.678855 0.724324 0.694511
Si Si4 0.500872 0.580293 0.516526
Si Si5 0.729020 0.483713 0.745548
Si Si6 0.828984 0.900277 0.812457
Si Si7 0.169271 0.397536 0.096293
O O1 0.268220 0.606716 0.416529
O O2 0.110283 0.748273 0.204021
O O3 0.487343 0.669395 0.985830
O O4 0.825485 0.545953 0.677971
O O5 0.205751 0.003069 0.967979
O O6 0.353157 0.293146 0.517314
O O7 0.614381 0.856667 0.852153
O O8 0.190080 0.120380 0.025923
O O9 0.833600 0.689643 0.685292
O O10 0.500000 0.000000 0.500000
O O11 0.500000 0.500000 0.500000
O O12 0.420848 0.855229 0.273332
O O13 0.299307 0.545469 0.797792
O O14 0.500000 0.500000 0.000000
O O15 0.000000 0.000000 0.500000
O O16 0.921133 0.626573 0.014871
#
# Coordination Sequence:
#
# PCOD9078691 Si02
#       7
#     2   2   2   2   2   2   2
#     4   9  18  28  55  85 106 148 188 219 286 331
#     4  10  18  36  56  80 116 140 192 228 268 348
#     4   9  14  30  52  79 109 141 183 227 268 331
#     4   9  14  30  52  79 109 141 183 227 268 331
#     4  10  19  31  58  86 109 149 190 229 280 331
#     4  10  19  31  58  86 109 149 190 229 280 331
#     4   9  18  28  55  85 106 148 188 219 286 331
#
# _framework density 28.362476000000001
#
# number of rings (size 3 to 8) (size 9 to 14) (size 15 to 20)
#    0.000    2.857    5.714    0.000    0.000    0.000 
#    0.000    1.429    0.000   12.000    0.000    0.000 
#    0.000    0.000    0.000    0.000    0.000    0.000 
#
# Total GULP energy -77966.343612 kJ/mol
# GULP energy per Si atom -5569.024544 kJ/mol
# Density = 2.829792 g / cm^3
# Si number density = 28.362476 Si / 1000 Ang^3
#
#
#
# Elastic Constant Matrix: (Units=GPa)
#
#
# Indices 1 2 3 4 5 6 
#
# 1 133.8657 51.2649 32.1672 3.6205 14.3237 19.9261
# 2 51.2649 174.9456 84.3023 -10.0455 17.6184 41.1067
# 3 32.1672 84.3023 234.6886 -13.2151 7.7543 17.9014
# 4 3.6205 -10.0455 -13.2151 77.7374 7.2968 10.6385
# 5 14.3237 17.6184 7.7543 7.2968 37.6599 3.8539
# 6 19.9261 41.1067 17.9014 10.6385 3.8539 69.2338
#
#
#
# Elastic Compliance Matrix: (Units=1/GPa)
#
#
# Indices 1 2 3 4 5 6 
#
# 1 0.008696 -0.001918 -0.000369 -0.000364 -0.002152 -0.001093
# 2 -0.001918 0.008776 -0.002390 0.001645 -0.002780 -0.004139
# 3 -0.000369 -0.002390 0.005193 0.000572 0.000069 0.000090
# 4 -0.000364 0.001645 0.000572 0.013893 -0.003136 -0.002980
# 5 -0.002152 -0.002780 0.000069 -0.003136 0.029152 0.001111
# 6 -0.001093 -0.004139 0.000090 -0.002980 0.001111 0.017589
#
#
# Mechanical properties :
#
#
# Convention : Reuss Voigt Hill
#
# Bulk Modulus (GPa) = 75.11632 97.66319 86.38975
# Shear Modulus (GPa) = 51.49917 61.97726 56.73822
#
# Velocity S-wave (km/s) = 4.26578 4.67967 4.47751
# Velocity P-wave (km/s) = 7.12772 7.98171 7.56678
#
# Compressibility (1/GPa) = 0.01331269
#
# Stress axis : x y z
#
# Youngs Moduli (GPa) = 114.99437 113.94190 192.56878
#
# Poissons Ratio (x) = 0.21851 0.07107
# Poissons Ratio (y) = 0.22053 0.46015
# Poissons Ratio (z) = 0.04244 0.27227
#
# Static dielectric constant tensor:
#      x y z
#    x 2.582320 -0.145500 -0.065230 
#    y -0.145500 2.380880 -0.021100 
#    z -0.065230 -0.021100 2.193520 
# 
# From -- ./inp_files/543249.got.cif
#   From: 2010.05.17/outbox.cif.g08.bks.cpg/sg2_272_cif.got.tgz:543249.got - 2010.06.03 11:33:40.
