data_PCOD9078570
_publ_section_title
;
Structure prediction by ZEFSAII (Michael W. Deem and Ramdas Pophale) SiO2 
 PCOD9078570
Probable space group: P -1
;
_chemical_formula_sum "Si O2"
_cell_formula_units_Z 16
_cell_length_a 15.109223
_cell_length_b 7.768825
_cell_length_c 14.601643
_cell_angle_alpha 36.782723
_cell_angle_beta 45.245952
_cell_angle_gamma 43.302057
_cell_volume 672.518804
_symmetry_space_group_name_H-M "P -1"
_symmetry_group_IT_number 2
_symmetry_cell_setting 'triclinic'
loop_
_space_group_symop_operation_xyz
x,y,z
-x,-y,-z
loop_
_atom_site_type_symbol
_atom_site_label
_atom_site_fract_x
_atom_site_fract_y
_atom_site_fract_z
Si Si1 0.410129 0.337847 0.458532
Si Si2 0.454441 0.093491 0.720491
Si Si3 0.100946 0.503504 0.583259
Si Si4 0.767258 0.893908 0.993767
Si Si5 0.694059 0.804612 0.800076
Si Si6 0.062282 0.864673 0.111073
Si Si7 0.487163 0.571577 0.132038
Si Si8 0.088036 0.122596 0.281392
O O1 0.433809 0.330648 0.551911
O O2 0.259739 0.370911 0.532126
O O3 0.460253 0.549483 0.267731
O O4 0.500000 0.000000 0.500000
O O5 0.601444 0.971560 0.711332
O O6 0.452013 0.768992 0.816153
O O7 0.332826 0.225782 0.826288
O O8 0.046328 0.236809 0.713508
O O9 0.034472 0.636224 0.674614
O O10 0.060069 0.810181 0.417878
O O11 0.878343 0.917466 0.972152
O O12 0.656601 0.227505 0.896191
O O13 0.854493 0.750233 0.900398
O O14 0.807756 0.460549 0.849558
O O15 0.785333 0.980591 0.696232
O O16 0.588775 0.742914 0.970378
O O17 0.000000 0.000000 0.000000
#
# Coordination Sequence:
#
# PCOD9078570 Si02
#       8
#     2   2   2   2   2   2   2   2
#     4  10  21  37  63  92 127 155 202 264 316 343
#     4  10  19  35  63  94 126 155 203 267 305 354
#     4  10  22  43  59  90 130 163 205 253 310 367
#     4  11  19  38  63  93 116 161 214 248 309 359
#     4  10  20  39  63  91 124 166 209 247 313 369
#     4  11  22  37  67  90 123 159 210 264 309 356
#     4  10  18  35  65  92 124 151 209 262 300 357
#     4  10  23  40  64  86 129 174 200 248 305 387
#
# _framework density 23.791156000000001
#
# number of rings (size 3 to 8) (size 9 to 14) (size 15 to 20)
#    0.000    1.750    3.750    1.500    1.750    2.500 
#    0.000    7.500    2.750    0.000    0.000    0.000 
#    0.000    0.000    0.000    0.000    0.000    0.000 
#
# Total GULP energy -89382.113411 kJ/mol
# GULP energy per Si atom -5586.382088 kJ/mol
# Density = 2.373701 g / cm^3
# Si number density = 23.791156 Si / 1000 Ang^3
#
#
#
# Elastic Constant Matrix: (Units=GPa)
#
#
# Indices 1 2 3 4 5 6 
#
# 1 91.3966 -8.0332 45.5858 0.1765 -3.2942 -18.7628
# 2 -8.0332 73.2236 19.4296 21.7861 -9.9631 -11.1576
# 3 45.5858 19.4296 117.9251 11.0477 14.9775 -17.6332
# 4 0.1765 21.7861 11.0477 38.2924 1.2882 -0.9441
# 5 -3.2942 -9.9631 14.9775 1.2882 42.9492 3.5739
# 6 -18.7628 -11.1576 -17.6332 -0.9441 3.5739 24.8806
#
#
#
# Elastic Compliance Matrix: (Units=1/GPa)
#
#
# Indices 1 2 3 4 5 6 
#
# 1 0.016960 0.006192 -0.006400 -0.001639 0.004155 0.010372
# 2 0.006192 0.020993 -0.004182 -0.010736 0.006309 0.009806
# 3 -0.006400 -0.004182 0.013047 -0.001061 -0.006262 0.003404
# 4 -0.001639 -0.010736 -0.001061 0.032503 -0.002791 -0.005168
# 5 0.004155 0.006309 -0.006262 -0.002791 0.027544 -0.002538
# 6 0.010372 0.009806 0.003404 -0.005168 -0.002538 0.054992
#
#
# Mechanical properties :
#
#
# Convention : Reuss Voigt Hill
#
# Bulk Modulus (GPa) = 23.68506 44.05664 33.87085
# Shear Modulus (GPa) = 26.47043 36.26197 31.36620
#
# Velocity S-wave (km/s) = 3.33921 3.90831 3.63491
# Velocity P-wave (km/s) = 4.98439 6.23897 5.64663
#
# Compressibility (1/GPa) = 0.04222071
#
# Stress axis : x y z
#
# Youngs Moduli (GPa) = 58.96360 47.63567 76.64891
#
# Poissons Ratio (x) = -0.29496 0.49052
# Poissons Ratio (y) = -0.36511 0.32051
# Poissons Ratio (z) = 0.37734 0.19919
#
# Static dielectric constant tensor:
#      x y z
#    x 1.930870 0.043320 0.029960 
#    y 0.043320 1.965050 -0.044910 
#    z 0.029960 -0.044910 1.936630 
# 
# From -- ./inp_files/529284.got.cif
#   From: 2010.05.17/outbox.cif.g08.bks.cpg/sg2_265_cif.got.tgz:529284.got - 2010.06.03 11:33:40.
