data_PCOD9078800
_publ_section_title
;
Structure prediction by ZEFSAII (Michael W. Deem and Ramdas Pophale) SiO2 
 PCOD9078800
Probable space group: P -1
;
_chemical_formula_sum "Si O2"
_cell_formula_units_Z 14
_cell_length_a 15.789021
_cell_length_b 12.453328
_cell_length_c 7.388200
_cell_angle_alpha 107.302270
_cell_angle_beta 130.818650
_cell_angle_gamma 37.739939
_cell_volume 592.558524
_symmetry_space_group_name_H-M "P -1"
_symmetry_group_IT_number 2
_symmetry_cell_setting 'triclinic'
loop_
_space_group_symop_operation_xyz
x,y,z
-x,-y,-z
loop_
_atom_site_type_symbol
_atom_site_label
_atom_site_fract_x
_atom_site_fract_y
_atom_site_fract_z
Si Si1 0.805518 0.591039 0.955649
Si Si2 0.174033 0.603817 0.789880
Si Si3 0.857071 0.590744 0.513825
Si Si4 0.464079 0.763597 0.343717
Si Si5 0.146271 0.958865 0.301516
Si Si6 0.564947 0.002683 0.781874
Si Si7 0.538566 0.451668 0.312431
O O1 0.667332 0.654348 0.639074
O O2 0.714845 0.789751 0.968783
O O3 0.784274 0.514778 0.042958
O O4 0.039979 0.423246 0.189092
O O5 0.147503 0.540677 0.554708
O O6 0.982776 0.837104 0.683948
O O7 0.362502 0.527891 0.015763
O O8 0.634998 0.817571 0.293101
O O9 0.000000 0.500000 0.500000
O O10 0.370594 0.924311 0.144300
O O11 0.524242 0.588558 0.283827
O O12 0.308832 0.878636 0.351522
O O13 0.259701 0.786892 0.520134
O O14 0.000000 0.000000 0.000000
O O15 0.500000 0.000000 0.500000
O O16 0.500000 0.500000 0.500000
#
# Coordination Sequence:
#
# PCOD9078800 Si02
#       7
#     2   2   2   2   2   2   2
#     4  10  21  39  59  88 124 159 200 247 302 360
#     4  11  21  36  61  91 121 151 207 255 295 358
#     4  10  25  40  60  89 125 165 205 245 299 367
#     4  10  20  38  61  90 122 153 204 256 297 353
#     4  11  19  34  61  91 119 150 204 248 300 351
#     4  10  24  42  60  89 125 167 200 247 305 362
#     4  10  18  36  58  92 117 156 201 258 302 344
#
# _framework density 23.626359000000001
#
# number of rings (size 3 to 8) (size 9 to 14) (size 15 to 20)
#    0.000    1.714    5.714    0.000    8.000    5.714 
#    2.571    0.714    0.000    1.714    0.000    0.000 
#    0.000    0.000    0.000    0.000    0.000    0.000 
#
# Total GULP energy -78167.430807 kJ/mol
# GULP energy per Si atom -5583.387915 kJ/mol
# Density = 2.357258 g / cm^3
# Si number density = 23.626359 Si / 1000 Ang^3
#
#
#
# Elastic Constant Matrix: (Units=GPa)
#
#
# Indices 1 2 3 4 5 6 
#
# 1 77.7145 63.6348 33.9316 0.8535 8.1672 23.6063
# 2 63.6348 169.1281 50.8929 -33.6359 8.7989 35.4058
# 3 33.9316 50.8929 88.7523 2.6274 35.4718 14.7551
# 4 0.8535 -33.6359 2.6274 51.6021 9.5823 -2.5608
# 5 8.1672 8.7989 35.4718 9.5823 42.2207 4.8352
# 6 23.6063 35.4058 14.7551 -2.5608 4.8352 55.7697
#
#
#
# Elastic Compliance Matrix: (Units=1/GPa)
#
#
# Indices 1 2 3 4 5 6 
#
# 1 0.021708 -0.007279 -0.004404 -0.005580 0.002730 -0.003895
# 2 -0.007279 0.012131 -0.004301 0.007889 0.001071 -0.003213
# 3 -0.004404 -0.004301 0.022060 -0.000757 -0.016632 0.000166
# 4 -0.005580 0.007889 -0.000757 0.025665 -0.005665 -0.000777
# 5 0.002730 0.001071 -0.016632 -0.005665 0.038310 -0.001017
# 6 -0.003895 -0.003213 0.000166 -0.000777 -0.001017 0.021629
#
#
# Mechanical properties :
#
#
# Convention : Reuss Voigt Hill
#
# Bulk Modulus (GPa) = 41.78511 70.27928 56.03220
# Shear Modulus (GPa) = 27.55619 42.39421 34.97520
#
# Velocity S-wave (km/s) = 3.41887 4.24058 3.85170
# Velocity P-wave (km/s) = 5.77140 7.33399 6.59911
#
# Compressibility (1/GPa) = 0.02393197
#
# Stress axis : x y z
#
# Youngs Moduli (GPa) = 46.06570 82.43044 45.33147
#
# Poissons Ratio (x) = 0.59999 0.19964
# Poissons Ratio (y) = 0.33530 0.19497
# Poissons Ratio (z) = 0.20287 0.35453
#
# Static dielectric constant tensor:
#      x y z
#    x 1.971020 -0.030560 -0.053290 
#    y -0.030560 1.914130 0.047830 
#    z -0.053290 0.047830 1.970340 
# 
# From -- ./inp_files/333560.got.cif
#   From: 2010.05.17/outbox.cif.g08.bks.cpg/sg2_167_cif.got.tgz:333560.got - 2010.06.03 11:33:40.
