data_PCOD9078278
_publ_section_title
;
Structure prediction by ZEFSAII (Michael W. Deem and Ramdas Pophale) SiO2 
 PCOD9078278
Probable space group: P -1
;
_chemical_formula_sum "Si O2"
_cell_formula_units_Z 16
_cell_length_a 14.013342
_cell_length_b 16.310251
_cell_length_c 5.839345
_cell_angle_alpha 100.366881
_cell_angle_beta 100.073057
_cell_angle_gamma 24.909045
_cell_volume 552.728812
_symmetry_space_group_name_H-M "P -1"
_symmetry_group_IT_number 2
_symmetry_cell_setting 'triclinic'
loop_
_space_group_symop_operation_xyz
x,y,z
-x,-y,-z
loop_
_atom_site_type_symbol
_atom_site_label
_atom_site_fract_x
_atom_site_fract_y
_atom_site_fract_z
Si Si1 0.023164 0.381381 0.474981
Si Si2 0.744484 0.661541 0.831932
Si Si3 0.940190 0.278873 0.828899
Si Si4 0.272068 0.789149 0.718437
Si Si5 0.618164 0.646015 0.130856
Si Si6 0.316443 0.924039 0.541244
Si Si7 0.224622 0.776379 0.195497
Si Si8 0.714939 0.865012 0.886135
O O1 0.933641 0.447291 0.727535
O O2 0.827945 0.483006 0.312633
O O3 0.000000 0.500000 0.500000
O O4 0.261089 0.156213 0.390405
O O5 0.531433 0.815435 0.645109
O O6 0.633819 0.724429 0.057812
O O7 0.847521 0.673381 0.877172
O O8 0.152854 0.158401 0.982012
O O9 0.869092 0.244151 0.876848
O O10 0.066558 0.159139 0.578191
O O11 0.713287 0.507950 0.909274
O O12 0.313679 0.853789 0.700755
O O13 0.343339 0.690349 0.455709
O O14 0.342803 0.705913 0.965274
O O15 0.998898 0.992753 0.739660
O O16 0.393830 0.821760 0.282149
O O17 0.500000 0.000000 0.000000
#
# Coordination Sequence:
#
# PCOD9078278 Si02
#       8
#     2   2   2   2   2   2   2   2
#     4   8  18  34  56  74 117 162 197 252 309 366
#     4  10  20  38  61  86 126 167 210 255 322 384
#     4  10  21  41  62  88 131 162 215 266 325 384
#     4   9  19  37  68  93 131 169 223 268 343 390
#     4  10  22  39  58  93 124 163 214 260 318 386
#     4  10  21  40  64  91 125 168 204 271 320 391
#     4   9  19  39  62  99 126 174 218 276 328 409
#     4  10  18  35  60  89 121 164 210 262 315 388
#
# _framework density 28.947285999999998
#
# number of rings (size 3 to 8) (size 9 to 14) (size 15 to 20)
#    0.000    2.500    1.250    0.000    1.750    4.500 
#   11.250    1.875    0.000    0.000    0.000    0.000 
#    0.000    0.000    0.000    0.000    0.000    0.000 
#
# Total GULP energy -89123.370538 kJ/mol
# GULP energy per Si atom -5570.210659 kJ/mol
# Density = 2.888140 g / cm^3
# Si number density = 28.947286 Si / 1000 Ang^3
#
#
#
# Elastic Constant Matrix: (Units=GPa)
#
#
# Indices 1 2 3 4 5 6 
#
# 1 152.5802 -1.3136 57.6015 12.0435 -8.5662 -7.3772
# 2 -1.3136 84.3320 43.5134 28.0566 3.2364 -6.0075
# 3 57.6015 43.5134 182.7552 35.6794 -22.0503 5.8121
# 4 12.0435 28.0566 35.6794 55.3857 -8.2824 -14.2582
# 5 -8.5662 3.2364 -22.0503 -8.2824 46.1188 4.0458
# 6 -7.3772 -6.0075 5.8121 -14.2582 4.0458 33.8017
#
#
#
# Elastic Compliance Matrix: (Units=1/GPa)
#
#
# Indices 1 2 3 4 5 6 
#
# 1 0.007826 0.001921 -0.003027 -0.000121 -0.000375 0.002564
# 2 0.001921 0.016203 -0.003746 -0.006345 -0.003862 0.001729
# 3 -0.003027 -0.003746 0.008625 -0.003700 0.003581 -0.004799
# 4 -0.000121 -0.006345 -0.003700 0.026753 0.002540 0.010463
# 5 -0.000375 -0.003862 0.003581 0.002540 0.024336 -0.003225
# 6 0.002564 0.001729 -0.004799 0.010463 -0.003225 0.036076
#
#
# Mechanical properties :
#
#
# Convention : Reuss Voigt Hill
#
# Bulk Modulus (GPa) = 43.57280 68.80777 56.19029
# Shear Modulus (GPa) = 36.45093 48.38566 42.41829
#
# Velocity S-wave (km/s) = 3.55240 4.09285 3.83216
# Velocity P-wave (km/s) = 5.64900 6.79388 6.24772
#
# Compressibility (1/GPa) = 0.02295010
#
# Stress axis : x y z
#
# Youngs Moduli (GPa) = 127.78400 61.71781 115.94515
#
# Poissons Ratio (x) = -0.11857 0.35098
# Poissons Ratio (y) = -0.24548 0.43427
# Poissons Ratio (z) = 0.38682 0.23116
#
# Static dielectric constant tensor:
#      x y z
#    x 2.322470 0.027870 -0.129950 
#    y 0.027870 2.353040 0.127580 
#    z -0.129950 0.127580 2.977680 
# 
# From -- ./inp_files/99902.got.cif
#   From: 2010.05.17/outbox.cif.g08.bks.cpg/sg2_50_cif.got.tgz:99902.got - 2010.06.03 11:33:40.
