data_PCOD9078611
_publ_section_title
;
Structure prediction by ZEFSAII (Michael W. Deem and Ramdas Pophale) SiO2 
 PCOD9078611
Probable space group: P -1
;
_chemical_formula_sum "Si O2"
_cell_formula_units_Z 12
_cell_length_a 8.176090
_cell_length_b 9.031741
_cell_length_c 12.272147
_cell_angle_alpha 74.615690
_cell_angle_beta 52.251956
_cell_angle_gamma 48.273517
_cell_volume 519.043277
_symmetry_space_group_name_H-M "P -1"
_symmetry_group_IT_number 2
_symmetry_cell_setting 'triclinic'
loop_
_space_group_symop_operation_xyz
x,y,z
-x,-y,-z
loop_
_atom_site_type_symbol
_atom_site_label
_atom_site_fract_x
_atom_site_fract_y
_atom_site_fract_z
Si Si1 0.682844 0.858206 0.679834
Si Si2 0.353667 0.803119 0.483751
Si Si3 0.302705 0.528885 0.416393
Si Si4 0.141074 0.953464 0.837017
Si Si5 0.666864 0.355833 0.855838
Si Si6 0.825408 0.974906 0.790446
O O1 0.594636 0.059947 0.618358
O O2 0.448779 0.851556 0.753372
O O3 0.711912 0.884372 0.791569
O O4 0.979816 0.667607 0.548788
O O5 0.399197 0.639807 0.414952
O O6 0.536047 0.680979 0.540383
O O7 0.032949 0.950719 0.621972
O O8 0.345388 0.538735 0.269038
O O9 0.983524 0.172111 0.799018
O O10 0.037825 0.856525 0.827753
O O11 0.000000 0.000000 0.000000
O O12 0.603071 0.209542 0.874525
O O13 0.500000 0.500000 0.000000
#
# Coordination Sequence:
#
# PCOD9078611 Si02
#       6
#     2   2   2   2   2   2
#     4  11  19  43  65  91 127 162 212 266 315 365
#     4  10  18  35  67  97 126 160 209 261 319 369
#     4  10  20  36  65 101 123 161 212 259 312 378
#     4  10  24  41  61  88 125 175 209 257 322 372
#     4  10  21  39  61  87 134 165 201 259 311 372
#     4   9  20  39  63  87 129 164 202 262 312 367
#
# _framework density 23.11946
#
# number of rings (size 3 to 8) (size 9 to 14) (size 15 to 20)
#    1.000    1.000    3.333    1.000    2.333    3.333 
#    3.000    2.500    0.000    0.000    0.000    0.000 
#    0.000    0.000    0.000    0.000    0.000    0.000 
#
# Total GULP energy -66950.185497 kJ/mol
# GULP energy per Si atom -5579.182125 kJ/mol
# Density = 2.306684 g / cm^3
# Si number density = 23.119460 Si / 1000 Ang^3
#
#
#
# Elastic Constant Matrix: (Units=GPa)
#
#
# Indices 1 2 3 4 5 6 
#
# 1 167.2028 57.2548 72.5567 -0.5768 27.8908 -21.2297
# 2 57.2548 104.9124 32.3022 2.9230 0.6938 -12.8694
# 3 72.5567 32.3022 98.1745 0.4822 34.8648 -5.3724
# 4 -0.5768 2.9230 0.4822 33.8552 0.9008 11.6040
# 5 27.8908 0.6938 34.8648 0.9008 44.1695 4.2883
# 6 -21.2297 -12.8694 -5.3724 11.6040 4.2883 33.5778
#
#
#
# Elastic Compliance Matrix: (Units=1/GPa)
#
#
# Indices 1 2 3 4 5 6 
#
# 1 0.010673 -0.003446 -0.005428 -0.001198 -0.002895 0.005343
# 2 -0.003446 0.012634 -0.002926 -0.002030 0.004098 0.002374
# 3 -0.005428 -0.002926 0.019349 0.000206 -0.011802 -0.000021
# 4 -0.001198 -0.002030 0.000206 0.034287 0.001238 -0.013510
# 5 -0.002895 0.004098 -0.011802 0.001238 0.034371 -0.006966
# 6 0.005343 0.002374 -0.000021 -0.013510 -0.006966 0.039624
#
#
# Mechanical properties :
#
#
# Convention : Reuss Voigt Hill
#
# Bulk Modulus (GPa) = 52.47252 77.16855 64.82053
# Shear Modulus (GPa) = 27.64122 36.19890 31.92006
#
# Velocity S-wave (km/s) = 3.46147 3.96123 3.71975
# Velocity P-wave (km/s) = 6.22264 7.37376 6.82252
#
# Compressibility (1/GPa) = 0.01905760
#
# Stress axis : x y z
#
# Youngs Moduli (GPa) = 93.69173 79.15378 51.68184
#
# Poissons Ratio (x) = 0.27274 0.28053
# Poissons Ratio (y) = 0.32283 0.15120
# Poissons Ratio (z) = 0.50856 0.23157
#
# Static dielectric constant tensor:
#      x y z
#    x 1.958270 0.000000 0.050200 
#    y 0.000000 1.930530 0.056330 
#    z 0.050200 0.056330 1.881610 
# 
# From -- ./inp_files/389939.got.cif
#   From: 2010.05.17/outbox.cif.g08.bks.cpg/sg2_195_cif.got.tgz:389939.got - 2010.06.03 11:33:40.
