data_PCOD9078351
_publ_section_title
;
Structure prediction by ZEFSAII (Michael W. Deem and Ramdas Pophale) SiO2 
 PCOD9078351
Probable space group: P -1
;
_chemical_formula_sum "Si O2"
_cell_formula_units_Z 14
_cell_length_a 7.943562
_cell_length_b 12.296794
_cell_length_c 7.342115
_cell_angle_alpha 129.795087
_cell_angle_beta 81.699796
_cell_angle_gamma 97.968645
_cell_volume 544.256082
_symmetry_space_group_name_H-M "P -1"
_symmetry_group_IT_number 2
_symmetry_cell_setting 'triclinic'
loop_
_space_group_symop_operation_xyz
x,y,z
-x,-y,-z
loop_
_atom_site_type_symbol
_atom_site_label
_atom_site_fract_x
_atom_site_fract_y
_atom_site_fract_z
Si Si1 0.046756 0.108542 0.445524
Si Si2 0.442002 0.477471 0.195478
Si Si3 0.807455 0.423942 0.161828
Si Si4 0.736226 0.111452 0.979182
Si Si5 0.871186 0.375438 0.669234
Si Si6 0.669478 0.804621 0.245956
Si Si7 0.421829 0.942420 0.671541
O O1 0.914637 0.211824 0.492416
O O2 0.189201 0.213509 0.640594
O O3 0.000000 0.000000 0.500000
O O4 0.129904 0.010210 0.178352
O O5 0.618259 0.479432 0.279951
O O6 0.293001 0.580666 0.369720
O O7 0.500000 0.500000 0.000000
O O8 0.351549 0.319692 0.029361
O O9 0.961813 0.529582 0.316649
O O10 0.810965 0.264626 0.068570
O O11 0.834291 0.410666 0.924822
O O12 0.589822 0.048383 0.796922
O O13 0.643219 0.113839 0.187794
O O14 0.493308 0.823576 0.403151
O O15 0.701661 0.952978 0.294828
#
# Coordination Sequence:
#
# PCOD9078351 Si02
#       7
#     2   2   2   2   2   2   2
#     4  11  21  35  60  89 120 163 201 250 303 360
#     4  10  20  33  61  90 117 158 206 248 300 358
#     4  10  18  35  61  90 119 162 201 251 303 354
#     4  10  19  36  61  89 123 160 200 250 314 349
#     4  10  21  35  58  92 125 157 206 247 293 372
#     4  10  19  35  59  90 115 154 212 252 296 370
#     4   9  20  35  59  90 122 150 207 260 296 364
#
# _framework density 25.723185000000001
#
# number of rings (size 3 to 8) (size 9 to 14) (size 15 to 20)
#    0.000    2.000    2.857    2.571    0.000    0.000 
#    0.000    0.714    3.143    6.857    3.714    1.000 
#    0.000    0.000    0.000    0.000    0.000    0.000 
#
# Total GULP energy -78411.406920 kJ/mol
# GULP energy per Si atom -5600.814780 kJ/mol
# Density = 2.566464 g / cm^3
# Si number density = 25.723185 Si / 1000 Ang^3
#
#
#
# Elastic Constant Matrix: (Units=GPa)
#
#
# Indices 1 2 3 4 5 6 
#
# 1 145.1651 56.2228 50.6324 36.8556 -20.5171 -17.3324
# 2 56.2228 111.3169 48.5779 29.7810 -6.7146 11.2605
# 3 50.6324 48.5779 93.6301 27.2312 -19.6726 -0.8259
# 4 36.8556 29.7810 27.2312 50.0734 -8.1207 -0.9302
# 5 -20.5171 -6.7146 -19.6726 -8.1207 36.9148 12.3161
# 6 -17.3324 11.2605 -0.8259 -0.9302 12.3161 43.0358
#
#
#
# Elastic Compliance Matrix: (Units=1/GPa)
#
#
# Indices 1 2 3 4 5 6 
#
# 1 0.011089 -0.003814 -0.002400 -0.004233 0.001639 0.004857
# 2 -0.003814 0.014307 -0.004616 -0.003453 -0.001018 -0.005151
# 3 -0.002400 -0.004616 0.016751 -0.003583 0.006416 -0.001351
# 4 -0.004233 -0.003453 -0.003583 0.027292 0.001335 -0.000662
# 5 0.001639 -0.001018 0.006416 0.001335 0.034458 -0.008783
# 6 0.004857 -0.005151 -0.001351 -0.000662 -0.008783 0.029014
#
#
# Mechanical properties :
#
#
# Convention : Reuss Voigt Hill
#
# Bulk Modulus (GPa) = 48.80701 73.44204 61.12452
# Shear Modulus (GPa) = 30.97901 38.98340 34.98121
#
# Velocity S-wave (km/s) = 3.47410 3.89716 3.69170
# Velocity P-wave (km/s) = 5.92517 6.99023 6.47962
#
# Compressibility (1/GPa) = 0.02048886
#
# Stress axis : x y z
#
# Youngs Moduli (GPa) = 90.18000 69.89464 59.69784
#
# Poissons Ratio (x) = 0.26655 0.14326
# Poissons Ratio (y) = 0.34391 0.27556
# Poissons Ratio (z) = 0.21641 0.32262
#
# Static dielectric constant tensor:
#      x y z
#    x 2.141930 0.041160 0.011580 
#    y 0.041160 2.049370 0.064770 
#    z 0.011580 0.064770 2.002320 
# 
# From -- ./inp_files/183026.got.cif
#   From: 2010.05.17/outbox.cif.g08.bks.cpg/sg2_92_cif.got.tgz:183026.got - 2010.06.03 11:33:40.
