data_PCOD9078125
_publ_section_title
;
Structure prediction by ZEFSAII (Michael W. Deem and Ramdas Pophale) SiO2 
 PCOD9078125
Probable space group: P -1
;
_chemical_formula_sum "Si O2"
_cell_formula_units_Z 16
_cell_length_a 13.707805
_cell_length_b 19.348790
_cell_length_c 11.635249
_cell_angle_alpha 29.948363
_cell_angle_beta 50.933916
_cell_angle_gamma 32.938014
_cell_volume 782.380849
_symmetry_space_group_name_H-M "P -1"
_symmetry_group_IT_number 2
_symmetry_cell_setting 'triclinic'
loop_
_space_group_symop_operation_xyz
x,y,z
-x,-y,-z
loop_
_atom_site_type_symbol
_atom_site_label
_atom_site_fract_x
_atom_site_fract_y
_atom_site_fract_z
Si Si1 0.441016 0.104949 0.193544
Si Si2 0.689331 0.686369 0.753437
Si Si3 0.516287 0.641565 0.234172
Si Si4 0.161164 0.923217 0.402330
Si Si5 0.821958 0.102985 0.061956
Si Si6 0.893619 0.758252 0.898074
Si Si7 0.057942 0.783171 0.523376
Si Si8 0.497391 0.465747 0.918104
O O1 0.355727 0.224883 0.210017
O O2 0.281653 0.174433 0.127624
O O3 0.594265 0.864741 0.471227
O O4 0.519803 0.171575 0.966653
O O5 0.595763 0.610368 0.917726
O O6 0.918912 0.485823 0.855952
O O7 0.500000 0.500000 0.500000
O O8 0.743462 0.454604 0.310053
O O9 0.359376 0.772146 0.062605
O O10 0.108098 0.900845 0.350900
O O11 0.360732 0.685307 0.634498
O O12 0.163816 0.084914 0.185873
O O13 0.000000 0.000000 0.500000
O O14 0.716257 0.289473 0.964138
O O15 0.905133 0.907581 0.355847
O O16 0.000000 0.000000 0.000000
O O17 0.970490 0.786807 0.694004
O O18 0.500000 0.500000 0.000000
#
# Coordination Sequence:
#
# PCOD9078125 Si02
#       8
#     2   2   2   2   2   2   2   2
#     4  11  23  37  57  89 132 166 206 269 330 392
#     4  11  21  36  58  91 136 162 201 266 338 383
#     4  12  24  44  61  87 125 169 219 267 318 385
#     4  10  18  35  58  91 135 163 203 259 321 387
#     4  12  24  38  62  96 126 170 219 261 322 384
#     4  11  21  36  60  97 127 169 202 261 342 381
#     4  11  21  37  62  90 129 162 215 265 316 382
#     4  12  21  38  63  99 136 168 213 272 326 381
#
# _framework density 20.450399999999998
#
# number of rings (size 3 to 8) (size 9 to 14) (size 15 to 20)
#    0.000    0.750    7.500    3.375    1.750    0.000 
#    0.000    0.000    0.000    0.750    0.000    5.250 
#    0.000    0.000    0.000    0.000    0.000    0.000 
#
# Total GULP energy -89120.148114 kJ/mol
# GULP energy per Si atom -5570.009257 kJ/mol
# Density = 2.040385 g / cm^3
# Si number density = 20.450400 Si / 1000 Ang^3
#
#
#
# Elastic Constant Matrix: (Units=GPa)
#
#
# Indices 1 2 3 4 5 6 
#
# 1 92.8762 0.7492 52.2878 -14.4282 4.5318 -3.4562
# 2 0.7492 63.8427 29.0433 -21.5333 5.9629 -4.1164
# 3 52.2878 29.0433 143.3599 -35.3570 9.6938 -23.3455
# 4 -14.4282 -21.5333 -35.3570 30.0249 -11.8346 0.1699
# 5 4.5318 5.9629 9.6938 -11.8346 36.7969 -7.7089
# 6 -3.4562 -4.1164 -23.3455 0.1699 -7.7089 19.8248
#
#
#
# Elastic Compliance Matrix: (Units=1/GPa)
#
#
# Indices 1 2 3 4 5 6 
#
# 1 0.014290 0.002858 -0.006170 0.001212 -0.001182 -0.004651
# 2 0.002858 0.021888 -0.000363 0.017844 0.003125 0.005678
# 3 -0.006170 -0.000363 0.017242 0.019797 0.007208 0.021786
# 4 0.001212 0.017844 0.019797 0.079626 0.024947 0.036248
# 5 -0.001182 0.003125 0.007208 0.024947 0.037850 0.023435
# 6 -0.004651 0.005678 0.021786 0.036248 0.023435 0.085268
#
#
# Mechanical properties :
#
#
# Convention : Reuss Voigt Hill
#
# Bulk Modulus (GPa) = 21.70504 51.58214 36.64359
# Shear Modulus (GPa) = 17.92959 31.86255 24.89607
#
# Velocity S-wave (km/s) = 2.96418 3.95148 3.49289
# Velocity P-wave (km/s) = 4.72776 6.78946 5.85015
#
# Compressibility (1/GPa) = 0.04607225
#
# Stress axis : x y z
#
# Youngs Moduli (GPa) = 69.97759 45.68812 57.99720
#
# Poissons Ratio (x) = -0.13059 0.35782
# Poissons Ratio (y) = -0.20002 0.02103
# Poissons Ratio (z) = 0.43174 0.01657
#
# Static dielectric constant tensor:
#      x y z
#    x 1.820080 0.015050 -0.044190 
#    y 0.015050 1.777740 0.012020 
#    z -0.044190 0.012020 1.777920 
# 
# From -- ./inp_files/457427.got.cif
#   From: 2010.05.17/outbox.cif.g08.bks.cpg/sg2_229_cif.got.tgz:457427.got - 2010.06.03 11:33:40.
