data_PCOD9078456
_publ_section_title
;
Structure prediction by ZEFSAII (Michael W. Deem and Ramdas Pophale) SiO2 
 PCOD9078456
Probable space group: P -1
;
_chemical_formula_sum "Si O2"
_cell_formula_units_Z 16
_cell_length_a 10.897713
_cell_length_b 21.164239
_cell_length_c 9.625154
_cell_angle_alpha 141.268169
_cell_angle_beta 137.117537
_cell_angle_gamma 28.755066
_cell_volume 659.326089
_symmetry_space_group_name_H-M "P -1"
_symmetry_group_IT_number 2
_symmetry_cell_setting 'triclinic'
loop_
_space_group_symop_operation_xyz
x,y,z
-x,-y,-z
loop_
_atom_site_type_symbol
_atom_site_label
_atom_site_fract_x
_atom_site_fract_y
_atom_site_fract_z
Si Si1 0.031223 0.347769 0.385422
Si Si2 0.295752 0.728248 0.054482
Si Si3 0.161515 0.253458 0.635948
Si Si4 0.873512 0.035895 0.282456
Si Si5 0.442392 0.941625 0.734717
Si Si6 0.377681 0.983676 0.214134
Si Si7 0.488435 0.637607 0.369262
Si Si8 0.631681 0.488832 0.731523
O O1 0.799775 0.514213 0.436115
O O2 0.096746 0.336065 0.581498
O O3 0.315219 0.232750 0.355412
O O4 0.916958 0.278242 0.149502
O O5 0.430944 0.653996 0.186624
O O6 0.482948 0.645401 0.935643
O O7 0.167693 0.890351 0.238664
O O8 0.433340 0.154242 0.767406
O O9 0.932880 0.374147 0.756052
O O10 0.171072 0.130675 0.384827
O O11 0.820284 0.997730 0.318869
O O12 0.704727 0.203008 0.450985
O O13 0.737911 0.037093 0.038685
O O14 0.457339 0.994408 0.692327
O O15 0.500000 0.000000 0.000000
O O16 0.413508 0.569197 0.278481
O O17 0.500000 0.500000 0.500000
#
# Coordination Sequence:
#
# PCOD9078456 Si02
#       8
#     2   2   2   2   2   2   2   2
#     4  10  18  38  58  84 112 140 199 240 267 339
#     4  11  21  38  57  84 118 151 192 231 273 348
#     4  10  18  35  63  85 108 142 204 232 279 328
#     4  11  21  39  54  84 121 147 184 240 288 331
#     4   9  17  32  61  78 107 148 187 231 282 326
#     4   9  19  35  61  88 107 147 193 242 271 341
#     4  11  25  35  57  85 123 150 184 236 291 330
#     4  11  20  38  64  83 111 156 191 232 279 338
#
# _framework density 24.267202000000001
#
# number of rings (size 3 to 8) (size 9 to 14) (size 15 to 20)
#    0.000    1.750    6.250    1.875    1.750    2.500 
#    0.000    3.125    5.500    0.000    0.000    0.000 
#    0.000    0.000    0.000    0.000    0.000    0.000 
#
# Total GULP energy -89323.768938 kJ/mol
# GULP energy per Si atom -5582.735559 kJ/mol
# Density = 2.421197 g / cm^3
# Si number density = 24.267202 Si / 1000 Ang^3
#
#
#
# Elastic Constant Matrix: (Units=GPa)
#
#
# Indices 1 2 3 4 5 6 
#
# 1 48.6340 29.6545 25.4697 12.6155 -17.9198 -14.9224
# 2 29.6545 184.6895 60.6100 7.4405 -28.1368 -2.7004
# 3 25.4697 60.6100 135.8305 18.8541 -42.2395 0.4405
# 4 12.6155 7.4405 18.8541 56.7962 -5.7091 -18.5877
# 5 -17.9198 -28.1368 -42.2395 -5.7091 36.5526 12.9665
# 6 -14.9224 -2.7004 0.4405 -18.5877 12.9665 32.9775
#
#
#
# Elastic Compliance Matrix: (Units=1/GPa)
#
#
# Indices 1 2 3 4 5 6 
#
# 1 0.028969 -0.002850 -0.002170 -0.001571 0.005801 0.009738
# 2 -0.002850 0.006785 -0.001750 0.000031 0.002387 -0.001632
# 3 -0.002170 -0.001750 0.015277 -0.006522 0.018594 -0.012316
# 4 -0.001571 0.000031 -0.006522 0.024785 -0.010630 0.017528
# 5 0.005801 0.002387 0.018594 -0.010630 0.061682 -0.027672
# 6 0.009738 -0.001632 -0.012316 0.017528 -0.027672 0.055521
#
#
# Mechanical properties :
#
#
# Convention : Reuss Voigt Hill
#
# Bulk Modulus (GPa) = 26.67270 66.73582 46.70426
# Shear Modulus (GPa) = 22.82540 42.15990 32.49265
#
# Velocity S-wave (km/s) = 3.07023 4.17264 3.66314
# Velocity P-wave (km/s) = 4.85628 7.12564 6.09747
#
# Compressibility (1/GPa) = 0.03749151
#
# Stress axis : x y z
#
# Youngs Moduli (GPa) = 34.52023 147.38618 65.45758
#
# Poissons Ratio (x) = 0.42002 0.14204
# Poissons Ratio (y) = 0.09838 0.11454
# Poissons Ratio (z) = 0.07491 0.25789
#
# Static dielectric constant tensor:
#      x y z
#    x 2.034220 -0.038590 0.088280 
#    y -0.038590 1.976310 0.021780 
#    z 0.088280 0.021780 1.961070 
# 
# From -- ./inp_files/283263.got.cif
#   From: 2010.05.17/outbox.cif.g08.bks.cpg/sg2_142_cif.got.tgz:283263.got - 2010.06.03 11:33:40.
