data_PCOD9078610
_publ_section_title
;
Structure prediction by ZEFSAII (Michael W. Deem and Ramdas Pophale) SiO2 
 PCOD9078610
Probable space group: P -1
;
_chemical_formula_sum "Si O2"
_cell_formula_units_Z 16
_cell_length_a 18.177784
_cell_length_b 9.420814
_cell_length_c 21.194752
_cell_angle_alpha 146.350137
_cell_angle_beta 28.621483
_cell_angle_gamma 156.474139
_cell_volume 686.737323
_symmetry_space_group_name_H-M "P -1"
_symmetry_group_IT_number 2
_symmetry_cell_setting 'triclinic'
loop_
_space_group_symop_operation_xyz
x,y,z
-x,-y,-z
loop_
_atom_site_type_symbol
_atom_site_label
_atom_site_fract_x
_atom_site_fract_y
_atom_site_fract_z
Si Si1 0.051062 0.218189 0.703176
Si Si2 0.455750 0.559270 0.344878
Si Si3 0.914137 0.686257 0.141035
Si Si4 0.785261 0.137764 0.556217
Si Si5 0.649024 0.035843 0.951695
Si Si6 0.475466 0.897091 0.585579
Si Si7 0.903851 0.838087 0.080241
Si Si8 0.432394 0.006235 0.211402
O O1 0.050771 0.187199 0.767607
O O2 0.227941 0.633588 0.699806
O O3 0.799980 0.988427 0.794331
O O4 0.151970 0.074587 0.548286
O O5 0.462147 0.706170 0.462265
O O6 0.697132 0.773322 0.220420
O O7 0.350032 0.154465 0.286535
O O8 0.399107 0.704486 0.388164
O O9 0.017559 0.976985 0.114375
O O10 0.656767 0.375320 0.208711
O O11 0.000000 0.500000 0.000000
O O12 0.000000 0.500000 0.500000
O O13 0.606167 0.935882 0.560986
O O14 0.713296 0.210506 0.698909
O O15 0.824349 0.452613 0.993360
O O16 0.498977 0.847960 0.057438
O O17 0.500000 0.000000 0.000000
O O18 0.000000 0.000000 0.000000
#
# Coordination Sequence:
#
# PCOD9078610 Si02
#       8
#     2   2   2   2   2   2   2   2
#     4  12  21  41  70  93 123 173 209 263 313 376
#     4   9  20  36  62  94 119 160 210 259 307 362
#     4  10  18  35  67  96 118 158 217 257 314 365
#     4  12  26  41  61  96 130 170 209 257 318 376
#     4  10  23  42  63  91 124 164 208 254 325 376
#     4  11  21  39  67  94 126 159 215 259 305 378
#     4  10  20  36  60  91 124 158 208 258 306 369
#     4  10  20  42  62  89 131 163 202 264 311 377
#
# _framework density 23.298573000000001
#
# number of rings (size 3 to 8) (size 9 to 14) (size 15 to 20)
#    0.000    1.750    5.000    2.625    0.000    2.000 
#    9.000    1.875    0.000    0.000    0.000    0.000 
#    0.000    0.000    0.000    0.000    0.000    0.000 
#
# Total GULP energy -89165.585298 kJ/mol
# GULP energy per Si atom -5572.849081 kJ/mol
# Density = 2.324554 g / cm^3
# Si number density = 23.298573 Si / 1000 Ang^3
#
#
#
# Elastic Constant Matrix: (Units=GPa)
#
#
# Indices 1 2 3 4 5 6 
#
# 1 85.5075 5.9824 40.1298 -25.9572 19.7303 -16.8469
# 2 5.9824 55.9884 15.5990 -24.3037 15.1506 -20.9974
# 3 40.1298 15.5990 124.5227 -35.5121 20.6192 -8.4795
# 4 -25.9572 -24.3037 -35.5121 39.3738 -17.6430 11.3572
# 5 19.7303 15.1506 20.6192 -17.6430 44.3349 -7.7128
# 6 -16.8469 -20.9974 -8.4795 11.3572 -7.7128 32.2095
#
#
#
# Elastic Compliance Matrix: (Units=1/GPa)
#
#
# Indices 1 2 3 4 5 6 
#
# 1 0.018155 0.007629 -0.002741 0.009755 -0.003899 0.009374
# 2 0.007629 0.032966 0.000753 0.018924 -0.004355 0.017963
# 3 -0.002741 0.000753 0.011437 0.008882 -0.001051 -0.001315
# 4 0.009755 0.018924 0.008882 0.053933 0.006945 0.002423
# 5 -0.003899 -0.004355 -0.001051 0.006945 0.028913 -0.000681
# 6 0.009374 0.017963 -0.001315 0.002423 -0.000681 0.046297
#
#
# Mechanical properties :
#
#
# Convention : Reuss Voigt Hill
#
# Bulk Modulus (GPa) = 13.54267 43.27121 28.40694
# Shear Modulus (GPa) = 24.38642 36.80415 30.59528
#
# Velocity S-wave (km/s) = 3.23877 3.97882 3.62772
# Velocity P-wave (km/s) = 4.45101 6.30245 5.45584
#
# Compressibility (1/GPa) = 0.07384070
#
# Stress axis : x y z
#
# Youngs Moduli (GPa) = 55.08037 30.33455 87.43588
#
# Poissons Ratio (x) = -0.23142 0.23962
# Poissons Ratio (y) = -0.42021 -0.06584
# Poissons Ratio (z) = 0.15095 -0.02284
#
# Static dielectric constant tensor:
#      x y z
#    x 2.069550 -0.028920 -0.024180 
#    y -0.028920 1.961590 0.031710 
#    z -0.024180 0.031710 1.965680 
# 
# From -- ./inp_files/599774.got.cif
#   From: 2010.05.17/outbox.cif.g08.bks.cpg/sg2_300_cif.got.tgz:599774.got - 2010.06.03 11:33:40.
