data_PCOD9078710
_publ_section_title
;
Structure prediction by ZEFSAII (Michael W. Deem and Ramdas Pophale) SiO2 
 PCOD9078710
Probable space group: P -1
;
_chemical_formula_sum "Si O2"
_cell_formula_units_Z 16
_cell_length_a 11.388653
_cell_length_b 10.441998
_cell_length_c 19.892319
_cell_angle_alpha 139.804676
_cell_angle_beta 154.423617
_cell_angle_gamma 52.103408
_cell_volume 634.948037
_symmetry_space_group_name_H-M "P -1"
_symmetry_group_IT_number 2
_symmetry_cell_setting 'triclinic'
loop_
_space_group_symop_operation_xyz
x,y,z
-x,-y,-z
loop_
_atom_site_type_symbol
_atom_site_label
_atom_site_fract_x
_atom_site_fract_y
_atom_site_fract_z
Si Si1 0.358985 0.041398 0.293693
Si Si2 0.538270 0.856981 0.189740
Si Si3 0.952890 0.348917 0.768816
Si Si4 0.192090 0.861429 0.266359
Si Si5 0.997453 0.740915 0.461429
Si Si6 0.152847 0.841851 0.727866
Si Si7 0.463224 0.773999 0.976895
Si Si8 0.824652 0.573291 0.670326
O O1 0.691708 0.158425 0.529352
O O2 0.217376 0.857634 0.197890
O O3 0.179478 0.205981 0.272441
O O4 0.362128 0.964555 0.189350
O O5 0.365826 0.745998 0.992193
O O6 0.695740 0.727744 0.265850
O O7 0.794176 0.036532 0.361945
O O8 0.974100 0.530674 0.799752
O O9 0.255899 0.302976 0.908056
O O10 0.871735 0.343945 0.803751
O O11 0.994674 0.003143 0.247607
O O12 0.500000 0.000000 0.500000
O O13 0.977498 0.738916 0.531081
O O14 0.127811 0.578074 0.424845
O O15 0.431560 0.984285 0.892028
O O16 0.243781 0.699447 0.773524
O O17 0.500000 0.500000 0.500000
#
# Coordination Sequence:
#
# PCOD9078710 Si02
#       8
#     2   2   2   2   2   2   2   2
#     4  10  18  28  47  76 103 127 155 204 249 292
#     4  10  15  26  48  75  91 124 166 206 237 280
#     4   9  15  29  49  72  92 126 164 199 245 282
#     4   9  17  30  46  70 101 133 157 194 249 297
#     4  10  16  27  48  74  95 121 168 212 233 282
#     4   9  18  28  46  72  98 125 162 208 242 277
#     4   9  16  28  47  75  95 119 166 214 236 274
#     4  10  17  28  46  78 100 121 159 211 248 279
#
# _framework density 25.198912
#
# number of rings (size 3 to 8) (size 9 to 14) (size 15 to 20)
#    0.000    2.500    3.750    3.000    0.000    0.000 
#    0.000    1.250    0.000    3.750    6.500    0.000 
#    0.000    0.000    0.000    0.000    0.000    0.000 
#
# Total GULP energy -89327.646525 kJ/mol
# GULP energy per Si atom -5582.977908 kJ/mol
# Density = 2.514156 g / cm^3
# Si number density = 25.198912 Si / 1000 Ang^3
#
#
#
# Elastic Constant Matrix: (Units=GPa)
#
#
# Indices 1 2 3 4 5 6 
#
# 1 107.6773 12.5180 32.8080 -18.3788 -29.6235 25.3932
# 2 12.5180 60.2132 41.6534 -24.2500 0.3745 10.0092
# 3 32.8080 41.6534 104.0131 -34.7847 -25.3374 8.6282
# 4 -18.3788 -24.2500 -34.7847 51.5200 11.9989 7.5690
# 5 -29.6235 0.3745 -25.3374 11.9989 46.0865 -12.4302
# 6 25.3932 10.0092 8.6282 7.5690 -12.4302 49.0949
#
#
#
# Elastic Compliance Matrix: (Units=1/GPa)
#
#
# Indices 1 2 3 4 5 6 
#
# 1 0.013067 0.000763 -0.001460 0.003746 0.005005 -0.005968
# 2 0.000763 0.029564 -0.010222 0.011108 -0.010702 -0.009048
# 3 -0.001460 -0.010222 0.017503 0.004492 0.007885 0.001067
# 4 0.003746 0.011108 0.004492 0.032302 -0.006775 -0.011687
# 5 0.005005 -0.010702 0.007885 -0.006775 0.033165 0.007649
# 6 -0.005968 -0.009048 0.001067 -0.011687 0.007649 0.028851
#
#
# Mechanical properties :
#
#
# Convention : Reuss Voigt Hill
#
# Bulk Modulus (GPa) = 26.11230 49.54027 37.82629
# Shear Modulus (GPa) = 26.44741 41.66858 34.05799
#
# Velocity S-wave (km/s) = 3.24318 4.07084 3.68035
# Velocity P-wave (km/s) = 4.94058 6.46514 5.75358
#
# Compressibility (1/GPa) = 0.03829613
#
# Stress axis : x y z
#
# Youngs Moduli (GPa) = 76.52922 33.82477 57.13430
#
# Poissons Ratio (x) = -0.02580 0.08342
# Poissons Ratio (y) = -0.05838 0.58400
# Poissons Ratio (z) = 0.11174 0.34574
#
# Static dielectric constant tensor:
#      x y z
#    x 2.053030 0.058580 0.010210 
#    y 0.058580 1.985430 -0.031680 
#    z 0.010210 -0.031680 2.096720 
# 
# From -- ./inp_files/303592.got.cif
#   From: 2010.05.17/outbox.cif.g08.bks.cpg/sg2_152_cif.got.tgz:303592.got - 2010.06.03 11:33:40.
