data_PCOD9078171
_publ_section_title
;
Structure prediction by ZEFSAII (Michael W. Deem and Ramdas Pophale) SiO2 
 PCOD9078171
Probable space group: P -1
;
_chemical_formula_sum "Si O2"
_cell_formula_units_Z 14
_cell_length_a 8.243405
_cell_length_b 8.741323
_cell_length_c 21.734014
_cell_angle_alpha 53.725245
_cell_angle_beta 150.564338
_cell_angle_gamma 122.854319
_cell_volume 619.025596
_symmetry_space_group_name_H-M "P -1"
_symmetry_group_IT_number 2
_symmetry_cell_setting 'triclinic'
loop_
_space_group_symop_operation_xyz
x,y,z
-x,-y,-z
loop_
_atom_site_type_symbol
_atom_site_label
_atom_site_fract_x
_atom_site_fract_y
_atom_site_fract_z
Si Si1 0.698352 0.722069 0.367993
Si Si2 0.994034 0.577704 0.383360
Si Si3 0.032908 0.444206 0.214369
Si Si4 0.019682 0.671647 0.917317
Si Si5 0.411666 0.990047 0.298150
Si Si6 0.251301 0.295331 0.849873
Si Si7 0.368198 0.149320 0.469844
O O1 0.823359 0.717813 0.340840
O O2 0.374023 0.577640 0.297883
O O3 0.601249 0.917000 0.318908
O O4 0.967744 0.620852 0.522512
O O5 0.809583 0.568954 0.260588
O O6 0.356449 0.677402 0.468612
O O7 0.077404 0.256143 0.315339
O O8 0.991754 0.393160 0.141895
O O9 0.771578 0.575576 0.127739
O O10 0.385731 0.776565 0.020776
O O11 0.717699 0.802652 0.796843
O O12 0.000000 0.500000 0.000000
O O13 0.635472 0.953010 0.440822
O O14 0.062756 0.858220 0.218701
O O15 0.500000 0.000000 0.500000
#
# Coordination Sequence:
#
# PCOD9078171 Si02
#       7
#     2   2   2   2   2   2   2
#     4   9  18  36  60  86 113 145 187 233 287 339
#     4   9  18  34  60  85 114 145 183 234 286 334
#     4  10  20  37  62  83 112 147 189 235 285 332
#     4  12  24  39  55  83 122 153 185 238 283 329
#     4  10  21  39  61  85 111 151 195 230 278 340
#     4  10  21  39  60  82 108 156 197 226 273 345
#     4  10  18  35  59  86 112 140 183 239 284 329
#
# _framework density 22.616188000000001
#
# number of rings (size 3 to 8) (size 9 to 14) (size 15 to 20)
#    0.000    2.000    1.429    2.571    0.000    3.429 
#    2.571    8.571    0.000    0.000    0.000    0.000 
#    0.000    0.000    0.000    0.000    0.000    0.000 
#
# Total GULP energy -78204.120319 kJ/mol
# GULP energy per Si atom -5586.008594 kJ/mol
# Density = 2.256471 g / cm^3
# Si number density = 22.616188 Si / 1000 Ang^3
#
#
#
# Elastic Constant Matrix: (Units=GPa)
#
#
# Indices 1 2 3 4 5 6 
#
# 1 82.1945 29.9704 43.3888 -8.5546 -11.4380 -16.9013
# 2 29.9704 68.1381 37.2321 -4.8615 -13.5752 -2.0861
# 3 43.3888 37.2321 87.9216 -5.1812 -10.3010 -7.5797
# 4 -8.5546 -4.8615 -5.1812 29.8781 0.3859 2.1225
# 5 -11.4380 -13.5752 -10.3010 0.3859 31.9721 9.3308
# 6 -16.9013 -2.0861 -7.5797 2.1225 9.3308 34.6204
#
#
#
# Elastic Compliance Matrix: (Units=1/GPa)
#
#
# Indices 1 2 3 4 5 6 
#
# 1 0.019189 -0.004109 -0.006832 0.003117 0.000773 0.007225
# 2 -0.004109 0.021330 -0.006491 0.001368 0.006652 -0.004019
# 3 -0.006832 -0.006491 0.017548 0.000025 0.000456 -0.000009
# 4 0.003117 0.001368 0.000025 0.034635 0.001559 -0.000934
# 5 0.000773 0.006652 0.000456 0.001559 0.037204 -0.009245
# 6 0.007225 -0.004019 -0.000009 -0.000934 -0.009245 0.034717
#
#
# Mechanical properties :
#
#
# Convention : Reuss Voigt Hill
#
# Bulk Modulus (GPa) = 43.10030 51.04853 47.07442
# Shear Modulus (GPa) = 24.12856 27.80498 25.96677
#
# Velocity S-wave (km/s) = 3.26984 3.51012 3.39211
# Velocity P-wave (km/s) = 5.77533 6.24889 6.01677
#
# Compressibility (1/GPa) = 0.02320169
#
# Stress axis : x y z
#
# Youngs Moduli (GPa) = 52.11357 46.88167 56.98493
#
# Poissons Ratio (x) = 0.19265 0.38934
# Poissons Ratio (y) = 0.21415 0.36991
# Poissons Ratio (z) = 0.35606 0.30432
#
# Static dielectric constant tensor:
#      x y z
#    x 1.825890 0.031810 0.024030 
#    y 0.031810 1.861310 0.011310 
#    z 0.024030 0.011310 1.838260 
# 
# From -- ./inp_files/159130.got.cif
#   From: 2010.05.17/outbox.cif.g08.bks.cpg/sg2_80_cif.got.tgz:159130.got - 2010.06.03 11:33:40.
