data_PCOD9078662
_publ_section_title
;
Structure prediction by ZEFSAII (Michael W. Deem and Ramdas Pophale) SiO2 
 PCOD9078662
Probable space group: P -1
;
_chemical_formula_sum "Si O2"
_cell_formula_units_Z 16
_cell_length_a 15.053412
_cell_length_b 9.100155
_cell_length_c 10.233286
_cell_angle_alpha 94.528326
_cell_angle_beta 123.373894
_cell_angle_gamma 130.304847
_cell_volume 652.343025
_symmetry_space_group_name_H-M "P -1"
_symmetry_group_IT_number 2
_symmetry_cell_setting 'triclinic'
loop_
_space_group_symop_operation_xyz
x,y,z
-x,-y,-z
loop_
_atom_site_type_symbol
_atom_site_label
_atom_site_fract_x
_atom_site_fract_y
_atom_site_fract_z
Si Si1 0.957108 0.930693 0.684274
Si Si2 0.745139 0.239157 0.357331
Si Si3 0.045546 0.551804 0.211431
Si Si4 0.688367 0.872666 0.580042
Si Si5 0.317446 0.832972 0.996472
Si Si6 0.199458 0.981622 0.045011
Si Si7 0.410391 0.233700 0.782639
Si Si8 0.750134 0.633331 0.259691
O O1 0.080820 0.159116 0.692329
O O2 0.832642 0.906470 0.659877
O O3 0.099193 0.002667 0.895758
O O4 0.825083 0.673488 0.465903
O O5 0.899137 0.456463 0.604036
O O6 0.531535 0.034366 0.215652
O O7 0.757390 0.075591 0.358702
O O8 0.746110 0.281207 0.209604
O O9 0.972277 0.322866 0.059626
O O10 0.217484 0.855469 0.336131
O O11 0.850219 0.418846 0.063869
O O12 0.539731 0.698847 0.326651
O O13 0.658040 0.818982 0.706487
O O14 0.302703 0.992670 0.025287
O O15 0.332897 0.299798 0.771540
O O16 0.576786 0.366064 0.019731
#
# Coordination Sequence:
#
# PCOD9078662 Si02
#       8
#     2   2   2   2   2   2   2   2
#     4  10  20  34  60  82 110 147 190 233 282 342
#     4  10  18  36  54  88 110 147 189 238 288 340
#     4   9  21  36  58  82 114 152 187 239 282 330
#     4  10  20  38  57  80 113 153 196 223 278 342
#     4   9  21  32  56  82 115 148 182 239 283 337
#     4  10  21  37  55  83 116 155 187 231 279 339
#     4   9  19  34  56  77 115 145 183 239 282 334
#     4   9  19  35  53  86 108 146 185 238 291 333
#
# _framework density 24.526973000000002
#
# number of rings (size 3 to 8) (size 9 to 14) (size 15 to 20)
#    0.750    1.750    0.000    1.875    1.750    3.000 
#    0.000    5.625    0.000    0.000    0.000    0.000 
#    0.000    0.000    0.000    0.000    0.000    0.000 
#
# Total GULP energy -89188.145944 kJ/mol
# GULP energy per Si atom -5574.259121 kJ/mol
# Density = 2.447115 g / cm^3
# Si number density = 24.526973 Si / 1000 Ang^3
#
#
#
# Elastic Constant Matrix: (Units=GPa)
#
#
# Indices 1 2 3 4 5 6 
#
# 1 50.9401 9.8471 40.1628 -18.6028 4.4704 -11.7153
# 2 9.8471 28.8334 6.1294 -9.4744 4.6216 -7.7044
# 3 40.1628 6.1294 129.3680 -16.5745 -11.7886 -0.0114
# 4 -18.6028 -9.4744 -16.5745 29.2970 2.0174 4.7549
# 5 4.4704 4.6216 -11.7886 2.0174 32.7898 -1.9560
# 6 -11.7153 -7.7044 -0.0114 4.7549 -1.9560 30.0252
#
#
#
# Elastic Compliance Matrix: (Units=1/GPa)
#
#
# Indices 1 2 3 4 5 6 
#
# 1 0.037164 -0.000717 -0.010221 0.016396 -0.008985 0.011131
# 2 -0.000717 0.042224 -0.000845 0.011820 -0.006392 0.008266
# 3 -0.010221 -0.000845 0.011428 -0.000046 0.005395 -0.003842
# 4 0.016396 0.011820 -0.000046 0.048602 -0.006831 0.001289
# 5 -0.008985 -0.006392 0.005395 -0.006831 0.034876 -0.001790
# 6 0.011131 0.008266 -0.003842 0.001289 -0.001790 0.039447
#
#
# Mechanical properties :
#
#
# Convention : Reuss Voigt Hill
#
# Bulk Modulus (GPa) = 14.87003 35.71335 25.29169
# Shear Modulus (GPa) = 19.25110 28.62253 23.93682
#
# Velocity S-wave (km/s) = 2.80464 3.41982 3.12739
# Velocity P-wave (km/s) = 4.06987 5.49418 4.83476
#
# Compressibility (1/GPa) = 0.06724936
#
# Stress axis : x y z
#
# Youngs Moduli (GPa) = 26.90773 23.68330 87.50084
#
# Poissons Ratio (x) = 0.01699 0.89433
# Poissons Ratio (y) = 0.01930 0.07396
# Poissons Ratio (z) = 0.27502 0.02002
#
# Static dielectric constant tensor:
#      x y z
#    x 1.909590 -0.004900 -0.048830 
#    y -0.004900 2.099390 0.008150 
#    z -0.048830 0.008150 2.040150 
# 
# From -- ./inp_files/333403.got.cif
#   From: 2010.05.17/outbox.cif.g08.bks.cpg/sg2_167_cif.got.tgz:333403.got - 2010.06.03 11:33:40.
