data_PCOD9078438
_publ_section_title
;
Structure prediction by ZEFSAII (Michael W. Deem and Ramdas Pophale) SiO2 
 PCOD9078438
Probable space group: P -1
;
_chemical_formula_sum "Si O2"
_cell_formula_units_Z 16
_cell_length_a 14.136200
_cell_length_b 9.391340
_cell_length_c 15.058554
_cell_angle_alpha 34.118019
_cell_angle_beta 38.118968
_cell_angle_gamma 56.387732
_cell_volume 664.026503
_symmetry_space_group_name_H-M "P -1"
_symmetry_group_IT_number 2
_symmetry_cell_setting 'triclinic'
loop_
_space_group_symop_operation_xyz
x,y,z
-x,-y,-z
loop_
_atom_site_type_symbol
_atom_site_label
_atom_site_fract_x
_atom_site_fract_y
_atom_site_fract_z
Si Si1 0.218850 0.119297 0.435487
Si Si2 0.351882 0.014165 0.224387
Si Si3 0.173090 0.139109 0.976054
Si Si4 0.011747 0.458660 0.140692
Si Si5 0.364155 0.399385 0.533345
Si Si6 0.951683 0.318466 0.451511
Si Si7 0.850707 0.721022 0.407749
Si Si8 0.338983 0.365546 0.903288
O O1 0.117301 0.300500 0.375172
O O2 0.234949 0.201419 0.483539
O O3 0.363317 0.123783 0.259454
O O4 0.099631 0.825133 0.662619
O O5 0.372459 0.717170 0.364638
O O6 0.166191 0.953939 0.358540
O O7 0.427334 0.238909 0.979685
O O8 0.306910 0.261710 0.740099
O O9 0.257537 0.143162 0.005477
O O10 0.061034 0.336465 0.961429
O O11 0.039234 0.871985 0.190614
O O12 0.981071 0.493219 0.250249
O O13 0.196682 0.479178 0.982772
O O14 0.239119 0.239223 0.635577
O O15 0.536746 0.412476 0.360771
O O16 0.856292 0.421123 0.545388
#
# Coordination Sequence:
#
# PCOD9078438 Si02
#       8
#     2   2   2   2   2   2   2   2
#     4  11  18  36  65  96 119 157 218 262 297 361
#     4  10  19  39  64  91 122 165 206 260 305 369
#     4  12  23  42  65  92 123 171 213 253 300 375
#     4  11  20  37  67  89 120 162 216 254 294 362
#     4  11  25  42  62  91 134 163 202 260 319 368
#     4  10  18  35  62  93 125 155 209 261 306 351
#     4  11  23  37  64  91 128 165 208 250 316 369
#     4  12  23  39  66  97 121 163 213 260 309 365
#
# _framework density 24.095424999999999
#
# number of rings (size 3 to 8) (size 9 to 14) (size 15 to 20)
#    0.000    1.000    7.500    2.625    0.000    1.000 
#    0.000    1.250    2.750    0.000    0.000    0.000 
#    0.000    0.000    0.000    0.000    0.000    0.000 
#
# Total GULP energy -89324.084801 kJ/mol
# GULP energy per Si atom -5582.755300 kJ/mol
# Density = 2.404058 g / cm^3
# Si number density = 24.095425 Si / 1000 Ang^3
#
#
#
# Elastic Constant Matrix: (Units=GPa)
#
#
# Indices 1 2 3 4 5 6 
#
# 1 52.9407 28.3279 15.4646 5.4542 16.9898 19.5544
# 2 28.3279 103.7308 24.9443 22.5283 14.9100 31.3651
# 3 15.4646 24.9443 81.2060 24.3763 13.8965 8.3043
# 4 5.4542 22.5283 24.3763 32.2094 2.8018 6.3886
# 5 16.9898 14.9100 13.8965 2.8018 39.1452 9.9599
# 6 19.5544 31.3651 8.3043 6.3886 9.9599 35.3876
#
#
#
# Elastic Compliance Matrix: (Units=1/GPa)
#
#
# Indices 1 2 3 4 5 6 
#
# 1 0.027126 -0.003240 -0.002583 0.002217 -0.007271 -0.009865
# 2 -0.003240 0.015603 -0.000594 -0.007797 -0.001183 -0.010159
# 3 -0.002583 -0.000594 0.017197 -0.012049 -0.004221 0.001281
# 4 0.002217 -0.007797 -0.012049 0.045070 0.003192 -0.000521
# 5 -0.007271 -0.001183 -0.004221 0.003192 0.031267 -0.003320
# 6 -0.009865 -0.010159 0.001281 -0.000521 -0.003320 0.043442
#
#
# Mechanical properties :
#
#
# Convention : Reuss Voigt Hill
#
# Bulk Modulus (GPa) = 21.23493 41.70568 31.47031
# Shear Modulus (GPa) = 24.01118 32.62446 28.31782
#
# Velocity S-wave (km/s) = 3.16017 3.68362 3.43189
# Velocity P-wave (km/s) = 4.70612 5.95300 5.36590
#
# Compressibility (1/GPa) = 0.04709221
#
# Stress axis : x y z
#
# Youngs Moduli (GPa) = 36.86481 64.08866 58.15026
#
# Poissons Ratio (x) = 0.20766 0.15020
# Poissons Ratio (y) = 0.11945 0.03454
# Poissons Ratio (z) = 0.09522 0.03806
#
# Static dielectric constant tensor:
#      x y z
#    x 1.938440 -0.014040 0.043760 
#    y -0.014040 1.987730 0.018860 
#    z 0.043760 0.018860 2.037810 
# 
# From -- ./inp_files/528057.got.cif
#   From: 2010.05.17/outbox.cif.g08.bks.cpg/sg2_265_cif.got.tgz:528057.got - 2010.06.03 11:33:40.
