data_PCOD9078286
_publ_section_title
;
Structure prediction by ZEFSAII (Michael W. Deem and Ramdas Pophale) SiO2 
 PCOD9078286
Probable space group: P -1
;
_chemical_formula_sum "Si O2"
_cell_formula_units_Z 16
_cell_length_a 12.238599
_cell_length_b 9.095753
_cell_length_c 11.348553
_cell_angle_alpha 49.274602
_cell_angle_beta 122.006176
_cell_angle_gamma 105.250078
_cell_volume 805.101690
_symmetry_space_group_name_H-M "P -1"
_symmetry_group_IT_number 2
_symmetry_cell_setting 'triclinic'
loop_
_space_group_symop_operation_xyz
x,y,z
-x,-y,-z
loop_
_atom_site_type_symbol
_atom_site_label
_atom_site_fract_x
_atom_site_fract_y
_atom_site_fract_z
Si Si1 0.567805 0.669093 0.883098
Si Si2 0.038960 0.553885 0.256409
Si Si3 0.697162 0.666548 0.376856
Si Si4 0.203812 0.237701 0.874610
Si Si5 0.633615 0.099175 0.213769
Si Si6 0.573730 0.402590 0.812213
Si Si7 0.166485 0.805526 0.022370
Si Si8 0.909264 0.181812 0.298475
O O1 0.468695 0.860073 0.760619
O O2 0.582178 0.592133 0.798885
O O3 0.500000 0.500000 0.000000
O O4 0.704647 0.696614 0.004594
O O5 0.179885 0.468262 0.430076
O O6 0.062368 0.711939 0.088875
O O7 0.940967 0.654036 0.246177
O O8 0.972664 0.376367 0.256574
O O9 0.735488 0.707918 0.242596
O O10 0.561512 0.578601 0.342976
O O11 0.671896 0.873916 0.321101
O O12 0.200489 0.005804 0.992773
O O13 0.766073 0.189962 0.268892
O O14 0.575911 0.217217 0.002082
O O15 0.701893 0.345638 0.838216
O O16 0.113358 0.847966 0.837583
O O17 0.000000 0.000000 0.500000
#
# Coordination Sequence:
#
# PCOD9078286 Si02
#       8
#     2   2   2   2   2   2   2   2
#     4  10  19  33  63  94 113 144 203 267 300 341
#     4  12  26  39  57  93 129 165 196 246 311 365
#     4  12  21  37  63  92 121 154 207 261 293 353
#     4  12  21  40  63  89 121 161 212 249 300 352
#     4  10  18  35  60  91 116 148 197 259 303 345
#     4  10  20  37  63  90 116 158 204 251 306 347
#     4  11  24  42  63  84 128 168 199 241 307 376
#     4  11  21  40  64  92 117 155 208 251 299 355
#
# _framework density 19.873266000000001
#
# number of rings (size 3 to 8) (size 9 to 14) (size 15 to 20)
#    0.000    1.000    6.250    4.500    0.000    0.500 
#    0.000    0.000    0.000    1.500    0.000    0.000 
#    0.000    0.000    0.000    0.000    0.000    0.000 
#
# Total GULP energy -89413.425512 kJ/mol
# GULP energy per Si atom -5588.339094 kJ/mol
# Density = 1.982803 g / cm^3
# Si number density = 19.873266 Si / 1000 Ang^3
#
#
#
# Elastic Constant Matrix: (Units=GPa)
#
#
# Indices 1 2 3 4 5 6 
#
# 1 69.7616 32.9366 33.0516 -2.5498 20.5119 -7.6910
# 2 32.9366 98.2434 21.8303 16.2746 6.5182 -1.5698
# 3 33.0516 21.8303 64.5278 13.7974 30.9045 6.3253
# 4 -2.5498 16.2746 13.7974 18.1140 8.7003 12.9108
# 5 20.5119 6.5182 30.9045 8.7003 30.8729 -5.6546
# 6 -7.6910 -1.5698 6.3253 12.9108 -5.6546 24.0658
#
#
#
# Elastic Compliance Matrix: (Units=1/GPa)
#
#
# Indices 1 2 3 4 5 6 
#
# 1 0.043680 -0.029529 0.003071 0.106706 -0.067255 -0.061822
# 2 -0.029529 0.041179 -0.018962 -0.126199 0.081035 0.084977
# 3 0.003071 -0.018962 0.051496 0.064794 -0.080189 -0.067392
# 4 0.106706 -0.126199 0.064794 0.557011 -0.333550 -0.368357
# 5 -0.067255 0.081035 -0.080189 -0.333550 0.279949 0.249589
# 6 -0.061822 0.084977 -0.067392 -0.368357 0.249589 0.301312
#
#
# Mechanical properties :
#
#
# Convention : Reuss Voigt Hill
#
# Bulk Modulus (GPa) = 21.97053 45.35222 33.66137
# Shear Modulus (GPa) = 3.62151 24.25817 13.93984
#
# Velocity S-wave (km/s) = 1.35139 3.49756 2.65134
# Velocity P-wave (km/s) = 3.67618 6.25946 5.13299
#
# Compressibility (1/GPa) = 0.04551552
#
# Stress axis : x y z
#
# Youngs Moduli (GPa) = 22.89367 24.28422 19.41897
#
# Poissons Ratio (x) = 0.71708 -0.05964
# Poissons Ratio (y) = 0.67602 0.36823
# Poissons Ratio (z) = -0.07031 0.46049
#
# Static dielectric constant tensor:
#      x y z
#    x 1.695380 -0.017430 0.022530 
#    y -0.017430 1.692730 -0.001430 
#    z 0.022530 -0.001430 1.702580 
# 
# From -- ./inp_files/188672.got.cif
#   From: 2010.05.17/outbox.cif.g08.bks.cpg/sg2_95_cif.got.tgz:188672.got - 2010.06.03 11:33:40.
