data_PCOD9078483
_publ_section_title
;
Structure prediction by ZEFSAII (Michael W. Deem and Ramdas Pophale) SiO2 
 PCOD9078483
Probable space group: P -1
;
_chemical_formula_sum "Si O2"
_cell_formula_units_Z 14
_cell_length_a 22.867556
_cell_length_b 14.786246
_cell_length_c 9.671590
_cell_angle_alpha 36.303849
_cell_angle_beta 24.786605
_cell_angle_gamma 24.054864
_cell_volume 553.687296
_symmetry_space_group_name_H-M "P -1"
_symmetry_group_IT_number 2
_symmetry_cell_setting 'triclinic'
loop_
_space_group_symop_operation_xyz
x,y,z
-x,-y,-z
loop_
_atom_site_type_symbol
_atom_site_label
_atom_site_fract_x
_atom_site_fract_y
_atom_site_fract_z
Si Si1 0.966678 0.347311 0.953548
Si Si2 0.813792 0.178585 0.369995
Si Si3 0.292360 0.766637 0.773174
Si Si4 0.684755 0.766467 0.247858
Si Si5 0.622063 0.963267 0.653248
Si Si6 0.102390 0.117271 0.217405
Si Si7 0.377859 0.492615 0.163373
O O1 0.143747 0.278281 0.565540
O O2 0.095371 0.133891 0.046485
O O3 0.819718 0.353400 0.176707
O O4 0.837043 0.565258 0.057298
O O5 0.688136 0.243246 0.421843
O O6 0.785096 0.104505 0.663858
O O7 0.049265 0.953212 0.096796
O O8 0.370035 0.860746 0.558200
O O9 0.396217 0.543407 0.906629
O O10 0.501636 0.981178 0.286566
O O11 0.593582 0.708396 0.614352
O O12 0.810265 0.792872 0.026293
O O13 0.500000 0.000000 0.000000
O O14 0.863033 0.294277 0.547686
O O15 0.500000 0.500000 0.000000
#
# Coordination Sequence:
#
# PCOD9078483 Si02
#       7
#     2   2   2   2   2   2   2
#     4  10  22  40  65  96 128 176 223 263 327 399
#     4   9  18  36  64  92 127 170 215 268 321 389
#     4   9  18  35  59  90 124 170 217 260 325 379
#     4  11  23  42  67  98 133 171 217 274 329 388
#     4  11  23  40  64  92 134 172 216 271 335 390
#     4  10  21  39  66  98 132 171 218 271 333 388
#     4  10  18  35  63  90 124 170 214 261 316 386
#
# _framework density 25.285032000000001
#
# number of rings (size 3 to 8) (size 9 to 14) (size 15 to 20)
#    0.000    2.000    1.429    3.000    0.000    3.429 
#    0.000    2.143    6.286    0.000    0.000    0.000 
#    0.000    0.000    0.000    0.000    0.000    0.000 
#
# Total GULP energy -78430.137720 kJ/mol
# GULP energy per Si atom -5602.152694 kJ/mol
# Density = 2.522748 g / cm^3
# Si number density = 25.285032 Si / 1000 Ang^3
#
#
#
# Elastic Constant Matrix: (Units=GPa)
#
#
# Indices 1 2 3 4 5 6 
#
# 1 141.9816 5.5417 30.4192 -1.2632 -18.9074 2.3434
# 2 5.5417 67.5313 9.1395 6.5400 0.1483 -0.9923
# 3 30.4192 9.1395 122.3323 6.6095 -0.5655 5.4633
# 4 -1.2632 6.5400 6.6095 28.4907 3.9352 7.6955
# 5 -18.9074 0.1483 -0.5655 3.9352 51.7661 5.2260
# 6 2.3434 -0.9923 5.4633 7.6955 5.2260 38.3934
#
#
#
# Elastic Compliance Matrix: (Units=1/GPa)
#
#
# Indices 1 2 3 4 5 6 
#
# 1 0.007874 -0.000473 -0.001914 0.000708 0.002879 -0.000754
# 2 -0.000473 0.015342 -0.000888 -0.003677 -0.000078 0.001299
# 3 -0.001914 -0.000888 0.008840 -0.001667 -0.000395 -0.000776
# 4 0.000708 -0.003677 -0.001667 0.038622 -0.001940 -0.007378
# 5 0.002879 -0.000078 -0.000395 -0.001940 0.020771 -0.002560
# 6 -0.000754 0.001299 -0.000776 -0.007378 -0.002560 0.028064
#
#
# Mechanical properties :
#
#
# Convention : Reuss Voigt Hill
#
# Bulk Modulus (GPa) = 39.20750 46.89400 43.05075
# Shear Modulus (GPa) = 37.15688 42.84636 40.00162
#
# Velocity S-wave (km/s) = 3.83759 4.12094 3.98179
# Velocity P-wave (km/s) = 5.93094 6.42100 6.18083
#
# Compressibility (1/GPa) = 0.02550533
#
# Stress axis : x y z
#
# Youngs Moduli (GPa) = 127.00442 65.17907 113.12686
#
# Poissons Ratio (x) = 0.03083 0.21650
# Poissons Ratio (y) = 0.06008 0.10050
# Poissons Ratio (z) = 0.24306 0.05790
#
# Static dielectric constant tensor:
#      x y z
#    x 1.895870 -0.031170 0.040760 
#    y -0.031170 2.054880 0.034670 
#    z 0.040760 0.034670 2.026220 
# 
# From -- ./inp_files/319124.got.cif
#   From: 2010.05.17/outbox.cif.g08.bks.cpg/sg2_160_cif.got.tgz:319124.got - 2010.06.03 11:33:40.
