data_PCOD9078962
_publ_section_title
;
Structure prediction by ZEFSAII (Michael W. Deem and Ramdas Pophale) SiO2 
 PCOD9078962
Probable space group: P -1
;
_chemical_formula_sum "Si O2"
_cell_formula_units_Z 16
_cell_length_a 8.495557
_cell_length_b 10.682616
_cell_length_c 14.250038
_cell_angle_alpha 94.797710
_cell_angle_beta 137.806564
_cell_angle_gamma 76.322633
_cell_volume 835.622200
_symmetry_space_group_name_H-M "P -1"
_symmetry_group_IT_number 2
_symmetry_cell_setting 'triclinic'
loop_
_space_group_symop_operation_xyz
x,y,z
-x,-y,-z
loop_
_atom_site_type_symbol
_atom_site_label
_atom_site_fract_x
_atom_site_fract_y
_atom_site_fract_z
Si Si1 0.994795 0.783578 0.690131
Si Si2 0.782682 0.627195 0.925226
Si Si3 0.714817 0.065297 0.077528
Si Si4 0.712579 0.843877 0.764760
Si Si5 0.014389 0.844725 0.076696
Si Si6 0.619281 0.476771 0.154695
Si Si7 0.488426 0.232475 0.812442
Si Si8 0.781113 0.936417 0.424468
O O1 0.841502 0.819590 0.720195
O O2 0.846484 0.840775 0.536516
O O3 0.203900 0.861272 0.795541
O O4 0.124312 0.630612 0.738703
O O5 0.705704 0.706386 0.799579
O O6 0.561514 0.585568 0.869943
O O7 0.000000 0.500000 0.000000
O O8 0.894036 0.726711 0.041239
O O9 0.622495 0.172237 0.963153
O O10 0.938306 0.952583 0.129108
O O11 0.500000 0.000000 0.000000
O O12 0.869575 0.894341 0.918065
O O13 0.454061 0.945626 0.651280
O O14 0.296748 0.792918 0.172545
O O15 0.622284 0.615051 0.209156
O O16 0.500000 0.500000 0.000000
O O17 0.297973 0.150822 0.696585
O O18 0.000000 0.000000 0.500000
#
# Coordination Sequence:
#
# PCOD9078962 Si02
#       8
#     2   2   2   2   2   2   2   2
#     4  12  24  40  62  92 129 167 212 262 320 376
#     4  10  18  36  60  98 127 157 201 261 327 365
#     4  12  21  36  61  94 122 158 214 271 304 361
#     4  10  21  41  66  89 124 168 212 264 319 372
#     4  10  20  37  66  94 122 156 213 262 313 365
#     4  12  22  38  65  98 131 163 208 267 315 383
#     4  12  22  41  65  92 128 167 211 257 322 374
#     4  12  26  44  63  90 130 173 213 263 320 380
#
# _framework density 19.147407999999999
#
# number of rings (size 3 to 8) (size 9 to 14) (size 15 to 20)
#    0.750    0.000    5.000    4.500    0.000    0.500 
#    0.000    0.000    0.000    1.500    0.000    0.000 
#    0.000    0.000    0.000    0.000    0.000    0.000 
#
# Total GULP energy -89347.016712 kJ/mol
# GULP energy per Si atom -5584.188545 kJ/mol
# Density = 1.910383 g / cm^3
# Si number density = 19.147408 Si / 1000 Ang^3
#
#
#
# Elastic Constant Matrix: (Units=GPa)
#
#
# Indices 1 2 3 4 5 6 
#
# 1 72.2325 35.3154 12.1246 -10.8504 18.0380 -6.3185
# 2 35.3154 140.7434 32.5450 -18.5161 19.9485 -21.8166
# 3 12.1246 32.5450 81.8277 -18.0750 5.9007 -12.0463
# 4 -10.8504 -18.5161 -18.0750 38.3682 6.1342 6.8871
# 5 18.0380 19.9485 5.9007 6.1342 28.5138 -4.4482
# 6 -6.3185 -21.8166 -12.0463 6.8871 -4.4482 38.8663
#
#
#
# Elastic Compliance Matrix: (Units=1/GPa)
#
#
# Indices 1 2 3 4 5 6 
#
# 1 0.018779 -0.002395 0.000309 0.006292 -0.011723 -0.000652
# 2 -0.002395 0.009856 -0.001950 0.003389 -0.005184 0.003345
# 3 0.000309 -0.001950 0.014848 0.006226 -0.002912 0.002121
# 4 0.006292 0.003389 0.006226 0.035517 -0.015787 -0.003246
# 5 -0.011723 -0.005184 -0.002912 -0.015787 0.050559 0.002866
# 6 -0.000652 0.003345 0.002121 -0.003246 0.002866 0.029061
#
#
# Mechanical properties :
#
#
# Convention : Reuss Voigt Hill
#
# Bulk Modulus (GPa) = 28.24020 50.53039 39.38529
# Shear Modulus (GPa) = 28.01155 35.47090 31.74123
#
# Velocity S-wave (km/s) = 3.82899 4.30876 4.07594
# Velocity P-wave (km/s) = 5.85910 7.15551 6.53951
#
# Compressibility (1/GPa) = 0.03541052
#
# Stress axis : x y z
#
# Youngs Moduli (GPa) = 53.25107 101.45899 67.34810
#
# Poissons Ratio (x) = 0.24303 -0.02083
# Poissons Ratio (y) = 0.12755 0.13136
# Poissons Ratio (z) = -0.01647 0.19789
#
# Static dielectric constant tensor:
#      x y z
#    x 1.686840 0.021610 0.015750 
#    y 0.021610 1.707060 0.001200 
#    z 0.015750 0.001200 1.658270 
# 
# From -- ./inp_files/274558.got.cif
#   From: 2010.05.17/outbox.cif.g08.bks.cpg/sg2_138_cif.got.tgz:274558.got - 2010.06.03 11:33:40.
