data_PCOD9078623
_publ_section_title
;
Structure prediction by ZEFSAII (Michael W. Deem and Ramdas Pophale) SiO2 
 PCOD9078623
Probable space group: P -1
;
_chemical_formula_sum "Si O2"
_cell_formula_units_Z 12
_cell_length_a 11.448495
_cell_length_b 10.911487
_cell_length_c 7.835650
_cell_angle_alpha 138.015120
_cell_angle_beta 40.750467
_cell_angle_gamma 123.699956
_cell_volume 427.337085
_symmetry_space_group_name_H-M "P -1"
_symmetry_group_IT_number 2
_symmetry_cell_setting 'triclinic'
loop_
_space_group_symop_operation_xyz
x,y,z
-x,-y,-z
loop_
_atom_site_type_symbol
_atom_site_label
_atom_site_fract_x
_atom_site_fract_y
_atom_site_fract_z
Si Si1 0.102056 0.345960 0.952447
Si Si2 0.648710 0.138881 0.417354
Si Si3 0.521529 0.534098 0.237791
Si Si4 0.357397 0.852286 0.949182
Si Si5 0.094772 0.921290 0.616494
Si Si6 0.185192 0.345510 0.457873
O O1 0.264906 0.455164 0.973589
O O2 0.146333 0.324107 0.679696
O O3 0.708512 0.093577 0.110448
O O4 0.094377 0.141075 0.822753
O O5 0.555082 0.337991 0.698634
O O6 0.797659 0.132541 0.389327
O O7 0.918651 0.465177 0.287562
O O8 0.500000 0.000000 0.500000
O O9 0.396854 0.359276 0.210939
O O10 0.453207 0.659130 0.605596
O O11 0.204282 0.847399 0.253171
O O12 0.500000 0.000000 0.000000
O O13 0.913153 0.809542 0.699425
#
# Coordination Sequence:
#
# PCOD9078623 Si02
#       6
#     2   2   2   2   2   2
#     4  11  22  44  72 101 144 190 237 287 352 425
#     4  10  20  39  72 107 138 181 246 288 336 447
#     4  10  22  43  70 102 146 184 233 296 352 416
#     4  10  18  35  71 105 128 184 240 271 348 425
#     4  12  22  45  75 100 146 191 225 298 363 404
#     4  11  26  41  68 112 145 174 247 297 337 433
#
# _framework density 28.080877999999998
#
# number of rings (size 3 to 8) (size 9 to 14) (size 15 to 20)
#    1.000    0.333    5.000    3.000    0.000    0.667 
#    0.000    3.333    3.667    0.000    0.000    0.000 
#    0.000    0.000    0.000    0.000    0.000    0.000 
#
# Total GULP energy -67414.556610 kJ/mol
# GULP energy per Si atom -5617.879717 kJ/mol
# Density = 2.801696 g / cm^3
# Si number density = 28.080878 Si / 1000 Ang^3
#
#
#
# Elastic Constant Matrix: (Units=GPa)
#
#
# Indices 1 2 3 4 5 6 
#
# 1 218.4706 90.8703 46.5555 -10.7847 -32.9850 -13.2072
# 2 90.8703 177.6670 35.8368 0.0567 -23.6871 20.1537
# 3 46.5555 35.8368 79.2771 -6.7814 -0.8865 -5.4785
# 4 -10.7847 0.0567 -6.7814 63.5597 -1.9544 -21.6905
# 5 -32.9850 -23.6871 -0.8865 -1.9544 65.1510 -18.0349
# 6 -13.2072 20.1537 -5.4785 -21.6905 -18.0349 55.9859
#
#
#
# Elastic Compliance Matrix: (Units=1/GPa)
#
#
# Indices 1 2 3 4 5 6 
#
# 1 0.007589 -0.003493 -0.002209 0.002995 0.004103 0.005313
# 2 -0.003493 0.008447 -0.002354 -0.002631 -0.000246 -0.005194
# 3 -0.002209 -0.002354 0.015288 0.001991 -0.001085 0.002244
# 4 0.002995 -0.002631 0.001991 0.020384 0.004277 0.011124
# 5 0.004103 -0.000246 -0.001085 0.004277 0.019951 0.009034
# 6 0.005313 -0.005194 0.002244 0.011124 0.009034 0.028424
#
#
# Mechanical properties :
#
#
# Convention : Reuss Voigt Hill
#
# Bulk Modulus (GPa) = 65.73018 91.32666 78.52842
# Shear Modulus (GPa) = 41.23172 57.08281 49.15726
#
# Velocity S-wave (km/s) = 3.83602 4.51355 4.18851
# Velocity P-wave (km/s) = 6.56341 7.73021 7.17058
#
# Compressibility (1/GPa) = 0.01521371
#
# Stress axis : x y z
#
# Youngs Moduli (GPa) = 131.76542 118.38589 65.40907
#
# Poissons Ratio (x) = 0.41349 0.14447
# Poissons Ratio (y) = 0.46023 0.15397
# Poissons Ratio (z) = 0.29102 0.27868
#
# Static dielectric constant tensor:
#      x y z
#    x 2.175500 0.014890 0.052440 
#    y 0.014890 2.141390 0.073930 
#    z 0.052440 0.073930 2.224380 
# 
# From -- ./inp_files/428833.got.cif
#   From: 2010.05.17/outbox.cif.g08.bks.cpg/sg2_215_cif.got.tgz:428833.got - 2010.06.03 11:33:40.
