data_PCOD9078940
_publ_section_title
;
Structure prediction by ZEFSAII (Michael W. Deem and Ramdas Pophale) SiO2 
 PCOD9078940
Probable space group: P -1
;
_chemical_formula_sum "Si O2"
_cell_formula_units_Z 16
_cell_length_a 13.798147
_cell_length_b 18.779452
_cell_length_c 7.963460
_cell_angle_alpha 44.930344
_cell_angle_beta 35.458934
_cell_angle_gamma 32.790095
_cell_volume 646.520213
_symmetry_space_group_name_H-M "P -1"
_symmetry_group_IT_number 2
_symmetry_cell_setting 'triclinic'
loop_
_space_group_symop_operation_xyz
x,y,z
-x,-y,-z
loop_
_atom_site_type_symbol
_atom_site_label
_atom_site_fract_x
_atom_site_fract_y
_atom_site_fract_z
Si Si1 0.003427 0.634369 0.365851
Si Si2 0.918820 0.876954 0.195920
Si Si3 0.754374 0.645885 0.393490
Si Si4 0.202463 0.844742 0.563932
Si Si5 0.365936 0.869161 0.989310
Si Si6 0.519523 0.879729 0.103479
Si Si7 0.564903 0.451006 0.298262
Si Si8 0.359794 0.707160 0.023599
O O1 0.064666 0.512827 0.593108
O O2 0.821108 0.682481 0.403744
O O3 0.919255 0.757258 0.394915
O O4 0.217450 0.582406 0.037507
O O5 0.015151 0.861724 0.898991
O O6 0.111195 0.833807 0.122640
O O7 0.703272 0.027781 0.234197
O O8 0.718325 0.739209 0.138762
O O9 0.527248 0.675542 0.697052
O O10 0.169542 0.896279 0.335013
O O11 0.302846 0.901016 0.425957
O O12 0.389455 0.685253 0.547834
O O13 0.500407 0.872863 0.939988
O O14 0.449330 0.735559 0.007210
O O15 0.500000 0.000000 0.000000
O O16 0.500000 0.500000 0.500000
O O17 0.377954 0.580663 0.238817
#
# Coordination Sequence:
#
# PCOD9078940 Si02
#       8
#     2   2   2   2   2   2   2   2
#     4   9  22  35  63  86 116 156 192 247 280 349
#     4  11  20  36  57  89 115 153 201 237 288 346
#     4  10  20  40  59  86 117 154 203 229 293 348
#     4   9  20  33  58  82 112 150 189 244 276 342
#     4  10  21  35  55  85 120 150 191 243 287 333
#     4  10  20  36  58  80 113 159 194 233 283 352
#     4  10  18  36  60  90 116 144 192 242 301 333
#     4  11  21  35  63  84 122 156 187 244 295 342
#
# _framework density 24.747872999999998
#
# number of rings (size 3 to 8) (size 9 to 14) (size 15 to 20)
#    0.750    1.250    2.500    1.500    1.750    1.500 
#    0.000    2.500    2.750    3.000    0.000    0.000 
#    0.000    0.000    0.000    0.000    0.000    0.000 
#
# Total GULP energy -89137.245278 kJ/mol
# GULP energy per Si atom -5571.077830 kJ/mol
# Density = 2.469155 g / cm^3
# Si number density = 24.747873 Si / 1000 Ang^3
#
#
#
# Elastic Constant Matrix: (Units=GPa)
#
#
# Indices 1 2 3 4 5 6 
#
# 1 116.9250 46.9208 14.9827 -33.2552 -6.8206 -6.9450
# 2 46.9208 85.0971 33.3493 -40.3832 -3.0222 -11.8747
# 3 14.9827 33.3493 54.4625 -12.7660 -1.0490 -6.9565
# 4 -33.2552 -40.3832 -12.7660 53.4677 4.5884 3.8160
# 5 -6.8206 -3.0222 -1.0490 4.5884 29.3541 -13.8254
# 6 -6.9450 -11.8747 -6.9565 3.8160 -13.8254 44.2996
#
#
#
# Elastic Compliance Matrix: (Units=1/GPa)
#
#
# Indices 1 2 3 4 5 6 
#
# 1 0.011558 -0.004788 0.000742 0.003492 0.002152 0.001016
# 2 -0.004788 0.025419 -0.010661 0.013373 0.000654 0.003441
# 3 0.000742 -0.010661 0.024448 -0.001951 0.000996 0.001577
# 4 0.003492 0.013373 -0.001951 0.030694 -0.002488 0.000405
# 5 0.002152 0.000654 0.000996 -0.002488 0.041588 0.013862
# 6 0.001016 0.003441 0.001577 0.000405 0.013862 0.028194
#
#
# Mechanical properties :
#
#
# Convention : Reuss Voigt Hill
#
# Bulk Modulus (GPa) = 31.23885 49.66558 40.45222
# Shear Modulus (GPa) = 24.75415 36.17308 30.46361
#
# Velocity S-wave (km/s) = 3.16611 3.82732 3.51231
# Velocity P-wave (km/s) = 5.10058 6.29630 5.72972
#
# Compressibility (1/GPa) = 0.03201142
#
# Stress axis : x y z
#
# Youngs Moduli (GPa) = 86.52048 39.34028 40.90242
#
# Poissons Ratio (x) = 0.18837 -0.03036
# Poissons Ratio (y) = 0.41428 0.43606
# Poissons Ratio (z) = -0.06421 0.41941
#
# Static dielectric constant tensor:
#      x y z
#    x 1.946600 -0.031800 0.003600 
#    y -0.031800 2.134860 0.018160 
#    z 0.003600 0.018160 2.000300 
# 
# From -- ./inp_files/318872.got.cif
#   From: 2010.05.17/outbox.cif.g08.bks.cpg/sg2_160_cif.got.tgz:318872.got - 2010.06.03 11:33:40.
