data_PCOD9078009
_publ_section_title
;
Structure prediction by ZEFSAII (Michael W. Deem and Ramdas Pophale) SiO2 
 PCOD9078009
Probable space group: P -1
;
_chemical_formula_sum "Si O2"
_cell_formula_units_Z 16
_cell_length_a 12.129702
_cell_length_b 9.384079
_cell_length_c 11.937678
_cell_angle_alpha 99.803307
_cell_angle_beta 127.697210
_cell_angle_gamma 54.261878
_cell_volume 834.943688
_symmetry_space_group_name_H-M "P -1"
_symmetry_group_IT_number 2
_symmetry_cell_setting 'triclinic'
loop_
_space_group_symop_operation_xyz
x,y,z
-x,-y,-z
loop_
_atom_site_type_symbol
_atom_site_label
_atom_site_fract_x
_atom_site_fract_y
_atom_site_fract_z
Si Si1 0.900097 0.014723 0.329884
Si Si2 0.786761 0.283097 0.662518
Si Si3 0.149277 0.255892 0.630342
Si Si4 0.541096 0.398857 0.128185
Si Si5 0.981020 0.452513 0.857230
Si Si6 0.813477 0.640711 0.555738
Si Si7 0.645519 0.780396 0.058018
Si Si8 0.476124 0.404018 0.635002
O O1 0.822582 0.910132 0.307973
O O2 0.043197 0.905403 0.306579
O O3 0.745309 0.222344 0.233400
O O4 0.000000 0.000000 0.500000
O O5 0.664619 0.278712 0.674075
O O6 0.655776 0.410634 0.496282
O O7 0.861775 0.384716 0.773195
O O8 0.177442 0.235913 0.512156
O O9 0.281999 0.282951 0.777696
O O10 0.951363 0.435533 0.560248
O O11 0.504734 0.530377 0.225385
O O12 0.500000 0.500000 0.000000
O O13 0.431910 0.318422 0.052444
O O14 0.178142 0.294445 0.912767
O O15 0.886718 0.612872 0.723822
O O16 0.000000 0.500000 0.000000
O O17 0.623160 0.686365 0.439598
O O18 0.500000 0.000000 0.000000
#
# Coordination Sequence:
#
# PCOD9078009 Si02
#       8
#     2   2   2   2   2   2   2   2
#     4  12  21  39  62  90 118 161 207 253 309 359
#     4  10  19  36  60  87 118 158 207 248 297 373
#     4  10  18  35  57  85 118 154 201 249 301 358
#     4  12  24  37  59  95 125 156 209 260 305 362
#     4  10  19  34  55  86 117 158 198 237 307 367
#     4   9  18  34  59  85 118 156 200 250 297 359
#     4  11  20  35  58  84 116 157 195 247 305 357
#     4  10  19  36  59  90 118 158 203 247 305 362
#
# _framework density 19.162970000000001
#
# number of rings (size 3 to 8) (size 9 to 14) (size 15 to 20)
#    0.000    1.500    6.250    1.500    0.000    2.000 
#    0.000    0.625    0.000    6.000    0.000    0.000 
#    0.000    0.000    0.000    0.000    0.000    0.000 
#
# Total GULP energy -89236.745231 kJ/mol
# GULP energy per Si atom -5577.296577 kJ/mol
# Density = 1.911935 g / cm^3
# Si number density = 19.162970 Si / 1000 Ang^3
#
#
#
# Elastic Constant Matrix: (Units=GPa)
#
#
# Indices 1 2 3 4 5 6 
#
# 1 118.4469 29.8859 59.9503 -4.9895 -6.8540 -16.5622
# 2 29.8859 36.5315 30.6249 -4.3911 -10.7350 -6.3996
# 3 59.9503 30.6249 140.2240 16.6816 -10.2011 -11.9712
# 4 -4.9895 -4.3911 16.6816 32.5693 -5.0374 -1.0919
# 5 -6.8540 -10.7350 -10.2011 -5.0374 36.2246 4.7334
# 6 -16.5622 -6.3996 -11.9712 -1.0919 4.7334 11.8829
#
#
#
# Elastic Compliance Matrix: (Units=1/GPa)
#
#
# Indices 1 2 3 4 5 6 
#
# 1 0.013826 -0.005518 -0.004136 0.003718 -0.001368 0.013018
# 2 -0.005518 0.043051 -0.007076 0.010378 0.010493 0.005140
# 3 -0.004136 -0.007076 0.011409 -0.007520 -0.000921 0.001594
# 4 0.003718 0.010378 -0.007520 0.037646 0.006358 0.004121
# 5 -0.001368 0.010493 -0.000921 0.006358 0.032319 -0.009473
# 6 0.013018 0.005140 0.001594 0.004121 -0.009473 0.110825
#
#
# Mechanical properties :
#
#
# Convention : Reuss Voigt Hill
#
# Bulk Modulus (GPa) = 28.71441 59.56940 44.14190
# Shear Modulus (GPa) = 16.99848 27.78478 22.39163
#
# Velocity S-wave (km/s) = 2.98157 3.81191 3.42202
# Velocity P-wave (km/s) = 5.18361 7.10826 6.22082
#
# Compressibility (1/GPa) = 0.03482572
#
# Stress axis : x y z
#
# Youngs Moduli (GPa) = 72.32623 23.22842 87.65083
#
# Poissons Ratio (x) = 0.12818 0.36256
# Poissons Ratio (y) = 0.39910 0.62018
# Poissons Ratio (z) = 0.29917 0.16436
#
# Static dielectric constant tensor:
#      x y z
#    x 1.654480 -0.000080 -0.049290 
#    y -0.000080 1.648940 -0.024890 
#    z -0.049290 -0.024890 1.608140 
# 
# From -- ./inp_files/419557.got.cif
#   From: 2010.05.17/outbox.cif.g08.bks.cpg/sg2_210_cif.got.tgz:419557.got - 2010.06.03 11:33:40.
