data_PCOD9078875
_publ_section_title
;
Structure prediction by ZEFSAII (Michael W. Deem and Ramdas Pophale) SiO2 
 PCOD9078875
Probable space group: P -1
;
_chemical_formula_sum "Si O2"
_cell_formula_units_Z 15
_cell_length_a 11.630301
_cell_length_b 13.711035
_cell_length_c 8.253890
_cell_angle_alpha 62.553968
_cell_angle_beta 65.816185
_cell_angle_gamma 115.792290
_cell_volume 678.954438
_symmetry_space_group_name_H-M "P -1"
_symmetry_group_IT_number 2
_symmetry_cell_setting 'triclinic'
loop_
_space_group_symop_operation_xyz
x,y,z
-x,-y,-z
loop_
_atom_site_type_symbol
_atom_site_label
_atom_site_fract_x
_atom_site_fract_y
_atom_site_fract_z
Si Si1 0.328354 0.458750 0.702231
Si Si2 0.657337 0.911346 0.713906
Si Si3 0.613319 0.123466 0.684406
Si Si4 0.439645 0.735007 0.642226
Si Si5 0.911582 0.787689 0.701303
Si Si6 0.047184 0.436366 0.272319
Si Si7 0.695632 0.450656 0.680730
Si Si8 0.500000 0.500000 0.000000
O O1 0.500000 0.500000 0.500000
O O2 0.419528 0.599913 0.680151
O O3 0.247814 0.474478 0.587601
O O4 0.162482 0.274854 0.023651
O O5 0.585238 0.829620 0.638361
O O6 0.654475 0.042089 0.616902
O O7 0.489716 0.756324 0.052222
O O8 0.871304 0.014735 0.571940
O O9 0.505509 0.140546 0.621424
O O10 0.822007 0.318150 0.467528
O O11 0.500000 0.000000 0.000000
O O12 0.219102 0.612349 0.934990
O O13 0.946767 0.686144 0.697113
O O14 0.718526 0.694460 0.785987
O O15 0.126624 0.484429 0.372069
O O16 0.613809 0.497915 0.799338
#
# Coordination Sequence:
#
# PCOD9078875 Si02
#       8
#     2   2   2   2   2   2   2   1
#     4  11  21  38  59  86 114 156 199 247 285 338
#     4  10  22  39  58  89 119 154 192 240 303 350
#     4  11  21  37  61  89 120 150 194 249 296 344
#     4  10  21  39  60  81 121 160 197 235 293 359
#     4   9  19  36  59  84 115 151 196 237 291 347
#     4   8  19  37  58  85 112 159 195 233 293 359
#     4  10  20  36  61  83 119 147 201 240 291 342
#     4  10  18  36  60  80 110 162 190 232 280 354
#
# _framework density 22.092791999999999
#
# number of rings (size 3 to 8) (size 9 to 14) (size 15 to 20)
#    0.000    2.133    1.333    2.400    0.000    1.600 
#    0.000    9.333    0.000    0.000    0.000    0.000 
#    0.000    0.000    0.000    0.000    0.000    0.000 
#
# Total GULP energy -83515.617834 kJ/mol
# GULP energy per Si atom -5567.707856 kJ/mol
# Density = 2.204251 g / cm^3
# Si number density = 22.092792 Si / 1000 Ang^3
#
#
#
# Elastic Constant Matrix: (Units=GPa)
#
#
# Indices 1 2 3 4 5 6 
#
# 1 69.5538 19.7957 31.6695 0.7971 -3.4692 13.1164
# 2 19.7957 97.5850 35.5935 -5.7838 -7.4166 14.4057
# 3 31.6695 35.5935 79.7248 -14.9495 -1.3533 27.1118
# 4 0.7971 -5.7838 -14.9495 22.0326 -1.5088 -5.5181
# 5 -3.4692 -7.4166 -1.3533 -1.5088 29.9746 -1.6248
# 6 13.1164 14.4057 27.1118 -5.5181 -1.6248 39.3540
#
#
#
# Elastic Compliance Matrix: (Units=1/GPa)
#
#
# Indices 1 2 3 4 5 6 
#
# 1 0.018528 -0.001079 -0.007574 -0.006368 0.001139 -0.001408
# 2 -0.001079 0.012564 -0.004867 0.000028 0.002724 -0.000770
# 3 -0.007574 -0.004867 0.023480 0.012313 -0.000953 -0.010183
# 4 -0.006368 0.000028 0.012313 0.054507 0.002644 0.001381
# 5 0.001139 0.002724 -0.000953 0.002644 0.034315 0.001068
# 6 -0.001408 -0.000770 -0.010183 0.001381 0.001068 0.033415
#
#
# Mechanical properties :
#
#
# Convention : Reuss Voigt Hill
#
# Bulk Modulus (GPa) = 36.32145 46.77565 41.54855
# Shear Modulus (GPa) = 23.47114 28.92590 26.19852
#
# Velocity S-wave (km/s) = 3.26297 3.62234 3.44734
# Velocity P-wave (km/s) = 5.53823 6.22201 5.89005
#
# Compressibility (1/GPa) = 0.02753194
#
# Stress axis : x y z
#
# Youngs Moduli (GPa) = 53.97096 79.59242 42.58864
#
# Poissons Ratio (x) = 0.08587 0.32258
# Poissons Ratio (y) = 0.05823 0.20729
# Poissons Ratio (z) = 0.40879 0.38740
#
# Static dielectric constant tensor:
#      x y z
#    x 1.925770 -0.024340 0.051090 
#    y -0.024340 1.847490 0.012400 
#    z 0.051090 0.012400 1.844040 
# 
# From -- ./inp_files/197856.got.cif
#   From: 2010.05.17/outbox.cif.g08.bks.cpg/sg2_99_cif.got.tgz:197856.got - 2010.06.03 11:33:40.
