data_PCOD9078365
_publ_section_title
;
Structure prediction by ZEFSAII (Michael W. Deem and Ramdas Pophale) SiO2 
 PCOD9078365
Probable space group: P -1
;
_chemical_formula_sum "Si O2"
_cell_formula_units_Z 16
_cell_length_a 9.195272
_cell_length_b 12.734778
_cell_length_c 23.787337
_cell_angle_alpha 156.292049
_cell_angle_beta 43.637870
_cell_angle_gamma 133.802314
_cell_volume 768.502740
_symmetry_space_group_name_H-M "P -1"
_symmetry_group_IT_number 2
_symmetry_cell_setting 'triclinic'
loop_
_space_group_symop_operation_xyz
x,y,z
-x,-y,-z
loop_
_atom_site_type_symbol
_atom_site_label
_atom_site_fract_x
_atom_site_fract_y
_atom_site_fract_z
Si Si1 0.467889 0.800795 0.670525
Si Si2 0.284451 0.813471 0.965967
Si Si3 0.393484 0.616046 0.716843
Si Si4 0.025276 0.630698 0.335735
Si Si5 0.722936 0.733386 0.277334
Si Si6 0.302911 0.689642 0.453714
Si Si7 0.902322 0.121633 0.671807
Si Si8 0.001520 0.265772 0.265524
O O1 0.500000 0.500000 0.500000
O O2 0.437920 0.827766 0.759330
O O3 0.678053 0.983055 0.685827
O O4 0.248221 0.821609 0.710098
O O5 0.291023 0.712515 0.849933
O O6 0.283492 0.567990 0.888522
O O7 0.500000 0.000000 0.000000
O O8 0.108451 0.004898 0.119915
O O9 0.217308 0.410286 0.637227
O O10 0.599115 0.472993 0.604012
O O11 0.038981 0.895926 0.497844
O O12 0.063100 0.389770 0.247062
O O13 0.145148 0.682082 0.269051
O O14 0.499889 0.716062 0.366501
O O15 0.735152 0.008984 0.375532
O O16 0.938633 0.758258 0.266268
O O17 0.100294 0.504978 0.395434
#
# Coordination Sequence:
#
# PCOD9078365 Si02
#       8
#     2   2   2   2   2   2   2   2
#     4  11  22  39  60  92 133 157 197 259 313 363
#     4  11  21  39  62  91 125 162 206 258 295 363
#     4  10  20  38  63  91 122 161 203 252 309 362
#     4  10  20  34  64  90 117 153 208 251 302 355
#     4  10  19  33  61  89 116 153 202 258 299 343
#     4  10  18  35  61  92 115 152 209 254 301 351
#     4  11  19  37  59  90 125 152 193 264 305 349
#     4  11  21  38  65  90 126 163 202 251 312 361
#
# _framework density 20.819704999999999
#
# number of rings (size 3 to 8) (size 9 to 14) (size 15 to 20)
#    0.000    1.500    8.750    0.000    0.000    2.000 
#    0.000    3.125    0.000    0.750    0.000    0.000 
#    0.000    0.000    0.000    0.000    0.000    0.000 
#
# Total GULP energy -89103.671716 kJ/mol
# GULP energy per Si atom -5568.979482 kJ/mol
# Density = 2.077232 g / cm^3
# Si number density = 20.819705 Si / 1000 Ang^3
#
#
#
# Elastic Constant Matrix: (Units=GPa)
#
#
# Indices 1 2 3 4 5 6 
#
# 1 57.6343 14.7905 7.1657 10.3599 -6.8840 23.8608
# 2 14.7905 90.6139 -4.0520 12.8884 -1.0591 23.0856
# 3 7.1657 -4.0520 79.2662 16.5935 -21.5883 11.8885
# 4 10.3599 12.8884 16.5935 23.5437 4.4360 2.4163
# 5 -6.8840 -1.0591 -21.5883 4.4360 26.2010 -4.7940
# 6 23.8608 23.0856 11.8885 2.4163 -4.7940 28.9708
#
#
#
# Elastic Compliance Matrix: (Units=1/GPa)
#
#
# Indices 1 2 3 4 5 6 
#
# 1 0.037184 0.009149 0.015386 -0.032335 0.021338 -0.038002
# 2 0.009149 0.019707 0.012151 -0.023296 0.012733 -0.024175
# 3 0.015386 0.012151 0.033872 -0.040994 0.034417 -0.027140
# 4 -0.032335 -0.023296 -0.040994 0.103673 -0.052594 0.044668
# 5 0.021338 0.012733 0.034417 -0.052594 0.077029 -0.024712
# 6 -0.038002 -0.024175 -0.027140 0.044668 -0.024712 0.088404
#
#
# Mechanical properties :
#
#
# Convention : Reuss Voigt Hill
#
# Bulk Modulus (GPa) = 6.09255 29.25810 17.67532
# Shear Modulus (GPa) = 14.65382 29.71710 22.18546
#
# Velocity S-wave (km/s) = 2.65588 3.78213 3.26789
# Velocity P-wave (km/s) = 3.51250 5.75815 4.76938
#
# Compressibility (1/GPa) = 0.16413499
#
# Stress axis : x y z
#
# Youngs Moduli (GPa) = 26.89339 50.74273 29.52309
#
# Poissons Ratio (x) = -0.46424 -0.45425
# Poissons Ratio (y) = -0.24604 -0.35873
# Poissons Ratio (z) = -0.41379 -0.61656
#
# Static dielectric constant tensor:
#      x y z
#    x 1.829530 -0.061810 0.028660 
#    y -0.061810 1.749810 0.069660 
#    z 0.028660 0.069660 1.733560 
# 
# From -- ./inp_files/503935.got.cif
#   From: 2010.05.17/outbox.cif.g08.bks.cpg/sg2_252_cif.got.tgz:503935.got - 2010.06.03 11:33:40.
