data_PCOD9078558
_publ_section_title
;
Structure prediction by ZEFSAII (Michael W. Deem and Ramdas Pophale) SiO2 
 PCOD9078558
Probable space group: P -1
;
_chemical_formula_sum "Si O2"
_cell_formula_units_Z 14
_cell_length_a 12.961700
_cell_length_b 7.638902
_cell_length_c 14.210277
_cell_angle_alpha 111.745248
_cell_angle_beta 147.638312
_cell_angle_gamma 88.560920
_cell_volume 570.379214
_symmetry_space_group_name_H-M "P -1"
_symmetry_group_IT_number 2
_symmetry_cell_setting 'triclinic'
loop_
_space_group_symop_operation_xyz
x,y,z
-x,-y,-z
loop_
_atom_site_type_symbol
_atom_site_label
_atom_site_fract_x
_atom_site_fract_y
_atom_site_fract_z
Si Si1 0.145559 0.917394 0.814892
Si Si2 0.954670 0.239311 0.748821
Si Si3 0.732521 0.883405 0.234580
Si Si4 0.688969 0.618952 0.495310
Si Si5 0.536682 0.882238 0.723806
Si Si6 0.589532 0.432520 0.917973
Si Si7 0.746159 0.042024 0.727934
O O1 0.233583 0.931928 0.779593
O O2 0.033721 0.067183 0.758179
O O3 0.356872 0.035020 0.074561
O O4 0.927999 0.677003 0.641358
O O5 0.696910 0.134045 0.487790
O O6 0.941859 0.251998 0.854818
O O7 0.147742 0.475863 0.892865
O O8 0.560016 0.784675 0.171628
O O9 0.625021 0.648333 0.044767
O O10 0.000000 0.000000 0.500000
O O11 0.550759 0.382635 0.398788
O O12 0.537492 0.601600 0.285458
O O13 0.740248 0.824430 0.642855
O O14 0.739862 0.038204 0.834431
O O15 0.500000 0.000000 0.500000
#
# Coordination Sequence:
#
# PCOD9078558 Si02
#       7
#     2   2   2   2   2   2   2
#     4  10  21  39  62  87 123 162 201 253 304 360
#     4   9  20  40  60  85 126 160 197 252 302 353
#     4  10  18  35  65  89 117 164 202 241 310 365
#     4  11  20  37  63  92 122 158 207 251 304 353
#     4  11  21  41  60  89 126 158 210 253 292 364
#     4  10  20  36  62  92 120 156 204 253 298 368
#     4   9  21  40  62  88 124 167 203 244 304 366
#
# _framework density 24.545072999999999
#
# number of rings (size 3 to 8) (size 9 to 14) (size 15 to 20)
#    0.000    2.000    4.286    0.429    0.000    2.286 
#   10.286    2.143    0.000    4.286    0.000    0.000 
#    0.000    0.000    0.000    0.000    0.000    0.000 
#
# Total GULP energy -78197.762064 kJ/mol
# GULP energy per Si atom -5585.554433 kJ/mol
# Density = 2.448921 g / cm^3
# Si number density = 24.545073 Si / 1000 Ang^3
#
#
#
# Elastic Constant Matrix: (Units=GPa)
#
#
# Indices 1 2 3 4 5 6 
#
# 1 104.4266 64.3092 34.7357 1.2187 22.5874 49.2322
# 2 64.3092 0.5740 5.4410 -51.1847 -24.2280 13.5348
# 3 34.7357 5.4410 96.0879 -27.0597 -0.7407 8.0841
# 4 1.2187 -51.1847 -27.0597 20.5716 -1.4370 -1.2851
# 5 22.5874 -24.2280 -0.7407 -1.4370 30.9087 9.1769
# 6 49.2322 13.5348 8.0841 -1.2851 9.1769 53.6672
#
#
#
# Elastic Compliance Matrix: (Units=1/GPa)
#
#
# Indices 1 2 3 4 5 6 
#
# 1 0.011780 0.005470 -0.000242 0.011837 -0.000267 -0.011821
# 2 0.005470 -0.001732 -0.004933 -0.011678 -0.005050 -0.003255
# 3 -0.000242 -0.004933 0.011440 0.002574 -0.003411 0.000388
# 4 0.011837 -0.011678 0.002574 0.020850 -0.015230 -0.005198
# 5 -0.000267 -0.005050 -0.003411 -0.015230 0.028765 -0.003251
# 6 -0.011821 -0.003255 0.000388 -0.005198 -0.003251 0.030671
#
#
# Mechanical properties :
#
#
# Convention : Reuss Voigt Hill
#
# Bulk Modulus (GPa) = 45.29397 45.56226 45.42812
# Shear Modulus (GPa) = 46.06388 27.46969 36.76678
#
# Velocity S-wave (km/s) = 4.33680 3.34900 3.87451
# Velocity P-wave (km/s) = 6.60080 5.79288 6.20999
#
# Compressibility (1/GPa) = 0.02207799
#
# Stress axis : x y z
#
# Youngs Moduli (GPa) = 84.88623 -577.45607 87.41320
#
# Poissons Ratio (x) = 3.15891 0.02119
# Poissons Ratio (y) = -0.46436 0.43124
# Poissons Ratio (z) = 0.02058 -2.84877
#
# Static dielectric constant tensor:
#      x y z
#    x 2.004500 0.040310 0.041570 
#    y 0.040310 2.001740 0.035320 
#    z 0.041570 0.035320 1.963130 
# 
# From -- ./inp_files/294190.got.cif
#   From: 2010.05.17/outbox.cif.g08.bks.cpg/sg2_148_cif.got.tgz:294190.got - 2010.06.03 11:33:40.
