data_PCOD9078075
_publ_section_title
;
Structure prediction by ZEFSAII (Michael W. Deem and Ramdas Pophale) SiO2 
 PCOD9078075
Probable space group: P -1
;
_chemical_formula_sum "Si O2"
_cell_formula_units_Z 14
_cell_length_a 10.613817
_cell_length_b 13.806922
_cell_length_c 13.385144
_cell_angle_alpha 31.039789
_cell_angle_beta 139.372357
_cell_angle_gamma 121.196295
_cell_volume 605.284976
_symmetry_space_group_name_H-M "P -1"
_symmetry_group_IT_number 2
_symmetry_cell_setting 'triclinic'
loop_
_space_group_symop_operation_xyz
x,y,z
-x,-y,-z
loop_
_atom_site_type_symbol
_atom_site_label
_atom_site_fract_x
_atom_site_fract_y
_atom_site_fract_z
Si Si1 0.304773 0.512450 0.185922
Si Si2 0.157995 0.216334 0.864515
Si Si3 0.298225 0.768030 0.375812
Si Si4 0.075144 0.914296 0.453766
Si Si5 0.822421 0.312319 0.842097
Si Si6 0.020298 0.573279 0.616657
Si Si7 0.151404 0.162694 0.443659
O O1 0.498425 0.432130 0.296895
O O2 0.321047 0.612637 0.212802
O O3 0.280683 0.301143 0.385156
O O4 0.088340 0.674068 0.867673
O O5 0.155842 0.388149 0.788837
O O6 0.919060 0.223201 0.717487
O O7 0.168636 0.279658 0.700155
O O8 0.301435 0.991531 0.187507
O O9 0.280861 0.730748 0.280252
O O10 0.142607 0.700789 0.626251
O O11 0.868901 0.920985 0.386038
O O12 0.205119 0.979729 0.557561
O O13 0.007049 0.097605 0.172229
O O14 0.923559 0.473781 0.730608
#
# Coordination Sequence:
#
# PCOD9078075 Si02
#       7
#     2   2   2   2   2   2   2
#     4  10  19  35  57  85 116 143 184 231 278 335
#     4   9  20  35  55  84 112 154 181 217 289 327
#     4  10  19  35  57  85 116 143 184 231 278 335
#     4  10  18  35  58  83 112 146 184 229 271 337
#     4  10  19  32  58  90 109 142 177 236 294 334
#     4  10  18  35  58  83 112 146 184 229 271 337
#     4   9  20  35  55  84 112 154 181 217 289 327
#
# _framework density 23.129601999999998
#
# number of rings (size 3 to 8) (size 9 to 14) (size 15 to 20)
#    0.000    2.286    2.857    0.429    0.000    0.000 
#    0.000   15.714    0.000    5.143    0.000    0.000 
#    0.000    0.000    0.000    0.000    0.000    0.000 
#
# Total GULP energy -78074.460158 kJ/mol
# GULP energy per Si atom -5576.747154 kJ/mol
# Density = 2.307696 g / cm^3
# Si number density = 23.129602 Si / 1000 Ang^3
#
#
#
# Elastic Constant Matrix: (Units=GPa)
#
#
# Indices 1 2 3 4 5 6 
#
# 1 55.0864 2.2197 30.1122 -5.9903 -10.1933 -1.9165
# 2 2.2197 111.9834 14.8542 -42.3344 -5.7113 -12.0492
# 3 30.1122 14.8542 53.6564 -22.0864 -5.8526 1.3418
# 4 -5.9903 -42.3344 -22.0864 37.9118 5.2677 -3.2823
# 5 -10.1933 -5.7113 -5.8526 5.2677 31.1364 -6.3961
# 6 -1.9165 -12.0492 1.3418 -3.2823 -6.3961 24.3377
#
#
#
# Elastic Compliance Matrix: (Units=1/GPa)
#
#
# Indices 1 2 3 4 5 6 
#
# 1 0.029139 0.000383 -0.018297 -0.006356 0.008231 0.004799
# 2 0.000383 0.019530 0.004851 0.025446 0.003126 0.013685
# 3 -0.018297 0.004851 0.037521 0.024798 -0.001885 0.001741
# 4 -0.006356 0.025446 0.024798 0.070036 -0.000483 0.020049
# 5 0.008231 0.003126 -0.001885 -0.000483 0.037601 0.012117
# 6 0.004799 0.013685 0.001741 0.020049 0.012117 0.054034
#
#
# Mechanical properties :
#
#
# Convention : Reuss Voigt Hill
#
# Bulk Modulus (GPa) = 16.64905 35.01091 25.82998
# Shear Modulus (GPa) = 17.00632 30.24655 23.62643
#
# Velocity S-wave (km/s) = 2.71451 3.62013 3.19953
# Velocity P-wave (km/s) = 4.12778 5.71345 4.98408
#
# Compressibility (1/GPa) = 0.06006348
#
# Stress axis : x y z
#
# Youngs Moduli (GPa) = 34.31859 51.20244 26.65193
#
# Poissons Ratio (x) = -0.01960 0.48766
# Poissons Ratio (y) = -0.01313 -0.12930
# Poissons Ratio (z) = 0.62794 -0.24841
#
# Static dielectric constant tensor:
#      x y z
#    x 1.917990 0.004410 0.005530 
#    y 0.004410 1.882660 0.006030 
#    z 0.005530 0.006030 1.937820 
# 
# From -- ./inp_files/459965.got.cif
#   From: 2010.05.17/outbox.cif.g08.bks.cpg/sg2_230_cif.got.tgz:459965.got - 2010.06.03 11:33:40.
