data_PCOD9078768
_publ_section_title
;
Structure prediction by ZEFSAII (Michael W. Deem and Ramdas Pophale) SiO2 
 PCOD9078768
Probable space group: P -1
;
_chemical_formula_sum "Si O2"
_cell_formula_units_Z 16
_cell_length_a 7.792129
_cell_length_b 20.315145
_cell_length_c 14.035252
_cell_angle_alpha 160.052270
_cell_angle_beta 96.326744
_cell_angle_gamma 91.776368
_cell_volume 691.481493
_symmetry_space_group_name_H-M "P -1"
_symmetry_group_IT_number 2
_symmetry_cell_setting 'triclinic'
loop_
_space_group_symop_operation_xyz
x,y,z
-x,-y,-z
loop_
_atom_site_type_symbol
_atom_site_label
_atom_site_fract_x
_atom_site_fract_y
_atom_site_fract_z
Si Si1 0.782609 0.488475 0.179530
Si Si2 0.903230 0.077003 0.277342
Si Si3 0.531744 0.089593 0.997521
Si Si4 0.615568 0.388224 0.237825
Si Si5 0.819869 0.293697 0.737020
Si Si6 0.538493 0.349876 0.655409
Si Si7 0.272636 0.496146 0.305431
Si Si8 0.925675 0.673160 0.766187
O O1 0.739460 0.425101 0.200505
O O2 0.607108 0.540462 0.200897
O O3 0.965231 0.706642 0.471478
O O4 0.799812 0.307778 0.867953
O O5 0.861706 0.118852 0.442153
O O6 0.691340 0.981578 0.092849
O O7 0.001491 0.910809 0.058572
O O8 0.564964 0.876253 0.709742
O O9 0.577679 0.184777 0.022796
O O10 0.656128 0.275481 0.327963
O O11 0.426154 0.401811 0.209976
O O12 0.718206 0.577069 0.574966
O O13 0.634384 0.309453 0.700568
O O14 0.000000 0.500000 0.000000
O O15 0.714701 0.476173 0.768556
O O16 0.090871 0.348529 0.150826
O O17 0.000000 0.500000 0.500000
#
# Coordination Sequence:
#
# PCOD9078768 Si02
#       8
#     2   2   2   2   2   2   2   2
#     4  10  22  37  61  88 115 146 202 240 280 334
#     4  10  20  37  58  83 114 157 192 226 293 335
#     4  10  18  36  58  82 121 157 186 222 291 355
#     4  10  20  38  57  83 121 156 183 235 294 341
#     4   9  20  40  62  79 115 153 193 242 285 336
#     4  10  21  34  62  88 109 151 195 241 281 340
#     4  10  19  37  56  83 122 154 186 227 295 347
#     4  11  22  34  57  86 124 150 188 242 284 340
#
# _framework density 23.138724
#
# number of rings (size 3 to 8) (size 9 to 14) (size 15 to 20)
#    0.000    2.000    2.500    1.500    3.500    3.500 
#    0.000    2.500    2.750    2.250    0.000    0.000 
#    0.000    0.000    0.000    0.000    0.000    0.000 
#
# Total GULP energy -89280.529473 kJ/mol
# GULP energy per Si atom -5580.033092 kJ/mol
# Density = 2.308606 g / cm^3
# Si number density = 23.138724 Si / 1000 Ang^3
#
#
#
# Elastic Constant Matrix: (Units=GPa)
#
#
# Indices 1 2 3 4 5 6 
#
# 1 88.9255 9.0671 7.0304 6.8938 -5.7139 5.5290
# 2 9.0671 129.6988 15.9243 10.2016 -2.9143 30.5449
# 3 7.0304 15.9243 34.3510 4.1919 -6.4442 -3.4930
# 4 6.8938 10.2016 4.1919 22.9270 1.3495 2.9460
# 5 -5.7139 -2.9143 -6.4442 1.3495 35.3441 1.8044
# 6 5.5290 30.5449 -3.4930 2.9460 1.8044 28.9461
#
#
#
# Elastic Compliance Matrix: (Units=1/GPa)
#
#
# Indices 1 2 3 4 5 6 
#
# 1 0.011905 0.000355 -0.002157 -0.003102 0.001817 -0.002706
# 2 0.000355 0.011755 -0.006423 -0.002525 0.000617 -0.013028
# 3 -0.002157 -0.006423 0.035251 -0.004732 0.005137 0.011605
# 4 -0.003102 -0.002525 -0.004732 0.046974 -0.003270 -0.001891
# 5 0.001817 0.000617 0.005137 -0.003270 0.029797 -0.001903
# 6 -0.002706 -0.013028 0.011605 -0.001891 -0.001903 0.050523
#
#
# Mechanical properties :
#
#
# Convention : Reuss Voigt Hill
#
# Bulk Modulus (GPa) = 23.55049 35.22432 29.38741
# Shear Modulus (GPa) = 23.06189 32.17367 27.61778
#
# Velocity S-wave (km/s) = 3.16045 3.73294 3.45856
# Velocity P-wave (km/s) = 4.84953 5.81687 5.35509
#
# Compressibility (1/GPa) = 0.04246195
#
# Stress axis : x y z
#
# Youngs Moduli (GPa) = 83.99657 85.07293 28.36772
#
# Poissons Ratio (x) = -0.03017 0.06118
# Poissons Ratio (y) = -0.02979 0.18220
# Poissons Ratio (z) = 0.18115 0.54640
#
# Static dielectric constant tensor:
#      x y z
#    x 1.959450 0.007990 0.012120 
#    y 0.007990 1.908110 0.003600 
#    z 0.012120 0.003600 1.877510 
# 
# From -- ./inp_files/176719.got.cif
#   From: 2010.05.17/outbox.cif.g08.bks.cpg/sg2_89_cif.got.tgz:176719.got - 2010.06.03 11:33:40.
