data_PCOD9078172
_publ_section_title
;
Structure prediction by ZEFSAII (Michael W. Deem and Ramdas Pophale) SiO2 
 PCOD9078172
Probable space group: P -1
;
_chemical_formula_sum "Si O2"
_cell_formula_units_Z 16
_cell_length_a 11.475273
_cell_length_b 18.643908
_cell_length_c 8.376235
_cell_angle_alpha 70.433434
_cell_angle_beta 123.999513
_cell_angle_gamma 146.495873
_cell_volume 785.572628
_symmetry_space_group_name_H-M "P -1"
_symmetry_group_IT_number 2
_symmetry_cell_setting 'triclinic'
loop_
_space_group_symop_operation_xyz
x,y,z
-x,-y,-z
loop_
_atom_site_type_symbol
_atom_site_label
_atom_site_fract_x
_atom_site_fract_y
_atom_site_fract_z
Si Si1 0.982067 0.433352 0.179016
Si Si2 0.885803 0.915891 0.705757
Si Si3 0.406200 0.793843 0.738196
Si Si4 0.238283 0.954267 0.796134
Si Si5 0.247912 0.885804 0.501359
Si Si6 0.195012 0.771349 0.998276
Si Si7 0.975802 0.091252 0.874939
Si Si8 0.663147 0.295746 0.599215
O O1 0.704273 0.309086 0.133559
O O2 0.181572 0.557905 0.359646
O O3 0.003178 0.360146 0.168430
O O4 0.000000 0.500000 0.000000
O O5 0.627517 0.821405 0.492299
O O6 0.060939 0.945493 0.702765
O O7 0.001491 0.043115 0.783832
O O8 0.842492 0.844692 0.886599
O O9 0.232531 0.791297 0.605310
O O10 0.350293 0.729227 0.576887
O O11 0.697183 0.947982 0.841908
O O12 0.257968 0.936983 0.637957
O O13 0.522440 0.101170 0.953649
O O14 0.146885 0.840076 0.915762
O O15 0.041221 0.833341 0.271517
O O16 0.500000 0.000000 0.500000
O O17 0.227218 0.729756 0.206128
#
# Coordination Sequence:
#
# PCOD9078172 Si02
#       8
#     2   2   2   2   2   2   2   2
#     4  10  20  37  57  84 112 150 198 244 276 325
#     4  10  21  36  54  85 122 157 185 229 293 357
#     4  10  18  35  59  86 112 145 195 246 282 330
#     4  11  21  34  60  90 118 148 185 242 298 343
#     4  10  20  33  57  89 119 145 184 241 294 337
#     4  10  21  35  56  90 112 144 194 239 288 332
#     4   9  20  35  56  86 122 152 182 237 296 349
#     4  10  22  37  57  83 117 154 191 232 285 345
#
# _framework density 20.367307
#
# number of rings (size 3 to 8) (size 9 to 14) (size 15 to 20)
#    0.000    2.000    1.250    3.375    7.000    2.000 
#    0.000    3.125    0.000    0.750    0.000    0.000 
#    0.000    0.000    0.000    0.000    0.000    0.000 
#
# Total GULP energy -89142.033798 kJ/mol
# GULP energy per Si atom -5571.377112 kJ/mol
# Density = 2.032095 g / cm^3
# Si number density = 20.367307 Si / 1000 Ang^3
#
#
#
# Elastic Constant Matrix: (Units=GPa)
#
#
# Indices 1 2 3 4 5 6 
#
# 1 110.0156 19.0208 9.8762 -3.0321 2.0237 6.3672
# 2 19.0208 70.1392 14.1110 -9.7712 -8.4937 -11.4387
# 3 9.8762 14.1110 69.0931 -11.2269 2.8626 -0.4072
# 4 -3.0321 -9.7712 -11.2269 27.5884 -7.4446 -6.4487
# 5 2.0237 -8.4937 2.8626 -7.4446 30.7846 -3.0134
# 6 6.3672 -11.4387 -0.4072 -6.4487 -3.0134 22.4630
#
#
#
# Elastic Compliance Matrix: (Units=1/GPa)
#
#
# Indices 1 2 3 4 5 6 
#
# 1 0.010319 -0.004547 -0.000989 -0.003324 -0.003296 -0.006654
# 2 -0.004547 0.022230 -0.001999 0.013985 0.011779 0.018168
# 3 -0.000989 -0.001999 0.015998 0.005848 -0.000445 0.001172
# 4 -0.003324 0.013985 0.005848 0.054611 0.019328 0.026440
# 5 -0.003296 0.011779 -0.000445 0.019328 0.042444 0.018167
# 6 -0.006654 0.018168 0.001172 0.026440 0.018167 0.065704
#
#
# Mechanical properties :
#
#
# Convention : Reuss Voigt Hill
#
# Bulk Modulus (GPa) = 29.87016 37.25154 33.56085
# Shear Modulus (GPa) = 21.04967 29.91652 25.48310
#
# Velocity S-wave (km/s) = 3.21830 3.83672 3.54103
# Velocity P-wave (km/s) = 5.33924 6.16091 5.76473
#
# Compressibility (1/GPa) = 0.03347823
#
# Stress axis : x y z
#
# Youngs Moduli (GPa) = 96.91212 44.98432 62.50663
#
# Poissons Ratio (x) = 0.20453 0.06182
# Poissons Ratio (y) = 0.44062 0.12493
# Poissons Ratio (z) = 0.09586 0.08991
#
# Static dielectric constant tensor:
#      x y z
#    x 1.790620 -0.004480 -0.026920 
#    y -0.004480 1.752420 -0.028390 
#    z -0.026920 -0.028390 1.826940 
# 
# From -- ./inp_files/281009.got.cif
#   From: 2010.05.17/outbox.cif.g08.bks.cpg/sg2_141_cif.got.tgz:281009.got - 2010.06.03 11:33:40.
