data_PCOD9078079
_publ_section_title
;
Structure prediction by ZEFSAII (Michael W. Deem and Ramdas Pophale) SiO2 
 PCOD9078079
Probable space group: P -1
;
_chemical_formula_sum "Si O2"
_cell_formula_units_Z 16
_cell_length_a 7.498338
_cell_length_b 17.850300
_cell_length_c 7.926071
_cell_angle_alpha 126.711723
_cell_angle_beta 54.241332
_cell_angle_gamma 92.402519
_cell_volume 608.219012
_symmetry_space_group_name_H-M "P -1"
_symmetry_group_IT_number 2
_symmetry_cell_setting 'triclinic'
loop_
_space_group_symop_operation_xyz
x,y,z
-x,-y,-z
loop_
_atom_site_type_symbol
_atom_site_label
_atom_site_fract_x
_atom_site_fract_y
_atom_site_fract_z
Si Si1 0.845957 0.136664 0.623850
Si Si2 0.389690 0.899787 0.753574
Si Si3 0.505628 0.418175 0.645399
Si Si4 0.083547 0.074551 0.781482
Si Si5 0.928398 0.722286 0.797578
Si Si6 0.191839 0.332245 0.884534
Si Si7 0.695532 0.884666 0.884015
Si Si8 0.347856 0.636584 0.893461
O O1 0.950104 0.109288 0.719025
O O2 0.073520 0.122744 0.361829
O O3 0.655848 0.259503 0.890141
O O4 0.758394 0.052609 0.498410
O O5 0.582398 0.786238 0.425563
O O6 0.479958 0.901726 0.897686
O O7 0.120372 0.908964 0.938989
O O8 0.387486 0.004969 0.819259
O O9 0.285644 0.407351 0.845127
O O10 0.465258 0.537010 0.818106
O O11 0.523082 0.387553 0.394934
O O12 0.773089 0.338844 0.470170
O O13 0.150213 0.166897 0.910182
O O14 0.865732 0.650979 0.861991
O O15 0.786470 0.772295 0.771863
O O16 0.937544 0.341241 0.955769
#
# Coordination Sequence:
#
# PCOD9078079 Si02
#       8
#     2   2   2   2   2   2   2   2
#     4  10  18  35  58  83 115 160 193 239 297 354
#     4  10  19  36  59  84 118 159 203 240 291 370
#     4  10  21  37  60  93 117 153 205 257 290 350
#     4  10  19  35  60  88 121 152 200 241 296 365
#     4  11  22  39  58  90 127 156 192 253 305 346
#     4  11  19  37  62  86 121 157 203 245 298 352
#     4  10  22  36  56  87 123 160 195 245 302 358
#     4  10  19  36  64  90 115 156 208 249 292 349
#
# _framework density 26.306312999999999
#
# number of rings (size 3 to 8) (size 9 to 14) (size 15 to 20)
#    0.000    1.750    5.000    0.375    0.000    2.500 
#    2.250    0.625    0.000    0.750    0.000    0.000 
#    0.000    0.000    0.000    0.000    0.000    0.000 
#
# Total GULP energy -89626.641669 kJ/mol
# GULP energy per Si atom -5601.665104 kJ/mol
# Density = 2.624644 g / cm^3
# Si number density = 26.306313 Si / 1000 Ang^3
#
#
#
# Elastic Constant Matrix: (Units=GPa)
#
#
# Indices 1 2 3 4 5 6 
#
# 1 68.8650 31.3427 7.4517 -7.7215 -15.9839 -7.5780
# 2 31.3427 168.9559 45.6723 -0.6172 -23.5628 8.8536
# 3 7.4517 45.6723 55.7234 6.3939 -0.4617 9.6041
# 4 -7.7215 -0.6172 6.3939 56.7327 5.6392 -13.2988
# 5 -15.9839 -23.5628 -0.4617 5.6392 20.1121 4.4681
# 6 -7.5780 8.8536 9.6041 -13.2988 4.4681 34.9784
#
#
#
# Elastic Compliance Matrix: (Units=1/GPa)
#
#
# Indices 1 2 3 4 5 6 
#
# 1 0.018947 -0.001544 -0.002314 0.002807 0.011353 0.004748
# 2 -0.001544 0.009807 -0.007173 -0.001001 0.010962 -0.002628
# 3 -0.002314 -0.007173 0.025640 -0.004069 -0.007099 -0.006366
# 4 0.002807 -0.001001 -0.004069 0.021860 -0.007668 0.011270
# 5 0.011353 0.010962 -0.007099 -0.007668 0.076016 -0.010991
# 6 0.004748 -0.002628 -0.006366 0.011270 -0.010991 0.037720
#
#
# Mechanical properties :
#
#
# Convention : Reuss Voigt Hill
#
# Bulk Modulus (GPa) = 30.93062 51.38641 41.15852
# Shear Modulus (GPa) = 22.43866 36.30316 29.37091
#
# Velocity S-wave (km/s) = 2.92374 3.71889 3.34503
# Velocity P-wave (km/s) = 4.81468 6.16575 5.53162
#
# Compressibility (1/GPa) = 0.03233042
#
# Stress axis : x y z
#
# Youngs Moduli (GPa) = 52.77894 101.96753 39.00205
#
# Poissons Ratio (x) = 0.15748 0.09026
# Poissons Ratio (y) = 0.08151 0.27976
# Poissons Ratio (z) = 0.12215 0.73140
#
# Static dielectric constant tensor:
#      x y z
#    x 2.079030 -0.044150 0.014900 
#    y -0.044150 2.087150 -0.033510 
#    z 0.014900 -0.033510 2.080310 
# 
# From -- ./inp_files/215417.got.cif
#   From: 2010.05.17/outbox.cif.g08.bks.cpg/sg2_108_cif.got.tgz:215417.got - 2010.06.03 11:33:40.
