data_PCOD9078092
_publ_section_title
;
Structure prediction by ZEFSAII (Michael W. Deem and Ramdas Pophale) SiO2 
 PCOD9078092
Probable space group: P -1
;
_chemical_formula_sum "Si O2"
_cell_formula_units_Z 12
_cell_length_a 5.523810
_cell_length_b 22.848596
_cell_length_c 13.957853
_cell_angle_alpha 21.106866
_cell_angle_beta 130.358433
_cell_angle_gamma 132.170645
_cell_volume 468.675905
_symmetry_space_group_name_H-M "P -1"
_symmetry_group_IT_number 2
_symmetry_cell_setting 'triclinic'
loop_
_space_group_symop_operation_xyz
x,y,z
-x,-y,-z
loop_
_atom_site_type_symbol
_atom_site_label
_atom_site_fract_x
_atom_site_fract_y
_atom_site_fract_z
Si Si1 0.584166 0.199364 0.404830
Si Si2 0.004337 0.971080 0.932827
Si Si3 0.216191 0.189848 0.495288
Si Si4 0.996608 0.587188 0.512734
Si Si5 0.540770 0.530540 0.308791
Si Si6 0.238266 0.109936 0.270125
O O1 0.503772 0.280510 0.359705
O O2 0.279028 0.174470 0.291610
O O3 0.921946 0.278199 0.311111
O O4 0.688084 0.027012 0.723560
O O5 0.996733 0.779832 0.207692
O O6 0.285021 0.103734 0.743620
O O7 0.000000 0.000000 0.000000
O O8 0.072950 0.020268 0.653705
O O9 0.749108 0.487504 0.518856
O O10 0.830207 0.523923 0.667532
O O11 0.346237 0.555863 0.623155
O O12 0.654630 0.725881 0.017147
O O13 0.500000 0.000000 0.500000
#
# Coordination Sequence:
#
# PCOD9078092 Si02
#       6
#     2   2   2   2   2   2
#     4   9  20  32  54  81 108 138 182 231 275 317
#     4  10  22  38  59  82 113 152 192 228 268 330
#     4   9  19  32  51  85 107 137 177 228 282 315
#     4  10  21  36  52  82 114 146 180 223 284 334
#     4  10  21  34  56  80 115 143 175 233 286 332
#     4  10  18  35  58  86 113 141 182 236 284 330
#
# _framework density 25.604046
#
# number of rings (size 3 to 8) (size 9 to 14) (size 15 to 20)
#    1.000    1.333    1.667    0.500    2.333    7.333 
#    0.000    0.000    0.000    2.000    0.000    0.000 
#    0.000    0.000    0.000    0.000    0.000    0.000 
#
# Total GULP energy -66910.598717 kJ/mol
# GULP energy per Si atom -5575.883226 kJ/mol
# Density = 2.554577 g / cm^3
# Si number density = 25.604046 Si / 1000 Ang^3
#
#
#
# Elastic Constant Matrix: (Units=GPa)
#
#
# Indices 1 2 3 4 5 6 
#
# 1 217.8132 35.7995 24.5293 -5.2981 -4.8581 -43.6625
# 2 35.7995 79.1308 14.5143 13.5194 -15.4408 -5.4981
# 3 24.5293 14.5143 71.3662 -5.6556 -3.1671 -3.8625
# 4 -5.2981 13.5194 -5.6556 29.7312 -11.8223 -6.9997
# 5 -4.8581 -15.4408 -3.1671 -11.8223 29.4114 5.2050
# 6 -43.6625 -5.4981 -3.8625 -6.9997 5.2050 41.3613
#
#
#
# Elastic Compliance Matrix: (Units=1/GPa)
#
#
# Indices 1 2 3 4 5 6 
#
# 1 0.006789 -0.003130 -0.000989 0.004064 -0.000302 0.007384
# 2 -0.003130 0.016669 -0.002814 -0.007213 0.005612 -0.003278
# 3 -0.000989 -0.002814 0.015434 0.004940 0.001897 0.000621
# 4 0.004064 -0.007213 0.004940 0.046634 0.014415 0.009870
# 5 -0.000302 0.005612 0.001897 0.014415 0.043321 -0.002408
# 6 0.007384 -0.003278 0.000621 0.009870 -0.002408 0.033568
#
#
# Mechanical properties :
#
#
# Convention : Reuss Voigt Hill
#
# Bulk Modulus (GPa) = 39.95863 57.55515 48.75689
# Shear Modulus (GPa) = 27.08208 39.66526 33.37367
#
# Velocity S-wave (km/s) = 3.25580 3.94023 3.61425
# Velocity P-wave (km/s) = 5.45655 6.57482 6.04161
#
# Compressibility (1/GPa) = 0.02502588
#
# Stress axis : x y z
#
# Youngs Moduli (GPa) = 147.29144 59.99034 64.79348
#
# Poissons Ratio (x) = 0.18779 0.06405
# Poissons Ratio (y) = 0.46107 0.18235
# Poissons Ratio (z) = 0.14561 0.16883
#
# Static dielectric constant tensor:
#      x y z
#    x 2.207760 -0.006660 -0.019190 
#    y -0.006660 2.206130 -0.003230 
#    z -0.019190 -0.003230 1.926260 
# 
# From -- ./inp_files/83094.got.cif
#   From: 2010.05.17/outbox.cif.g08.bks.cpg/sg2_42_cif.got.tgz:83094.got - 2010.06.03 11:33:40.
