data_PCOD9078874
_publ_section_title
;
Structure prediction by ZEFSAII (Michael W. Deem and Ramdas Pophale) SiO2 
 PCOD9078874
Probable space group: P -1
;
_chemical_formula_sum "Si O2"
_cell_formula_units_Z 12
_cell_length_a 21.512020
_cell_length_b 13.385501
_cell_length_c 8.571217
_cell_angle_alpha 46.680881
_cell_angle_beta 141.947326
_cell_angle_gamma 160.245251
_cell_volume 495.917542
_symmetry_space_group_name_H-M "P -1"
_symmetry_group_IT_number 2
_symmetry_cell_setting 'triclinic'
loop_
_space_group_symop_operation_xyz
x,y,z
-x,-y,-z
loop_
_atom_site_type_symbol
_atom_site_label
_atom_site_fract_x
_atom_site_fract_y
_atom_site_fract_z
Si Si1 0.703700 0.968946 0.798564
Si Si2 0.072496 0.305191 0.338930
Si Si3 0.327512 0.359378 0.611842
Si Si4 0.239950 0.362482 0.118230
Si Si5 0.418835 0.812683 0.183937
Si Si6 0.543184 0.212668 0.195234
O O1 0.583640 0.675602 0.840268
O O2 0.614183 0.952214 0.495925
O O3 0.600624 0.898743 0.830969
O O4 0.963462 0.267584 0.031238
O O5 0.215564 0.359232 0.476344
O O6 0.228328 0.556806 0.511923
O O7 0.856057 0.975878 0.348124
O O8 0.346750 0.392931 0.427369
O O9 0.376458 0.579773 0.001495
O O10 0.233769 0.492870 0.073582
O O11 0.000000 0.000000 0.000000
O O12 0.405742 0.916469 0.175471
O O13 0.500000 0.000000 0.000000
#
# Coordination Sequence:
#
# PCOD9078874 Si02
#       6
#     2   2   2   2   2   2
#     4  10  20  35  59  85 114 148 195 230 284 344
#     4  10  19  34  58  86 114 150 187 235 284 341
#     4   9  19  35  55  82 119 149 185 236 285 327
#     4  10  18  36  60  80 110 155 192 225 284 338
#     4   9  20  37  58  81 117 152 185 238 287 333
#     4  10  20  36  58  85 116 149 187 237 287 331
#
# _framework density 24.197572999999998
#
# number of rings (size 3 to 8) (size 9 to 14) (size 15 to 20)
#    0.000    2.333    1.667    1.000    0.000    0.667 
#    0.000    5.833    0.000   15.000    0.000    0.000 
#    0.000    0.000    0.000    0.000    0.000    0.000 
#
# Total GULP energy -66823.255338 kJ/mol
# GULP energy per Si atom -5568.604611 kJ/mol
# Density = 2.414250 g / cm^3
# Si number density = 24.197573 Si / 1000 Ang^3
#
#
#
# Elastic Constant Matrix: (Units=GPa)
#
#
# Indices 1 2 3 4 5 6 
#
# 1 89.6487 44.7614 44.5037 13.3223 -28.4413 -16.1620
# 2 44.7614 150.0445 56.8099 23.0344 -20.3387 -23.5707
# 3 44.5037 56.8099 122.2000 8.2692 -30.4292 0.6674
# 4 13.3223 23.0344 8.2692 51.4624 -1.1215 -24.0511
# 5 -28.4413 -20.3387 -30.4292 -1.1215 34.4190 0.1577
# 6 -16.1620 -23.5707 0.6674 -24.0511 0.1577 43.2837
#
#
#
# Elastic Compliance Matrix: (Units=1/GPa)
#
#
# Indices 1 2 3 4 5 6 
#
# 1 0.018192 -0.001825 -0.002951 -0.000621 0.011300 0.005458
# 2 -0.001825 0.009434 -0.003393 -0.001456 0.001002 0.003695
# 3 -0.002951 -0.003393 0.012620 -0.001459 0.006685 -0.003979
# 4 -0.000621 -0.001456 -0.001459 0.026979 -0.001849 0.013996
# 5 0.011300 0.001002 0.006685 -0.001849 0.044817 0.003471
# 6 0.005458 0.003695 -0.003979 0.013996 0.003471 0.034979
#
#
# Mechanical properties :
#
#
# Convention : Reuss Voigt Hill
#
# Bulk Modulus (GPa) = 41.82676 72.67148 57.24912
# Shear Modulus (GPa) = 29.18348 40.22090 34.70219
#
# Velocity S-wave (km/s) = 3.47659 4.08142 3.79108
# Velocity P-wave (km/s) = 5.78261 7.23245 6.54778
#
# Compressibility (1/GPa) = 0.02390814
#
# Stress axis : x y z
#
# Youngs Moduli (GPa) = 54.96886 106.00222 79.23674
#
# Poissons Ratio (x) = 0.19350 0.23380
# Poissons Ratio (y) = 0.10034 0.26885
# Poissons Ratio (z) = 0.16219 0.35967
#
# Static dielectric constant tensor:
#      x y z
#    x 1.932410 -0.010940 0.016790 
#    y -0.010940 2.019900 -0.021420 
#    z 0.016790 -0.021420 2.154030 
# 
# From -- ./inp_files/88775.got.cif
#   From: 2010.05.17/outbox.cif.g08.bks.cpg/sg2_45_cif.got.tgz:88775.got - 2010.06.03 11:33:40.
