data_PCOD9078361
_publ_section_title
;
Structure prediction by ZEFSAII (Michael W. Deem and Ramdas Pophale) SiO2 
 PCOD9078361
Probable space group: P -1
;
_chemical_formula_sum "Si O2"
_cell_formula_units_Z 14
_cell_length_a 11.973519
_cell_length_b 8.404570
_cell_length_c 12.600090
_cell_angle_alpha 77.709053
_cell_angle_beta 77.763675
_cell_angle_gamma 140.731694
_cell_volume 621.867900
_symmetry_space_group_name_H-M "P -1"
_symmetry_group_IT_number 2
_symmetry_cell_setting 'triclinic'
loop_
_space_group_symop_operation_xyz
x,y,z
-x,-y,-z
loop_
_atom_site_type_symbol
_atom_site_label
_atom_site_fract_x
_atom_site_fract_y
_atom_site_fract_z
Si Si1 0.829792 0.644410 0.083695
Si Si2 0.625417 0.583065 0.319504
Si Si3 0.781377 0.761325 0.650066
Si Si4 0.119928 0.335893 0.159024
Si Si5 0.010040 0.353494 0.591149
Si Si6 0.485954 0.829969 0.445296
Si Si7 0.954549 0.487110 0.195618
O O1 0.663571 0.493442 0.231860
O O2 0.964630 0.646743 0.088187
O O3 0.747503 0.533155 0.995614
O O4 0.000000 0.000000 0.000000
O O5 0.451586 0.505441 0.326157
O O6 0.513001 0.339411 0.469349
O O7 0.868683 0.951288 0.249689
O O8 0.780150 0.628757 0.763259
O O9 0.000000 0.000000 0.500000
O O10 0.823319 0.992166 0.658198
O O11 0.101333 0.506892 0.150396
O O12 0.243843 0.555290 0.484851
O O13 0.011836 0.402129 0.708000
O O14 0.000000 0.500000 0.500000
O O15 0.500000 0.000000 0.500000
O O16 0.700227 0.114311 0.290617
#
# Coordination Sequence:
#
# PCOD9078361 Si02
#       7
#     2   2   2   2   2   2   2
#     4  10  21  42  68  89 121 173 220 255 314 376
#     4  11  22  42  66  95 129 170 208 261 320 376
#     4  12  25  40  64  98 131 164 210 263 324 378
#     4  11  24  42  64  93 132 170 212 261 310 382
#     4  11  21  36  59  95 131 164 205 259 318 381
#     4  10  18  35  61  91 123 159 207 252 319 368
#     4  11  22  40  66  91 127 168 210 262 323 375
#
# _framework density 22.512820000000001
#
# number of rings (size 3 to 8) (size 9 to 14) (size 15 to 20)
#    0.000    1.143    4.286    4.714    2.000    1.714 
#    0.000    0.000    0.000    5.143    0.000    0.000 
#    0.000    0.000    0.000    0.000    0.000    0.000 
#
# Total GULP energy -78273.619351 kJ/mol
# GULP energy per Si atom -5590.972811 kJ/mol
# Density = 2.246158 g / cm^3
# Si number density = 22.512820 Si / 1000 Ang^3
#
#
#
# Elastic Constant Matrix: (Units=GPa)
#
#
# Indices 1 2 3 4 5 6 
#
# 1 141.1715 21.4764 32.8308 9.3284 39.9850 0.4342
# 2 21.4764 70.5250 7.0721 1.2366 7.5170 -1.7229
# 3 32.8308 7.0721 74.5187 16.9714 36.3339 -7.7396
# 4 9.3284 1.2366 16.9714 29.6535 -1.3767 4.7902
# 5 39.9850 7.5170 36.3339 -1.3767 46.8438 3.2816
# 6 0.4342 -1.7229 -7.7396 4.7902 3.2816 42.4892
#
#
#
# Elastic Compliance Matrix: (Units=1/GPa)
#
#
# Indices 1 2 3 4 5 6 
#
# 1 0.010114 -0.002081 0.001887 -0.004878 -0.010010 0.001479
# 2 -0.002081 0.014902 -0.000182 0.000011 -0.000518 0.000631
# 3 0.001887 -0.000182 0.032504 -0.022206 -0.028186 0.010574
# 4 -0.004878 0.000011 -0.022206 0.050934 0.023693 -0.011567
# 5 -0.010010 -0.000518 -0.028186 0.023693 0.053363 -0.011846
# 6 0.001479 0.000631 0.010574 -0.011567 -0.011846 0.027691
#
#
# Mechanical properties :
#
#
# Convention : Reuss Voigt Hill
#
# Bulk Modulus (GPa) = 17.61554 45.44152 31.52853
# Shear Modulus (GPa) = 23.90250 38.78636 31.34443
#
# Velocity S-wave (km/s) = 3.26195 4.15523 3.73539
# Velocity P-wave (km/s) = 4.69348 6.57646 5.71308
#
# Compressibility (1/GPa) = 0.05676807
#
# Stress axis : x y z
#
# Youngs Moduli (GPa) = 98.86964 67.10669 30.76543
#
# Poissons Ratio (x) = 0.13962 -0.05805
# Poissons Ratio (y) = 0.20571 0.00560
# Poissons Ratio (z) = -0.18654 0.01222
#
# Static dielectric constant tensor:
#      x y z
#    x 1.849960 -0.051870 -0.055990 
#    y -0.051870 1.934230 0.050420 
#    z -0.055990 0.050420 1.858210 
# 
# From -- ./inp_files/177668.got.cif
#   From: 2010.05.17/outbox.cif.g08.bks.cpg/sg2_89_cif.got.tgz:177668.got - 2010.06.03 11:33:40.
