data_PCOD9078488
_publ_section_title
;
Structure prediction by ZEFSAII (Michael W. Deem and Ramdas Pophale) SiO2 
 PCOD9078488
Probable space group: P -1
;
_chemical_formula_sum "Si O2"
_cell_formula_units_Z 14
_cell_length_a 8.698521
_cell_length_b 27.870442
_cell_length_c 10.079183
_cell_angle_alpha 24.512115
_cell_angle_beta 45.872517
_cell_angle_gamma 39.100864
_cell_volume 638.925238
_symmetry_space_group_name_H-M "P -1"
_symmetry_group_IT_number 2
_symmetry_cell_setting 'triclinic'
loop_
_space_group_symop_operation_xyz
x,y,z
-x,-y,-z
loop_
_atom_site_type_symbol
_atom_site_label
_atom_site_fract_x
_atom_site_fract_y
_atom_site_fract_z
Si Si1 0.577145 0.180432 0.282413
Si Si2 0.345252 0.388978 0.688548
Si Si3 0.817826 0.041460 0.129403
Si Si4 0.162939 0.371797 0.552947
Si Si5 0.289554 0.085690 0.241111
Si Si6 0.222551 0.358707 0.264121
Si Si7 0.856886 0.250770 0.761498
O O1 0.448790 0.278209 0.234174
O O2 0.637045 0.029812 0.622288
O O3 0.399361 0.255709 0.072463
O O4 0.820698 0.183978 0.083035
O O5 0.286106 0.385682 0.578432
O O6 0.601753 0.388344 0.557674
O O7 0.110594 0.508608 0.590981
O O8 0.550826 0.071954 0.164249
O O9 0.849530 0.945758 0.476549
O O10 0.837261 0.163905 0.873091
O O11 0.000000 0.000000 0.000000
O O12 0.297166 0.370116 0.340504
O O13 0.149879 0.237671 0.906840
O O14 0.090125 0.268097 0.572779
O O15 0.000000 0.500000 0.000000
#
# Coordination Sequence:
#
# PCOD9078488 Si02
#       7
#     2   2   2   2   2   2   2
#     4   9  20  40  65  85 118 167 200 235 306 375
#     4   9  19  40  63  81 122 159 200 247 295 351
#     4  10  18  35  63  91 118 159 203 239 296 369
#     4  11  21  36  63  93 121 156 200 259 302 340
#     4  10  19  37  62  89 122 159 192 252 306 344
#     4  12  23  39  62  88 121 166 204 242 305 365
#     4   9  20  39  61  84 118 161 202 243 289 374
#
# _framework density 21.911797
#
# number of rings (size 3 to 8) (size 9 to 14) (size 15 to 20)
#    0.857    1.143    2.857    1.714    0.000    2.857 
#    0.000    6.429    3.143    0.000    0.000    0.000 
#    0.000    0.000    0.000    0.000    0.000    0.000 
#
# Total GULP energy -78022.814436 kJ/mol
# GULP energy per Si atom -5573.058174 kJ/mol
# Density = 2.186192 g / cm^3
# Si number density = 21.911797 Si / 1000 Ang^3
#
#
#
# Elastic Constant Matrix: (Units=GPa)
#
#
# Indices 1 2 3 4 5 6 
#
# 1 43.2235 8.0846 -4.3113 5.9691 0.3690 8.7822
# 2 8.0846 136.0729 20.1892 18.0010 0.2567 29.2307
# 3 -4.3113 20.1892 50.1477 -7.6863 -4.8522 7.4123
# 4 5.9691 18.0010 -7.6863 37.6859 2.4682 6.0783
# 5 0.3690 0.2567 -4.8522 2.4682 23.7211 7.0852
# 6 8.7822 29.2307 7.4123 6.0783 7.0852 30.9972
#
#
#
# Elastic Compliance Matrix: (Units=1/GPa)
#
#
# Indices 1 2 3 4 5 6 
#
# 1 0.025428 0.000071 0.003334 -0.002237 0.003002 -0.008317
# 2 0.000071 0.010241 -0.003306 -0.004345 0.002215 -0.008541
# 3 0.003334 -0.003306 0.024083 0.006575 0.006099 -0.006269
# 4 -0.002237 -0.004345 0.006575 0.030798 -0.000985 -0.002656
# 5 0.003002 0.002215 0.006099 -0.000985 0.047967 -0.015169
# 6 -0.008317 -0.008541 -0.006269 -0.002656 -0.015169 0.048159
#
#
# Mechanical properties :
#
#
# Convention : Reuss Voigt Hill
#
# Bulk Modulus (GPa) = 16.68025 30.81879 23.74952
# Shear Modulus (GPa) = 24.21783 32.17960 28.19872
#
# Velocity S-wave (km/s) = 3.32812 3.83639 3.59126
# Velocity P-wave (km/s) = 4.73260 5.80683 5.29702
#
# Compressibility (1/GPa) = 0.05995113
#
# Stress axis : x y z
#
# Youngs Moduli (GPa) = 39.32698 97.65078 41.52283
#
# Poissons Ratio (x) = -0.00696 -0.13845
# Poissons Ratio (y) = -0.00280 0.13727
# Poissons Ratio (z) = -0.13113 0.32281
#
# Static dielectric constant tensor:
#      x y z
#    x 1.860490 0.008560 0.049030 
#    y 0.008560 1.815680 0.000310 
#    z 0.049030 0.000310 1.845770 
# 
# From -- ./inp_files/227231.got.cif
#   From: 2010.05.17/outbox.cif.g08.bks.cpg/sg2_114_cif.got.tgz:227231.got - 2010.06.03 11:33:40.
