data_PCOD9078221
_publ_section_title
;
Structure prediction by ZEFSAII (Michael W. Deem and Ramdas Pophale) SiO2 
 PCOD9078221
Probable space group: P -1
;
_chemical_formula_sum "Si O2"
_cell_formula_units_Z 16
_cell_length_a 8.186750
_cell_length_b 16.687662
_cell_length_c 8.368121
_cell_angle_alpha 88.625388
_cell_angle_beta 50.531046
_cell_angle_gamma 57.636234
_cell_volume 651.891683
_symmetry_space_group_name_H-M "P -1"
_symmetry_group_IT_number 2
_symmetry_cell_setting 'triclinic'
loop_
_space_group_symop_operation_xyz
x,y,z
-x,-y,-z
loop_
_atom_site_type_symbol
_atom_site_label
_atom_site_fract_x
_atom_site_fract_y
_atom_site_fract_z
Si Si1 0.074594 0.390200 0.906292
Si Si2 0.273721 0.147489 0.472511
Si Si3 0.151941 0.653537 0.482416
Si Si4 0.170355 0.509373 0.266205
Si Si5 0.704450 0.176090 0.109168
Si Si6 0.201184 0.691319 0.772822
Si Si7 0.732508 0.908866 0.161769
Si Si8 0.605495 0.704972 0.994638
O O1 0.048263 0.398379 0.732617
O O2 0.356090 0.295482 0.839672
O O3 0.000000 0.500000 0.000000
O O4 0.852187 0.378835 0.103905
O O5 0.992844 0.242413 0.543642
O O6 0.490182 0.165583 0.308786
O O7 0.247189 0.143180 0.679577
O O8 0.428679 0.026769 0.319925
O O9 0.888611 0.673324 0.736379
O O10 0.296427 0.550748 0.285141
O O11 0.329426 0.642631 0.521360
O O12 0.372019 0.395067 0.056074
O O13 0.000000 0.500000 0.500000
O O14 0.646305 0.280077 0.216081
O O15 0.655831 0.192981 0.948118
O O16 0.033146 0.081034 0.957216
O O17 0.884023 0.813904 0.942332
#
# Coordination Sequence:
#
# PCOD9078221 Si02
#       8
#     2   2   2   2   2   2   2   2
#     4   9  16  30  53  78 105 145 186 224 271 330
#     4  10  18  35  60  80 104 154 183 229 284 328
#     4   9  17  30  54  75 108 147 184 224 274 326
#     4   9  16  28  51  79 105 142 187 226 267 326
#     4   9  19  35  57  82 118 139 183 235 274 332
#     4   9  19  33  52  80 114 144 181 233 272 324
#     4   9  20  33  59  81 110 143 192 223 282 332
#     4   8  16  31  52  77 103 147 185 219 282 329
#
# _framework density 24.543952999999998
#
# number of rings (size 3 to 8) (size 9 to 14) (size 15 to 20)
#    0.750    2.250    0.000    1.875    0.000    0.500 
#    0.000    3.125   16.500    1.500    0.000    0.000 
#    0.000    0.000    0.000    0.000    0.000    0.000 
#
# Total GULP energy -89300.822901 kJ/mol
# GULP energy per Si atom -5581.301431 kJ/mol
# Density = 2.448809 g / cm^3
# Si number density = 24.543953 Si / 1000 Ang^3
#
#
#
# Elastic Constant Matrix: (Units=GPa)
#
#
# Indices 1 2 3 4 5 6 
#
# 1 74.1863 35.4019 31.8049 -13.5066 21.7480 1.4026
# 2 35.4019 94.5229 33.8134 -7.7313 9.1514 11.2426
# 3 31.8049 33.8134 67.5818 -12.3598 10.4964 3.2831
# 4 -13.5066 -7.7313 -12.3598 43.1622 2.2748 -14.7424
# 5 21.7480 9.1514 10.4964 2.2748 40.9612 -11.0681
# 6 1.4026 11.2426 3.2831 -14.7424 -11.0681 33.2160
#
#
#
# Elastic Compliance Matrix: (Units=1/GPa)
#
#
# Indices 1 2 3 4 5 6 
#
# 1 0.021789 -0.004964 -0.005444 0.005010 -0.009222 0.000449
# 2 -0.004964 0.014809 -0.005094 -0.002208 -0.000738 -0.005525
# 3 -0.005444 -0.005094 0.020724 0.003789 -0.001169 0.001198
# 4 0.005010 -0.002208 0.003789 0.029941 -0.001281 0.013023
# 5 -0.009222 -0.000738 -0.001169 -0.001281 0.032853 0.011133
# 6 0.000449 -0.005525 0.001198 0.013023 0.011133 0.041329
#
#
# Mechanical properties :
#
#
# Convention : Reuss Voigt Hill
#
# Bulk Modulus (GPa) = 37.99679 48.70348 43.35013
# Shear Modulus (GPa) = 24.84810 32.48594 28.66702
#
# Velocity S-wave (km/s) = 3.18526 3.64205 3.42129
# Velocity P-wave (km/s) = 5.38912 6.12964 5.77127
#
# Compressibility (1/GPa) = 0.02631801
#
# Stress axis : x y z
#
# Youngs Moduli (GPa) = 45.89383 67.52664 48.25353
#
# Poissons Ratio (x) = 0.33522 0.26269
# Poissons Ratio (y) = 0.22783 0.24580
# Poissons Ratio (z) = 0.24984 0.34398
#
# Static dielectric constant tensor:
#      x y z
#    x 1.992250 -0.009880 -0.031970 
#    y -0.009880 1.947610 0.009270 
#    z -0.031970 0.009270 2.009850 
# 
# From -- ./inp_files/212743.got.cif
#   From: 2010.05.17/outbox.cif.g08.bks.cpg/sg2_107_cif.got.tgz:212743.got - 2010.06.03 11:33:40.
