data_PCOD9078891
_publ_section_title
;
Structure prediction by ZEFSAII (Michael W. Deem and Ramdas Pophale) SiO2 
 PCOD9078891
Probable space group: P -1
;
_chemical_formula_sum "Si O2"
_cell_formula_units_Z 16
_cell_length_a 17.145138
_cell_length_b 14.975075
_cell_length_c 6.799974
_cell_angle_alpha 53.151656
_cell_angle_beta 109.698000
_cell_angle_gamma 144.238645
_cell_volume 773.600272
_symmetry_space_group_name_H-M "P -1"
_symmetry_group_IT_number 2
_symmetry_cell_setting 'triclinic'
loop_
_space_group_symop_operation_xyz
x,y,z
-x,-y,-z
loop_
_atom_site_type_symbol
_atom_site_label
_atom_site_fract_x
_atom_site_fract_y
_atom_site_fract_z
Si Si1 0.033094 0.893724 0.309521
Si Si2 0.150079 0.320543 0.227120
Si Si3 0.604180 0.378641 0.650446
Si Si4 0.123006 0.751917 0.483024
Si Si5 0.374828 0.779097 0.451923
Si Si6 0.779299 0.706432 0.083002
Si Si7 0.557793 0.901947 0.803324
Si Si8 0.063893 0.449717 0.780911
O O1 0.057872 0.789165 0.479123
O O2 0.966133 0.867326 0.489267
O O3 0.916469 0.792391 0.177807
O O4 0.176292 0.116455 0.094515
O O5 0.265717 0.482789 0.270996
O O6 0.222112 0.332692 0.093444
O O7 0.075809 0.349414 0.041605
O O8 0.597585 0.263080 0.660234
O O9 0.645557 0.522441 0.342546
O O10 0.473553 0.226606 0.890624
O O11 0.073861 0.576029 0.743136
O O12 0.068266 0.694808 0.285837
O O13 0.290924 0.944755 0.372337
O O14 0.440485 0.785872 0.686820
O O15 0.207412 0.607137 0.565580
O O16 0.438560 0.972269 0.255742
#
# Coordination Sequence:
#
# PCOD9078891 Si02
#       8
#     2   2   2   2   2   2   2   2
#     4  10  21  36  56  84 114 152 186 238 288 330
#     4  11  19  35  62  86 109 145 194 239 282 329
#     4  11  19  34  60  86 107 152 196 231 276 332
#     4  10  21  37  55  85 125 146 179 232 290 340
#     4  10  19  37  57  83 117 147 196 231 271 338
#     4  10  20  36  59  83 112 144 201 242 269 329
#     4  10  21  35  57  83 119 154 181 233 281 336
#     4  10  18  36  60  83 117 150 177 236 282 337
#
# _framework density 20.682517000000001
#
# number of rings (size 3 to 8) (size 9 to 14) (size 15 to 20)
#    0.000    1.750    3.750    1.500    0.000    0.500 
#    2.250    0.625    0.000    3.000    0.000    0.000 
#    0.000    0.000    0.000    0.000    0.000    0.000 
#
# Total GULP energy -89205.748828 kJ/mol
# GULP energy per Si atom -5575.359302 kJ/mol
# Density = 2.063544 g / cm^3
# Si number density = 20.682517 Si / 1000 Ang^3
#
#
#
# Elastic Constant Matrix: (Units=GPa)
#
#
# Indices 1 2 3 4 5 6 
#
# 1 22.1872 2.4225 -16.9290 6.9640 -3.1740 -6.4568
# 2 2.4225 56.5291 7.6171 5.2078 -6.2926 -8.7130
# 3 -16.9290 7.6171 75.3319 -0.0743 -17.2410 -5.8172
# 4 6.9640 5.2078 -0.0743 21.7949 -3.3414 -4.1474
# 5 -3.1740 -6.2926 -17.2410 -3.3414 14.3491 2.7027
# 6 -6.4568 -8.7130 -5.8172 -4.1474 2.7027 22.8647
#
#
#
# Elastic Compliance Matrix: (Units=1/GPa)
#
#
# Indices 1 2 3 4 5 6 
#
# 1 0.092347 0.003082 0.035080 -0.016613 0.055039 0.026658
# 2 0.003082 0.019744 0.001262 -0.002989 0.008817 0.007131
# 3 0.035080 0.001262 0.032076 -0.002205 0.043899 0.012959
# 4 -0.016613 -0.002989 -0.002205 0.053063 0.004206 0.002736
# 5 0.055039 0.008817 0.043899 0.004206 0.136694 0.014677
# 6 0.026658 0.007131 0.012959 0.002736 0.014677 0.056039
#
#
# Mechanical properties :
#
#
# Convention : Reuss Voigt Hill
#
# Bulk Modulus (GPa) = 4.48403 15.58546 10.03475
# Shear Modulus (GPa) = 12.97174 22.53093 17.75134
#
# Velocity S-wave (km/s) = 2.50708 3.30414 2.93282
# Velocity P-wave (km/s) = 3.24859 4.70196 4.04115
#
# Compressibility (1/GPa) = 0.22301343
#
# Stress axis : x y z
#
# Youngs Moduli (GPa) = 10.82874 50.64866 31.17596
#
# Poissons Ratio (x) = -0.15609 -1.09365
# Poissons Ratio (y) = -0.03337 -0.03934
# Poissons Ratio (z) = -0.37987 -0.06391
#
# Static dielectric constant tensor:
#      x y z
#    x 1.713150 -0.025090 0.004920 
#    y -0.025090 1.735420 -0.038740 
#    z 0.004920 -0.038740 1.786730 
# 
# From -- ./inp_files/73921.got.cif
#   From: 2010.05.17/outbox.cif.g08.bks.cpg/sg2_37_cif.got.tgz:73921.got - 2010.06.03 11:33:40.
