data_PCOD9078612
_publ_section_title
;
Structure prediction by ZEFSAII (Michael W. Deem and Ramdas Pophale) SiO2 
 PCOD9078612
Probable space group: P -1
;
_chemical_formula_sum "Si O2"
_cell_formula_units_Z 16
_cell_length_a 13.493348
_cell_length_b 10.430356
_cell_length_c 13.801353
_cell_angle_alpha 43.901393
_cell_angle_beta 149.239829
_cell_angle_gamma 143.573245
_cell_volume 587.180092
_symmetry_space_group_name_H-M "P -1"
_symmetry_group_IT_number 2
_symmetry_cell_setting 'triclinic'
loop_
_space_group_symop_operation_xyz
x,y,z
-x,-y,-z
loop_
_atom_site_type_symbol
_atom_site_label
_atom_site_fract_x
_atom_site_fract_y
_atom_site_fract_z
Si Si1 0.303826 0.759097 0.999982
Si Si2 0.940853 0.495372 0.341839
Si Si3 0.516202 0.365013 0.956752
Si Si4 0.872544 0.781112 0.576877
Si Si5 0.371340 0.576806 0.588013
Si Si6 0.903532 0.915730 0.858160
Si Si7 0.234676 0.968383 0.499906
Si Si8 0.700547 0.108076 0.874467
O O1 0.355753 0.624113 0.042081
O O2 0.061094 0.728175 0.794390
O O3 0.315242 0.747799 0.131768
O O4 0.500000 0.000000 0.000000
O O5 0.171715 0.628106 0.402512
O O6 0.000000 0.500000 0.500000
O O7 0.725994 0.513573 0.122877
O O8 0.845070 0.235937 0.383833
O O9 0.378511 0.124435 0.015136
O O10 0.348772 0.439905 0.740813
O O11 0.687315 0.581138 0.466772
O O12 0.784135 0.848569 0.558461
O O13 0.000000 0.000000 0.500000
O O14 0.631763 0.762330 0.713911
O O15 0.913822 0.082388 0.694157
O O16 0.051654 0.816263 0.997776
O O17 0.000000 0.000000 0.000000
O O18 0.501701 0.056700 0.659276
#
# Coordination Sequence:
#
# PCOD9078612 Si02
#       8
#     2   2   2   2   2   2   2   2
#     4  10  18  35  68 103 137 164 218 287 348 421
#     4  11  25  42  70 105 132 176 243 295 343 398
#     4  10  21  41  70 103 131 171 230 298 351 395
#     4  12  19  41  73 109 140 166 228 298 367 403
#     4  12  26  43  70 106 142 182 229 290 347 416
#     4  12  30  47  64  96 146 201 238 269 338 426
#     4  11  24  46  75  98 140 185 226 298 351 409
#     4  10  21  44  67  99 132 182 228 281 353 404
#
# _framework density 27.24888
#
# number of rings (size 3 to 8) (size 9 to 14) (size 15 to 20)
#    0.000    1.000    3.750    4.500    5.250    2.500 
#    0.000    1.250    0.000    0.000    0.000    0.000 
#    0.000    0.000    0.000    0.000    0.000    0.000 
#
# Total GULP energy -89631.284973 kJ/mol
# GULP energy per Si atom -5601.955311 kJ/mol
# Density = 2.718686 g / cm^3
# Si number density = 27.248880 Si / 1000 Ang^3
#
#
#
# Elastic Constant Matrix: (Units=GPa)
#
#
# Indices 1 2 3 4 5 6 
#
# 1 103.5293 20.1704 22.6282 17.0097 2.8913 3.0501
# 2 20.1704 59.6612 14.3670 23.9436 0.0640 19.3662
# 3 22.6282 14.3670 174.4088 24.5388 -6.3017 5.5973
# 4 17.0097 23.9436 24.5388 52.2834 -0.7908 2.5297
# 5 2.8913 0.0640 -6.3017 -0.7908 52.7523 12.5978
# 6 3.0501 19.3662 5.5973 2.5297 12.5978 33.2366
#
#
#
# Elastic Compliance Matrix: (Units=1/GPa)
#
#
# Indices 1 2 3 4 5 6 
#
# 1 0.010765 -0.003275 -0.000990 -0.001634 -0.001119 0.001636
# 2 -0.003275 0.027454 0.000356 -0.010820 0.003950 -0.016430
# 3 -0.000990 0.000356 0.006299 -0.002713 0.001097 -0.001386
# 4 -0.001634 -0.010820 -0.002713 0.025609 -0.001124 0.005388
# 5 -0.001119 0.003950 0.001097 -0.001124 0.021634 -0.010498
# 6 0.001636 -0.016430 -0.001386 0.005388 -0.010498 0.043313
#
#
# Mechanical properties :
#
#
# Convention : Reuss Voigt Hill
#
# Bulk Modulus (GPa) = 27.24882 50.21451 38.73166
# Shear Modulus (GPa) = 32.23185 46.35002 39.29094
#
# Velocity S-wave (km/s) = 3.44302 4.12878 3.80139
# Velocity P-wave (km/s) = 5.08208 6.41850 5.78898
#
# Compressibility (1/GPa) = 0.03669884
#
# Stress axis : x y z
#
# Youngs Moduli (GPa) = 92.89291 36.42443 158.76354
#
# Poissons Ratio (x) = 0.11930 0.15717
# Poissons Ratio (y) = 0.30424 -0.05647
# Poissons Ratio (z) = 0.09196 -0.01296
#
# Static dielectric constant tensor:
#      x y z
#    x 2.129720 0.034520 -0.039410 
#    y 0.034520 2.621340 -0.005940 
#    z -0.039410 -0.005940 2.075620 
# 
# From -- ./inp_files/516267.got.cif
#   From: 2010.05.17/outbox.cif.g08.bks.cpg/sg2_259_cif.got.tgz:516267.got - 2010.06.03 11:33:40.
