data_PCOD9078056
_publ_section_title
;
Structure prediction by ZEFSAII (Michael W. Deem and Ramdas Pophale) SiO2 
 PCOD9078056
Probable space group: P -1
;
_chemical_formula_sum "Si O2"
_cell_formula_units_Z 16
_cell_length_a 18.572827
_cell_length_b 9.777201
_cell_length_c 15.508803
_cell_angle_alpha 125.861743
_cell_angle_beta 23.715336
_cell_angle_gamma 107.907089
_cell_volume 653.555290
_symmetry_space_group_name_H-M "P -1"
_symmetry_group_IT_number 2
_symmetry_cell_setting 'triclinic'
loop_
_space_group_symop_operation_xyz
x,y,z
-x,-y,-z
loop_
_atom_site_type_symbol
_atom_site_label
_atom_site_fract_x
_atom_site_fract_y
_atom_site_fract_z
Si Si1 0.559659 0.414077 0.043096
Si Si2 0.000588 0.763613 0.809009
Si Si3 0.540680 0.729605 0.064203
Si Si4 0.246812 0.059820 0.031957
Si Si5 0.976127 0.782905 0.152797
Si Si6 0.589709 0.273983 0.405842
Si Si7 0.903879 0.522030 0.251093
Si Si8 0.656145 0.261210 0.059709
O O1 0.655925 0.506617 0.915315
O O2 0.725289 0.246494 0.879616
O O3 0.282667 0.641541 0.469830
O O4 0.493029 0.308933 0.010750
O O5 0.981812 0.609579 0.831449
O O6 0.953483 0.767910 0.760100
O O7 0.779873 0.043847 0.174774
O O8 0.671674 0.821742 0.969204
O O9 0.256286 0.938969 0.486763
O O10 0.469297 0.824883 0.641071
O O11 0.177158 0.964894 0.143783
O O12 0.946183 0.681870 0.230447
O O13 0.232777 0.714518 0.837151
O O14 0.972304 0.676731 0.030979
O O15 0.404100 0.515148 0.750982
O O16 0.607564 0.671262 0.629449
#
# Coordination Sequence:
#
# PCOD9078056 Si02
#       8
#     2   2   2   2   2   2   2   2
#     4  10  23  38  60  80 106 150 195 228 261 324
#     4   9  20  38  54  84 110 149 180 222 285 327
#     4  11  21  38  58  81 113 144 191 230 269 319
#     4  10  21  37  55  85 116 144 178 226 289 326
#     4  10  18  35  58  81 112 146 185 229 269 326
#     4   9  20  35  59  80 118 143 174 224 289 331
#     4   9  19  33  59  85 107 145 190 225 269 330
#     4  10  19  37  59  87 108 144 189 226 271 333
#
# _framework density 24.481482
#
# number of rings (size 3 to 8) (size 9 to 14) (size 15 to 20)
#    0.750    1.500    2.500    0.375    1.750    2.500 
#    2.250    1.250    0.000    2.250    0.000    0.000 
#    0.000    0.000    0.000    0.000    0.000    0.000 
#
# Total GULP energy -89382.739250 kJ/mol
# GULP energy per Si atom -5586.421203 kJ/mol
# Density = 2.442576 g / cm^3
# Si number density = 24.481482 Si / 1000 Ang^3
#
#
#
# Elastic Constant Matrix: (Units=GPa)
#
#
# Indices 1 2 3 4 5 6 
#
# 1 81.4027 54.1623 19.6096 14.5318 9.2476 -34.5014
# 2 54.1623 142.0475 15.0839 14.5035 15.2410 -37.6595
# 3 19.6096 15.0839 54.0985 6.3946 -1.6183 -8.4534
# 4 14.5318 14.5035 6.3946 28.4179 -2.4113 2.7231
# 5 9.2476 15.2410 -1.6183 -2.4113 24.1762 1.6575
# 6 -34.5014 -37.6595 -8.4534 2.7231 1.6575 60.3886
#
#
#
# Elastic Compliance Matrix: (Units=1/GPa)
#
#
# Indices 1 2 3 4 5 6 
#
# 1 0.023513 -0.003306 -0.004768 -0.011136 -0.009125 0.011458
# 2 -0.003306 0.010952 -0.000663 -0.004806 -0.006523 0.005244
# 3 -0.004768 -0.000663 0.020642 -0.001546 0.003488 -0.000274
# 4 -0.011136 -0.004806 -0.001546 0.045901 0.012586 -0.011991
# 5 -0.009125 -0.006523 0.003488 0.012586 0.051192 -0.010766
# 6 0.011458 0.005244 -0.000274 -0.011991 -0.010766 0.027173
#
#
# Mechanical properties :
#
#
# Convention : Reuss Voigt Hill
#
# Bulk Modulus (GPa) = 26.57140 50.58449 38.57794
# Shear Modulus (GPa) = 23.87873 35.17607 29.52740
#
# Velocity S-wave (km/s) = 3.12649 3.79468 3.47668
# Velocity P-wave (km/s) = 4.88984 6.31718 5.64877
#
# Compressibility (1/GPa) = 0.03763445
#
# Stress axis : x y z
#
# Youngs Moduli (GPa) = 42.52923 91.31159 48.44448
#
# Poissons Ratio (x) = 0.30183 0.23097
# Poissons Ratio (y) = 0.14058 0.03212
# Poissons Ratio (z) = 0.20277 0.06054
#
# Static dielectric constant tensor:
#      x y z
#    x 1.966980 -0.022850 -0.042750 
#    y -0.022850 1.939220 0.015280 
#    z -0.042750 0.015280 2.015600 
# 
# From -- ./inp_files/540285.got.cif
#   From: 2010.05.17/outbox.cif.g08.bks.cpg/sg2_271_cif.got.tgz:540285.got - 2010.06.03 11:33:40.
