data_PCOD9078227
_publ_section_title
;
Structure prediction by ZEFSAII (Michael W. Deem and Ramdas Pophale) SiO2 
 PCOD9078227
Probable space group: P -1
;
_chemical_formula_sum "Si O2"
_cell_formula_units_Z 16
_cell_length_a 9.103163
_cell_length_b 8.298004
_cell_length_c 18.272491
_cell_angle_alpha 109.613591
_cell_angle_beta 122.417094
_cell_angle_gamma 107.456003
_cell_volume 875.136851
_symmetry_space_group_name_H-M "P -1"
_symmetry_group_IT_number 2
_symmetry_cell_setting 'triclinic'
loop_
_space_group_symop_operation_xyz
x,y,z
-x,-y,-z
loop_
_atom_site_type_symbol
_atom_site_label
_atom_site_fract_x
_atom_site_fract_y
_atom_site_fract_z
Si Si1 0.506643 0.610796 0.786343
Si Si2 0.219536 0.524024 0.565221
Si Si3 0.647781 0.974135 0.984036
Si Si4 0.597770 0.675713 0.488345
Si Si5 0.372300 0.050917 0.340442
Si Si6 0.936350 0.990086 0.869924
Si Si7 0.359496 0.639091 0.273499
Si Si8 0.966141 0.332164 0.024504
O O1 0.303862 0.550135 0.674201
O O2 0.510177 0.406379 0.755950
O O3 0.726156 0.787543 0.824936
O O4 0.523181 0.735149 0.881617
O O5 0.214952 0.331355 0.498733
O O6 0.000000 0.500000 0.500000
O O7 0.412022 0.738506 0.606477
O O8 0.729468 0.142774 0.964174
O O9 0.868573 0.029397 0.088433
O O10 0.500000 0.000000 0.000000
O O11 0.500000 0.500000 0.500000
O O12 0.426181 0.609438 0.367009
O O13 0.656817 0.886293 0.576968
O O14 0.165755 0.988678 0.226933
O O15 0.402004 0.865598 0.318048
O O16 0.028990 0.195360 0.977958
O O17 0.113245 0.468744 0.153908
O O18 0.000000 0.500000 0.000000
#
# Coordination Sequence:
#
# PCOD9078227 Si02
#       8
#     2   2   2   2   2   2   2   2
#     4   9  18  35  56  79 106 157 198 225 274 355
#     4   9  19  36  56  78 107 151 192 229 279 345
#     4  11  22  36  57  90 121 148 194 246 290 337
#     4   9  20  35  54  81 110 145 188 236 278 334
#     4  10  20  33  59  86 110 145 190 242 288 332
#     4  10  18  35  60  81 112 157 199 224 275 367
#     4  11  18  34  62  82 111 146 202 234 276 344
#     4  11  20  36  63  87 112 157 199 230 284 353
#
# _framework density 18.282855999999999
#
# number of rings (size 3 to 8) (size 9 to 14) (size 15 to 20)
#    0.000    2.000    3.750    1.875    0.000    1.000 
#    2.250    3.125    2.750    0.000    0.000    0.000 
#    0.000    0.000    0.000    0.000    0.000    0.000 
#
# Total GULP energy -89081.330353 kJ/mol
# GULP energy per Si atom -5567.583147 kJ/mol
# Density = 1.824124 g / cm^3
# Si number density = 18.282856 Si / 1000 Ang^3
#
#
#
# Elastic Constant Matrix: (Units=GPa)
#
#
# Indices 1 2 3 4 5 6 
#
# 1 114.7759 39.5899 51.4303 -3.9185 -6.3296 -35.5579
# 2 39.5899 99.9078 33.5119 1.4035 -8.1400 -27.8626
# 3 51.4303 33.5119 106.8344 -6.8307 -15.7875 -24.6637
# 4 -3.9185 1.4035 -6.8307 31.1879 -9.9229 -6.2662
# 5 -6.3296 -8.1400 -15.7875 -9.9229 30.9459 0.4840
# 6 -35.5579 -27.8626 -24.6637 -6.2662 0.4840 29.5980
#
#
#
# Elastic Compliance Matrix: (Units=1/GPa)
#
#
# Indices 1 2 3 4 5 6 
#
# 1 0.015934 -0.000211 -0.002466 0.006291 0.003679 0.018161
# 2 -0.000211 0.014307 -0.000406 0.003348 0.004375 0.013514
# 3 -0.002466 -0.000406 0.015121 0.008246 0.009578 0.010844
# 4 0.006291 0.003348 0.008246 0.046603 0.020894 0.027105
# 5 0.003679 0.004375 0.009578 0.020894 0.045488 0.020199
# 6 0.018161 0.013514 0.010844 0.027105 0.020199 0.082771
#
#
# Mechanical properties :
#
#
# Convention : Reuss Voigt Hill
#
# Bulk Modulus (GPa) = 25.51244 63.39803 44.45524
# Shear Modulus (GPa) = 20.88072 31.47876 26.17974
#
# Velocity S-wave (km/s) = 3.38315 4.15392 3.78819
# Velocity P-wave (km/s) = 5.40792 7.59988 6.59559
#
# Compressibility (1/GPa) = 0.03919656
#
# Stress axis : x y z
#
# Youngs Moduli (GPa) = 62.75712 69.89468 66.13337
#
# Poissons Ratio (x) = 0.01474 0.16310
# Poissons Ratio (y) = 0.01323 0.02684
# Poissons Ratio (z) = 0.15478 0.02837
#
# Static dielectric constant tensor:
#      x y z
#    x 1.614140 -0.020490 -0.019450 
#    y -0.020490 1.684780 0.002530 
#    z -0.019450 0.002530 1.674150 
# 
# From -- ./inp_files/586835.got.cif
#   From: 2010.05.17/outbox.cif.g08.bks.cpg/sg2_294_cif.got.tgz:586835.got - 2010.06.03 11:33:40.
