data_PCOD9078836
_publ_section_title
;
Structure prediction by ZEFSAII (Michael W. Deem and Ramdas Pophale) SiO2 
 PCOD9078836
Probable space group: P -1
;
_chemical_formula_sum "Si O2"
_cell_formula_units_Z 16
_cell_length_a 12.262833
_cell_length_b 10.720750
_cell_length_c 12.281583
_cell_angle_alpha 106.695007
_cell_angle_beta 34.968634
_cell_angle_gamma 122.673707
_cell_volume 737.588419
_symmetry_space_group_name_H-M "P -1"
_symmetry_group_IT_number 2
_symmetry_cell_setting 'triclinic'
loop_
_space_group_symop_operation_xyz
x,y,z
-x,-y,-z
loop_
_atom_site_type_symbol
_atom_site_label
_atom_site_fract_x
_atom_site_fract_y
_atom_site_fract_z
Si Si1 0.903065 0.476283 0.933824
Si Si2 0.114724 0.356817 0.601736
Si Si3 0.132617 0.071786 0.734349
Si Si4 0.066028 0.222401 0.036252
Si Si5 0.867503 0.018336 0.711618
Si Si6 0.494369 0.634221 0.603642
Si Si7 0.579190 0.438427 0.771830
Si Si8 0.463306 0.680712 0.994663
O O1 0.012477 0.659866 0.885679
O O2 0.733523 0.410168 0.158468
O O3 0.750870 0.407410 0.931666
O O4 0.067127 0.416960 0.766532
O O5 0.321315 0.332452 0.444581
O O6 0.214752 0.492726 0.464957
O O7 0.899241 0.184484 0.708263
O O8 0.061723 0.146638 0.905576
O O9 0.389097 0.209142 0.524279
O O10 0.980898 0.030171 0.739589
O O11 0.083892 0.913999 0.788508
O O12 0.331484 0.327276 0.887920
O O13 0.618831 0.861498 0.881886
O O14 0.000000 0.000000 0.500000
O O15 0.500000 0.500000 0.500000
O O16 0.593925 0.592234 0.844677
O O17 0.595878 0.347424 0.836506
#
# Coordination Sequence:
#
# PCOD9078836 Si02
#       8
#     2   2   2   2   2   2   2   2
#     4  11  23  39  60  92 122 156 201 249 300 363
#     4  11  23  37  61  92 120 160 197 246 308 354
#     4  10  20  34  65  89 112 162 201 244 304 349
#     4  10  19  38  61  88 119 153 206 249 293 360
#     4  11  20  36  58  89 121 158 201 246 300 360
#     4  11  20  41  62  86 119 158 198 246 301 359
#     4  10  18  36  59  85 117 159 200 245 292 354
#     4  10  19  35  58  82 118 160 200 242 295 348
#
# _framework density 21.692315000000001
#
# number of rings (size 3 to 8) (size 9 to 14) (size 15 to 20)
#    0.000    1.500    6.250    0.750    0.000    1.500 
#    0.000    1.250    0.000    2.250    0.000    0.000 
#    0.000    0.000    0.000    0.000    0.000    0.000 
#
# Total GULP energy -89343.022710 kJ/mol
# GULP energy per Si atom -5583.938919 kJ/mol
# Density = 2.164294 g / cm^3
# Si number density = 21.692315 Si / 1000 Ang^3
#
#
#
# Elastic Constant Matrix: (Units=GPa)
#
#
# Indices 1 2 3 4 5 6 
#
# 1 63.3166 14.3016 25.6816 -1.0856 18.3887 10.0734
# 2 14.3016 136.8553 58.0162 -18.4134 5.8629 -9.5426
# 3 25.6816 58.0162 138.7423 -14.3478 16.3555 -14.5111
# 4 -1.0856 -18.4134 -14.3478 39.9945 -3.3057 13.1674
# 5 18.3887 5.8629 16.3555 -3.3057 30.6795 3.0899
# 6 10.0734 -9.5426 -14.5111 13.1674 3.0899 26.3553
#
#
#
# Elastic Compliance Matrix: (Units=1/GPa)
#
#
# Indices 1 2 3 4 5 6 
#
# 1 0.021919 -0.000932 -0.003403 0.001464 -0.009965 -0.010152
# 2 -0.000932 0.009256 -0.003481 0.003008 0.000952 0.000177
# 3 -0.003403 -0.003481 0.010326 -0.000355 -0.003474 0.006311
# 4 0.001464 0.003008 -0.000355 0.031897 0.003790 -0.016046
# 5 -0.009965 0.000952 -0.003474 0.003790 0.041097 -0.004471
# 6 -0.010152 0.000177 0.006311 -0.016046 -0.004471 0.053903
#
#
# Mechanical properties :
#
#
# Convention : Reuss Voigt Hill
#
# Bulk Modulus (GPa) = 38.65592 59.43478 49.04535
# Shear Modulus (GPa) = 25.95356 35.46686 30.71021
#
# Velocity S-wave (km/s) = 3.46271 4.04790 3.76669
# Velocity P-wave (km/s) = 5.81773 7.02181 6.44793
#
# Compressibility (1/GPa) = 0.02586926
#
# Stress axis : x y z
#
# Youngs Moduli (GPa) = 45.62274 108.03585 96.84488
#
# Poissons Ratio (x) = 0.10068 0.32959
# Poissons Ratio (y) = 0.04251 0.33709
# Poissons Ratio (z) = 0.15527 0.37604
#
# Static dielectric constant tensor:
#      x y z
#    x 1.855600 0.020890 -0.021900 
#    y 0.020890 1.819670 -0.017540 
#    z -0.021900 -0.017540 1.822650 
# 
# From -- ./inp_files/397302.got.cif
#   From: 2010.05.17/outbox.cif.g08.bks.cpg/sg2_199_cif.got.tgz:397302.got - 2010.06.03 11:33:40.
