data_PCOD9078766
_publ_section_title
;
Structure prediction by ZEFSAII (Michael W. Deem and Ramdas Pophale) SiO2 
 PCOD9078766
Probable space group: P -1
;
_chemical_formula_sum "Si O2"
_cell_formula_units_Z 14
_cell_length_a 21.422543
_cell_length_b 17.295498
_cell_length_c 11.848954
_cell_angle_alpha 142.755277
_cell_angle_beta 150.510421
_cell_angle_gamma 19.446927
_cell_volume 711.279094
_symmetry_space_group_name_H-M "P -1"
_symmetry_group_IT_number 2
_symmetry_cell_setting 'triclinic'
loop_
_space_group_symop_operation_xyz
x,y,z
-x,-y,-z
loop_
_atom_site_type_symbol
_atom_site_label
_atom_site_fract_x
_atom_site_fract_y
_atom_site_fract_z
Si Si1 0.109682 0.471226 0.748050
Si Si2 0.644264 0.001620 0.685476
Si Si3 0.083307 0.419129 0.891708
Si Si4 0.115298 0.124402 0.883926
Si Si5 0.551236 0.266531 0.214421
Si Si6 0.408776 0.484612 0.481523
Si Si7 0.346106 0.326490 0.379606
O O1 0.134178 0.365201 0.776796
O O2 0.000000 0.500000 0.500000
O O3 0.911899 0.741313 0.780204
O O4 0.353706 0.331655 0.948424
O O5 0.500000 0.000000 0.500000
O O6 0.527021 0.143846 0.550562
O O7 0.678626 0.066482 0.921381
O O8 0.903903 0.465782 0.708218
O O9 0.303645 0.256705 0.131786
O O10 0.943780 0.673680 0.981504
O O11 0.868253 0.272062 0.700293
O O12 0.210129 0.986905 0.757167
O O13 0.533301 0.304937 0.365614
O O14 0.499110 0.449915 0.292969
O O15 0.411527 0.398990 0.499747
#
# Coordination Sequence:
#
# PCOD9078766 Si02
#       7
#     2   2   2   2   2   2   2
#     4  11  21  36  59  91 116 149 198 241 287 350
#     4  11  19  35  58  84 115 156 188 238 299 340
#     4   9  19  36  58  84 118 150 192 242 292 338
#     4  10  19  37  61  87 110 154 198 234 290 345
#     4  11  21  38  65  84 115 156 198 235 285 349
#     4  10  22  41  60  84 118 156 196 236 284 352
#     4  10  18  36  58  82 117 157 187 240 295 336
#
# _framework density 19.682850999999999
#
# number of rings (size 3 to 8) (size 9 to 14) (size 15 to 20)
#    0.000    1.714    7.143    1.286    0.000    0.000 
#    0.000    7.143    0.000    0.000    0.000    0.000 
#    0.000    0.000    0.000    0.000    0.000    0.000 
#
# Total GULP energy -77994.500147 kJ/mol
# GULP energy per Si atom -5571.035725 kJ/mol
# Density = 1.963805 g / cm^3
# Si number density = 19.682851 Si / 1000 Ang^3
#
#
#
# Elastic Constant Matrix: (Units=GPa)
#
#
# Indices 1 2 3 4 5 6 
#
# 1 156.6525 14.9188 44.8018 2.7471 -15.0654 6.2671
# 2 14.9188 40.4984 0.9088 3.9682 -13.8031 -16.1881
# 3 44.8018 0.9088 43.8739 -0.3031 -24.6496 2.9569
# 4 2.7471 3.9682 -0.3031 24.4804 7.3642 -7.5578
# 5 -15.0654 -13.8031 -24.6496 7.3642 34.7240 -4.4290
# 6 6.2671 -16.1881 2.9569 -7.5578 -4.4290 35.8423
#
#
#
# Elastic Compliance Matrix: (Units=1/GPa)
#
#
# Indices 1 2 3 4 5 6 
#
# 1 0.012263 -0.012913 -0.020819 0.002975 -0.016196 -0.007633
# 2 -0.012913 0.060065 0.039906 -0.014752 0.053505 0.029595
# 3 -0.020819 0.039906 0.081874 -0.018472 0.071398 0.019837
# 4 0.002975 -0.014752 -0.018472 0.051772 -0.028444 0.001743
# 5 -0.016196 0.053505 0.071398 -0.028444 0.103312 0.027876
# 6 -0.007633 0.029595 0.019837 0.001743 0.027876 0.044777
#
#
# Mechanical properties :
#
#
# Convention : Reuss Voigt Hill
#
# Bulk Modulus (GPa) = 6.00419 40.25372 23.12895
# Shear Modulus (GPa) = 12.58710 31.03572 21.81141
#
# Velocity S-wave (km/s) = 2.53157 3.97519 3.33249
# Velocity P-wave (km/s) = 3.40620 6.44710 5.15593
#
# Compressibility (1/GPa) = 0.16655031
#
# Stress axis : x y z
#
# Youngs Moduli (GPa) = 81.54520 16.64860 12.21383
#
# Poissons Ratio (x) = 0.21498 0.25428
# Poissons Ratio (y) = 1.05298 -0.48740
# Poissons Ratio (z) = 1.69771 -0.66438
#
# Static dielectric constant tensor:
#      x y z
#    x 1.820440 -0.037300 -0.125060 
#    y -0.037300 1.749040 0.068050 
#    z -0.125060 0.068050 1.884600 
# 
# From -- ./inp_files/472426.got.cif
#   From: 2010.05.17/outbox.cif.g08.bks.cpg/sg2_237_cif.got.tgz:472426.got - 2010.06.03 11:33:40.
