data_PCOD9078189
_publ_section_title
;
Structure prediction by ZEFSAII (Michael W. Deem and Ramdas Pophale) SiO2 
 PCOD9078189
Probable space group: P -1
;
_chemical_formula_sum "Si O2"
_cell_formula_units_Z 16
_cell_length_a 13.753083
_cell_length_b 11.850675
_cell_length_c 14.452062
_cell_angle_alpha 141.469319
_cell_angle_beta 30.980896
_cell_angle_gamma 126.697008
_cell_volume 735.405378
_symmetry_space_group_name_H-M "P -1"
_symmetry_group_IT_number 2
_symmetry_cell_setting 'triclinic'
loop_
_space_group_symop_operation_xyz
x,y,z
-x,-y,-z
loop_
_atom_site_type_symbol
_atom_site_label
_atom_site_fract_x
_atom_site_fract_y
_atom_site_fract_z
Si Si1 0.232975 0.718150 0.632162
Si Si2 0.464131 0.827363 0.361726
Si Si3 0.971960 0.554158 0.450550
Si Si4 0.362673 0.564742 0.064399
Si Si5 0.775208 0.561519 0.255341
Si Si6 0.559558 0.834136 0.958726
Si Si7 0.526684 0.075487 0.311508
Si Si8 0.460823 0.361752 0.321788
O O1 0.275652 0.783275 0.535942
O O2 0.048268 0.628770 0.709872
O O3 0.283773 0.870130 0.760349
O O4 0.388494 0.536376 0.423676
O O5 0.618613 0.634922 0.128166
O O6 0.500000 0.000000 0.500000
O O7 0.474488 0.903803 0.299453
O O8 0.779023 0.714094 0.704765
O O9 0.000000 0.500000 0.500000
O O10 0.147896 0.631836 0.318848
O O11 0.432234 0.711581 0.038553
O O12 0.500000 0.500000 0.000000
O O13 0.655436 0.747239 0.420144
O O14 0.656411 0.400257 0.231700
O O15 0.716632 0.615033 0.444899
O O16 0.000000 0.500000 0.000000
O O17 0.500148 0.817604 0.889959
O O18 0.552616 0.013829 0.143904
#
# Coordination Sequence:
#
# PCOD9078189 Si02
#       8
#     2   2   2   2   2   2   2   2
#     4   9  19  38  59  90 127 160 210 247 306 369
#     4  10  18  35  59  87 128 164 198 248 305 359
#     4  11  20  34  60  87 122 175 216 239 299 381
#     4  12  20  36  59  83 131 175 198 245 305 366
#     4  10  22  43  69  88 116 161 214 261 317 375
#     4  11  22  39  61  92 130 165 209 253 310 378
#     4  10  21  38  64  92 128 168 203 264 316 357
#     4   9  20  40  65  89 119 161 205 260 311 366
#
# _framework density 21.756708
#
# number of rings (size 3 to 8) (size 9 to 14) (size 15 to 20)
#    0.000    1.750    5.000    0.000    0.000    2.500 
#    0.000   11.250    5.500    0.000    0.000    0.000 
#    0.000    0.000    0.000    0.000    0.000    0.000 
#
# Total GULP energy -89068.622456 kJ/mol
# GULP energy per Si atom -5566.788904 kJ/mol
# Density = 2.170719 g / cm^3
# Si number density = 21.756708 Si / 1000 Ang^3
#
#
#
# Elastic Constant Matrix: (Units=GPa)
#
#
# Indices 1 2 3 4 5 6 
#
# 1 93.2112 23.4072 38.1429 -12.3048 33.3958 12.6668
# 2 23.4072 90.7911 46.3808 -11.1642 6.2263 12.4270
# 3 38.1429 46.3808 112.9055 -22.7091 13.2459 25.7949
# 4 -12.3048 -11.1642 -22.7091 46.8347 7.9993 1.8768
# 5 33.3958 6.2263 13.2459 7.9993 39.6649 -2.9716
# 6 12.6668 12.4270 25.7949 1.8768 -2.9716 31.4417
#
#
#
# Elastic Compliance Matrix: (Units=1/GPa)
#
#
# Indices 1 2 3 4 5 6 
#
# 1 0.020749 -0.001532 0.000072 0.008915 -0.019816 -0.010218
# 2 -0.001532 0.014127 -0.005111 0.000407 0.000642 -0.000737
# 3 0.000072 -0.005111 0.016417 0.008536 -0.007413 -0.012688
# 4 0.008915 0.000407 0.008536 0.031554 -0.017857 -0.014326
# 5 -0.019816 0.000642 -0.007413 -0.017857 0.049335 0.019540
# 6 -0.010218 -0.000737 -0.012688 -0.014326 0.019540 0.049324
#
#
# Mechanical properties :
#
#
# Convention : Reuss Voigt Hill
#
# Bulk Modulus (GPa) = 26.21154 56.97441 41.59298
# Shear Modulus (GPa) = 24.11208 36.18671 30.14940
#
# Velocity S-wave (km/s) = 3.33266 4.08271 3.72661
# Velocity P-wave (km/s) = 5.18484 6.96194 6.13805
#
# Compressibility (1/GPa) = 0.03815114
#
# Stress axis : x y z
#
# Youngs Moduli (GPa) = 48.19554 70.78607 60.91147
#
# Poissons Ratio (x) = 0.10848 -0.00440
# Poissons Ratio (y) = 0.07386 0.31131
# Poissons Ratio (z) = -0.00348 0.36177
#
# Static dielectric constant tensor:
#      x y z
#    x 1.909640 0.021250 0.093900 
#    y 0.021250 1.863240 0.033820 
#    z 0.093900 0.033820 1.815040 
# 
# From -- ./inp_files/532003.got.cif
#   From: 2010.05.17/outbox.cif.g08.bks.cpg/sg2_267_cif.got.tgz:532003.got - 2010.06.03 11:33:40.
