data_PCOD9078912
_publ_section_title
;
Structure prediction by ZEFSAII (Michael W. Deem and Ramdas Pophale) SiO2 
 PCOD9078912
Probable space group: P -1
;
_chemical_formula_sum "Si O2"
_cell_formula_units_Z 16
_cell_length_a 19.972260
_cell_length_b 9.882679
_cell_length_c 11.436461
_cell_angle_alpha 52.062209
_cell_angle_beta 124.282728
_cell_angle_gamma 153.584903
_cell_volume 791.489276
_symmetry_space_group_name_H-M "P -1"
_symmetry_group_IT_number 2
_symmetry_cell_setting 'triclinic'
loop_
_space_group_symop_operation_xyz
x,y,z
-x,-y,-z
loop_
_atom_site_type_symbol
_atom_site_label
_atom_site_fract_x
_atom_site_fract_y
_atom_site_fract_z
Si Si1 0.162361 0.783025 0.070715
Si Si2 0.389186 0.342900 0.808825
Si Si3 0.089774 0.113550 0.144770
Si Si4 0.885873 0.680143 0.391198
Si Si5 0.700441 0.705551 0.901706
Si Si6 0.141276 0.076621 0.579688
Si Si7 0.593729 0.277614 0.231606
Si Si8 0.255822 0.581684 0.254721
O O1 0.198852 0.656900 0.213469
O O2 0.182137 0.957700 0.098445
O O3 0.000000 0.500000 0.000000
O O4 0.296681 0.071781 0.959071
O O5 0.541594 0.519491 0.830607
O O6 0.266358 0.159603 0.685392
O O7 0.427310 0.596025 0.769801
O O8 0.223295 0.225954 0.176787
O O9 0.171728 0.411620 0.138283
O O10 0.971706 0.831202 0.272616
O O11 0.000000 0.000000 0.000000
O O12 0.893999 0.883317 0.355549
O O13 0.709237 0.351270 0.367195
O O14 0.986718 0.744836 0.541960
O O15 0.668377 0.492731 0.074474
O O16 0.212239 0.344722 0.419861
O O17 0.434280 0.911231 0.242164
#
# Coordination Sequence:
#
# PCOD9078912 Si02
#       8
#     2   2   2   2   2   2   2   2
#     4  11  22  35  60  90 120 147 210 253 289 339
#     4  10  20  38  57  87 124 161 189 244 309 351
#     4  11  22  37  60  87 122 160 199 240 302 357
#     4   9  19  36  56  84 114 157 198 236 291 350
#     4  11  20  39  57  86 125 163 182 248 314 350
#     4   9  21  36  62  86 119 160 201 241 292 357
#     4  10  18  36  60  87 118 149 200 252 289 341
#     4  11  22  38  58  98 113 151 212 247 285 352
#
# _framework density 20.215053999999999
#
# number of rings (size 3 to 8) (size 9 to 14) (size 15 to 20)
#    0.000    1.750    3.750    1.500   10.500    2.500 
#    0.000    2.500    0.000    0.750    3.250    0.000 
#    0.000    0.000    0.000    0.000    0.000    0.000 
#
# Total GULP energy -89296.107181 kJ/mol
# GULP energy per Si atom -5581.006699 kJ/mol
# Density = 2.016904 g / cm^3
# Si number density = 20.215054 Si / 1000 Ang^3
#
#
#
# Elastic Constant Matrix: (Units=GPa)
#
#
# Indices 1 2 3 4 5 6 
#
# 1 79.1017 23.6285 19.1337 0.1475 -15.5126 23.4636
# 2 23.6285 106.2887 24.5394 16.1325 1.5118 14.9415
# 3 19.1337 24.5394 73.5223 19.6970 -1.4984 1.2560
# 4 0.1475 16.1325 19.6970 30.7262 6.2425 13.0575
# 5 -15.5126 1.5118 -1.4984 6.2425 27.9565 7.2085
# 6 23.4636 14.9415 1.2560 13.0575 7.2085 26.3020
#
#
#
# Elastic Compliance Matrix: (Units=1/GPa)
#
#
# Indices 1 2 3 4 5 6 
#
# 1 0.038545 -0.002067 -0.015331 0.027970 0.028394 -0.054147
# 2 -0.002067 0.011282 -0.002350 -0.003136 -0.000469 -0.002768
# 3 -0.015331 -0.002350 0.024284 -0.024550 -0.008943 0.028490
# 4 0.027970 -0.003136 -0.024550 0.073414 0.014043 -0.062293
# 5 0.028394 -0.000469 -0.008943 0.014043 0.060351 -0.048149
# 6 -0.054147 -0.002768 0.028490 -0.062293 -0.048149 0.130656
#
#
# Mechanical properties :
#
#
# Convention : Reuss Voigt Hill
#
# Bulk Modulus (GPa) = 28.88855 43.72399 36.30627
# Shear Modulus (GPa) = 12.83479 29.77101 21.30290
#
# Velocity S-wave (km/s) = 2.52248 3.84176 3.24977
# Velocity P-wave (km/s) = 4.77551 6.43080 5.66395
#
# Compressibility (1/GPa) = 0.03461578
#
# Stress axis : x y z
#
# Youngs Moduli (GPa) = 25.94347 88.63665 41.18020
#
# Poissons Ratio (x) = 0.18319 0.63133
# Poissons Ratio (y) = 0.05362 0.09677
# Poissons Ratio (z) = 0.39774 0.20829
#
# Static dielectric constant tensor:
#      x y z
#    x 1.704910 0.016960 0.012200 
#    y 0.016960 1.748890 0.020250 
#    z 0.012200 0.020250 1.752690 
# 
# From -- ./inp_files/260363.got.cif
#   From: 2010.05.17/outbox.cif.g08.bks.cpg/sg2_131_cif.got.tgz:260363.got - 2010.06.03 11:33:40.
