data_PCOD9078936
_publ_section_title
;
Structure prediction by ZEFSAII (Michael W. Deem and Ramdas Pophale) SiO2 
 PCOD9078936
Probable space group: P -1
;
_chemical_formula_sum "Si O2"
_cell_formula_units_Z 16
_cell_length_a 12.140506
_cell_length_b 10.429962
_cell_length_c 17.592044
_cell_angle_alpha 52.983146
_cell_angle_beta 33.434445
_cell_angle_gamma 36.701925
_cell_volume 718.180003
_symmetry_space_group_name_H-M "P -1"
_symmetry_group_IT_number 2
_symmetry_cell_setting 'triclinic'
loop_
_space_group_symop_operation_xyz
x,y,z
-x,-y,-z
loop_
_atom_site_type_symbol
_atom_site_label
_atom_site_fract_x
_atom_site_fract_y
_atom_site_fract_z
Si Si1 0.790142 0.466878 0.635827
Si Si2 0.641642 0.580786 0.854758
Si Si3 0.853053 0.995501 0.952766
Si Si4 0.276503 0.661601 0.633350
Si Si5 0.168519 0.143488 0.729731
Si Si6 0.285280 0.020722 0.529066
Si Si7 0.663289 0.474248 0.189913
Si Si8 0.318714 0.943893 0.142405
O O1 0.671717 0.534957 0.764495
O O2 0.531712 0.575353 0.693579
O O3 0.000000 0.500000 0.500000
O O4 0.997262 0.209536 0.588224
O O5 0.947204 0.405810 0.775390
O O6 0.500000 0.500000 0.000000
O O7 0.441212 0.836272 0.898198
O O8 0.791270 0.057341 0.876430
O O9 0.044484 0.734878 0.939799
O O10 0.027941 0.051546 0.863245
O O11 0.500000 0.500000 0.500000
O O12 0.353200 0.798771 0.567108
O O13 0.295237 0.534399 0.740796
O O14 0.956105 0.851629 0.728011
O O15 0.465282 0.016240 0.637024
O O16 0.225979 0.107284 0.618791
O O17 0.511765 0.706424 0.155670
O O18 0.500000 0.000000 0.000000
#
# Coordination Sequence:
#
# PCOD9078936 Si02
#       8
#     2   2   2   2   2   2   2   2
#     4  11  22  37  62 101 137 174 214 263 341 418
#     4   9  19  34  58  92 136 175 217 258 320 401
#     4  10  20  39  62  95 129 171 223 267 332 401
#     4  11  25  44  66  98 131 176 234 283 334 397
#     4   9  16  31  62  89 126 174 205 260 328 395
#     4  10  18  36  60  89 132 170 215 256 337 400
#     4  11  22  42  70  89 136 173 217 283 338 392
#     4  11  24  46  67  92 126 184 231 279 341 396
#
# _framework density 22.278535000000002
#
# number of rings (size 3 to 8) (size 9 to 14) (size 15 to 20)
#    0.000    1.750    3.750    2.250    3.500    4.000 
#    0.000    2.500    0.000    0.000    0.000    0.000 
#    0.000    0.000    0.000    0.000    0.000    0.000 
#
# Total GULP energy -89256.807392 kJ/mol
# GULP energy per Si atom -5578.550462 kJ/mol
# Density = 2.222783 g / cm^3
# Si number density = 22.278535 Si / 1000 Ang^3
#
#
#
# Elastic Constant Matrix: (Units=GPa)
#
#
# Indices 1 2 3 4 5 6 
#
# 1 24.8895 37.2035 27.5232 13.9261 2.5073 -7.6578
# 2 37.2035 160.4953 67.7785 37.1070 5.3733 -16.5709
# 3 27.5232 67.7785 133.4957 40.1999 3.6159 7.8171
# 4 13.9261 37.1070 40.1999 57.6761 3.4192 -6.6779
# 5 2.5073 5.3733 3.6159 3.4192 19.5891 0.3717
# 6 -7.6578 -16.5709 7.8171 -6.6779 0.3717 18.1600
#
#
#
# Elastic Compliance Matrix: (Units=1/GPa)
#
#
# Indices 1 2 3 4 5 6 
#
# 1 0.078497 -0.009372 -0.013051 0.000014 -0.005645 0.030288
# 2 -0.009372 0.011047 -0.003646 -0.001407 -0.001049 0.007202
# 3 -0.013051 -0.003646 0.015260 -0.007325 0.001476 -0.018123
# 4 0.000014 -0.001407 -0.007325 0.024791 -0.002800 0.011048
# 5 -0.005645 -0.001049 0.001476 -0.002800 0.052391 -0.006075
# 6 0.030288 0.007202 -0.018123 0.011048 -0.006075 0.086398
#
#
# Mechanical properties :
#
#
# Convention : Reuss Voigt Hill
#
# Bulk Modulus (GPa) = 18.98714 64.87676 41.93195
# Shear Modulus (GPa) = 14.78955 31.51005 23.14980
#
# Velocity S-wave (km/s) = 2.57932 3.76489 3.22702
# Velocity P-wave (km/s) = 4.17273 6.93420 5.72253
#
# Compressibility (1/GPa) = 0.05266722
#
# Stress axis : x y z
#
# Youngs Moduli (GPa) = 12.73927 90.52306 65.53156
#
# Poissons Ratio (x) = 0.84834 0.85523
# Poissons Ratio (y) = 0.11939 0.23894
# Poissons Ratio (z) = 0.16626 0.33007
#
# Static dielectric constant tensor:
#      x y z
#    x 1.825290 -0.022730 -0.025340 
#    y -0.022730 1.969420 -0.008090 
#    z -0.025340 -0.008090 1.849810 
# 
# From -- ./inp_files/597830.got.cif
#   From: 2010.05.17/outbox.cif.g08.bks.cpg/sg2_299_cif.got.tgz:597830.got - 2010.06.03 11:33:40.
