data_PCOD9078138
_publ_section_title
;
Structure prediction by ZEFSAII (Michael W. Deem and Ramdas Pophale) SiO2 
 PCOD9078138
Probable space group: P -1
;
_chemical_formula_sum "Si O2"
_cell_formula_units_Z 16
_cell_length_a 8.158101
_cell_length_b 16.962490
_cell_length_c 10.897201
_cell_angle_alpha 121.645633
_cell_angle_beta 77.732323
_cell_angle_gamma 55.571307
_cell_volume 729.254577
_symmetry_space_group_name_H-M "P -1"
_symmetry_group_IT_number 2
_symmetry_cell_setting 'triclinic'
loop_
_space_group_symop_operation_xyz
x,y,z
-x,-y,-z
loop_
_atom_site_type_symbol
_atom_site_label
_atom_site_fract_x
_atom_site_fract_y
_atom_site_fract_z
Si Si1 0.917851 0.054000 0.418030
Si Si2 0.697164 0.185867 0.202956
Si Si3 0.989871 0.545168 0.175344
Si Si4 0.563536 0.523917 0.637274
Si Si5 0.434637 0.229189 0.950252
Si Si6 0.838897 0.671038 0.669459
Si Si7 0.431409 0.137109 0.604799
Si Si8 0.482062 0.637892 0.382740
O O1 0.225932 0.920251 0.193503
O O2 0.000000 0.000000 0.500000
O O3 0.695393 0.071041 0.439517
O O4 0.721714 0.233881 0.587827
O O5 0.597536 0.304975 0.211313
O O6 0.451815 0.216486 0.267471
O O7 0.690762 0.249575 0.378821
O O8 0.000000 0.000000 0.000000
O O9 0.846349 0.709161 0.307685
O O10 0.768023 0.571524 0.291753
O O11 0.000000 0.500000 0.000000
O O12 0.286802 0.395434 0.077836
O O13 0.500000 0.500000 0.500000
O O14 0.462303 0.495924 0.731916
O O15 0.911857 0.376746 0.463924
O O16 0.404632 0.189392 0.791734
O O17 0.261281 0.264390 0.121990
O O18 0.000000 0.500000 0.500000
O O19 0.500000 0.000000 0.500000
#
# Coordination Sequence:
#
# PCOD9078138 Si02
#       8
#     2   2   2   2   2   2   2   2
#     4   9  19  36  59  84 112 147 190 240 294 349
#     4  10  20  36  57  84 117 153 196 237 281 343
#     4   9  18  34  58  80 105 146 188 228 286 349
#     4   9  19  36  57  81 113 153 195 236 281 346
#     4  10  18  35  59  81 111 153 187 233 290 336
#     4  10  20  36  56  84 118 153 195 235 280 348
#     4   9  19  37  58  84 113 143 191 239 289 353
#     4  10  19  38  59  78 114 156 187 234 292 338
#
# _framework density 21.940211000000001
#
# number of rings (size 3 to 8) (size 9 to 14) (size 15 to 20)
#    0.000    2.500    0.000    3.750    0.000    0.000 
#    0.000   36.250    0.000    0.000    0.000    0.000 
#    0.000    0.000    0.000    0.000    0.000    0.000 
#
# Total GULP energy -89125.192393 kJ/mol
# GULP energy per Si atom -5570.324525 kJ/mol
# Density = 2.189027 g / cm^3
# Si number density = 21.940211 Si / 1000 Ang^3
#
#
#
# Elastic Constant Matrix: (Units=GPa)
#
#
# Indices 1 2 3 4 5 6 
#
# 1 52.3366 19.0874 18.2447 19.6670 -6.2855 4.0556
# 2 19.0874 84.7824 16.3865 22.6844 -0.9847 6.5774
# 3 18.2447 16.3865 86.7392 10.5833 -10.2751 5.9106
# 4 19.6670 22.6844 10.5833 40.4631 -8.5659 -0.6682
# 5 -6.2855 -0.9847 -10.2751 -8.5659 23.7929 6.6698
# 6 4.0556 6.5774 5.9106 -0.6682 6.6698 39.4304
#
#
#
# Elastic Compliance Matrix: (Units=1/GPa)
#
#
# Indices 1 2 3 4 5 6 
#
# 1 0.025145 -0.002243 -0.003258 -0.009662 0.002302 -0.002277
# 2 -0.002243 0.014673 -0.001636 -0.007345 -0.002885 -0.001608
# 3 -0.003258 -0.001636 0.013318 0.000149 0.005527 -0.002321
# 4 -0.009662 -0.007345 0.000149 0.035558 0.009684 0.001161
# 5 0.002302 -0.002885 0.005527 0.009684 0.050924 -0.009034
# 6 -0.002277 -0.001608 -0.002321 0.001161 -0.009034 0.027759
#
#
# Mechanical properties :
#
#
# Convention : Reuss Voigt Hill
#
# Bulk Modulus (GPa) = 25.73294 36.81061 31.27178
# Shear Modulus (GPa) = 25.69309 32.07991 28.88650
#
# Velocity S-wave (km/s) = 3.42577 3.82796 3.63244
# Velocity P-wave (km/s) = 5.23469 6.02924 5.64596
#
# Compressibility (1/GPa) = 0.03886070
#
# Stress axis : x y z
#
# Youngs Moduli (GPa) = 39.76987 68.15462 75.08649
#
# Poissons Ratio (x) = 0.15284 0.24467
# Poissons Ratio (y) = 0.08919 0.12286
# Poissons Ratio (z) = 0.12959 0.11152
#
# Static dielectric constant tensor:
#      x y z
#    x 1.910990 0.036270 0.012140 
#    y 0.036270 1.910240 0.009190 
#    z 0.012140 0.009190 1.883130 
# 
# From -- ./inp_files/224030.got.cif
#   From: 2010.05.17/outbox.cif.g08.bks.cpg/sg2_113_cif.got.tgz:224030.got - 2010.06.03 11:33:40.
