data_PCOD9078231
_publ_section_title
;
Structure prediction by ZEFSAII (Michael W. Deem and Ramdas Pophale) SiO2 
 PCOD9078231
Probable space group: P -1
;
_chemical_formula_sum "Si O2"
_cell_formula_units_Z 16
_cell_length_a 11.846815
_cell_length_b 15.048935
_cell_length_c 7.426299
_cell_angle_alpha 104.296825
_cell_angle_beta 37.812006
_cell_angle_gamma 119.625544
_cell_volume 679.491053
_symmetry_space_group_name_H-M "P -1"
_symmetry_group_IT_number 2
_symmetry_cell_setting 'triclinic'
loop_
_space_group_symop_operation_xyz
x,y,z
-x,-y,-z
loop_
_atom_site_type_symbol
_atom_site_label
_atom_site_fract_x
_atom_site_fract_y
_atom_site_fract_z
Si Si1 0.982444 0.403547 0.725074
Si Si2 0.723048 0.960731 0.199769
Si Si3 0.372443 0.504062 0.493255
Si Si4 0.405136 0.278864 0.843533
Si Si5 0.840297 0.981082 0.468280
Si Si6 0.049889 0.788940 0.515561
Si Si7 0.498394 0.078288 0.886854
Si Si8 0.653400 0.424731 0.916312
O O1 0.116752 0.439882 0.760223
O O2 0.160478 0.484515 0.397149
O O3 0.938367 0.284975 0.687873
O O4 0.773952 0.409144 0.928715
O O5 0.641547 0.835345 0.216931
O O6 0.735943 0.980676 0.406173
O O7 0.585936 0.974930 0.225712
O O8 0.962609 0.029595 0.852667
O O9 0.500000 0.500000 0.500000
O O10 0.446439 0.626085 0.427001
O O11 0.478666 0.458718 0.195829
O O12 0.526450 0.319508 0.901304
O O13 0.177616 0.273809 0.133827
O O14 0.677168 0.901422 0.781168
O O15 0.933936 0.098847 0.495040
O O16 0.262958 0.824439 0.380598
O O17 0.500000 0.000000 0.000000
#
# Coordination Sequence:
#
# PCOD9078231 Si02
#       8
#     2   2   2   2   2   2   2   2
#     4  10  19  36  62  87 110 159 205 236 302 368
#     4  10  20  39  62  86 121 164 202 252 307 363
#     4  11  22  39  58  90 129 153 195 260 309 360
#     4  10  19  39  61  83 114 162 209 239 304 375
#     4   9  21  38  60  86 121 159 205 254 301 362
#     4  10  18  35  60  82 115 157 201 243 298 362
#     4  10  21  36  58  89 119 154 205 252 306 361
#     4  10  19  36  65  81 115 156 200 252 292 367
#
# _framework density 23.547035999999999
#
# number of rings (size 3 to 8) (size 9 to 14) (size 15 to 20)
#    0.000    2.000    2.500    1.875    0.000    2.500 
#    4.500    8.750    0.000    0.000    0.000    0.000 
#    0.000    0.000    0.000    0.000    0.000    0.000 
#
# Total GULP energy -89146.661071 kJ/mol
# GULP energy per Si atom -5571.666317 kJ/mol
# Density = 2.349344 g / cm^3
# Si number density = 23.547036 Si / 1000 Ang^3
#
#
#
# Elastic Constant Matrix: (Units=GPa)
#
#
# Indices 1 2 3 4 5 6 
#
# 1 188.4998 22.8195 42.6868 -2.3599 -19.6805 21.4949
# 2 22.8195 74.6756 11.4041 -5.3551 2.1404 6.0412
# 3 42.6868 11.4041 64.4218 -0.1068 -19.5677 18.5250
# 4 -2.3599 -5.3551 -0.1068 22.4094 3.1467 -9.0215
# 5 -19.6805 2.1404 -19.5677 3.1467 43.1507 0.2790
# 6 21.4949 6.0412 18.5250 -9.0215 0.2790 31.1633
#
#
#
# Elastic Compliance Matrix: (Units=1/GPa)
#
#
# Indices 1 2 3 4 5 6 
#
# 1 0.006631 -0.001519 -0.002628 -0.001201 0.002015 -0.003083
# 2 -0.001519 0.014578 -0.002802 0.004185 -0.002999 0.001126
# 3 -0.002628 -0.002802 0.025627 -0.008642 0.011292 -0.015481
# 4 -0.001201 0.004185 -0.008642 0.055243 -0.008840 0.021226
# 5 0.002015 -0.002999 0.011292 -0.008840 0.030075 -0.010350
# 6 -0.003083 0.001126 -0.015481 0.021226 -0.010350 0.049437
#
#
# Mechanical properties :
#
#
# Convention : Reuss Voigt Hill
#
# Bulk Modulus (GPa) = 30.35975 53.49090 41.92532
# Shear Modulus (GPa) = 24.21661 36.05714 30.13688
#
# Velocity S-wave (km/s) = 3.21040 3.91740 3.58139
# Velocity P-wave (km/s) = 5.16367 6.57475 5.91146
#
# Compressibility (1/GPa) = 0.03293835
#
# Stress axis : x y z
#
# Youngs Moduli (GPa) = 150.80507 68.59455 39.02077
#
# Poissons Ratio (x) = 0.10423 0.10256
# Poissons Ratio (y) = 0.22915 0.10932
# Poissons Ratio (z) = 0.39635 0.19217
#
# Static dielectric constant tensor:
#      x y z
#    x 1.999470 -0.005470 -0.028150 
#    y -0.005470 1.914890 0.059460 
#    z -0.028150 0.059460 2.011500 
# 
# From -- ./inp_files/270404.got.cif
#   From: 2010.05.17/outbox.cif.g08.bks.cpg/sg2_136_cif.got.tgz:270404.got - 2010.06.03 11:33:40.
