data_PCOD9078955
_publ_section_title
;
Structure prediction by ZEFSAII (Michael W. Deem and Ramdas Pophale) SiO2 
 PCOD9078955
Probable space group: P -1
;
_chemical_formula_sum "Si O2"
_cell_formula_units_Z 13
_cell_length_a 6.981046
_cell_length_b 7.306092
_cell_length_c 15.692995
_cell_angle_alpha 46.846772
_cell_angle_beta 111.363743
_cell_angle_gamma 93.583327
_cell_volume 522.870960
_symmetry_space_group_name_H-M "P -1"
_symmetry_group_IT_number 2
_symmetry_cell_setting 'triclinic'
loop_
_space_group_symop_operation_xyz
x,y,z
-x,-y,-z
loop_
_atom_site_type_symbol
_atom_site_label
_atom_site_fract_x
_atom_site_fract_y
_atom_site_fract_z
Si Si1 0.042261 0.378043 0.922630
Si Si2 0.276890 0.655273 0.459686
Si Si3 0.602761 0.853000 0.273521
Si Si4 0.384812 0.294965 0.227067
Si Si5 0.873685 0.161681 0.804610
Si Si6 0.518426 0.216321 0.002496
Si Si7 0.500000 0.000000 0.500000
O O1 0.872458 0.638739 0.843584
O O2 0.292252 0.352514 0.969286
O O3 0.973879 0.336440 0.827405
O O4 0.017147 0.131607 0.051822
O O5 0.500000 0.500000 0.500000
O O6 0.237876 0.421356 0.585811
O O7 0.130945 0.760884 0.320005
O O8 0.327460 0.882894 0.451622
O O9 0.377173 0.803736 0.223390
O O10 0.526754 0.042645 0.281585
O O11 0.665919 0.037169 0.154910
O O12 0.426816 0.550044 0.111584
O O13 0.457846 0.247190 0.350816
O O14 0.500000 0.000000 0.000000
#
# Coordination Sequence:
#
# PCOD9078955 Si02
#       7
#     2   2   2   2   2   2   1
#     4  10  22  38  67  98 130 175 225 273 334 398
#     4  10  18  36  60  95 133 166 229 268 322 400
#     4  10  21  38  64  97 131 172 220 277 330 401
#     4  12  23  40  68  96 133 176 221 275 341 393
#     4   9  17  36  58  92 129 169 214 276 318 387
#     4  11  23  42  65  97 133 176 225 277 332 394
#     4  12  22  38  70 102 124 190 220 268 342 396
#
# _framework density 24.862729999999999
#
# number of rings (size 3 to 8) (size 9 to 14) (size 15 to 20)
#    0.000    1.538    3.077    6.000    0.000    2.462 
#    0.000    2.308    0.000    4.615    0.000    1.077 
#    0.000    0.000    0.000    0.000    0.000    0.000 
#
# Total GULP energy -72406.484040 kJ/mol
# GULP energy per Si atom -5569.729542 kJ/mol
# Density = 2.480614 g / cm^3
# Si number density = 24.862730 Si / 1000 Ang^3
#
#
#
# Elastic Constant Matrix: (Units=GPa)
#
#
# Indices 1 2 3 4 5 6 
#
# 1 60.4738 1.3940 39.5312 -13.7466 1.4189 10.3454
# 2 1.3940 104.8492 59.0461 -13.2753 5.7412 -4.2367
# 3 39.5312 59.0461 246.4266 -10.7101 -17.1119 13.6610
# 4 -13.7466 -13.2753 -10.7101 41.0145 10.9938 0.3131
# 5 1.4189 5.7412 -17.1119 10.9938 31.4519 -3.0501
# 6 10.3454 -4.2367 13.6610 0.3131 -3.0501 16.6495
#
#
#
# Elastic Compliance Matrix: (Units=1/GPa)
#
#
# Indices 1 2 3 4 5 6 
#
# 1 0.023818 0.003269 -0.004069 0.010413 -0.008730 -0.012424
# 2 0.003269 0.012993 -0.004009 0.005963 -0.006468 0.003267
# 3 -0.004069 -0.004009 0.006041 -0.002345 0.004776 -0.002529
# 4 0.010413 0.005963 -0.002345 0.033284 -0.015091 -0.006420
# 5 -0.008730 -0.006468 0.004776 -0.015091 0.042003 0.007838
# 6 -0.012424 0.003267 -0.002529 -0.006420 0.007838 0.072245
#
#
# Mechanical properties :
#
#
# Convention : Reuss Voigt Hill
#
# Bulk Modulus (GPa) = 30.08865 67.96579 49.02722
# Shear Modulus (GPa) = 23.68787 38.60841 31.14814
#
# Velocity S-wave (km/s) = 3.09001 3.94491 3.54334
# Velocity P-wave (km/s) = 4.98588 6.93870 6.04171
#
# Compressibility (1/GPa) = 0.03323512
#
# Stress axis : x y z
#
# Youngs Moduli (GPa) = 41.98502 76.96621 165.52813
#
# Poissons Ratio (x) = -0.25163 0.67354
# Poissons Ratio (y) = -0.13726 0.66355
# Poissons Ratio (z) = 0.17084 0.30853
#
# Static dielectric constant tensor:
#      x y z
#    x 2.007930 0.018540 -0.074580 
#    y 0.018540 1.982830 0.025240 
#    z -0.074580 0.025240 1.986020 
# 
# From -- ./inp_files/249825.got.cif
#   From: 2010.05.17/outbox.cif.g08.bks.cpg/sg2_125_cif.got.tgz:249825.got - 2010.06.03 11:33:40.
