data_PCOD9078288
_publ_section_title
;
Structure prediction by ZEFSAII (Michael W. Deem and Ramdas Pophale) SiO2 
 PCOD9078288
Probable space group: P -1
;
_chemical_formula_sum "Si O2"
_cell_formula_units_Z 16
_cell_length_a 11.555463
_cell_length_b 9.505948
_cell_length_c 9.263490
_cell_angle_alpha 116.317077
_cell_angle_beta 105.079278
_cell_angle_gamma 55.461705
_cell_volume 751.277465
_symmetry_space_group_name_H-M "P -1"
_symmetry_group_IT_number 2
_symmetry_cell_setting 'triclinic'
loop_
_space_group_symop_operation_xyz
x,y,z
-x,-y,-z
loop_
_atom_site_type_symbol
_atom_site_label
_atom_site_fract_x
_atom_site_fract_y
_atom_site_fract_z
Si Si1 0.594517 0.367725 0.697820
Si Si2 0.805692 0.440704 0.923685
Si Si3 0.785243 0.683408 0.766893
Si Si4 0.393174 0.303442 0.774792
Si Si5 0.358263 0.726367 0.655619
Si Si6 0.169165 0.564189 0.589635
Si Si7 0.532631 0.046636 0.188451
Si Si8 0.976966 0.827022 0.899344
O O1 0.745476 0.334043 0.767618
O O2 0.534158 0.293128 0.763838
O O3 0.480693 0.584431 0.738900
O O4 0.594388 0.296730 0.505722
O O5 0.822370 0.572887 0.879338
O O6 0.682430 0.561492 0.053614
O O7 0.940225 0.304148 0.997923
O O8 0.862477 0.531128 0.596025
O O9 0.617824 0.777588 0.733985
O O10 0.827896 0.837748 0.852500
O O11 0.283779 0.396709 0.650471
O O12 0.425280 0.108458 0.749987
O O13 0.241480 0.673757 0.603670
O O14 0.339341 0.919399 0.775826
O O15 0.050705 0.710473 0.724854
O O16 0.500000 0.000000 0.000000
O O17 0.000000 0.000000 0.000000
#
# Coordination Sequence:
#
# PCOD9078288 Si02
#       8
#     2   2   2   2   2   2   2   2
#     4  10  18  35  60  91 124 165 208 251 321 385
#     4  11  21  42  64  89 124 174 216 258 324 381
#     4  12  23  44  67  93 130 177 213 259 325 382
#     4  10  22  35  61 100 132 168 201 261 322 390
#     4  10  19  36  62  93 130 161 206 257 320 388
#     4  10  23  45  70  90 130 173 216 261 324 390
#     4  12  23  36  63 101 139 164 207 262 322 384
#     4  11  28  45  66  93 124 167 228 279 310 370
#
# _framework density 21.297059999999998
#
# number of rings (size 3 to 8) (size 9 to 14) (size 15 to 20)
#    0.000    1.250    3.750    2.625    3.500    3.000 
#    0.000    0.625    0.000    0.000    0.000    0.000 
#    0.000    0.000    0.000    0.000    0.000    0.000 
#
# Total GULP energy -89287.267455 kJ/mol
# GULP energy per Si atom -5580.454216 kJ/mol
# Density = 2.124859 g / cm^3
# Si number density = 21.297060 Si / 1000 Ang^3
#
#
#
# Elastic Constant Matrix: (Units=GPa)
#
#
# Indices 1 2 3 4 5 6 
#
# 1 80.6461 26.7683 36.7171 0.9944 14.4101 31.4007
# 2 26.7683 72.3439 22.0149 -2.3417 -5.7265 34.7710
# 3 36.7171 22.0149 81.8103 -7.5970 -5.4588 22.9885
# 4 0.9944 -2.3417 -7.5970 20.8063 6.9069 2.1818
# 5 14.4101 -5.7265 -5.4588 6.9069 32.1848 6.5731
# 6 31.4007 34.7710 22.9885 2.1818 6.5731 39.1426
#
#
#
# Elastic Compliance Matrix: (Units=1/GPa)
#
#
# Indices 1 2 3 4 5 6 
#
# 1 0.021833 -0.001673 -0.007014 0.000356 -0.009219 -0.010382
# 2 -0.001673 0.027247 0.001628 0.002956 0.010497 -0.025746
# 3 -0.007014 0.001628 0.018161 0.005689 0.006916 -0.007964
# 4 0.000356 0.002956 0.005689 0.054161 -0.008696 -0.007811
# 5 -0.009219 0.010497 0.006916 -0.008696 0.042694 -0.012675
# 6 -0.010382 -0.025746 -0.007964 -0.007811 -0.012675 0.063988
#
#
# Mechanical properties :
#
#
# Convention : Reuss Voigt Hill
#
# Bulk Modulus (GPa) = 18.82366 45.08899 31.95632
# Shear Modulus (GPa) = 19.23747 28.38006 23.80877
#
# Velocity S-wave (km/s) = 3.00874 3.65441 3.34718
# Velocity P-wave (km/s) = 4.57470 6.24690 5.47502
#
# Compressibility (1/GPa) = 0.05312463
#
# Stress axis : x y z
#
# Youngs Moduli (GPa) = 45.80119 36.70079 55.06396
#
# Poissons Ratio (x) = 0.06139 0.38620
# Poissons Ratio (y) = 0.07661 -0.08965
# Poissons Ratio (z) = 0.32124 -0.05975
#
# Static dielectric constant tensor:
#      x y z
#    x 1.810450 0.014140 -0.000470 
#    y 0.014140 1.763500 0.051880 
#    z -0.000470 0.051880 1.799220 
# 
# From -- ./inp_files/185686.got.cif
#   From: 2010.05.17/outbox.cif.g08.bks.cpg/sg2_93_cif.got.tgz:185686.got - 2010.06.03 11:33:40.
