data_PCOD9078037
_publ_section_title
;
Structure prediction by ZEFSAII (Michael W. Deem and Ramdas Pophale) SiO2 
 PCOD9078037
Probable space group: P -1
;
_chemical_formula_sum "Si O2"
_cell_formula_units_Z 16
_cell_length_a 8.340707
_cell_length_b 18.066227
_cell_length_c 12.394241
_cell_angle_alpha 26.752422
_cell_angle_beta 107.116890
_cell_angle_gamma 92.920429
_cell_volume 699.256134
_symmetry_space_group_name_H-M "P -1"
_symmetry_group_IT_number 2
_symmetry_cell_setting 'triclinic'
loop_
_space_group_symop_operation_xyz
x,y,z
-x,-y,-z
loop_
_atom_site_type_symbol
_atom_site_label
_atom_site_fract_x
_atom_site_fract_y
_atom_site_fract_z
Si Si1 0.869148 0.986937 0.226924
Si Si2 0.909892 0.870880 0.811470
Si Si3 0.387626 0.219170 0.043013
Si Si4 0.555337 0.659849 0.322328
Si Si5 0.669859 0.807998 0.336331
Si Si6 0.396492 0.700098 0.846304
Si Si7 0.638853 0.765525 0.638755
Si Si8 0.967612 0.282230 0.189401
O O1 0.002809 0.082572 0.125588
O O2 0.860916 0.831487 0.350444
O O3 0.922606 0.892936 0.477917
O O4 0.653875 0.154206 0.961488
O O5 0.801731 0.758038 0.967525
O O6 0.046169 0.774367 0.861958
O O7 0.749461 0.075063 0.472805
O O8 0.473370 0.328264 0.987004
O O9 0.533638 0.989552 0.364088
O O10 0.341122 0.307231 0.801102
O O11 0.500000 0.500000 0.500000
O O12 0.671803 0.648932 0.467283
O O13 0.623127 0.782600 0.483486
O O14 0.500000 0.000000 0.000000
O O15 0.522516 0.679072 0.791995
O O16 0.249735 0.617241 0.936833
O O17 0.868069 0.654632 0.859145
#
# Coordination Sequence:
#
# PCOD9078037 Si02
#       8
#     2   2   2   2   2   2   2   2
#     4   9  17  30  50  76  99 128 165 204 262 297
#     4  10  16  25  47  80 110 130 154 214 267 303
#     4  11  17  29  47  80 107 128 172 213 251 304
#     4  11  21  35  53  70  95 142 184 209 246 303
#     4   9  17  32  53  68 103 135 166 217 258 291
#     4  10  17  24  47  83 113 125 159 209 268 307
#     4  10  16  28  48  77 110 126 162 208 267 303
#     4  10  15  25  46  79 116 128 153 208 269 310
#
# _framework density 22.881457999999999
#
# number of rings (size 3 to 8) (size 9 to 14) (size 15 to 20)
#    0.000    2.000    6.250    3.000    0.000    0.000 
#    0.000    1.250    8.250    0.750    0.000   21.000 
#    0.000    0.000    0.000    0.000    0.000    0.000 
#
# Total GULP energy -89126.922023 kJ/mol
# GULP energy per Si atom -5570.432626 kJ/mol
# Density = 2.282938 g / cm^3
# Si number density = 22.881458 Si / 1000 Ang^3
#
#
#
# Elastic Constant Matrix: (Units=GPa)
#
#
# Indices 1 2 3 4 5 6 
#
# 1 146.1364 65.3153 14.5814 6.9350 -18.9824 17.2983
# 2 65.3153 151.5778 33.7898 25.1021 -3.2243 23.6163
# 3 14.5814 33.7898 43.3176 -9.1100 -4.9052 6.4731
# 4 6.9350 25.1021 -9.1100 22.1781 3.5110 2.4000
# 5 -18.9824 -3.2243 -4.9052 3.5110 13.6997 -0.2909
# 6 17.2983 23.6163 6.4731 2.4000 -0.2909 41.2476
#
#
#
# Elastic Compliance Matrix: (Units=1/GPa)
#
#
# Indices 1 2 3 4 5 6 
#
# 1 0.010766 -0.004516 0.001957 0.000507 0.014380 -0.002165
# 2 -0.004516 0.016355 -0.015740 -0.022805 -0.002278 -0.003689
# 3 0.001957 -0.015740 0.042509 0.033831 0.005549 -0.000409
# 4 0.000507 -0.022805 0.033831 0.086712 -0.014724 0.002386
# 5 0.014380 -0.002278 0.005549 -0.014724 0.098057 -0.004049
# 6 -0.002165 -0.003689 -0.000409 0.002386 -0.004049 0.027161
#
#
# Mechanical properties :
#
#
# Convention : Reuss Voigt Hill
#
# Bulk Modulus (GPa) = 30.27405 63.15609 46.71507
# Shear Modulus (GPa) = 15.18975 30.58141 22.88558
#
# Velocity S-wave (km/s) = 2.57931 3.65980 3.16599
# Velocity P-wave (km/s) = 4.70426 6.74687 5.81594
#
# Compressibility (1/GPa) = 0.03303159
#
# Stress axis : x y z
#
# Youngs Moduli (GPa) = 92.88317 61.14287 23.52450
#
# Poissons Ratio (x) = 0.27614 -0.04604
# Poissons Ratio (y) = 0.41949 0.37028
# Poissons Ratio (z) = -0.18180 0.96240
#
# Static dielectric constant tensor:
#      x y z
#    x 1.943570 0.085230 -0.027670 
#    y 0.085230 1.975480 -0.080210 
#    z -0.027670 -0.080210 1.849940 
# 
# From -- ./inp_files/244510.got.cif
#   From: 2010.05.17/outbox.cif.g08.bks.cpg/sg2_123_cif.got.tgz:244510.got - 2010.06.03 11:33:40.
