data_PCOD9078630
_publ_section_title
;
Structure prediction by ZEFSAII (Michael W. Deem and Ramdas Pophale) SiO2 
 PCOD9078630
Probable space group: P -1
;
_chemical_formula_sum "Si O2"
_cell_formula_units_Z 14
_cell_length_a 17.694913
_cell_length_b 13.633968
_cell_length_c 5.751203
_cell_angle_alpha 130.578827
_cell_angle_beta 127.876351
_cell_angle_gamma 33.222236
_cell_volume 569.194380
_symmetry_space_group_name_H-M "P -1"
_symmetry_group_IT_number 2
_symmetry_cell_setting 'triclinic'
loop_
_space_group_symop_operation_xyz
x,y,z
-x,-y,-z
loop_
_atom_site_type_symbol
_atom_site_label
_atom_site_fract_x
_atom_site_fract_y
_atom_site_fract_z
Si Si1 0.842488 0.572677 0.709907
Si Si2 0.180744 0.787646 0.771351
Si Si3 0.322423 0.901553 0.100046
Si Si4 0.341681 0.131862 0.818776
Si Si5 0.891409 0.231911 0.895384
Si Si6 0.955458 0.708374 0.965041
Si Si7 0.581227 0.781285 0.277260
O O1 0.950388 0.381002 0.762210
O O2 0.697302 0.648437 0.485901
O O3 0.779937 0.741550 0.030821
O O4 0.910265 0.603470 0.699117
O O5 0.190932 0.711249 0.416014
O O6 0.185317 0.715103 0.921960
O O7 0.024993 0.004293 0.802648
O O8 0.294620 0.790699 0.985890
O O9 0.329540 0.008883 0.471417
O O10 0.465746 0.785333 0.052406
O O11 0.186683 0.068370 0.946572
O O12 0.325981 0.275892 0.856515
O O13 0.500000 0.000000 0.000000
O O14 0.959986 0.306229 0.106366
O O15 0.500000 0.000000 0.500000
#
# Coordination Sequence:
#
# PCOD9078630 Si02
#       7
#     2   2   2   2   2   2   2
#     4  11  21  36  53  83 117 150 183 223 296 348
#     4   9  19  35  59  83 109 149 197 242 285 334
#     4  10  19  35  58  86 110 145 192 238 284 337
#     4  11  19  32  56  80 112 149 184 231 276 347
#     4   9  19  37  54  83 116 146 192 243 289 333
#     4  10  21  36  55  83 118 148 182 239 289 347
#     4  10  18  36  51  79 112 142 187 229 274 340
#
# _framework density 24.596167000000001
#
# number of rings (size 3 to 8) (size 9 to 14) (size 15 to 20)
#    0.000    2.000    5.714    0.000    0.000    7.429 
#    2.571    0.000    0.000    1.714    0.000    0.000 
#    0.000    0.000    0.000    0.000    0.000    0.000 
#
# Total GULP energy -78108.189379 kJ/mol
# GULP energy per Si atom -5579.156384 kJ/mol
# Density = 2.454019 g / cm^3
# Si number density = 24.596167 Si / 1000 Ang^3
#
#
#
# Elastic Constant Matrix: (Units=GPa)
#
#
# Indices 1 2 3 4 5 6 
#
# 1 222.6210 34.8578 71.6670 -4.8759 8.2277 33.8563
# 2 34.8578 70.2123 34.2782 -18.9061 4.2132 -1.9116
# 3 71.6670 34.2782 99.0320 -9.4223 7.4375 4.6201
# 4 -4.8759 -18.9061 -9.4223 45.0141 -6.5748 7.2703
# 5 8.2277 4.2132 7.4375 -6.5748 39.0742 -7.9813
# 6 33.8563 -1.9116 4.6201 7.2703 -7.9813 26.5325
#
#
#
# Elastic Compliance Matrix: (Units=1/GPa)
#
#
# Indices 1 2 3 4 5 6 
#
# 1 0.007841 -0.001769 -0.004336 0.000475 -0.002661 -0.010309
# 2 -0.001769 0.019352 -0.005009 0.006540 0.000956 0.003019
# 3 -0.004336 -0.005009 0.014937 0.000051 -0.000915 0.002282
# 4 0.000475 0.006540 0.000051 0.026438 0.002264 -0.006707
# 5 -0.002661 0.000956 -0.000915 0.002264 0.029000 0.011727
# 6 -0.010309 0.003019 0.002282 -0.006707 0.011727 0.056030
#
#
# Mechanical properties :
#
#
# Convention : Reuss Voigt Hill
#
# Bulk Modulus (GPa) = 50.24634 74.83013 62.53824
# Shear Modulus (GPa) = 27.40337 38.86163 33.13250
#
# Velocity S-wave (km/s) = 3.34148 3.97922 3.67421
# Velocity P-wave (km/s) = 5.94645 7.18344 6.59401
#
# Compressibility (1/GPa) = 0.01990195
#
# Stress axis : x y z
#
# Youngs Moduli (GPa) = 127.52775 51.67480 66.94965
#
# Poissons Ratio (x) = 0.09141 0.29032
# Poissons Ratio (y) = 0.22560 0.33532
# Poissons Ratio (z) = 0.55301 0.25882
#
# Static dielectric constant tensor:
#      x y z
#    x 2.030820 0.055100 -0.098350 
#    y 0.055100 1.967180 -0.018420 
#    z -0.098350 -0.018420 2.120760 
# 
# From -- ./inp_files/110380.got.cif
#   From: 2010.05.17/outbox.cif.g08.bks.cpg/sg2_56_cif.got.tgz:110380.got - 2010.06.03 11:33:40.
