data_PCOD9078476
_publ_section_title
;
Structure prediction by ZEFSAII (Michael W. Deem and Ramdas Pophale) SiO2 
 PCOD9078476
Probable space group: P -1
;
_chemical_formula_sum "Si O2"
_cell_formula_units_Z 12
_cell_length_a 11.506771
_cell_length_b 11.982514
_cell_length_c 8.430155
_cell_angle_alpha 59.695217
_cell_angle_beta 128.582330
_cell_angle_gamma 79.834709
_cell_volume 537.991551
_symmetry_space_group_name_H-M "P -1"
_symmetry_group_IT_number 2
_symmetry_cell_setting 'triclinic'
loop_
_space_group_symop_operation_xyz
x,y,z
-x,-y,-z
loop_
_atom_site_type_symbol
_atom_site_label
_atom_site_fract_x
_atom_site_fract_y
_atom_site_fract_z
Si Si1 0.616480 0.309843 0.327689
Si Si2 0.854239 0.594665 0.645391
Si Si3 0.576318 0.969961 0.315276
Si Si4 0.718186 0.718808 0.927465
Si Si5 0.715918 0.395351 0.665248
Si Si6 0.900046 0.984064 0.568009
O O1 0.451565 0.293413 0.222605
O O2 0.703958 0.314406 0.559733
O O3 0.818372 0.131874 0.526852
O O4 0.500000 0.500000 0.000000
O O5 0.659057 0.817366 0.360677
O O6 0.741424 0.530051 0.558421
O O7 0.000000 0.500000 0.000000
O O8 0.041249 0.490391 0.745405
O O9 0.675871 0.844626 0.653883
O O10 0.694205 0.026747 0.323597
O O11 0.342095 0.164337 0.045838
O O12 0.500000 0.500000 0.500000
O O13 0.919900 0.226631 0.064232
O O14 0.000000 0.000000 0.500000
#
# Coordination Sequence:
#
# PCOD9078476 Si02
#       6
#     2   2   2   2   2   2
#     4  11  25  42  66  95 132 170 217 272 323 381
#     4  10  18  35  63  89 124 167 207 261 319 384
#     4   9  18  34  61  92 117 170 211 253 324 382
#     4   9  18  36  63  86 123 167 211 261 321 378
#     4  12  23  40  65 100 129 171 218 260 328 391
#     4  11  23  40  66  95 132 170 212 269 327 385
#
# _framework density 22.305185000000002
#
# number of rings (size 3 to 8) (size 9 to 14) (size 15 to 20)
#    0.000    1.667    3.333    3.500    2.333    0.000 
#    3.000    0.833    0.000    6.000    0.000    0.000 
#    0.000    0.000    0.000    0.000    0.000    0.000 
#
# Total GULP energy -66999.606112 kJ/mol
# GULP energy per Si atom -5583.300509 kJ/mol
# Density = 2.225442 g / cm^3
# Si number density = 22.305185 Si / 1000 Ang^3
#
#
#
# Elastic Constant Matrix: (Units=GPa)
#
#
# Indices 1 2 3 4 5 6 
#
# 1 150.9020 70.4429 13.5383 -8.7892 27.3188 -13.2137
# 2 70.4429 181.7949 18.6047 -32.3484 29.4241 -26.2790
# 3 13.5383 18.6047 67.7273 -20.4899 12.9438 -14.7460
# 4 -8.7892 -32.3484 -20.4899 33.8325 -4.9440 14.7858
# 5 27.3188 29.4241 12.9438 -4.9440 32.6258 -17.2228
# 6 -13.2137 -26.2790 -14.7460 14.7858 -17.2228 42.4974
#
#
#
# Elastic Compliance Matrix: (Units=1/GPa)
#
#
# Indices 1 2 3 4 5 6 
#
# 1 0.008806 -0.002837 -0.000508 -0.001087 -0.005283 -0.000955
# 2 -0.002837 0.008589 0.001445 0.007473 -0.004556 0.000484
# 3 -0.000508 0.001445 0.019410 0.011719 -0.006375 0.000809
# 4 -0.001087 0.007473 0.011719 0.047371 -0.009660 -0.012047
# 5 -0.005283 -0.004556 -0.006375 -0.009660 0.048979 0.016538
# 6 -0.000955 0.000484 0.000809 -0.012047 0.016538 0.034708
#
#
# Mechanical properties :
#
#
# Convention : Reuss Voigt Hill
#
# Bulk Modulus (GPa) = 30.29894 67.28843 48.79369
# Shear Modulus (GPa) = 27.37262 41.64704 34.50983
#
# Velocity S-wave (km/s) = 3.50692 4.32574 3.93767
# Velocity P-wave (km/s) = 5.47826 7.42846 6.52661
#
# Compressibility (1/GPa) = 0.03300446
#
# Stress axis : x y z
#
# Youngs Moduli (GPa) = 113.55908 116.42573 51.52026
#
# Poissons Ratio (x) = 0.33026 0.02618
# Poissons Ratio (y) = 0.32213 -0.07443
# Poissons Ratio (z) = 0.05771 -0.16819
#
# Static dielectric constant tensor:
#      x y z
#    x 1.827750 0.013020 -0.008590 
#    y 0.013020 1.845760 -0.014500 
#    z -0.008590 -0.014500 1.869620 
# 
# From -- ./inp_files/154393.got.cif
#   From: 2010.05.17/outbox.cif.g08.bks.cpg/sg2_78_cif.got.tgz:154393.got - 2010.06.03 11:33:40.
