data_PCOD9078949
_publ_section_title
;
Structure prediction by ZEFSAII (Michael W. Deem and Ramdas Pophale) SiO2 
 PCOD9078949
Probable space group: P -1
;
_chemical_formula_sum "Si O2"
_cell_formula_units_Z 14
_cell_length_a 9.690508
_cell_length_b 10.211282
_cell_length_c 30.451168
_cell_angle_alpha 33.841151
_cell_angle_beta 35.736091
_cell_angle_gamma 61.893582
_cell_volume 765.533808
_symmetry_space_group_name_H-M "P -1"
_symmetry_group_IT_number 2
_symmetry_cell_setting 'triclinic'
loop_
_space_group_symop_operation_xyz
x,y,z
-x,-y,-z
loop_
_atom_site_type_symbol
_atom_site_label
_atom_site_fract_x
_atom_site_fract_y
_atom_site_fract_z
Si Si1 0.775003 0.700482 0.754779
Si Si2 0.134632 0.646096 0.852077
Si Si3 0.160862 0.235179 0.176343
Si Si4 0.847077 0.614440 0.381959
Si Si5 0.825410 0.051452 0.565673
Si Si6 0.051992 0.195699 0.061177
Si Si7 0.859518 0.247341 0.828544
O O1 0.842240 0.766003 0.770250
O O2 0.929792 0.554572 0.739401
O O3 0.883844 0.984118 0.617795
O O4 0.409777 0.449911 0.910603
O O5 0.020591 0.675067 0.827735
O O6 0.116633 0.836024 0.841634
O O7 0.476390 0.783965 0.720102
O O8 0.967746 0.324728 0.008486
O O9 0.500000 0.500000 0.000000
O O10 0.029442 0.908739 0.283340
O O11 0.500000 0.500000 0.500000
O O12 0.859137 0.352951 0.468690
O O13 0.025848 0.715222 0.261237
O O14 0.000000 0.000000 0.500000
O O15 0.000174 0.894900 0.144804
O O16 0.500000 0.000000 0.000000
#
# Coordination Sequence:
#
# PCOD9078949 Si02
#       7
#     2   2   2   2   2   2   2
#     4  10  21  35  62  91 127 158 203 269 320 361
#     4  10  19  35  61  88 123 159 213 255 307 376
#     4  12  22  40  63  98 131 161 206 274 327 367
#     4  12  23  41  68  93 126 173 219 255 313 398
#     4  11  22  40  63  91 122 171 217 256 308 383
#     4   9  17  34  61  89 115 164 214 251 300 382
#     4  10  18  36  60  93 120 166 212 256 308 385
#
# _framework density 18.287891999999999
#
# number of rings (size 3 to 8) (size 9 to 14) (size 15 to 20)
#    0.000    1.429    5.714    0.857    0.000    0.571 
#    0.000    3.571    0.000    0.000    0.000    0.000 
#    0.000    0.000    0.000    0.000    0.000    0.000 
#
# Total GULP energy -77993.732343 kJ/mol
# GULP energy per Si atom -5570.980882 kJ/mol
# Density = 1.824627 g / cm^3
# Si number density = 18.287892 Si / 1000 Ang^3
#
#
#
# Elastic Constant Matrix: (Units=GPa)
#
#
# Indices 1 2 3 4 5 6 
#
# 1 147.3285 72.9261 44.8755 -2.2051 38.6872 1.3454
# 2 72.9261 125.2791 44.5848 5.7006 13.7720 -12.4907
# 3 44.8755 44.5848 69.6276 8.3947 14.7141 -1.4554
# 4 -2.2051 5.7006 8.3947 38.6023 -5.5283 6.0871
# 5 38.6872 13.7720 14.7141 -5.5283 34.0274 -2.5783
# 6 1.3454 -12.4907 -1.4554 6.0871 -2.5783 34.5813
#
#
#
# Elastic Compliance Matrix: (Units=1/GPa)
#
#
# Indices 1 2 3 4 5 6 
#
# 1 0.014015 -0.006337 -0.002587 0.001170 -0.012369 -0.004071
# 2 -0.006337 0.013717 -0.005266 -0.001531 0.004102 0.005555
# 3 -0.002587 -0.005266 0.020943 -0.004530 -0.004755 -0.000477
# 4 0.001170 -0.001531 -0.004530 0.028834 0.005520 -0.005453
# 5 -0.012369 0.004102 -0.004755 0.005520 0.045059 0.004150
# 6 -0.004071 0.005555 -0.000477 -0.005453 0.004150 0.032331
#
#
# Mechanical properties :
#
#
# Convention : Reuss Voigt Hill
#
# Bulk Modulus (GPa) = 49.27220 74.11200 61.69210
# Shear Modulus (GPa) = 26.30974 33.43213 29.87094
#
# Velocity S-wave (km/s) = 3.79706 4.28027 4.04588
# Velocity P-wave (km/s) = 6.79886 8.06478 7.45873
#
# Compressibility (1/GPa) = 0.02029542
#
# Stress axis : x y z
#
# Youngs Moduli (GPa) = 71.35189 72.89962 47.74961
#
# Poissons Ratio (x) = 0.46196 0.12354
# Poissons Ratio (y) = 0.45215 0.25143
# Poissons Ratio (z) = 0.18461 0.38387
#
# Static dielectric constant tensor:
#      x y z
#    x 1.738200 -0.093000 0.007790 
#    y -0.093000 1.668250 0.015960 
#    z 0.007790 0.015960 1.675610 
# 
# From -- ./inp_files/204075.got.cif
#   From: 2010.05.17/outbox.cif.g08.bks.cpg/sg2_103_cif.got.tgz:204075.got - 2010.06.03 11:33:40.
