data_PCOD9078419
_publ_section_title
;
Structure prediction by ZEFSAII (Michael W. Deem and Ramdas Pophale) SiO2 
 PCOD9078419
Probable space group: P -1
;
_chemical_formula_sum "Si O2"
_cell_formula_units_Z 16
_cell_length_a 11.154695
_cell_length_b 11.928636
_cell_length_c 8.181686
_cell_angle_alpha 69.382483
_cell_angle_beta 37.849339
_cell_angle_gamma 78.663655
_cell_volume 618.878292
_symmetry_space_group_name_H-M "P -1"
_symmetry_group_IT_number 2
_symmetry_cell_setting 'triclinic'
loop_
_space_group_symop_operation_xyz
x,y,z
-x,-y,-z
loop_
_atom_site_type_symbol
_atom_site_label
_atom_site_fract_x
_atom_site_fract_y
_atom_site_fract_z
Si Si1 0.458687 0.571870 0.746169
Si Si2 0.864613 0.256523 0.169987
Si Si3 0.908260 0.001767 0.419075
Si Si4 0.208060 0.379211 0.916523
Si Si5 0.519260 0.336081 0.988798
Si Si6 0.388931 0.156858 0.994466
Si Si7 0.452289 0.115949 0.591434
Si Si8 0.140799 0.210310 0.633783
O O1 0.274225 0.503297 0.878676
O O2 0.636694 0.614710 0.405559
O O3 0.392626 0.647162 0.933614
O O4 0.543423 0.461951 0.805760
O O5 0.635805 0.223216 0.381852
O O6 0.905438 0.128134 0.270814
O O7 0.980696 0.352576 0.120932
O O8 0.990119 0.277453 0.859277
O O9 0.689280 0.937959 0.733088
O O10 0.978905 0.904238 0.271234
O O11 0.000000 0.000000 0.500000
O O12 0.260213 0.263566 0.024172
O O13 0.571307 0.237440 0.850800
O O14 0.289054 0.292182 0.311751
O O15 0.388258 0.086506 0.861124
O O16 0.283691 0.160343 0.639265
O O17 0.500000 0.000000 0.500000
#
# Coordination Sequence:
#
# PCOD9078419 Si02
#       8
#     2   2   2   2   2   2   2   2
#     4   9  17  32  63  98 111 152 214 243 318 368
#     4  12  23  38  63  89 123 167 207 248 298 365
#     4  11  21  35  61  86 121 162 203 249 298 364
#     4  10  18  35  62  90 120 157 202 259 297 372
#     4   9  18  35  64  89 118 160 195 259 311 362
#     4  10  21  37  57  86 126 161 200 246 314 350
#     4  12  25  40  60  88 125 173 209 243 295 370
#     4  11  22  42  61  88 125 164 205 247 310 359
#
# _framework density 25.853223
#
# number of rings (size 3 to 8) (size 9 to 14) (size 15 to 20)
#    0.000    1.500    5.000    0.375    1.750    0.500 
#    0.000    0.000    0.000   13.500    0.000    0.000 
#    0.000    0.000    0.000    0.000    0.000    0.000 
#
# Total GULP energy -89298.415868 kJ/mol
# GULP energy per Si atom -5581.150992 kJ/mol
# Density = 2.579438 g / cm^3
# Si number density = 25.853223 Si / 1000 Ang^3
#
#
#
# Elastic Constant Matrix: (Units=GPa)
#
#
# Indices 1 2 3 4 5 6 
#
# 1 159.8992 47.3699 26.8302 6.7549 0.6020 33.9140
# 2 47.3699 51.7779 5.9628 -1.4416 3.2613 38.4250
# 3 26.8302 5.9628 90.9213 -13.6260 13.3161 -3.7113
# 4 6.7549 -1.4416 -13.6260 36.1138 5.8382 8.4282
# 5 0.6020 3.2613 13.3161 5.8382 54.4634 -3.4555
# 6 33.9140 38.4250 -3.7113 8.4282 -3.4555 69.2536
#
#
#
# Elastic Compliance Matrix: (Units=1/GPa)
#
#
# Indices 1 2 3 4 5 6 
#
# 1 0.009413 -0.009061 -0.002936 -0.003672 0.001600 0.000787
# 2 -0.009061 0.043852 0.001140 0.009679 -0.005192 -0.021270
# 3 -0.002936 0.001140 0.013302 0.006110 -0.003906 0.000579
# 4 -0.003672 0.009679 0.006110 0.033853 -0.006148 -0.007671
# 5 0.001600 -0.005192 -0.003906 -0.006148 0.020500 0.003659
# 6 0.000787 -0.021270 0.000579 -0.007671 0.003659 0.027003
#
#
# Mechanical properties :
#
#
# Convention : Reuss Voigt Hill
#
# Bulk Modulus (GPa) = 22.29432 51.43603 36.86517
# Shear Modulus (GPa) = 27.08744 46.79520 36.94132
#
# Velocity S-wave (km/s) = 3.24039 4.25906 3.78416
# Velocity P-wave (km/s) = 4.75840 6.64265 5.77785
#
# Compressibility (1/GPa) = 0.04485448
#
# Stress axis : x y z
#
# Youngs Moduli (GPa) = 106.23621 22.80372 75.17938
#
# Poissons Ratio (x) = 0.20662 0.22073
# Poissons Ratio (y) = 0.96257 -0.08574
# Poissons Ratio (z) = 0.31192 -0.02601
#
# Static dielectric constant tensor:
#      x y z
#    x 2.078300 0.060210 -0.042100 
#    y 0.060210 2.132450 -0.026770 
#    z -0.042100 -0.026770 2.153000 
# 
# From -- ./inp_files/267295.got.cif
#   From: 2010.05.17/outbox.cif.g08.bks.cpg/sg2_134_cif.got.tgz:267295.got - 2010.06.03 11:33:40.
