data_PCOD9078815
_publ_section_title
;
Structure prediction by ZEFSAII (Michael W. Deem and Ramdas Pophale) SiO2 
 PCOD9078815
Probable space group: P -1
;
_chemical_formula_sum "Si O2"
_cell_formula_units_Z 14
_cell_length_a 11.887272
_cell_length_b 11.806611
_cell_length_c 10.689992
_cell_angle_alpha 65.227560
_cell_angle_beta 79.019459
_cell_angle_gamma 133.958585
_cell_volume 663.400566
_symmetry_space_group_name_H-M "P -1"
_symmetry_group_IT_number 2
_symmetry_cell_setting 'triclinic'
loop_
_space_group_symop_operation_xyz
x,y,z
-x,-y,-z
loop_
_atom_site_type_symbol
_atom_site_label
_atom_site_fract_x
_atom_site_fract_y
_atom_site_fract_z
Si Si1 0.387159 0.209569 0.593946
Si Si2 0.878663 0.628569 0.540518
Si Si3 0.333333 0.981448 0.179124
Si Si4 0.579222 0.456819 0.897044
Si Si5 0.279243 0.287020 0.810361
Si Si6 0.016853 0.029989 0.334614
Si Si7 0.428505 0.052303 0.838500
O O1 0.367924 0.277848 0.689120
O O2 0.622747 0.481303 0.350437
O O3 0.332595 0.020085 0.745850
O O4 0.172593 0.051077 0.629698
O O5 0.779367 0.567837 0.726159
O O6 0.667091 0.355953 0.651359
O O7 0.096895 0.747276 0.414025
O O8 0.949371 0.833135 0.379147
O O9 0.506085 0.030443 0.141249
O O10 0.434518 0.207896 0.100327
O O11 0.303917 0.959966 0.042332
O O12 0.425886 0.379019 0.857631
O O13 0.722230 0.674263 0.865142
O O14 0.000000 0.000000 0.000000
O O15 0.000000 0.000000 0.500000
#
# Coordination Sequence:
#
# PCOD9078815 Si02
#       7
#     2   2   2   2   2   2   2
#     4  11  20  37  56  84 116 145 193 234 287 337
#     4  10  18  36  59  81 114 150 193 233 286 338
#     4  10  21  36  56  84 117 152 195 234 281 334
#     4  10  21  39  55  86 117 152 189 232 289 346
#     4  11  22  35  57  87 116 144 187 247 292 332
#     4  10  20  37  58  82 118 155 180 236 291 344
#     4  10  21  36  56  86 116 149 195 242 275 333
#
# _framework density 21.103389
#
# number of rings (size 3 to 8) (size 9 to 14) (size 15 to 20)
#    0.000    1.714    5.714    1.286    4.000    0.571 
#    0.000    0.714    0.000    3.429    0.000    0.000 
#    0.000    0.000    0.000    0.000    0.000    0.000 
#
# Total GULP energy -77938.741940 kJ/mol
# GULP energy per Si atom -5567.052996 kJ/mol
# Density = 2.105536 g / cm^3
# Si number density = 21.103389 Si / 1000 Ang^3
#
#
#
# Elastic Constant Matrix: (Units=GPa)
#
#
# Indices 1 2 3 4 5 6 
#
# 1 69.9883 21.8306 25.1448 7.9206 23.9553 15.0799
# 2 21.8306 74.7753 16.1879 -3.3531 5.7155 17.9842
# 3 25.1448 16.1879 86.6463 -2.9111 -12.1676 14.6831
# 4 7.9206 -3.3531 -2.9111 33.5196 1.8550 0.8654
# 5 23.9553 5.7155 -12.1676 1.8550 37.9164 -1.6674
# 6 15.0799 17.9842 14.6831 0.8654 -1.6674 27.1018
#
#
#
# Elastic Compliance Matrix: (Units=1/GPa)
#
#
# Indices 1 2 3 4 5 6 
#
# 1 0.028307 -0.002555 -0.009112 -0.006335 -0.020561 -0.010181
# 2 -0.002555 0.016846 -0.000973 0.002546 -0.001776 -0.009420
# 3 -0.009112 -0.000973 0.016443 0.002947 0.010921 -0.002615
# 4 -0.006335 0.002546 0.002947 0.031691 0.002988 -0.000589
# 5 -0.020561 -0.001776 0.010921 0.002988 0.043398 0.009276
# 6 -0.010181 -0.009420 -0.002615 -0.000589 0.009276 0.050819
#
#
# Mechanical properties :
#
#
# Convention : Reuss Voigt Hill
#
# Bulk Modulus (GPa) = 27.53768 39.74850 33.64309
# Shear Modulus (GPa) = 22.23305 30.92399 26.57852
#
# Velocity S-wave (km/s) = 3.24933 3.83215 3.55271
# Velocity P-wave (km/s) = 5.21103 6.20133 5.72762
#
# Compressibility (1/GPa) = 0.03631388
#
# Stress axis : x y z
#
# Youngs Moduli (GPa) = 35.32707 59.36266 60.81567
#
# Poissons Ratio (x) = 0.15170 0.55417
# Poissons Ratio (y) = 0.09028 0.05919
# Poissons Ratio (z) = 0.32191 0.05777
#
# Static dielectric constant tensor:
#      x y z
#    x 1.923480 0.125090 -0.073350 
#    y 0.125090 1.959530 -0.148690 
#    z -0.073350 -0.148690 2.026880 
# 
# From -- ./inp_files/427785.got.cif
#   From: 2010.05.17/outbox.cif.g08.bks.cpg/sg2_214_cif.got.tgz:427785.got - 2010.06.03 11:33:40.
