data_PCOD9078502
_publ_section_title
;
Structure prediction by ZEFSAII (Michael W. Deem and Ramdas Pophale) SiO2 
 PCOD9078502
Probable space group: P -1
;
_chemical_formula_sum "Si O2"
_cell_formula_units_Z 14
_cell_length_a 8.805399
_cell_length_b 11.508243
_cell_length_c 10.200422
_cell_angle_alpha 98.961463
_cell_angle_beta 116.542508
_cell_angle_gamma 37.935535
_cell_volume 530.898627
_symmetry_space_group_name_H-M "P -1"
_symmetry_group_IT_number 2
_symmetry_cell_setting 'triclinic'
loop_
_space_group_symop_operation_xyz
x,y,z
-x,-y,-z
loop_
_atom_site_type_symbol
_atom_site_label
_atom_site_fract_x
_atom_site_fract_y
_atom_site_fract_z
Si Si1 0.375932 0.813094 0.672831
Si Si2 0.306516 0.927271 0.192822
Si Si3 0.713176 0.883618 0.436063
Si Si4 0.804501 0.886017 0.060539
Si Si5 0.724082 0.515147 0.970480
Si Si6 0.192373 0.636621 0.772195
Si Si7 0.793973 0.189693 0.643041
O O1 0.608016 0.677498 0.854875
O O2 0.415187 0.702134 0.545265
O O3 0.353542 0.955817 0.630745
O O4 0.069081 0.958251 0.652272
O O5 0.601050 0.837938 0.301036
O O6 0.333326 0.798728 0.273584
O O7 0.039893 0.150908 0.198904
O O8 0.230581 0.975049 0.017534
O O9 0.037621 0.694372 0.586158
O O10 0.500000 0.000000 0.500000
O O11 0.968410 0.700956 0.001195
O O12 0.034213 0.789738 0.246257
O O13 0.500000 0.000000 0.000000
O O14 0.489994 0.541505 0.859985
O O15 0.749024 0.508234 0.135648
#
# Coordination Sequence:
#
# PCOD9078502 Si02
#       7
#     2   2   2   2   2   2   2
#     4  11  20  37  67  99 118 160 215 264 297 372
#     4  10  19  39  66  90 121 166 210 251 301 375
#     4  10  18  35  63  94 124 158 202 257 306 366
#     4  11  25  42  59  90 129 172 202 254 319 379
#     4  10  21  37  63  92 130 158 209 262 313 361
#     4   9  17  36  62  96 121 162 206 254 312 360
#     4  11  21  38  66  92 122 166 212 248 311 383
#
# _framework density 26.370384000000001
#
# number of rings (size 3 to 8) (size 9 to 14) (size 15 to 20)
#    0.000    1.714    4.286    2.143    0.000    0.571 
#    0.000   11.429    0.000    1.714    0.000    0.000 
#    0.000    0.000    0.000    0.000    0.000    0.000 
#
# Total GULP energy -78294.022478 kJ/mol
# GULP energy per Si atom -5592.430177 kJ/mol
# Density = 2.631036 g / cm^3
# Si number density = 26.370384 Si / 1000 Ang^3
#
#
#
# Elastic Constant Matrix: (Units=GPa)
#
#
# Indices 1 2 3 4 5 6 
#
# 1 167.5869 34.8944 73.8281 -8.9152 -11.2121 5.3946
# 2 34.8944 43.2469 28.9491 -14.0545 -4.0663 -0.6834
# 3 73.8281 28.9491 157.1431 -6.6224 -14.1802 19.0803
# 4 -8.9152 -14.0545 -6.6224 43.6053 8.8152 -0.0285
# 5 -11.2121 -4.0663 -14.1802 8.8152 57.0988 -4.0172
# 6 5.3946 -0.6834 19.0803 -0.0285 -4.0172 30.8719
#
#
#
# Elastic Compliance Matrix: (Units=1/GPa)
#
#
# Indices 1 2 3 4 5 6 
#
# 1 0.008297 -0.004732 -0.003036 -0.000417 0.000631 0.000403
# 2 -0.004732 0.032503 -0.003919 0.009060 -0.000713 0.003884
# 3 -0.003036 -0.003919 0.009205 -0.000724 0.001164 -0.005094
# 4 -0.000417 0.009060 -0.000724 0.026401 -0.003674 0.000268
# 5 0.000631 -0.000713 0.001164 -0.003674 0.018553 0.001565
# 6 0.000403 0.003884 -0.005094 0.000268 0.001565 0.035760
#
#
# Mechanical properties :
#
#
# Convention : Reuss Voigt Hill
#
# Bulk Modulus (GPa) = 37.54945 71.48001 54.51473
# Shear Modulus (GPa) = 30.68073 41.66890 36.17482
#
# Velocity S-wave (km/s) = 3.41464 3.97941 3.70780
# Velocity P-wave (km/s) = 5.46045 6.94833 6.24883
#
# Compressibility (1/GPa) = 0.02663155
#
# Stress axis : x y z
#
# Youngs Moduli (GPa) = 120.52860 30.76634 108.63789
#
# Poissons Ratio (x) = 0.14559 0.32980
# Poissons Ratio (y) = 0.57036 0.42571
# Poissons Ratio (z) = 0.36590 0.12056
#
# Static dielectric constant tensor:
#      x y z
#    x 2.051750 0.030950 -0.054590 
#    y 0.030950 2.154560 -0.022950 
#    z -0.054590 -0.022950 2.198790 
# 
# From -- ./inp_files/392614.got.cif
#   From: 2010.05.17/outbox.cif.g08.bks.cpg/sg2_197_cif.got.tgz:392614.got - 2010.06.03 11:33:40.
