data_PCOD9078479
_publ_section_title
;
Structure prediction by ZEFSAII (Michael W. Deem and Ramdas Pophale) SiO2 
 PCOD9078479
Probable space group: P -1
;
_chemical_formula_sum "Si O2"
_cell_formula_units_Z 16
_cell_length_a 8.466591
_cell_length_b 20.214303
_cell_length_c 9.702247
_cell_angle_alpha 129.642288
_cell_angle_beta 64.274038
_cell_angle_gamma 147.352737
_cell_volume 668.198119
_symmetry_space_group_name_H-M "P -1"
_symmetry_group_IT_number 2
_symmetry_cell_setting 'triclinic'
loop_
_space_group_symop_operation_xyz
x,y,z
-x,-y,-z
loop_
_atom_site_type_symbol
_atom_site_label
_atom_site_fract_x
_atom_site_fract_y
_atom_site_fract_z
Si Si1 0.227672 0.421980 0.403218
Si Si2 0.716477 0.443280 0.997486
Si Si3 0.894713 0.083916 0.262470
Si Si4 0.192403 0.012336 0.540545
Si Si5 0.768322 0.127390 0.849890
Si Si6 0.916396 0.822666 0.968387
Si Si7 0.712619 0.527454 0.855091
Si Si8 0.912876 0.290977 0.604784
O O1 0.500000 0.500000 0.500000
O O2 0.084276 0.276625 0.211682
O O3 0.327715 0.507156 0.337376
O O4 0.999620 0.370839 0.532339
O O5 0.396672 0.290142 0.980386
O O6 0.841194 0.580327 0.205078
O O7 0.703386 0.439437 0.833144
O O8 0.000000 0.500000 0.000000
O O9 0.908754 0.027660 0.314416
O O10 0.957611 0.206507 0.454238
O O11 0.078722 0.129252 0.117016
O O12 0.558104 0.963395 0.170572
O O13 0.146393 0.897287 0.346186
O O14 0.560390 0.169364 0.608946
O O15 0.000000 0.000000 0.500000
O O16 0.811233 0.074675 0.887914
O O17 0.983767 0.294836 0.011058
O O18 0.500000 0.500000 0.000000
#
# Coordination Sequence:
#
# PCOD9078479 Si02
#       8
#     2   2   2   2   2   2   2   2
#     4  10  18  35  63  90 116 150 205 257 287 347
#     4  12  24  40  59  92 133 164 198 248 309 369
#     4  10  21  40  68  91 114 163 206 258 301 352
#     4  11  24  40  62  89 126 162 199 252 305 372
#     4  10  20  40  65  91 120 153 210 255 296 363
#     4  10  21  38  62  93 122 155 204 255 303 355
#     4  11  20  37  64  92 119 161 206 247 302 357
#     4  10  21  41  64  88 121 162 210 250 301 354
#
# _framework density 23.944994999999999
#
# number of rings (size 3 to 8) (size 9 to 14) (size 15 to 20)
#    0.000    1.500    3.750    3.375    1.750    2.000 
#    2.250    1.250    0.000    0.000    0.000    0.000 
#    0.000    0.000    0.000    0.000    0.000    0.000 
#
# Total GULP energy -89207.454288 kJ/mol
# GULP energy per Si atom -5575.465893 kJ/mol
# Density = 2.389050 g / cm^3
# Si number density = 23.944995 Si / 1000 Ang^3
#
#
#
# Elastic Constant Matrix: (Units=GPa)
#
#
# Indices 1 2 3 4 5 6 
#
# 1 80.4630 50.0416 30.1707 -31.6623 38.9767 -8.4170
# 2 50.0416 110.4582 52.7968 -26.0737 37.4121 -13.8290
# 3 30.1707 52.7968 116.2847 -34.4614 42.4204 -17.2416
# 4 -31.6623 -26.0737 -34.4614 53.2848 -23.2621 19.3433
# 5 38.9767 37.4121 42.4204 -23.2621 53.3114 -11.0504
# 6 -8.4170 -13.8290 -17.2416 19.3433 -11.0504 23.4494
#
#
#
# Elastic Compliance Matrix: (Units=1/GPa)
#
#
# Indices 1 2 3 4 5 6 
#
# 1 0.025454 -0.007125 0.003575 0.010964 -0.013274 -0.007736
# 2 -0.007125 0.015011 -0.004235 -0.001869 -0.001986 0.003787
# 3 0.003575 -0.004235 0.014455 0.005267 -0.008639 0.000998
# 4 0.010964 -0.001869 0.005267 0.036215 0.000116 -0.023113
# 5 -0.013274 -0.001986 -0.008639 0.000116 0.037918 0.005485
# 6 -0.007736 0.003787 0.000998 -0.023113 0.005485 0.064486
#
#
# Mechanical properties :
#
#
# Convention : Reuss Voigt Hill
#
# Bulk Modulus (GPa) = 25.41233 63.69156 44.55195
# Shear Modulus (GPa) = 22.49981 37.62224 30.06102
#
# Velocity S-wave (km/s) = 3.06869 3.96813 3.54703
# Velocity P-wave (km/s) = 4.81577 6.90301 5.95161
#
# Compressibility (1/GPa) = 0.03935097
#
# Stress axis : x y z
#
# Youngs Moduli (GPa) = 39.28694 66.61915 69.17975
#
# Poissons Ratio (x) = 0.47466 -0.24734
# Poissons Ratio (y) = 0.27992 0.29295
# Poissons Ratio (z) = -0.14047 0.28211
#
# Static dielectric constant tensor:
#      x y z
#    x 2.084440 -0.063840 -0.025710 
#    y -0.063840 1.990260 -0.056740 
#    z -0.025710 -0.056740 2.024440 
# 
# From -- ./inp_files/225501.got.cif
#   From: 2010.05.17/outbox.cif.g08.bks.cpg/sg2_113_cif.got.tgz:225501.got - 2010.06.03 11:33:40.
