data_PCOD9078473
_publ_section_title
;
Structure prediction by ZEFSAII (Michael W. Deem and Ramdas Pophale) SiO2 
 PCOD9078473
Probable space group: P -1
;
_chemical_formula_sum "Si O2"
_cell_formula_units_Z 16
_cell_length_a 6.914535
_cell_length_b 12.532401
_cell_length_c 9.992702
_cell_angle_alpha 47.010336
_cell_angle_beta 74.896622
_cell_angle_gamma 69.723883
_cell_volume 593.782400
_symmetry_space_group_name_H-M "P -1"
_symmetry_group_IT_number 2
_symmetry_cell_setting 'triclinic'
loop_
_space_group_symop_operation_xyz
x,y,z
-x,-y,-z
loop_
_atom_site_type_symbol
_atom_site_label
_atom_site_fract_x
_atom_site_fract_y
_atom_site_fract_z
Si Si1 0.478795 0.087259 0.723131
Si Si2 0.166438 0.598060 0.389100
Si Si3 0.411367 0.212498 0.907522
Si Si4 0.692268 0.900817 0.631106
Si Si5 0.954452 0.835422 0.398646
Si Si6 0.387557 0.694320 0.850977
Si Si7 0.477604 0.510154 0.756920
Si Si8 0.961224 0.149789 0.032776
O O1 0.273953 0.173049 0.609300
O O2 0.442679 0.925424 0.919406
O O3 0.680015 0.014940 0.660219
O O4 0.498904 0.182933 0.767518
O O5 0.373154 0.484462 0.398280
O O6 0.134794 0.734962 0.169084
O O7 0.000000 0.500000 0.500000
O O8 0.125644 0.684624 0.463296
O O9 0.381279 0.376978 0.833560
O O10 0.185953 0.181865 0.973956
O O11 0.897947 0.864260 0.539339
O O12 0.595819 0.754142 0.790435
O O13 0.500000 0.000000 0.500000
O O14 0.996161 0.970510 0.185012
O O15 0.361345 0.658042 0.730246
O O16 0.393668 0.560024 0.071959
O O17 0.184513 0.808523 0.845977
#
# Coordination Sequence:
#
# PCOD9078473 Si02
#       8
#     2   2   2   2   2   2   2   2
#     4  10  20  36  61  92 127 161 201 252 310 364
#     4  11  23  40  62  92 124 160 213 258 302 365
#     4  11  22  36  61  94 131 162 196 255 319 373
#     4  10  18  35  63  89 117 150 211 254 299 340
#     4  11  21  38  68  94 120 162 216 263 291 364
#     4  10  19  39  63  88 114 163 211 249 293 369
#     4  10  22  38  63  85 122 164 202 244 310 374
#     4  11  22  37  65  96 119 161 214 256 309 360
#
# _framework density 26.945895
#
# number of rings (size 3 to 8) (size 9 to 14) (size 15 to 20)
#    0.000    1.500    5.000    1.875    3.500    0.500 
#    0.000    1.250    0.000    0.000    0.000    0.000 
#    0.000    0.000    0.000    0.000    0.000    0.000 
#
# Total GULP energy -89276.073361 kJ/mol
# GULP energy per Si atom -5579.754585 kJ/mol
# Density = 2.688457 g / cm^3
# Si number density = 26.945895 Si / 1000 Ang^3
#
#
#
# Elastic Constant Matrix: (Units=GPa)
#
#
# Indices 1 2 3 4 5 6 
#
# 1 48.0683 24.6514 10.5718 14.7667 -11.1751 -10.2977
# 2 24.6514 244.7254 67.5936 40.7584 -23.4728 -2.1245
# 3 10.5718 67.5936 111.9622 2.8128 -20.8012 -8.6991
# 4 14.7667 40.7584 2.8128 55.7018 -8.6053 -3.3335
# 5 -11.1751 -23.4728 -20.8012 -8.6053 45.8536 7.0528
# 6 -10.2977 -2.1245 -8.6991 -3.3335 7.0528 27.1472
#
#
#
# Elastic Compliance Matrix: (Units=1/GPa)
#
#
# Indices 1 2 3 4 5 6 
#
# 1 0.025494 -0.001313 -0.000259 -0.004796 0.003287 0.008042
# 2 -0.001313 0.005800 -0.003284 -0.003722 0.000729 -0.001743
# 3 -0.000259 -0.003284 0.011769 0.002609 0.003656 0.002787
# 4 -0.004796 -0.003722 0.002609 0.022200 0.002138 0.000896
# 5 0.003287 0.000729 0.003656 0.002138 0.025646 -0.003925
# 6 0.008042 -0.001743 0.002787 0.000896 -0.003925 0.041773
#
#
# Mechanical properties :
#
#
# Convention : Reuss Voigt Hill
#
# Bulk Modulus (GPa) = 29.98327 67.82106 48.90217
# Shear Modulus (GPa) = 32.57095 45.86980 39.22037
#
# Velocity S-wave (km/s) = 3.48049 4.13036 3.81927
# Velocity P-wave (km/s) = 5.22523 6.92607 6.13488
#
# Compressibility (1/GPa) = 0.03335193
#
# Stress axis : x y z
#
# Youngs Moduli (GPa) = 39.22462 172.40682 84.96969
#
# Poissons Ratio (x) = 0.22633 0.02198
# Poissons Ratio (y) = 0.05149 0.27906
# Poissons Ratio (z) = 0.01015 0.56622
#
# Static dielectric constant tensor:
#      x y z
#    x 2.120960 0.057450 0.022090 
#    y 0.057450 2.285180 -0.003940 
#    z 0.022090 -0.003940 2.217510 
# 
# From -- ./inp_files/388993.got.cif
#   From: 2010.05.17/outbox.cif.g08.bks.cpg/sg2_195_cif.got.tgz:388993.got - 2010.06.03 11:33:40.
