data_PCOD9078689
_publ_section_title
;
Structure prediction by ZEFSAII (Michael W. Deem and Ramdas Pophale) SiO2 
 PCOD9078689
Probable space group: P -1
;
_chemical_formula_sum "Si O2"
_cell_formula_units_Z 12
_cell_length_a 22.219902
_cell_length_b 26.722936
_cell_length_c 14.488906
_cell_angle_alpha 15.195534
_cell_angle_beta 161.400083
_cell_angle_gamma 167.155305
_cell_volume 497.806029
_symmetry_space_group_name_H-M "P -1"
_symmetry_group_IT_number 2
_symmetry_cell_setting 'triclinic'
loop_
_space_group_symop_operation_xyz
x,y,z
-x,-y,-z
loop_
_atom_site_type_symbol
_atom_site_label
_atom_site_fract_x
_atom_site_fract_y
_atom_site_fract_z
Si Si1 0.806458 0.291891 0.810125
Si Si2 0.420583 0.717124 0.879368
Si Si3 0.776020 0.942578 0.160905
Si Si4 0.623823 0.728280 0.522492
Si Si5 0.068087 0.414257 0.338854
Si Si6 0.530379 0.175202 0.441940
O O1 0.839569 0.403511 0.760356
O O2 0.662849 0.323898 0.468294
O O3 0.112300 0.473660 0.897319
O O4 0.648549 0.976236 0.140279
O O5 0.440802 0.681409 0.864600
O O6 0.500000 0.000000 0.500000
O O7 0.626131 0.775117 0.147661
O O8 0.096951 0.149582 0.247032
O O9 0.668151 0.752661 0.432626
O O10 0.695746 0.102018 0.784927
O O11 0.321609 0.467211 0.584851
O O12 0.786067 0.103676 0.506702
O O13 0.000000 0.500000 0.000000
#
# Coordination Sequence:
#
# PCOD9078689 Si02
#       6
#     2   2   2   2   2   2
#     4  11  20  34  60  84 105 145 188 226 265 328
#     4  10  18  36  56  80 108 147 188 224 263 319
#     4   9  18  37  55  82 114 143 178 228 275 314
#     4  10  21  33  57  88 112 141 180 226 281 320
#     4  12  20  37  55  84 114 142 179 229 275 325
#     4  10  21  36  61  81 109 147 185 223 267 326
#
# _framework density 24.105775000000001
#
# number of rings (size 3 to 8) (size 9 to 14) (size 15 to 20)
#    0.000    1.667    6.667    1.000    0.000    0.667 
#    0.000    0.833    0.000    1.000    0.000    0.000 
#    0.000    0.000    0.000    0.000    0.000    0.000 
#
# Total GULP energy -67155.556052 kJ/mol
# GULP energy per Si atom -5596.296338 kJ/mol
# Density = 2.405091 g / cm^3
# Si number density = 24.105775 Si / 1000 Ang^3
#
#
#
# Elastic Constant Matrix: (Units=GPa)
#
#
# Indices 1 2 3 4 5 6 
#
# 1 173.7107 80.9392 48.9486 34.0921 -28.4008 -7.5444
# 2 80.9392 141.8759 49.4170 53.1150 -23.0779 11.7696
# 3 48.9486 49.4170 62.8099 20.1507 -17.4151 9.2098
# 4 34.0921 53.1150 20.1507 38.1666 -0.7459 -0.2193
# 5 -28.4008 -23.0779 -17.4151 -0.7459 50.3468 13.2962
# 6 -7.5444 11.7696 9.2098 -0.2193 13.2962 61.4595
#
#
#
# Elastic Compliance Matrix: (Units=1/GPa)
#
#
# Indices 1 2 3 4 5 6 
#
# 1 0.008946 -0.002921 -0.003822 -0.001861 0.001878 0.001817
# 2 -0.002921 0.020709 -0.003174 -0.024413 0.007874 -0.005639
# 3 -0.003822 -0.003174 0.025815 -0.005698 0.006601 -0.005178
# 4 -0.001861 -0.024413 -0.005698 0.064593 -0.015607 0.008907
# 5 0.001878 0.007874 0.006601 -0.015607 0.028845 -0.008563
# 6 0.001817 -0.005639 -0.005178 0.008907 -0.008563 0.020234
#
#
# Mechanical properties :
#
#
# Convention : Reuss Voigt Hill
#
# Bulk Modulus (GPa) = 28.06268 81.88956 54.97612
# Shear Modulus (GPa) = 24.89363 43.26735 34.08049
#
# Velocity S-wave (km/s) = 3.21703 4.24122 3.76412
# Velocity P-wave (km/s) = 5.04636 7.61765 6.46120
#
# Compressibility (1/GPa) = 0.03563451
#
# Stress axis : x y z
#
# Youngs Moduli (GPa) = 111.78334 48.28863 38.73689
#
# Poissons Ratio (x) = 0.14104 0.14807
# Poissons Ratio (y) = 0.32650 0.12297
# Poissons Ratio (z) = 0.42729 0.15329
#
# Static dielectric constant tensor:
#      x y z
#    x 1.953570 -0.053770 0.049150 
#    y -0.053770 1.867600 -0.078760 
#    z 0.049150 -0.078760 2.093330 
# 
# From -- ./inp_files/240668.got.cif
#   From: 2010.05.17/outbox.cif.g08.bks.cpg/sg2_121_cif.got.tgz:240668.got - 2010.06.03 11:33:40.
