data_PCOD9078289
_publ_section_title
;
Structure prediction by ZEFSAII (Michael W. Deem and Ramdas Pophale) SiO2 
 PCOD9078289
Probable space group: P -1
;
_chemical_formula_sum "Si O2"
_cell_formula_units_Z 16
_cell_length_a 8.069086
_cell_length_b 13.472196
_cell_length_c 18.674907
_cell_angle_alpha 45.502396
_cell_angle_beta 151.997116
_cell_angle_gamma 137.148185
_cell_volume 639.061127
_symmetry_space_group_name_H-M "P -1"
_symmetry_group_IT_number 2
_symmetry_cell_setting 'triclinic'
loop_
_space_group_symop_operation_xyz
x,y,z
-x,-y,-z
loop_
_atom_site_type_symbol
_atom_site_label
_atom_site_fract_x
_atom_site_fract_y
_atom_site_fract_z
Si Si1 0.234219 0.174277 0.012144
Si Si2 0.202236 0.622732 0.315512
Si Si3 0.256515 0.915175 0.843335
Si Si4 0.425786 0.412526 0.703531
Si Si5 0.184776 0.992770 0.496961
Si Si6 0.281359 0.697084 0.462115
Si Si7 0.992078 0.672103 0.541225
Si Si8 0.087004 0.795762 0.988697
O O1 0.007496 0.273784 0.845783
O O2 0.255171 0.212860 0.084588
O O3 0.590129 0.193673 0.089195
O O4 0.000000 0.000000 0.000000
O O5 0.433887 0.691373 0.439444
O O6 0.531840 0.626434 0.382823
O O7 0.961162 0.454875 0.327710
O O8 0.065197 0.983156 0.675988
O O9 0.581421 0.056910 0.929935
O O10 0.024040 0.825389 0.867101
O O11 0.499680 0.585347 0.632642
O O12 0.989351 0.335634 0.534845
O O13 0.742722 0.337729 0.869604
O O14 0.169998 0.367996 0.700273
O O15 0.571122 0.124768 0.564637
O O16 0.000000 0.000000 0.500000
O O17 0.194087 0.831245 0.567423
#
# Coordination Sequence:
#
# PCOD9078289 Si02
#       8
#     2   2   2   2   2   2   2   2
#     4  10  19  33  62  92 119 155 213 266 299 361
#     4  10  18  35  60  92 113 157 210 254 299 361
#     4  10  22  38  56  94 122 163 209 254 312 373
#     4  10  19  40  60  92 118 158 217 252 311 370
#     4  12  23  40  59  91 130 165 196 262 326 368
#     4  10  23  34  63  90 123 163 199 265 314 371
#     4  10  19  34  59  87 121 154 204 250 303 372
#     4  10  19  37  65  84 122 162 211 262 297 372
#
# _framework density 25.036726999999999
#
# number of rings (size 3 to 8) (size 9 to 14) (size 15 to 20)
#    0.000    1.750    3.750    1.500    0.000    0.500 
#    0.000    0.625    0.000    3.000    0.000    0.000 
#    0.000    0.000    0.000    0.000    0.000    0.000 
#
# Total GULP energy -89148.223503 kJ/mol
# GULP energy per Si atom -5571.763969 kJ/mol
# Density = 2.497974 g / cm^3
# Si number density = 25.036727 Si / 1000 Ang^3
#
#
#
# Elastic Constant Matrix: (Units=GPa)
#
#
# Indices 1 2 3 4 5 6 
#
# 1 101.7069 33.9840 64.9321 -24.2664 -16.9102 -2.3533
# 2 33.9840 131.2615 38.6251 -43.5621 -0.0588 -2.4945
# 3 64.9321 38.6251 111.2691 -37.6855 -12.7253 -8.2772
# 4 -24.2664 -43.5621 -37.6855 37.7753 -5.6898 2.4392
# 5 -16.9102 -0.0588 -12.7253 -5.6898 42.1513 -14.6552
# 6 -2.3533 -2.4945 -8.2772 2.4392 -14.6552 29.4684
#
#
#
# Elastic Compliance Matrix: (Units=1/GPa)
#
#
# Indices 1 2 3 4 5 6 
#
# 1 0.016667 -0.001304 -0.007943 0.001948 0.005008 0.001319
# 2 -0.001304 0.012839 0.002504 0.016824 0.003172 0.001871
# 3 -0.007943 0.002504 0.020911 0.019414 0.008569 0.008106
# 4 0.001948 0.016824 0.019414 0.068758 0.019845 0.011211
# 5 0.005008 0.003172 0.008569 0.019845 0.038087 0.020374
# 6 0.001319 0.001871 0.008106 0.011211 0.020374 0.045680
#
#
# Mechanical properties :
#
#
# Convention : Reuss Voigt Hill
#
# Bulk Modulus (GPa) = 27.07672 68.81333 47.94502
# Shear Modulus (GPa) = 21.85900 35.65874 28.75887
#
# Velocity S-wave (km/s) = 2.95799 3.77803 3.39288
# Velocity P-wave (km/s) = 4.74390 6.82466 5.87710
#
# Compressibility (1/GPa) = 0.03693210
#
# Stress axis : x y z
#
# Youngs Moduli (GPa) = 59.99998 77.88470 47.82090
#
# Poissons Ratio (x) = 0.10156 0.37982
# Poissons Ratio (y) = 0.07824 -0.11974
# Poissons Ratio (z) = 0.47656 -0.19501
#
# Static dielectric constant tensor:
#      x y z
#    x 2.223720 -0.100240 -0.011750 
#    y -0.100240 2.230530 -0.069530 
#    z -0.011750 -0.069530 2.179280 
# 
# From -- ./inp_files/274392.got.cif
#   From: 2010.05.17/outbox.cif.g08.bks.cpg/sg2_138_cif.got.tgz:274392.got - 2010.06.03 11:33:40.
