data_PCOD9078814
_publ_section_title
;
Structure prediction by ZEFSAII (Michael W. Deem and Ramdas Pophale) SiO2 
 PCOD9078814
Probable space group: P -1
;
_chemical_formula_sum "Si O2"
_cell_formula_units_Z 14
_cell_length_a 6.722208
_cell_length_b 14.620817
_cell_length_c 8.739627
_cell_angle_alpha 99.382269
_cell_angle_beta 78.166616
_cell_angle_gamma 61.799806
_cell_volume 706.481448
_symmetry_space_group_name_H-M "P -1"
_symmetry_group_IT_number 2
_symmetry_cell_setting 'triclinic'
loop_
_space_group_symop_operation_xyz
x,y,z
-x,-y,-z
loop_
_atom_site_type_symbol
_atom_site_label
_atom_site_fract_x
_atom_site_fract_y
_atom_site_fract_z
Si Si1 0.811881 0.215932 0.070975
Si Si2 0.529406 0.461273 0.158257
Si Si3 0.278764 0.043064 0.434604
Si Si4 0.039124 0.234993 0.310414
Si Si5 0.469452 0.660200 0.407903
Si Si6 0.683251 0.655678 0.683154
Si Si7 0.216810 0.860177 0.278221
O O1 0.755404 0.338840 0.090068
O O2 0.569199 0.238314 0.195638
O O3 0.020904 0.171344 0.149358
O O4 0.829969 0.162147 0.892440
O O5 0.543872 0.546695 0.286659
O O6 0.325149 0.441041 0.253590
O O7 0.500000 0.500000 0.000000
O O8 0.232297 0.144785 0.368964
O O9 0.035585 0.088118 0.581446
O O10 0.500000 0.000000 0.500000
O O11 0.302952 0.945052 0.301983
O O12 0.111875 0.323345 0.295907
O O13 0.778192 0.295318 0.446977
O O14 0.659440 0.645778 0.502300
O O15 0.403590 0.750025 0.310657
#
# Coordination Sequence:
#
# PCOD9078814 Si02
#       7
#     2   2   2   2   2   2   2
#     4   9  21  37  57  81 117 142 184 225 275 329
#     4  10  19  37  58  82 114 150 182 223 271 328
#     4  10  22  38  60  83 107 144 191 229 276 330
#     4  10  21  37  56  84 115 144 183 231 274 327
#     4  10  18  36  59  81 114 148 184 225 267 329
#     4   9  20  34  56  81 114 147 180 222 273 322
#     4  10  20  38  60  81 110 147 184 229 278 322
#
# _framework density 19.816514999999999
#
# number of rings (size 3 to 8) (size 9 to 14) (size 15 to 20)
#    0.857    1.429    1.429    1.286    0.000    3.429 
#    0.000    3.571    0.000    0.000    0.000    0.000 
#    0.000    0.000    0.000    0.000    0.000    0.000 
#
# Total GULP energy -78006.603644 kJ/mol
# GULP energy per Si atom -5571.900260 kJ/mol
# Density = 1.977141 g / cm^3
# Si number density = 19.816515 Si / 1000 Ang^3
#
#
#
# Elastic Constant Matrix: (Units=GPa)
#
#
# Indices 1 2 3 4 5 6 
#
# 1 47.3441 12.9900 22.0386 -0.2725 23.6601 5.7748
# 2 12.9900 49.9691 21.8976 9.7544 9.0493 2.1136
# 3 22.0386 21.8976 131.3247 8.5119 40.5255 9.4046
# 4 -0.2725 9.7544 8.5119 30.6635 3.3291 11.4302
# 5 23.6601 9.0493 40.5255 3.3291 23.1754 -0.1192
# 6 5.7748 2.1136 9.4046 11.4302 -0.1192 24.3523
#
#
#
# Elastic Compliance Matrix: (Units=1/GPa)
#
#
# Indices 1 2 3 4 5 6 
#
# 1 0.098510 -0.016833 0.040294 0.033607 -0.169563 -0.054065
# 2 -0.016833 0.025905 -0.009235 -0.012822 0.025120 0.011451
# 3 0.040294 -0.009235 0.034411 0.015773 -0.100123 -0.029936
# 4 0.033607 -0.012822 0.015773 0.054054 -0.064847 -0.038636
# 5 -0.169563 0.025120 -0.100123 -0.064847 0.391404 0.109049
# 6 -0.054065 0.011451 -0.029936 -0.038636 0.109049 0.083120
#
#
# Mechanical properties :
#
#
# Convention : Reuss Voigt Hill
#
# Bulk Modulus (GPa) = 5.33966 38.05447 21.69706
# Shear Modulus (GPa) = 6.93118 27.08569 17.00844
#
# Velocity S-wave (km/s) = 1.87224 3.70107 2.93285
# Velocity P-wave (km/s) = 2.71553 6.12446 4.73725
#
# Compressibility (1/GPa) = 0.18727781
#
# Stress axis : x y z
#
# Youngs Moduli (GPa) = 10.15125 38.60271 29.06043
#
# Poissons Ratio (x) = 0.64979 -1.17096
# Poissons Ratio (y) = 0.17087 0.26838
# Poissons Ratio (z) = -0.40903 0.35651
#
# Static dielectric constant tensor:
#      x y z
#    x 1.679800 -0.025450 0.005040 
#    y -0.025450 1.739040 -0.032420 
#    z 0.005040 -0.032420 1.717570 
# 
# From -- ./inp_files/47471.got.cif
#   From: 2010.05.17/outbox.cif.g08.bks.cpg/sg2_24_cif.got.tgz:47471.got - 2010.06.03 11:33:40.
