data_PCOD9078562
_publ_section_title
;
Structure prediction by ZEFSAII (Michael W. Deem and Ramdas Pophale) SiO2 
 PCOD9078562
Probable space group: P -1
;
_chemical_formula_sum "Si O2"
_cell_formula_units_Z 14
_cell_length_a 9.400011
_cell_length_b 15.989480
_cell_length_c 10.213941
_cell_angle_alpha 146.711688
_cell_angle_beta 132.607834
_cell_angle_gamma 64.892705
_cell_volume 580.805411
_symmetry_space_group_name_H-M "P -1"
_symmetry_group_IT_number 2
_symmetry_cell_setting 'triclinic'
loop_
_space_group_symop_operation_xyz
x,y,z
-x,-y,-z
loop_
_atom_site_type_symbol
_atom_site_label
_atom_site_fract_x
_atom_site_fract_y
_atom_site_fract_z
Si Si1 0.170478 0.936225 0.466911
Si Si2 0.809053 0.514296 0.263684
Si Si3 0.296327 0.839074 0.670272
Si Si4 0.031290 0.838980 0.752797
Si Si5 0.780085 0.558939 0.601017
Si Si6 0.301672 0.836087 0.165818
Si Si7 0.445000 0.280095 0.156329
O O1 0.204824 0.813498 0.434769
O O2 0.149804 0.873612 0.225826
O O3 0.000000 0.000000 0.500000
O O4 0.370515 0.102329 0.815303
O O5 0.804205 0.592777 0.506522
O O6 0.826228 0.674621 0.399043
O O7 0.017662 0.486904 0.307845
O O8 0.668862 0.325258 0.962553
O O9 0.141138 0.866441 0.716049
O O10 0.382603 0.706086 0.607274
O O11 0.500000 0.000000 0.000000
O O12 0.187943 0.806830 0.916434
O O13 0.000000 0.000000 0.000000
O O14 0.564074 0.411320 0.296272
O O15 0.742707 0.687025 0.845026
O O16 0.500000 0.000000 0.500000
#
# Coordination Sequence:
#
# PCOD9078562 Si02
#       7
#     2   2   2   2   2   2   2
#     4  11  23  37  61  91 133 164 205 258 339 378
#     4  11  21  40  65  94 125 169 224 258 311 392
#     4  10  21  39  60  92 125 162 218 265 304 383
#     4  12  24  41  69  93 125 175 227 259 311 388
#     4  10  18  35  65  90 118 159 226 264 298 378
#     4  12  23  42  67  95 130 167 206 274 330 377
#     4  10  20  36  63  93 119 167 218 260 313 381
#
# _framework density 24.10446
#
# number of rings (size 3 to 8) (size 9 to 14) (size 15 to 20)
#    0.000    1.143    4.286    4.286    4.000    0.000 
#    0.000    1.429    6.286    0.000    0.000    0.000 
#    0.000    0.000    0.000    0.000    0.000    0.000 
#
# Total GULP energy -78008.978672 kJ/mol
# GULP energy per Si atom -5572.069905 kJ/mol
# Density = 2.404960 g / cm^3
# Si number density = 24.104460 Si / 1000 Ang^3
#
#
#
# Elastic Constant Matrix: (Units=GPa)
#
#
# Indices 1 2 3 4 5 6 
#
# 1 145.3018 27.0538 24.0711 9.5420 -15.9349 16.3475
# 2 27.0538 45.9458 24.3766 16.9411 5.1417 10.6568
# 3 24.0711 24.3766 94.0522 28.1759 -1.6948 15.8580
# 4 9.5420 16.9411 28.1759 49.2806 10.5818 2.0702
# 5 -15.9349 5.1417 -1.6948 10.5818 40.7587 4.0862
# 6 16.3475 10.6568 15.8580 2.0702 4.0862 35.6819
#
#
#
# Elastic Compliance Matrix: (Units=1/GPa)
#
#
# Indices 1 2 3 4 5 6 
#
# 1 0.008627 -0.004459 -0.000216 -0.000843 0.004444 -0.002984
# 2 -0.004459 0.030324 -0.004196 -0.006184 -0.003700 -0.004366
# 3 -0.000216 -0.004196 0.015025 -0.007654 0.003587 -0.005292
# 4 -0.000843 -0.006184 -0.007654 0.028413 -0.007733 0.004872
# 5 0.004444 -0.003700 0.003587 -0.007733 0.029442 -0.005448
# 6 -0.002984 -0.004366 -0.005292 0.004872 -0.005448 0.033390
#
#
# Mechanical properties :
#
#
# Convention : Reuss Voigt Hill
#
# Bulk Modulus (GPa) = 27.59972 48.47809 38.03890
# Shear Modulus (GPa) = 28.56475 39.13080 33.84778
#
# Velocity S-wave (km/s) = 3.44618 4.03350 3.75135
# Velocity P-wave (km/s) = 5.22587 6.46896 5.88036
#
# Compressibility (1/GPa) = 0.03623226
#
# Stress axis : x y z
#
# Youngs Moduli (GPa) = 115.91724 32.97772 66.55462
#
# Poissons Ratio (x) = 0.14706 0.01441
# Poissons Ratio (y) = 0.51691 0.27926
# Poissons Ratio (z) = 0.02509 0.13837
#
# Static dielectric constant tensor:
#      x y z
#    x 1.927160 0.008370 0.054430 
#    y 0.008370 2.121480 0.077500 
#    z 0.054430 0.077500 2.043600 
# 
# From -- ./inp_files/209582.got.cif
#   From: 2010.05.17/outbox.cif.g08.bks.cpg/sg2_105_cif.got.tgz:209582.got - 2010.06.03 11:33:40.
