data_PCOD9078605
_publ_section_title
;
Structure prediction by ZEFSAII (Michael W. Deem and Ramdas Pophale) SiO2 
 PCOD9078605
Probable space group: P -1
;
_chemical_formula_sum "Si O2"
_cell_formula_units_Z 16
_cell_length_a 9.000038
_cell_length_b 7.076533
_cell_length_c 10.999612
_cell_angle_alpha 73.675409
_cell_angle_beta 81.787237
_cell_angle_gamma 85.382112
_cell_volume 664.816094
_symmetry_space_group_name_H-M "P -1"
_symmetry_group_IT_number 2
_symmetry_cell_setting 'triclinic'
loop_
_space_group_symop_operation_xyz
x,y,z
-x,-y,-z
loop_
_atom_site_type_symbol
_atom_site_label
_atom_site_fract_x
_atom_site_fract_y
_atom_site_fract_z
Si Si1 0.738938 0.789326 0.572937
Si Si2 0.536867 0.711101 0.299034
Si Si3 0.727427 0.403739 0.500276
Si Si4 0.537079 0.614971 0.809788
Si Si5 0.215309 0.035150 0.731359
Si Si6 0.754839 0.454527 0.014037
Si Si7 0.028244 0.332233 0.867885
Si Si8 0.026860 0.744696 0.672716
O O1 0.772842 0.561924 0.566665
O O2 0.587400 0.764530 0.672226
O O3 0.742746 0.901887 0.424775
O O4 0.872404 0.853864 0.632197
O O5 0.648625 0.540509 0.378745
O O6 0.398829 0.731791 0.405270
O O7 0.476730 0.602980 0.207861
O O8 0.630147 0.903264 0.233280
O O9 0.868347 0.286530 0.451115
O O10 0.664127 0.589035 0.901504
O O11 0.374442 0.655597 0.879306
O O12 0.093743 0.170844 0.796489
O O13 0.125387 0.842357 0.746881
O O14 0.874344 0.302360 0.963584
O O15 0.846127 0.600249 0.062995
O O16 0.991077 0.529765 0.761272
#
# Coordination Sequence:
#
# PCOD9078605 Si02
#       8
#     2   2   2   2   2   2   2   2
#     4  10  20  36  58  94 123 150 199 245 298 365
#     4   9  17  34  54  88 114 155 192 245 289 356
#     4   9  18  31  58  82 122 154 193 234 299 358
#     4  10  18  35  67  91 112 160 208 243 300 352
#     4  11  23  36  60  92 127 151 198 244 305 367
#     4  10  21  37  64  88 112 164 213 246 290 353
#     4  11  22  41  61  90 121 157 207 247 297 353
#     4  12  21  36  59  92 121 165 189 243 308 359
#
# _framework density 24.066806
#
# number of rings (size 3 to 8) (size 9 to 14) (size 15 to 20)
#    0.000    1.750    5.000    1.500    0.000    0.500 
#    0.000    2.500    0.000    1.500    0.000    0.000 
#    0.000    0.000    0.000    0.000    0.000    0.000 
#
# Total GULP energy -89396.652422 kJ/mol
# GULP energy per Si atom -5587.290776 kJ/mol
# Density = 2.401203 g / cm^3
# Si number density = 24.066806 Si / 1000 Ang^3
#
#
#
# Elastic Constant Matrix: (Units=GPa)
#
#
# Indices 1 2 3 4 5 6 
#
# 1 109.9944 -2.1907 37.0954 2.7543 -20.8867 3.8841
# 2 -2.1907 48.9434 7.5113 2.8202 -13.7655 9.2209
# 3 37.0954 7.5113 94.7203 11.2572 -25.0214 -9.1594
# 4 2.7543 2.8202 11.2572 7.4061 -0.4038 0.3060
# 5 -20.8867 -13.7655 -25.0214 -0.4038 71.1232 5.1791
# 6 3.8841 9.2209 -9.1594 0.3060 5.1791 8.6757
#
#
#
# Elastic Compliance Matrix: (Units=1/GPa)
#
#
# Indices 1 2 3 4 5 6 
#
# 1 0.013443 0.007460 -0.007676 0.005106 0.004536 -0.024940
# 2 0.007460 0.035501 -0.008376 -0.000694 0.010187 -0.055972
# 3 -0.007676 -0.008376 0.021103 -0.027435 0.000838 0.035085
# 4 0.005106 -0.000694 -0.027435 0.176227 -0.004821 -0.033851
# 5 0.004536 0.010187 0.000838 -0.004821 0.019331 -0.023343
# 6 -0.024940 -0.055972 0.035085 -0.033851 -0.023343 0.238090
#
#
# Mechanical properties :
#
#
# Convention : Reuss Voigt Hill
#
# Bulk Modulus (GPa) = 18.91699 37.60999 28.26349
# Shear Modulus (GPa) = 9.28504 31.52381 20.40442
#
# Velocity S-wave (km/s) = 1.96632 3.62311 2.91490
# Velocity P-wave (km/s) = 3.61005 5.75880 4.80605
#
# Compressibility (1/GPa) = 0.05286252
#
# Stress axis : x y z
#
# Youngs Moduli (GPa) = 74.38827 28.16804 47.38750
#
# Poissons Ratio (x) = -0.21013 0.36377
# Poissons Ratio (y) = -0.55494 0.39690
# Poissons Ratio (z) = 0.57104 0.23593
#
# Static dielectric constant tensor:
#      x y z
#    x 1.943020 -0.006540 -0.020510 
#    y -0.006540 1.973850 -0.050700 
#    z -0.020510 -0.050700 1.974140 
# 
# From -- ./inp_files/376352.got.cif
#   From: 2010.05.17/outbox.cif.g08.bks.cpg/sg2_189_cif.got.tgz:376352.got - 2010.06.03 11:33:40.
