data_PCOD9078195
_publ_section_title
;
Structure prediction by ZEFSAII (Michael W. Deem and Ramdas Pophale) SiO2 
 PCOD9078195
Probable space group: P -1
;
_chemical_formula_sum "Si O2"
_cell_formula_units_Z 14
_cell_length_a 15.696304
_cell_length_b 13.877900
_cell_length_c 8.548759
_cell_angle_alpha 45.871254
_cell_angle_beta 119.785029
_cell_angle_gamma 151.255383
_cell_volume 606.909255
_symmetry_space_group_name_H-M "P -1"
_symmetry_group_IT_number 2
_symmetry_cell_setting 'triclinic'
loop_
_space_group_symop_operation_xyz
x,y,z
-x,-y,-z
loop_
_atom_site_type_symbol
_atom_site_label
_atom_site_fract_x
_atom_site_fract_y
_atom_site_fract_z
Si Si1 0.073825 0.942194 0.079718
Si Si2 0.586260 0.647004 0.251310
Si Si3 0.999669 0.721079 0.770435
Si Si4 0.782192 0.361336 0.413459
Si Si5 0.273840 0.206749 0.265180
Si Si6 0.094116 0.602311 0.213765
Si Si7 0.340157 0.578042 0.985201
O O1 0.222620 0.079684 0.198626
O O2 0.193247 0.102358 0.850769
O O3 0.928274 0.652914 0.258465
O O4 0.000000 0.000000 0.000000
O O5 0.500000 0.500000 0.500000
O O6 0.483666 0.433636 0.267448
O O7 0.515773 0.715757 0.075526
O O8 0.928648 0.545661 0.760680
O O9 0.819787 0.563864 0.878609
O O10 0.128965 0.984865 0.513396
O O11 0.117476 0.761642 0.948350
O O12 0.756411 0.258262 0.672026
O O13 0.898778 0.401572 0.356757
O O14 0.627174 0.262820 0.285506
O O15 0.261374 0.353649 0.078870
#
# Coordination Sequence:
#
# PCOD9078195 Si02
#       7
#     2   2   2   2   2   2   2
#     4  12  22  37  63  92 117 154 194 240 306 363
#     4  10  25  37  55  92 126 153 187 243 315 349
#     4  10  18  35  59  88 120 159 198 242 287 348
#     4  10  19  36  58  88 118 153 204 244 281 354
#     4  10  21  35  57  90 121 151 190 244 298 358
#     4   9  20  32  56  91 114 157 209 239 277 337
#     4   9  21  35  57  86 127 145 194 243 304 341
#
# _framework density 23.067699999999999
#
# number of rings (size 3 to 8) (size 9 to 14) (size 15 to 20)
#    0.857    1.143    2.857    0.857    6.000    0.000 
#    0.000    0.000    0.000    8.571    7.429    0.000 
#    0.000    0.000    0.000    0.000    0.000    0.000 
#
# Total GULP energy -78153.717076 kJ/mol
# GULP energy per Si atom -5582.408363 kJ/mol
# Density = 2.301520 g / cm^3
# Si number density = 23.067700 Si / 1000 Ang^3
#
#
#
# Elastic Constant Matrix: (Units=GPa)
#
#
# Indices 1 2 3 4 5 6 
#
# 1 86.5657 16.3589 24.0830 -2.2436 3.6890 -5.3465
# 2 16.3589 48.4046 12.1475 6.0881 -0.5716 -9.5267
# 3 24.0830 12.1475 136.7594 12.2094 -1.0874 10.0823
# 4 -2.2436 6.0881 12.2094 41.5178 -2.0213 3.7215
# 5 3.6890 -0.5716 -1.0874 -2.0213 32.0039 6.6153
# 6 -5.3465 -9.5267 10.0823 3.7215 6.6153 33.3650
#
#
#
# Elastic Compliance Matrix: (Units=1/GPa)
#
#
# Indices 1 2 3 4 5 6 
#
# 1 0.013137 -0.003715 -0.002290 0.001659 -0.001954 0.001939
# 2 -0.003715 0.024311 -0.001711 -0.003984 -0.000999 0.007505
# 3 -0.002290 -0.001711 0.008299 -0.001959 0.001086 -0.003360
# 4 0.001659 -0.003984 -0.001959 0.025754 0.002032 -0.003555
# 5 -0.001954 -0.000999 0.001086 0.002032 0.033219 -0.007740
# 6 0.001939 0.007505 -0.003360 -0.003555 -0.007740 0.035372
#
#
# Mechanical properties :
#
#
# Convention : Reuss Voigt Hill
#
# Bulk Modulus (GPa) = 32.98782 41.87873 37.43327
# Shear Modulus (GPa) = 30.18827 35.98668 33.08747
#
# Velocity S-wave (km/s) = 3.62149 3.95403 3.79141
# Velocity P-wave (km/s) = 5.64078 6.24819 5.95224
#
# Compressibility (1/GPa) = 0.03031422
#
# Stress axis : x y z
#
# Youngs Moduli (GPa) = 76.11987 41.13431 120.50257
#
# Poissons Ratio (x) = 0.15283 0.27595
# Poissons Ratio (y) = 0.28281 0.20614
# Poissons Ratio (z) = 0.17432 0.07037
#
# Static dielectric constant tensor:
#      x y z
#    x 1.827800 0.006890 0.009340 
#    y 0.006890 2.021410 0.066830 
#    z 0.009340 0.066830 1.886350 
# 
# From -- ./inp_files/310818.got.cif
#   From: 2010.05.17/outbox.cif.g08.bks.cpg/sg2_156_cif.got.tgz:310818.got - 2010.06.03 11:33:40.
