data_PCOD9078184
_publ_section_title
;
Structure prediction by ZEFSAII (Michael W. Deem and Ramdas Pophale) SiO2 
 PCOD9078184
Probable space group: P -1
;
_chemical_formula_sum "Si O2"
_cell_formula_units_Z 14
_cell_length_a 9.099171
_cell_length_b 8.573676
_cell_length_c 15.561489
_cell_angle_alpha 123.377336
_cell_angle_beta 39.493922
_cell_angle_gamma 125.277825
_cell_volume 617.423657
_symmetry_space_group_name_H-M "P -1"
_symmetry_group_IT_number 2
_symmetry_cell_setting 'triclinic'
loop_
_space_group_symop_operation_xyz
x,y,z
-x,-y,-z
loop_
_atom_site_type_symbol
_atom_site_label
_atom_site_fract_x
_atom_site_fract_y
_atom_site_fract_z
Si Si1 0.489088 0.097354 0.740950
Si Si2 0.049931 0.563243 0.774945
Si Si3 0.030450 0.560963 0.405172
Si Si4 0.383570 0.698466 0.900626
Si Si5 0.446052 0.701220 0.057141
Si Si6 0.575349 0.711898 0.631701
Si Si7 0.918276 0.747402 0.060154
O O1 0.450333 0.137167 0.870719
O O2 0.239646 0.104482 0.813749
O O3 0.707392 0.283507 0.672250
O O4 0.569425 0.903615 0.639852
O O5 0.001785 0.596496 0.706116
O O6 0.322132 0.559810 0.670111
O O7 0.846602 0.361085 0.826635
O O8 0.997083 0.712064 0.915363
O O9 0.821438 0.656561 0.499720
O O10 0.000000 0.500000 0.500000
O O11 0.539920 0.741348 0.757996
O O12 0.258341 0.464455 0.895982
O O13 0.523576 0.759626 0.943880
O O14 0.159077 0.785100 0.017328
O O15 0.500000 0.500000 0.000000
#
# Coordination Sequence:
#
# PCOD9078184 Si02
#       7
#     2   2   2   2   2   2   2
#     4  11  22  37  59  85 121 147 182 250 296 321
#     4   9  20  37  60  82 111 153 190 232 280 341
#     4  11  24  39  62  81 108 160 204 232 268 350
#     4   9  18  32  58  86 113 147 192 227 273 353
#     4  10  18  35  59  87 116 151 187 229 281 349
#     4  11  23  38  56  87 120 149 189 238 292 335
#     4   9  17  35  58  86 112 147 191 229 283 341
#
# _framework density 22.674868
#
# number of rings (size 3 to 8) (size 9 to 14) (size 15 to 20)
#    0.000    2.000    2.857    2.571    2.000    2.857 
#    0.000    2.143    0.000    0.000    0.000    0.000 
#    0.000    0.000    0.000    0.000    0.000    0.000 
#
# Total GULP energy -78152.334070 kJ/mol
# GULP energy per Si atom -5582.309576 kJ/mol
# Density = 2.262326 g / cm^3
# Si number density = 22.674868 Si / 1000 Ang^3
#
#
#
# Elastic Constant Matrix: (Units=GPa)
#
#
# Indices 1 2 3 4 5 6 
#
# 1 109.4337 19.5509 45.2570 7.5809 -5.4853 -27.3156
# 2 19.5509 62.2162 14.7457 3.8672 -5.4625 -17.5707
# 3 45.2570 14.7457 78.7142 -1.2862 -14.6531 -23.0377
# 4 7.5809 3.8672 -1.2862 23.5972 -16.7581 -1.0800
# 5 -5.4853 -5.4625 -14.6531 -16.7581 55.8192 -2.9540
# 6 -27.3156 -17.5707 -23.0377 -1.0800 -2.9540 21.9010
#
#
#
# Elastic Compliance Matrix: (Units=1/GPa)
#
#
# Indices 1 2 3 4 5 6 
#
# 1 0.014673 0.000569 -0.004784 -0.004801 -0.000489 0.013422
# 2 0.000569 0.021665 0.002665 0.000309 0.004104 0.021463
# 3 -0.004784 0.002665 0.023939 0.011011 0.010615 0.023327
# 4 -0.004801 0.000309 0.011011 0.059964 0.021068 0.011641
# 5 -0.000489 0.004104 0.010615 0.021068 0.028370 0.018714
# 6 0.013422 0.021463 0.023327 0.011641 0.018714 0.107256
#
#
# Mechanical properties :
#
#
# Convention : Reuss Voigt Hill
#
# Bulk Modulus (GPa) = 17.48953 45.49681 31.49317
# Shear Modulus (GPa) = 17.98385 31.65085 24.81735
#
# Velocity S-wave (km/s) = 2.81929 3.74017 3.31189
# Velocity P-wave (km/s) = 4.28110 6.22577 5.34266
#
# Compressibility (1/GPa) = 0.05717706
#
# Stress axis : x y z
#
# Youngs Moduli (GPa) = 68.15157 46.15691 41.77292
#
# Poissons Ratio (x) = -0.02626 0.19985
# Poissons Ratio (y) = -0.03878 -0.11133
# Poissons Ratio (z) = 0.32606 -0.12302
#
# Static dielectric constant tensor:
#      x y z
#    x 1.873310 -0.006390 0.019930 
#    y -0.006390 1.905010 0.024390 
#    z 0.019930 0.024390 1.890020 
# 
# From -- ./inp_files/493282.got.cif
#   From: 2010.05.17/outbox.cif.g08.bks.cpg/sg2_247_cif.got.tgz:493282.got - 2010.06.03 11:33:40.
