data_PCOD9078470
_publ_section_title
;
Structure prediction by ZEFSAII (Michael W. Deem and Ramdas Pophale) SiO2 
 PCOD9078470
Probable space group: P -1
;
_chemical_formula_sum "Si O2"
_cell_formula_units_Z 14
_cell_length_a 12.008166
_cell_length_b 10.032703
_cell_length_c 9.055377
_cell_angle_alpha 50.606983
_cell_angle_beta 56.141604
_cell_angle_gamma 60.989618
_cell_volume 685.287845
_symmetry_space_group_name_H-M "P -1"
_symmetry_group_IT_number 2
_symmetry_cell_setting 'triclinic'
loop_
_space_group_symop_operation_xyz
x,y,z
-x,-y,-z
loop_
_atom_site_type_symbol
_atom_site_label
_atom_site_fract_x
_atom_site_fract_y
_atom_site_fract_z
Si Si1 0.307790 0.757476 0.096515
Si Si2 0.801173 0.035610 0.537654
Si Si3 0.256401 0.694368 0.847145
Si Si4 0.536828 0.598103 0.259954
Si Si5 0.059249 0.743875 0.492210
Si Si6 0.034910 0.390403 0.900629
Si Si7 0.307907 0.114156 0.982975
O O1 0.412848 0.628906 0.214563
O O2 0.156384 0.763729 0.269806
O O3 0.339681 0.949719 0.965735
O O4 0.315242 0.705059 0.958569
O O5 0.720486 0.146030 0.386873
O O6 0.873327 0.178377 0.469135
O O7 0.725652 0.956802 0.781081
O O8 0.912448 0.874830 0.501432
O O9 0.330334 0.515858 0.837549
O O10 0.094355 0.697027 0.977218
O O11 0.500000 0.500000 0.500000
O O12 0.572931 0.779854 0.158538
O O13 0.051971 0.541385 0.665140
O O14 0.172275 0.246393 0.929376
O O15 0.000000 0.500000 0.000000
#
# Coordination Sequence:
#
# PCOD9078470 Si02
#       7
#     2   2   2   2   2   2   2
#     4  11  26  40  59  94 132 159 201 256 315 359
#     4  10  18  35  63  88 122 158 207 248 301 363
#     4  12  24  40  62  93 129 160 199 264 313 353
#     4  12  24  45  69  86 117 168 216 248 294 380
#     4  10  19  36  60  93 120 164 205 249 297 369
#     4  12  19  37  67  95 122 158 213 253 299 362
#     4  11  22  41  67  91 118 162 214 252 298 369
#
# _framework density 20.429372000000001
#
# number of rings (size 3 to 8) (size 9 to 14) (size 15 to 20)
#    0.000    0.857    4.286    5.143    0.000    2.857 
#    0.000    7.143    0.000    0.000    0.000    0.000 
#    0.000    0.000    0.000    0.000    0.000    0.000 
#
# Total GULP energy -78300.602011 kJ/mol
# GULP energy per Si atom -5592.900144 kJ/mol
# Density = 2.038287 g / cm^3
# Si number density = 20.429372 Si / 1000 Ang^3
#
#
#
# Elastic Constant Matrix: (Units=GPa)
#
#
# Indices 1 2 3 4 5 6 
#
# 1 65.7359 18.7712 23.8465 -0.0040 12.1880 5.5801
# 2 18.7712 54.9943 30.5483 -1.9074 13.0050 -4.0544
# 3 23.8465 30.5483 91.9645 -21.6638 -1.4172 22.8989
# 4 -0.0040 -1.9074 -21.6638 25.6819 -1.3428 1.9639
# 5 12.1880 13.0050 -1.4172 -1.3428 34.1293 -1.2174
# 6 5.5801 -4.0544 22.8989 1.9639 -1.2174 26.8378
#
#
#
# Elastic Compliance Matrix: (Units=1/GPa)
#
#
# Indices 1 2 3 4 5 6 
#
# 1 0.019030 -0.001654 -0.006112 -0.005707 -0.006604 0.001126
# 2 -0.001654 0.035823 -0.022617 -0.019116 -0.013830 0.025825
# 3 -0.006112 -0.022617 0.036579 0.032510 0.012344 -0.035175
# 4 -0.005707 -0.019116 0.032510 0.068167 0.012146 -0.033877
# 5 -0.006604 -0.013830 0.012344 0.012146 0.037547 -0.010434
# 6 0.001126 0.025825 -0.035175 -0.033877 -0.010434 0.072946
#
#
# Mechanical properties :
#
#
# Convention : Reuss Voigt Hill
#
# Bulk Modulus (GPa) = 32.60947 39.89185 36.25066
# Shear Modulus (GPa) = 14.65933 26.63170 20.64552
#
# Velocity S-wave (km/s) = 2.68164 3.61446 3.18241
# Velocity P-wave (km/s) = 5.05816 6.08179 5.59344
#
# Compressibility (1/GPa) = 0.03066594
#
# Stress axis : x y z
#
# Youngs Moduli (GPa) = 52.54802 27.91490 27.33845
#
# Poissons Ratio (x) = 0.04617 0.16708
# Poissons Ratio (y) = 0.08691 0.61833
# Poissons Ratio (z) = 0.32115 0.63136
#
# Static dielectric constant tensor:
#      x y z
#    x 1.746770 -0.026550 -0.002530 
#    y -0.026550 1.713900 -0.014560 
#    z -0.002530 -0.014560 1.738930 
# 
# From -- ./inp_files/206493.got.cif
#   From: 2010.05.17/outbox.cif.g08.bks.cpg/sg2_104_cif.got.tgz:206493.got - 2010.06.03 11:33:40.
