data_PCOD9078167
_publ_section_title
;
Structure prediction by ZEFSAII (Michael W. Deem and Ramdas Pophale) SiO2 
 PCOD9078167
Probable space group: P -1
;
_chemical_formula_sum "Si O2"
_cell_formula_units_Z 16
_cell_length_a 6.776915
_cell_length_b 8.236470
_cell_length_c 15.964062
_cell_angle_alpha 106.646032
_cell_angle_beta 98.498275
_cell_angle_gamma 124.638473
_cell_volume 645.590182
_symmetry_space_group_name_H-M "P -1"
_symmetry_group_IT_number 2
_symmetry_cell_setting 'triclinic'
loop_
_space_group_symop_operation_xyz
x,y,z
-x,-y,-z
loop_
_atom_site_type_symbol
_atom_site_label
_atom_site_fract_x
_atom_site_fract_y
_atom_site_fract_z
Si Si1 0.727458 0.997731 0.644282
Si Si2 0.132525 0.058863 0.179749
Si Si3 0.629509 0.527239 0.848073
Si Si4 0.054939 0.500125 0.791197
Si Si5 0.171419 0.441159 0.963573
Si Si6 0.417095 0.618604 0.458041
Si Si7 0.137400 0.796826 0.710379
Si Si8 0.741172 0.859897 0.346047
O O1 0.871090 0.256757 0.700903
O O2 0.950685 0.005345 0.612088
O O3 0.704614 0.911931 0.724212
O O4 0.472486 0.813906 0.547215
O O5 0.274213 0.238712 0.142272
O O6 0.936659 0.087373 0.215239
O O7 0.997974 0.820877 0.097724
O O8 0.845347 0.516576 0.820237
O O9 0.367680 0.334786 0.755916
O O10 0.621628 0.483692 0.939305
O O11 0.224642 0.528883 0.884868
O O12 0.222398 0.693168 0.761825
O O13 0.000000 0.500000 0.000000
O O14 0.500000 0.500000 0.500000
O O15 0.123078 0.421057 0.381129
O O16 0.588860 0.739502 0.403291
O O17 0.304226 0.981454 0.676538
#
# Coordination Sequence:
#
# PCOD9078167 Si02
#       8
#     2   2   2   2   2   2   2   2
#     4  10  21  34  59  83 116 154 189 243 282 337
#     4   9  16  34  54  82 112 150 188 230 283 331
#     4  10  18  35  59  85 115 151 195 236 284 343
#     4   9  19  40  54  81 122 152 186 237 295 332
#     4   9  18  31  59  86 113 152 193 232 284 349
#     4  12  20  38  62  86 113 153 197 230 288 338
#     4  10  21  37  60  81 119 156 185 242 280 339
#     4  11  21  37  59  88 113 146 200 237 277 339
#
# _framework density 24.783525000000001
#
# number of rings (size 3 to 8) (size 9 to 14) (size 15 to 20)
#    0.000    2.000    5.000    0.750    0.000    0.500 
#    0.000   11.875    0.000    0.000    0.000    0.000 
#    0.000    0.000    0.000    0.000    0.000    0.000 
#
# Total GULP energy -89495.858172 kJ/mol
# GULP energy per Si atom -5593.491136 kJ/mol
# Density = 2.472712 g / cm^3
# Si number density = 24.783525 Si / 1000 Ang^3
#
#
#
# Elastic Constant Matrix: (Units=GPa)
#
#
# Indices 1 2 3 4 5 6 
#
# 1 57.1246 35.9567 30.1635 -3.9631 -8.4256 -6.0775
# 2 35.9567 197.3543 74.1419 -31.5645 -7.5165 -17.4062
# 3 30.1635 74.1419 170.2881 0.8255 -4.9277 -13.6594
# 4 -3.9631 -31.5645 0.8255 49.1015 -8.0692 0.2818
# 5 -8.4256 -7.5165 -4.9277 -8.0692 42.3252 -2.5898
# 6 -6.0775 -17.4062 -13.6594 0.2818 -2.5898 41.2109
#
#
#
# Elastic Compliance Matrix: (Units=1/GPa)
#
#
# Indices 1 2 3 4 5 6 
#
# 1 0.021141 -0.002567 -0.002406 0.000696 0.003695 0.001463
# 2 -0.002567 0.007560 -0.002654 0.004947 0.001588 0.002001
# 3 -0.002406 -0.002654 0.007534 -0.002101 -0.000412 0.001009
# 4 0.000696 0.004947 -0.002101 0.024540 0.005554 0.001677
# 5 0.003695 0.001588 -0.000412 0.005554 0.025818 0.002664
# 6 0.001463 0.002001 0.001009 0.001677 0.002664 0.025817
#
#
# Mechanical properties :
#
#
# Convention : Reuss Voigt Hill
#
# Bulk Modulus (GPa) = 47.66562 78.36568 63.01565
# Shear Modulus (GPa) = 37.13128 45.49453 41.31290
#
# Velocity S-wave (km/s) = 3.87489 4.28913 4.08726
# Velocity P-wave (km/s) = 6.26851 7.49784 6.91056
#
# Compressibility (1/GPa) = 0.02097948
#
# Stress axis : x y z
#
# Youngs Moduli (GPa) = 47.30228 132.27468 132.73890
#
# Poissons Ratio (x) = 0.33950 0.31940
# Poissons Ratio (y) = 0.12141 0.35235
# Poissons Ratio (z) = 0.11382 0.35112
#
# Static dielectric constant tensor:
#      x y z
#    x 2.107660 -0.009210 -0.018170 
#    y -0.009210 1.926260 -0.046950 
#    z -0.018170 -0.046950 1.930730 
# 
# From -- ./inp_files/493205.got.cif
#   From: 2010.05.17/outbox.cif.g08.bks.cpg/sg2_247_cif.got.tgz:493205.got - 2010.06.03 11:33:40.
