data_PCOD9078156
_publ_section_title
;
Structure prediction by ZEFSAII (Michael W. Deem and Ramdas Pophale) SiO2 
 PCOD9078156
Probable space group: P -1
;
_chemical_formula_sum "Si O2"
_cell_formula_units_Z 14
_cell_length_a 12.147703
_cell_length_b 7.613917
_cell_length_c 7.387062
_cell_angle_alpha 119.386229
_cell_angle_beta 108.296140
_cell_angle_gamma 74.267130
_cell_volume 559.541797
_symmetry_space_group_name_H-M "P -1"
_symmetry_group_IT_number 2
_symmetry_cell_setting 'triclinic'
loop_
_space_group_symop_operation_xyz
x,y,z
-x,-y,-z
loop_
_atom_site_type_symbol
_atom_site_label
_atom_site_fract_x
_atom_site_fract_y
_atom_site_fract_z
Si Si1 0.418862 0.392675 0.197218
Si Si2 0.822614 0.924775 0.539016
Si Si3 0.229253 0.482706 0.839231
Si Si4 0.656853 0.200214 0.104560
Si Si5 0.213236 0.208146 0.133623
Si Si6 0.410927 0.839547 0.374943
Si Si7 0.968295 0.182272 0.926623
O O1 0.535524 0.232678 0.164966
O O2 0.316870 0.343067 0.250248
O O3 0.456130 0.614253 0.353188
O O4 0.345780 0.403441 0.974993
O O5 0.832577 0.713086 0.333301
O O6 0.803763 0.854894 0.701458
O O7 0.701500 0.072447 0.519059
O O8 0.926123 0.062527 0.672460
O O9 0.273574 0.605730 0.754406
O O10 0.140916 0.655883 0.983835
O O11 0.622783 0.187380 0.866677
O O12 0.740483 0.989302 0.065424
O O13 0.084807 0.288267 0.032202
O O14 0.500000 0.000000 0.500000
O O15 0.000000 0.000000 0.000000
#
# Coordination Sequence:
#
# PCOD9078156 Si02
#       7
#     2   2   2   2   2   2   2
#     4  11  21  36  60  90 119 148 191 249 298 328
#     4  10  20  38  62  86 112 157 203 227 285 354
#     4  11  20  38  65  88 107 158 201 235 284 348
#     4  10  19  37  57  84 118 155 193 232 291 354
#     4  10  22  38  57  85 124 154 184 249 294 332
#     4  10  18  35  59  84 116 152 196 237 281 353
#     4  10  19  40  61  82 120 154 199 234 281 352
#
# _framework density 25.02047
#
# number of rings (size 3 to 8) (size 9 to 14) (size 15 to 20)
#    0.000    1.714    5.714    3.857    0.000    2.857 
#    0.000   10.000    0.000    0.000    0.000    0.000 
#    0.000    0.000    0.000    0.000    0.000    0.000 
#
# Total GULP energy -78272.838791 kJ/mol
# GULP energy per Si atom -5590.917056 kJ/mol
# Density = 2.496352 g / cm^3
# Si number density = 25.020470 Si / 1000 Ang^3
#
#
#
# Elastic Constant Matrix: (Units=GPa)
#
#
# Indices 1 2 3 4 5 6 
#
# 1 123.0139 19.5977 27.2803 3.2726 10.0151 -13.4274
# 2 19.5977 52.1251 12.3939 14.7486 5.5866 -9.0160
# 3 27.2803 12.3939 97.0709 29.6774 4.6282 -7.0682
# 4 3.2726 14.7486 29.6774 26.2335 1.6376 -1.4106
# 5 10.0151 5.5866 4.6282 1.6376 26.6685 -2.3803
# 6 -13.4274 -9.0160 -7.0682 -1.4106 -2.3803 36.7883
#
#
#
# Elastic Compliance Matrix: (Units=1/GPa)
#
#
# Indices 1 2 3 4 5 6 
#
# 1 0.009796 -0.003685 -0.003606 0.005189 -0.002419 0.002022
# 2 -0.003685 0.025907 0.003672 -0.017803 -0.003157 0.004823
# 3 -0.003606 0.003672 0.017557 -0.021305 -0.000968 0.002078
# 4 0.005189 -0.017803 -0.021305 0.071332 0.000761 -0.003778
# 5 -0.002419 -0.003157 -0.000968 0.000761 0.039253 0.000726
# 6 0.002022 0.004823 0.002078 -0.003778 0.000726 0.029404
#
#
# Mechanical properties :
#
#
# Convention : Reuss Voigt Hill
#
# Bulk Modulus (GPa) = 21.72842 43.41707 32.57275
# Shear Modulus (GPa) = 23.16679 32.13394 27.65036
#
# Velocity S-wave (km/s) = 3.04618 3.58761 3.32793
# Velocity P-wave (km/s) = 4.59080 5.87806 5.27385
#
# Compressibility (1/GPa) = 0.04602266
#
# Stress axis : x y z
#
# Youngs Moduli (GPa) = 102.08758 38.60002 56.95651
#
# Poissons Ratio (x) = 0.14223 0.20540
# Poissons Ratio (y) = 0.37615 -0.20917
# Poissons Ratio (z) = 0.36816 -0.14176
#
# Static dielectric constant tensor:
#      x y z
#    x 1.978150 0.067610 0.028250 
#    y 0.067610 2.043250 -0.036490 
#    z 0.028250 -0.036490 2.029010 
# 
# From -- ./inp_files/178460.got.cif
#   From: 2010.05.17/outbox.cif.g08.bks.cpg/sg2_90_cif.got.tgz:178460.got - 2010.06.03 11:33:40.
