data_PCOD9078647
_publ_section_title
;
Structure prediction by ZEFSAII (Michael W. Deem and Ramdas Pophale) SiO2 
 PCOD9078647
Probable space group: P -1
;
_chemical_formula_sum "Si O2"
_cell_formula_units_Z 15
_cell_length_a 6.264450
_cell_length_b 20.979802
_cell_length_c 21.981283
_cell_angle_alpha 19.944576
_cell_angle_beta 121.093089
_cell_angle_gamma 132.108464
_cell_volume 652.858669
_symmetry_space_group_name_H-M "P -1"
_symmetry_group_IT_number 2
_symmetry_cell_setting 'triclinic'
loop_
_space_group_symop_operation_xyz
x,y,z
-x,-y,-z
loop_
_atom_site_type_symbol
_atom_site_label
_atom_site_fract_x
_atom_site_fract_y
_atom_site_fract_z
Si Si1 0.834788 0.428170 0.289124
Si Si2 0.871344 0.213148 0.370253
Si Si3 0.469577 0.637004 0.020982
Si Si4 0.624297 0.302840 0.638381
Si Si5 0.189636 0.975076 0.658655
Si Si6 0.232847 0.489125 0.402335
Si Si7 0.000000 0.500000 0.000000
Si Si8 0.443471 0.977211 0.225031
O O1 0.943738 0.383310 0.283745
O O2 0.685320 0.559770 0.133544
O O3 0.112651 0.544369 0.276343
O O4 0.537009 0.164609 0.507099
O O5 0.070883 0.399794 0.175821
O O6 0.500000 0.000000 0.500000
O O7 0.019480 0.082980 0.518819
O O8 0.428939 0.702207 0.890333
O O9 0.535943 0.810657 0.930033
O O10 0.441062 0.401636 0.497977
O O11 0.591012 0.303500 0.705919
O O12 0.518626 0.062900 0.803719
O O13 0.000000 0.500000 0.500000
O O14 0.277957 0.005153 0.715444
O O15 0.998961 0.703718 0.854388
O O16 0.905667 0.261142 0.591007
#
# Coordination Sequence:
#
# PCOD9078647 Si02
#       8
#     2   2   2   2   2   2   1   2
#     4  10  20  36  53  75 107 139 175 216 257 315
#     4  11  21  34  53  76 103 142 180 213 261 316
#     4  10  22  36  53  77 107 141 177 219 265 303
#     4   9  17  32  56  84 108 131 170 217 258 314
#     4   9  19  34  53  75 102 137 175 217 263 304
#     4   9  18  33  58  81 102 139 175 210 265 311
#     4  10  18  36  54  72 106 136 170 222 262 300
#     4   9  18  34  54  78 106 136 175 221 258 304
#
# _framework density 22.975874000000001
#
# number of rings (size 3 to 8) (size 9 to 14) (size 15 to 20)
#    0.000    2.400    0.000    2.400    0.000    4.267 
#    0.000   15.333    0.000    8.000    0.000    0.000 
#    0.000    0.000    0.000    0.000    0.000    0.000 
#
# Total GULP energy -83524.121756 kJ/mol
# GULP energy per Si atom -5568.274784 kJ/mol
# Density = 2.292358 g / cm^3
# Si number density = 22.975874 Si / 1000 Ang^3
#
#
#
# Elastic Constant Matrix: (Units=GPa)
#
#
# Indices 1 2 3 4 5 6 
#
# 1 70.8985 63.7817 37.1489 1.3297 24.3770 4.5703
# 2 63.7817 156.8907 48.4290 -4.7303 32.6041 -0.1437
# 3 37.1489 48.4290 88.5218 -0.0281 32.4051 2.1320
# 4 1.3297 -4.7303 -0.0281 31.6536 2.0880 18.0094
# 5 24.3770 32.6041 32.4051 2.0880 43.7864 0.3971
# 6 4.5703 -0.1437 2.1320 18.0094 0.3971 37.1145
#
#
#
# Elastic Compliance Matrix: (Units=1/GPa)
#
#
# Indices 1 2 3 4 5 6 
#
# 1 0.025490 -0.007980 -0.004478 -0.000438 -0.004890 -0.002647
# 2 -0.007980 0.010677 -0.001614 0.001987 -0.002410 0.000178
# 3 -0.004478 -0.001614 0.017479 0.001077 -0.009284 -0.000882
# 4 -0.000438 0.001987 0.001077 0.044404 -0.003955 -0.021505
# 5 -0.004890 -0.002410 -0.009284 -0.003955 0.034390 0.002677
# 6 -0.002647 0.000178 -0.000882 -0.021505 0.002677 0.037727
#
#
# Mechanical properties :
#
#
# Convention : Reuss Voigt Hill
#
# Bulk Modulus (GPa) = 39.21091 68.33669 53.77380
# Shear Modulus (GPa) = 24.17658 33.64098 28.90878
#
# Velocity S-wave (km/s) = 3.24737 3.83062 3.55099
# Velocity P-wave (km/s) = 5.58245 7.02654 6.34571
#
# Compressibility (1/GPa) = 0.02550311
#
# Stress axis : x y z
#
# Youngs Moduli (GPa) = 39.23119 93.65966 57.21129
#
# Poissons Ratio (x) = 0.74738 0.25617
# Poissons Ratio (y) = 0.31306 0.09234
# Poissons Ratio (z) = 0.17566 0.15117
#
# Static dielectric constant tensor:
#      x y z
#    x 1.913810 -0.025560 -0.069680 
#    y -0.025560 2.023960 0.060660 
#    z -0.069680 0.060660 1.956740 
# 
# From -- ./inp_files/32556.got.cif
#   From: 2010.05.17/outbox.cif.g08.bks.cpg/sg2_17_cif.got.tgz:32556.got - 2010.06.03 11:33:40.
