data_PCOD9078760
_publ_section_title
;
Structure prediction by ZEFSAII (Michael W. Deem and Ramdas Pophale) SiO2 
 PCOD9078760
Probable space group: P -1
;
_chemical_formula_sum "Si O2"
_cell_formula_units_Z 16
_cell_length_a 18.529047
_cell_length_b 18.287505
_cell_length_c 11.545887
_cell_angle_alpha 154.138409
_cell_angle_beta 29.309338
_cell_angle_gamma 153.563273
_cell_volume 714.209075
_symmetry_space_group_name_H-M "P -1"
_symmetry_group_IT_number 2
_symmetry_cell_setting 'triclinic'
loop_
_space_group_symop_operation_xyz
x,y,z
-x,-y,-z
loop_
_atom_site_type_symbol
_atom_site_label
_atom_site_fract_x
_atom_site_fract_y
_atom_site_fract_z
Si Si1 0.256649 0.371660 0.987268
Si Si2 0.929324 0.621229 0.333038
Si Si3 0.327121 0.150105 0.775097
Si Si4 0.886533 0.806529 0.459024
Si Si5 0.319759 0.774366 0.583512
Si Si6 0.397043 0.395071 0.264706
Si Si7 0.027741 0.472507 0.183863
Si Si8 0.880857 0.212061 0.315770
O O1 0.282186 0.561227 0.291220
O O2 0.055329 0.253058 0.068340
O O3 0.300559 0.252955 0.849454
O O4 0.399473 0.452581 0.801447
O O5 0.984046 0.812903 0.452637
O O6 0.722074 0.511685 0.458494
O O7 0.997821 0.624339 0.367791
O O8 0.000000 0.500000 0.000000
O O9 0.487462 0.117527 0.486677
O O10 0.163185 0.947711 0.752980
O O11 0.366270 0.276799 0.019048
O O12 0.698412 0.743490 0.687332
O O13 0.000000 0.000000 0.500000
O O14 0.866543 0.616312 0.148170
O O15 0.164166 0.718204 0.808107
O O16 0.277682 0.864622 0.660587
O O17 0.096148 0.591838 0.377547
#
# Coordination Sequence:
#
# PCOD9078760 Si02
#       8
#     2   2   2   2   2   2   2   2
#     4  10  19  36  59  85 122 152 192 245 297 350
#     4   8  16  31  54  85 108 150 192 234 283 345
#     4  11  21  36  60  91 119 152 203 244 290 355
#     4   9  20  34  57  88 112 153 201 245 283 343
#     4  10  21  36  58  85 121 162 196 236 299 352
#     4   9  18  33  59  83 116 145 201 233 293 343
#     4  10  18  36  58  81 119 151 197 235 296 353
#     4  11  23  36  57  92 123 158 186 247 310 343
#
# _framework density 22.402403
#
# number of rings (size 3 to 8) (size 9 to 14) (size 15 to 20)
#    0.750    1.500    0.000    6.000    1.750    0.000 
#    0.000    0.000    0.000    9.000    0.000    0.000 
#    0.000    0.000    0.000    0.000    0.000    0.000 
#
# Total GULP energy -89081.730463 kJ/mol
# GULP energy per Si atom -5567.608154 kJ/mol
# Density = 2.235141 g / cm^3
# Si number density = 22.402403 Si / 1000 Ang^3
#
#
#
# Elastic Constant Matrix: (Units=GPa)
#
#
# Indices 1 2 3 4 5 6 
#
# 1 74.4186 29.8713 7.7882 -2.9017 -19.4296 -26.9522
# 2 29.8713 101.5020 34.5660 -15.9943 -15.2915 -31.1349
# 3 7.7882 34.5660 74.0680 -24.6703 -2.5025 5.3415
# 4 -2.9017 -15.9943 -24.6703 29.4286 -5.7430 -5.6993
# 5 -19.4296 -15.2915 -2.5025 -5.7430 23.0722 0.3824
# 6 -26.9522 -31.1349 5.3415 -5.6993 0.3824 38.8734
#
#
#
# Elastic Compliance Matrix: (Units=1/GPa)
#
#
# Indices 1 2 3 4 5 6 
#
# 1 0.033431 0.011670 -0.002806 0.022113 0.040495 0.035755
# 2 0.011670 0.028708 -0.008386 0.023014 0.033089 0.035285
# 3 -0.002806 -0.008386 0.022091 0.011244 -0.002560 -0.010024
# 4 0.022113 0.023014 0.011244 0.076858 0.053514 0.042962
# 5 0.040495 0.033089 -0.002560 0.053514 0.111394 0.061680
# 6 0.035755 0.035285 -0.010024 0.042962 0.061680 0.085845
#
#
# Mechanical properties :
#
#
# Convention : Reuss Voigt Hill
#
# Bulk Modulus (GPa) = 11.73900 43.82662 27.78281
# Shear Modulus (GPa) = 12.96113 30.12571 21.54342
#
# Velocity S-wave (km/s) = 2.40794 3.67107 3.10442
# Velocity P-wave (km/s) = 3.60310 6.12983 5.02778
#
# Compressibility (1/GPa) = 0.08518613
#
# Stress axis : x y z
#
# Youngs Moduli (GPa) = 29.91211 34.83310 45.26684
#
# Poissons Ratio (x) = -0.40650 0.12703
# Poissons Ratio (y) = -0.34907 0.37960
# Poissons Ratio (z) = 0.08394 0.29211
#
# Static dielectric constant tensor:
#      x y z
#    x 1.958160 -0.044270 0.018040 
#    y -0.044270 1.924970 -0.014540 
#    z 0.018040 -0.014540 1.895360 
# 
# From -- ./inp_files/466468.got.cif
#   From: 2010.05.17/outbox.cif.g08.bks.cpg/sg2_234_cif.got.tgz:466468.got - 2010.06.03 11:33:40.
