data_PCOD9078292
_publ_section_title
;
Structure prediction by ZEFSAII (Michael W. Deem and Ramdas Pophale) SiO2 
 PCOD9078292
Probable space group: P -1
;
_chemical_formula_sum "Si O2"
_cell_formula_units_Z 16
_cell_length_a 9.592695
_cell_length_b 8.033724
_cell_length_c 14.631665
_cell_angle_alpha 134.392116
_cell_angle_beta 91.847461
_cell_angle_gamma 69.066686
_cell_volume 711.397018
_symmetry_space_group_name_H-M "P -1"
_symmetry_group_IT_number 2
_symmetry_cell_setting 'triclinic'
loop_
_space_group_symop_operation_xyz
x,y,z
-x,-y,-z
loop_
_atom_site_type_symbol
_atom_site_label
_atom_site_fract_x
_atom_site_fract_y
_atom_site_fract_z
Si Si1 0.613844 0.848805 0.028948
Si Si2 0.328748 0.056498 0.227244
Si Si3 0.334305 0.501358 0.510568
Si Si4 0.861554 0.534904 0.780658
Si Si5 0.782892 0.209878 0.192298
Si Si6 0.116286 0.047928 0.643428
Si Si7 0.902859 0.179191 0.867514
Si Si8 0.824132 0.515662 0.157547
O O1 0.498008 0.861726 0.112266
O O2 0.700704 0.022341 0.123438
O O3 0.739512 0.582545 0.879253
O O4 0.500000 0.000000 0.000000
O O5 0.343932 0.226984 0.375386
O O6 0.231655 0.273425 0.229815
O O7 0.227591 0.909859 0.192631
O O8 0.500000 0.500000 0.500000
O O9 0.276742 0.589396 0.646415
O O10 0.210813 0.736658 0.532683
O O11 0.993757 0.605560 0.851204
O O12 0.975737 0.228990 0.640659
O O13 0.746099 0.372546 0.159847
O O14 0.970273 0.032392 0.140464
O O15 0.234248 0.178736 0.701089
O O16 0.017855 0.143819 0.772875
O O17 0.827957 0.451444 0.026501
#
# Coordination Sequence:
#
# PCOD9078292 Si02
#       8
#     2   2   2   2   2   2   2   2
#     4  10  19  33  60  90 121 153 191 249 300 350
#     4  11  22  38  61  90 121 158 203 244 293 352
#     4  11  24  42  60  82 124 165 203 239 292 365
#     4   9  19  37  60  92 118 146 199 249 301 345
#     4  11  19  35  62  85 116 164 201 240 289 359
#     4   9  22  37  62  89 120 160 193 246 301 352
#     4  11  19  35  62  95 116 153 199 253 297 351
#     4  10  18  35  60  93 117 145 201 246 299 347
#
# _framework density 22.490957999999999
#
# number of rings (size 3 to 8) (size 9 to 14) (size 15 to 20)
#    0.750    1.000    3.750    2.250    0.000    2.500 
#    0.000    1.250    5.500    0.000    0.000    0.000 
#    0.000    0.000    0.000    0.000    0.000    0.000 
#
# Total GULP energy -89249.688549 kJ/mol
# GULP energy per Si atom -5578.105534 kJ/mol
# Density = 2.243977 g / cm^3
# Si number density = 22.490958 Si / 1000 Ang^3
#
#
#
# Elastic Constant Matrix: (Units=GPa)
#
#
# Indices 1 2 3 4 5 6 
#
# 1 90.4254 10.9422 32.9783 6.9383 11.8247 3.8820
# 2 10.9422 44.6245 -13.3256 4.1461 -4.8877 0.6803
# 3 32.9783 -13.3256 84.4353 8.4089 12.7085 -6.7388
# 4 6.9383 4.1461 8.4089 23.4433 -5.5874 -0.2425
# 5 11.8247 -4.8877 12.7085 -5.5874 26.3868 6.8981
# 6 3.8820 0.6803 -6.7388 -0.2425 6.8981 36.6426
#
#
#
# Elastic Compliance Matrix: (Units=1/GPa)
#
#
# Indices 1 2 3 4 5 6 
#
# 1 0.014763 -0.005636 -0.005784 -0.002503 -0.004986 -0.001601
# 2 -0.005636 0.026465 0.006397 -0.004533 0.003218 0.000646
# 3 -0.005784 0.006397 0.017375 -0.007381 -0.007474 0.005047
# 4 -0.002503 -0.004533 -0.007381 0.050495 0.015466 -0.003585
# 5 -0.004986 0.003218 -0.007474 0.015466 0.050287 -0.010270
# 6 -0.001601 0.000646 0.005047 -0.003585 -0.010270 0.030286
#
#
# Mechanical properties :
#
#
# Convention : Reuss Voigt Hill
#
# Bulk Modulus (GPa) = 20.59452 31.18609 25.89031
# Shear Modulus (GPa) = 23.15855 29.88724 26.52289
#
# Velocity S-wave (km/s) = 3.21235 3.64930 3.43777
# Velocity P-wave (km/s) = 4.78911 5.62607 5.22438
#
# Compressibility (1/GPa) = 0.04855660
#
# Stress axis : x y z
#
# Youngs Moduli (GPa) = 67.73750 37.78542 57.55523
#
# Poissons Ratio (x) = 0.21296 0.33288
# Poissons Ratio (y) = 0.38178 -0.36817
# Poissons Ratio (z) = 0.39177 -0.24170
#
# Static dielectric constant tensor:
#      x y z
#    x 1.796450 -0.014020 -0.006480 
#    y -0.014020 1.967750 -0.004900 
#    z -0.006480 -0.004900 1.847960 
# 
# From -- ./inp_files/495885.got.cif
#   From: 2010.05.17/outbox.cif.g08.bks.cpg/sg2_248_cif.got.tgz:495885.got - 2010.06.03 11:33:40.
