data_PCOD9078702
_publ_section_title
;
Structure prediction by ZEFSAII (Michael W. Deem and Ramdas Pophale) SiO2 
 PCOD9078702
Probable space group: P -1
;
_chemical_formula_sum "Si O2"
_cell_formula_units_Z 14
_cell_length_a 12.372615
_cell_length_b 14.988895
_cell_length_c 12.740077
_cell_angle_alpha 150.044956
_cell_angle_beta 64.640255
_cell_angle_gamma 135.805095
_cell_volume 684.555732
_symmetry_space_group_name_H-M "P -1"
_symmetry_group_IT_number 2
_symmetry_cell_setting 'triclinic'
loop_
_space_group_symop_operation_xyz
x,y,z
-x,-y,-z
loop_
_atom_site_type_symbol
_atom_site_label
_atom_site_fract_x
_atom_site_fract_y
_atom_site_fract_z
Si Si1 0.311886 0.818137 0.831255
Si Si2 0.160580 0.572413 0.441557
Si Si3 0.027678 0.994846 0.145377
Si Si4 0.607519 0.684012 0.747260
Si Si5 0.219815 0.229911 0.536863
Si Si6 0.086150 0.760308 0.507372
Si Si7 0.961978 0.256514 0.727994
O O1 0.309916 0.714500 0.615076
O O2 0.129660 0.554755 0.706269
O O3 0.500000 0.000000 0.000000
O O4 0.316074 0.030797 0.016115
O O5 0.211918 0.766382 0.524944
O O6 0.000000 0.500000 0.500000
O O7 0.085073 0.307422 0.150239
O O8 0.205601 0.216812 0.220749
O O9 0.118144 0.084387 0.316786
O O10 0.909354 0.039197 0.239234
O O11 0.500000 0.500000 0.500000
O O12 0.442649 0.492710 0.703924
O O13 0.140646 0.329868 0.711894
O O14 0.160500 0.999430 0.401312
O O15 0.124907 0.821764 0.431471
O O16 0.000000 0.500000 0.000000
#
# Coordination Sequence:
#
# PCOD9078702 Si02
#       7
#     2   2   2   2   2   2   2
#     4  11  21  36  54  86 119 144 190 236 289 347
#     4  10  20  35  54  82 118 154 185 234 284 351
#     4  10  18  36  56  84 119 153 184 234 293 340
#     4  10  19  34  54  81 122 147 177 243 287 335
#     4   9  20  34  52  85 116 150 195 237 283 329
#     4  10  21  36  58  85 116 150 193 232 284 347
#     4  10  19  33  55  80 113 154 198 239 272 334
#
# _framework density 20.451221
#
# number of rings (size 3 to 8) (size 9 to 14) (size 15 to 20)
#    0.000    2.000    2.857    3.429    2.000    2.286 
#    5.143    0.000    0.000    0.857    0.000   32.000 
#    0.000    0.000    0.000    0.000    0.000    0.000 
#
# Total GULP energy -78116.178783 kJ/mol
# GULP energy per Si atom -5579.727056 kJ/mol
# Density = 2.040467 g / cm^3
# Si number density = 20.451221 Si / 1000 Ang^3
#
#
#
# Elastic Constant Matrix: (Units=GPa)
#
#
# Indices 1 2 3 4 5 6 
#
# 1 74.2783 33.4695 50.3757 -2.6615 -8.7017 -22.3801
# 2 33.4695 89.6834 35.2595 5.3867 -15.2975 -15.6218
# 3 50.3757 35.2595 153.4881 -13.1715 -32.6016 -5.6084
# 4 -2.6615 5.3867 -13.1715 19.3648 -2.1486 -7.3085
# 5 -8.7017 -15.2975 -32.6016 -2.1486 40.4273 0.6344
# 6 -22.3801 -15.6218 -5.6084 -7.3085 0.6344 29.6761
#
#
#
# Elastic Compliance Matrix: (Units=1/GPa)
#
#
# Indices 1 2 3 4 5 6 
#
# 1 0.024894 -0.004525 -0.006209 0.006691 -0.001271 0.016893
# 2 -0.004525 0.014728 -0.001496 -0.004282 0.003119 0.002936
# 3 -0.006209 -0.001496 0.011022 0.007213 0.007397 -0.001769
# 4 0.006691 -0.004282 0.007213 0.067406 0.008897 0.020566
# 5 -0.001271 0.003119 0.007397 0.008897 0.032024 0.003588
# 6 0.016893 0.002936 -0.001769 0.020566 0.003588 0.052637
#
#
# Mechanical properties :
#
#
# Convention : Reuss Voigt Hill
#
# Bulk Modulus (GPa) = 38.19185 61.73993 49.96589
# Shear Modulus (GPa) = 21.19551 31.11662 26.15607
#
# Velocity S-wave (km/s) = 3.22280 3.90488 3.58012
# Velocity P-wave (km/s) = 5.70646 7.11233 6.44783
#
# Compressibility (1/GPa) = 0.02618360
#
# Stress axis : x y z
#
# Youngs Moduli (GPa) = 40.17063 67.89835 90.72576
#
# Poissons Ratio (x) = 0.30725 0.56333
# Poissons Ratio (y) = 0.18178 0.13570
# Poissons Ratio (z) = 0.24943 0.10156
#
# Static dielectric constant tensor:
#      x y z
#    x 1.820510 -0.005170 0.007170 
#    y -0.005170 1.752720 -0.025490 
#    z 0.007170 -0.025490 1.755060 
# 
# From -- ./inp_files/455999.got.cif
#   From: 2010.05.17/outbox.cif.g08.bks.cpg/sg2_228_cif.got.tgz:455999.got - 2010.06.03 11:33:40.
