data_PCOD9078158
_publ_section_title
;
Structure prediction by ZEFSAII (Michael W. Deem and Ramdas Pophale) SiO2 
 PCOD9078158
Probable space group: P -1
;
_chemical_formula_sum "Si O2"
_cell_formula_units_Z 15
_cell_length_a 12.015059
_cell_length_b 7.551318
_cell_length_c 11.039173
_cell_angle_alpha 121.065484
_cell_angle_beta 49.379319
_cell_angle_gamma 97.972769
_cell_volume 620.509228
_symmetry_space_group_name_H-M "P -1"
_symmetry_group_IT_number 2
_symmetry_cell_setting 'triclinic'
loop_
_space_group_symop_operation_xyz
x,y,z
-x,-y,-z
loop_
_atom_site_type_symbol
_atom_site_label
_atom_site_fract_x
_atom_site_fract_y
_atom_site_fract_z
Si Si1 0.529448 0.340108 0.258572
Si Si2 0.315250 0.356524 0.636120
Si Si3 0.769965 0.434947 0.604574
Si Si4 0.701314 0.106522 0.856181
Si Si5 0.638347 0.073465 0.628516
Si Si6 0.691416 0.596640 0.978928
Si Si7 0.000000 0.000000 0.500000
Si Si8 0.023560 0.481838 0.716940
O O1 0.463927 0.305399 0.422609
O O2 0.650103 0.477131 0.236640
O O3 0.379544 0.484217 0.345812
O O4 0.610515 0.123522 0.049653
O O5 0.155450 0.461857 0.716506
O O6 0.322385 0.108770 0.566491
O O7 0.767308 0.199826 0.571762
O O8 0.729532 0.590109 0.805166
O O9 0.913158 0.435872 0.421010
O O10 0.662486 0.991782 0.722843
O O11 0.662707 0.362524 0.937199
O O12 0.882124 0.013381 0.703245
O O13 0.464243 0.227722 0.806371
O O14 0.850730 0.612626 0.927336
O O15 0.008661 0.245682 0.613964
#
# Coordination Sequence:
#
# PCOD9078158 Si02
#       8
#     2   2   2   2   2   2   1   2
#     4  10  20  39  59  85 121 161 192 241 299 349
#     4  10  23  37  59  89 120 155 202 241 285 356
#     4  10  19  35  59  85 114 158 192 240 303 348
#     4  10  18  35  59  84 117 148 193 245 291 339
#     4  11  19  36  61  89 113 146 209 247 279 352
#     4  10  19  34  57  88 117 150 189 248 296 348
#     4  10  20  34  58  90 114 148 196 246 282 348
#     4  10  21  37  58  84 125 155 186 247 303 343
#
# _framework density 24.173694999999999
#
# number of rings (size 3 to 8) (size 9 to 14) (size 15 to 20)
#    0.000    1.867    4.000    1.200    0.000    2.133 
#    0.000    2.667    0.000    7.200    0.000    0.000 
#    0.000    0.000    0.000    0.000    0.000    0.000 
#
# Total GULP energy -83512.588523 kJ/mol
# GULP energy per Si atom -5567.505902 kJ/mol
# Density = 2.411867 g / cm^3
# Si number density = 24.173695 Si / 1000 Ang^3
#
#
#
# Elastic Constant Matrix: (Units=GPa)
#
#
# Indices 1 2 3 4 5 6 
#
# 1 83.5160 17.5341 13.5998 5.7166 -17.6177 23.2588
# 2 17.5341 67.3506 14.8245 -11.5750 2.0926 28.0631
# 3 13.5998 14.8245 53.6074 -8.8287 -23.3917 5.4194
# 4 5.7166 -11.5750 -8.8287 38.2969 13.2598 -2.2430
# 5 -17.6177 2.0926 -23.3917 13.2598 40.4606 -6.8020
# 6 23.2588 28.0631 5.4194 -2.2430 -6.8020 25.0292
#
#
#
# Elastic Compliance Matrix: (Units=1/GPa)
#
#
# Indices 1 2 3 4 5 6 
#
# 1 0.018418 0.001851 -0.001814 -0.005634 0.005739 -0.017743
# 2 0.001851 0.041466 -0.014489 0.013832 -0.022653 -0.049992
# 3 -0.001814 -0.014489 0.030168 -0.003578 0.021414 0.016898
# 4 -0.005634 0.013832 -0.003578 0.036229 -0.019031 -0.011423
# 5 0.005739 -0.022653 0.021414 -0.019031 0.051671 0.027766
# 6 -0.017743 -0.049992 0.016898 -0.011423 0.027766 0.115355
#
#
# Mechanical properties :
#
#
# Convention : Reuss Voigt Hill
#
# Bulk Modulus (GPa) = 16.35433 32.93233 24.64333
# Shear Modulus (GPa) = 14.59451 31.32504 22.95978
#
# Velocity S-wave (km/s) = 2.45977 3.60367 3.08520
# Velocity P-wave (km/s) = 3.85322 5.56489 4.78620
#
# Compressibility (1/GPa) = 0.06114588
#
# Stress axis : x y z
#
# Youngs Moduli (GPa) = 54.29399 24.11608 33.14817
#
# Poissons Ratio (x) = -0.04463 0.06015
# Poissons Ratio (y) = -0.10048 0.48029
# Poissons Ratio (z) = 0.09851 0.34942
#
# Static dielectric constant tensor:
#      x y z
#    x 1.904010 0.026460 -0.004710 
#    y 0.026460 2.038180 -0.011710 
#    z -0.004710 -0.011710 1.932100 
# 
# From -- ./inp_files/216528.got.cif
#   From: 2010.05.17/outbox.cif.g08.bks.cpg/sg2_109_cif.got.tgz:216528.got - 2010.06.03 11:33:40.
