data_PCOD9078276
_publ_section_title
;
Structure prediction by ZEFSAII (Michael W. Deem and Ramdas Pophale) SiO2 
 PCOD9078276
Probable space group: P -1
;
_chemical_formula_sum "Si O2"
_cell_formula_units_Z 16
_cell_length_a 9.475578
_cell_length_b 20.591664
_cell_length_c 17.972777
_cell_angle_alpha 19.268523
_cell_angle_beta 35.939679
_cell_angle_gamma 45.960432
_cell_volume 634.486634
_symmetry_space_group_name_H-M "P -1"
_symmetry_group_IT_number 2
_symmetry_cell_setting 'triclinic'
loop_
_space_group_symop_operation_xyz
x,y,z
-x,-y,-z
loop_
_atom_site_type_symbol
_atom_site_label
_atom_site_fract_x
_atom_site_fract_y
_atom_site_fract_z
Si Si1 0.361565 0.182161 0.592491
Si Si2 0.765431 0.544870 0.092101
Si Si3 0.924211 0.940319 0.399312
Si Si4 0.845795 0.898992 0.064668
Si Si5 0.911870 0.625373 0.209510
Si Si6 0.681909 0.278964 0.567563
Si Si7 0.394084 0.686600 0.851393
Si Si8 0.188628 0.905176 0.575871
O O1 0.525726 0.431497 0.262264
O O2 0.240295 0.123713 0.788931
O O3 0.569462 0.067872 0.610614
O O4 0.118617 0.092539 0.737633
O O5 0.691158 0.426180 0.331789
O O6 0.000000 0.500000 0.000000
O O7 0.902177 0.788953 0.791019
O O8 0.655054 0.885773 0.531435
O O9 0.079416 0.794203 0.469489
O O10 0.833477 0.925317 0.539208
O O11 0.099969 0.176538 0.047700
O O12 0.879339 0.693695 0.233462
O O13 0.595717 0.906449 0.120368
O O14 0.725457 0.413985 0.478632
O O15 0.199853 0.635777 0.058324
O O16 0.241104 0.732352 0.797376
O O17 0.500000 0.500000 0.000000
#
# Coordination Sequence:
#
# PCOD9078276 Si02
#       8
#     2   2   2   2   2   2   2   2
#     4   9  19  36  61  83 114 161 202 239 288 349
#     4   9  17  34  60  85 115 153 192 243 295 338
#     4  11  21  34  60  93 120 152 188 245 306 349
#     4  10  21  37  58  85 116 166 201 231 289 351
#     4  11  21  38  60  88 121 156 192 242 299 352
#     4  11  21  38  58  93 121 153 199 239 291 356
#     4  11  19  33  58  90 123 145 185 244 304 350
#     4  10  18  35  60  89 119 150 193 246 303 346
#
# _framework density 25.217237000000001
#
# number of rings (size 3 to 8) (size 9 to 14) (size 15 to 20)
#    0.000    1.750    3.750    3.375    0.000    0.500 
#    0.000    5.625    0.000    9.000    0.000    0.000 
#    0.000    0.000    0.000    0.000    0.000    0.000 
#
# Total GULP energy -89312.551001 kJ/mol
# GULP energy per Si atom -5582.034438 kJ/mol
# Density = 2.515984 g / cm^3
# Si number density = 25.217237 Si / 1000 Ang^3
#
#
#
# Elastic Constant Matrix: (Units=GPa)
#
#
# Indices 1 2 3 4 5 6 
#
# 1 84.2274 35.1424 45.5201 15.8541 -33.3647 7.8382
# 2 35.1424 195.2839 25.8618 22.6711 -8.9689 20.8405
# 3 45.5201 25.8618 118.3436 2.5528 -61.1391 3.1660
# 4 15.8541 22.6711 2.5528 39.1815 1.8540 0.6145
# 5 -33.3647 -8.9689 -61.1391 1.8540 59.8965 3.3559
# 6 7.8382 20.8405 3.1660 0.6145 3.3559 39.3436
#
#
#
# Elastic Compliance Matrix: (Units=1/GPa)
#
#
# Indices 1 2 3 4 5 6 
#
# 1 0.018593 -0.001512 -0.002429 -0.006819 0.008046 -0.003288
# 2 -0.001512 0.006107 -0.000968 -0.002784 -0.000676 -0.002755
# 3 -0.002429 -0.000968 0.018947 -0.000509 0.017973 -0.002053
# 4 -0.006819 -0.002784 -0.000509 0.030156 -0.005831 0.002900
# 5 0.008046 -0.000676 0.017973 -0.005831 0.039939 -0.006007
# 6 -0.003288 -0.002755 -0.002053 0.002900 -0.006007 0.028164
#
#
# Mechanical properties :
#
#
# Convention : Reuss Voigt Hill
#
# Bulk Modulus (GPa) = 29.56149 67.87817 48.71983
# Shear Modulus (GPa) = 30.67452 47.10638 38.89045
#
# Velocity S-wave (km/s) = 3.49149 4.32675 3.93137
# Velocity P-wave (km/s) = 5.29171 7.20672 6.32215
#
# Compressibility (1/GPa) = 0.03382780
#
# Stress axis : x y z
#
# Youngs Moduli (GPa) = 53.78238 163.74080 52.77875
#
# Poissons Ratio (x) = 0.24760 0.12822
# Poissons Ratio (y) = 0.08133 0.05111
# Poissons Ratio (z) = 0.13066 0.15856
#
# Static dielectric constant tensor:
#      x y z
#    x 2.043540 0.023450 -0.000650 
#    y 0.023450 2.015950 -0.035590 
#    z -0.000650 -0.035590 2.113090 
# 
# From -- ./inp_files/523985.got.cif
#   From: 2010.05.17/outbox.cif.g08.bks.cpg/sg2_262_cif.got.tgz:523985.got - 2010.06.03 11:33:40.
