data_PCOD9078296
_publ_section_title
;
Structure prediction by ZEFSAII (Michael W. Deem and Ramdas Pophale) SiO2 
 PCOD9078296
Probable space group: P -1
;
_chemical_formula_sum "Si O2"
_cell_formula_units_Z 16
_cell_length_a 10.369533
_cell_length_b 14.632493
_cell_length_c 12.412589
_cell_angle_alpha 30.953683
_cell_angle_beta 92.655289
_cell_angle_gamma 113.070624
_cell_volume 704.656775
_symmetry_space_group_name_H-M "P -1"
_symmetry_group_IT_number 2
_symmetry_cell_setting 'triclinic'
loop_
_space_group_symop_operation_xyz
x,y,z
-x,-y,-z
loop_
_atom_site_type_symbol
_atom_site_label
_atom_site_fract_x
_atom_site_fract_y
_atom_site_fract_z
Si Si1 0.966682 0.758203 0.265963
Si Si2 0.924740 0.814736 0.434802
Si Si3 0.971347 0.405928 0.214762
Si Si4 0.484057 0.656611 0.117810
Si Si5 0.001260 0.707036 0.089549
Si Si6 0.446879 0.948705 0.426273
Si Si7 0.591312 0.392715 0.376967
Si Si8 0.449833 0.745854 0.254416
O O1 0.018139 0.799620 0.352074
O O2 0.057359 0.745406 0.179630
O O3 0.760162 0.500454 0.516453
O O4 0.000000 0.000000 0.000000
O O5 0.715158 0.602565 0.625268
O O6 0.972095 0.743502 0.612422
O O7 0.962760 0.059279 0.186267
O O8 0.062122 0.618192 0.095132
O O9 0.763170 0.224010 0.409409
O O10 0.000000 0.500000 0.000000
O O11 0.602725 0.608331 0.127689
O O12 0.541197 0.753440 0.144086
O O13 0.480813 0.824484 0.873113
O O14 0.787097 0.499966 0.294348
O O15 0.497225 0.811345 0.510268
O O16 0.500000 0.000000 0.500000
O O17 0.495451 0.284492 0.598132
O O18 0.500000 0.000000 0.000000
#
# Coordination Sequence:
#
# PCOD9078296 Si02
#       8
#     2   2   2   2   2   2   2   2
#     4   8  17  35  59  87 124 158 195 242 298 368
#     4  10  21  38  60  90 122 154 196 241 298 364
#     4  11  24  41  62  84 114 160 203 250 302 352
#     4  11  22  37  63  93 124 159 196 249 307 365
#     4   9  20  40  61  85 119 156 200 240 296 359
#     4  11  24  42  62  87 120 156 208 261 300 359
#     4  10  21  39  63  89 122 161 200 246 305 365
#     4  10  18  35  60  94 128 160 200 250 306 368
#
# _framework density 22.70609
#
# number of rings (size 3 to 8) (size 9 to 14) (size 15 to 20)
#    0.000    2.000    1.250    1.875    0.000    3.500 
#    0.000    1.250    0.000    0.000    0.000    0.000 
#    0.000    0.000    0.000    0.000    0.000    0.000 
#
# Total GULP energy -89353.442318 kJ/mol
# GULP energy per Si atom -5584.590145 kJ/mol
# Density = 2.265441 g / cm^3
# Si number density = 22.706090 Si / 1000 Ang^3
#
#
#
# Elastic Constant Matrix: (Units=GPa)
#
#
# Indices 1 2 3 4 5 6 
#
# 1 45.5344 10.1988 13.0740 -2.3385 11.9781 -4.4210
# 2 10.1988 102.8708 43.8458 6.1702 20.0841 -16.7903
# 3 13.0740 43.8458 118.2524 -0.9089 11.9169 -14.3199
# 4 -2.3385 6.1702 -0.9089 35.0197 1.2267 2.2630
# 5 11.9781 20.0841 11.9169 1.2267 31.2166 -11.1443
# 6 -4.4210 -16.7903 -14.3199 2.2630 -11.1443 20.0749
#
#
#
# Elastic Compliance Matrix: (Units=1/GPa)
#
#
# Indices 1 2 3 4 5 6 
#
# 1 0.024972 -0.000204 -0.001904 0.002073 -0.009318 -0.001436
# 2 -0.000204 0.013452 -0.003754 -0.002709 -0.004843 0.006145
# 3 -0.001904 -0.003754 0.010512 0.000512 0.000622 0.004227
# 4 0.002073 -0.002709 0.000512 0.029682 -0.002650 -0.006260
# 5 -0.009318 -0.004843 0.000622 -0.002650 0.045744 0.020033
# 6 -0.001436 0.006145 0.004227 -0.006260 0.020033 0.069479
#
#
# Mechanical properties :
#
#
# Convention : Reuss Voigt Hill
#
# Bulk Modulus (GPa) = 26.87251 44.54385 35.70818
# Shear Modulus (GPa) = 22.93902 30.56486 26.75194
#
# Velocity S-wave (km/s) = 3.18190 3.67292 3.43619
# Velocity P-wave (km/s) = 5.03587 6.13573 5.61281
#
# Compressibility (1/GPa) = 0.03721275
#
# Stress axis : x y z
#
# Youngs Moduli (GPa) = 40.04476 74.33739 95.12910
#
# Poissons Ratio (x) = 0.01513 0.18116
# Poissons Ratio (y) = 0.00815 0.35710
# Poissons Ratio (z) = 0.07626 0.27905
#
# Static dielectric constant tensor:
#      x y z
#    x 1.842970 -0.034120 -0.334950 
#    y -0.034120 1.907600 -0.212650 
#    z -0.334950 -0.212650 0.076570 
# 
# From -- ./inp_files/418620.got.cif
#   From: 2010.05.17/outbox.cif.g08.bks.cpg/sg2_210_cif.got.tgz:418620.got - 2010.06.03 11:33:40.
