data_PCOD9078868
_publ_section_title
;
Structure prediction by ZEFSAII (Michael W. Deem and Ramdas Pophale) SiO2 
 PCOD9078868
Probable space group: P -1
;
_chemical_formula_sum "Si O2"
_cell_formula_units_Z 14
_cell_length_a 11.075839
_cell_length_b 10.623250
_cell_length_c 10.012785
_cell_angle_alpha 69.978221
_cell_angle_beta 131.737136
_cell_angle_gamma 128.687986
_cell_volume 680.684825
_symmetry_space_group_name_H-M "P -1"
_symmetry_group_IT_number 2
_symmetry_cell_setting 'triclinic'
loop_
_space_group_symop_operation_xyz
x,y,z
-x,-y,-z
loop_
_atom_site_type_symbol
_atom_site_label
_atom_site_fract_x
_atom_site_fract_y
_atom_site_fract_z
Si Si1 0.548111 0.159594 0.658278
Si Si2 0.021240 0.687720 0.119308
Si Si3 0.768574 0.950759 0.755161
Si Si4 0.618576 0.910662 0.941315
Si Si5 0.973395 0.817550 0.778248
Si Si6 0.585660 0.438632 0.976064
Si Si7 0.394852 0.360117 0.584925
O O1 0.414397 0.088333 0.454298
O O2 0.460128 0.238470 0.650471
O O3 0.912329 0.141750 0.823270
O O4 0.773992 0.296975 0.734057
O O5 0.819912 0.549565 0.087779
O O6 0.522411 0.566222 0.237299
O O7 0.979808 0.695279 0.928734
O O8 0.545826 0.019254 0.790069
O O9 0.869420 0.882798 0.768564
O O10 0.697336 0.874432 0.877351
O O11 0.473749 0.741244 0.966305
O O12 0.803212 0.030623 0.129219
O O13 0.837635 0.734870 0.579905
O O14 0.500000 0.500000 0.000000
O O15 0.500000 0.500000 0.500000
#
# Coordination Sequence:
#
# PCOD9078868 Si02
#       7
#     2   2   2   2   2   2   2
#     4   9  21  39  66  86 116 162 210 243 285 362
#     4  10  18  36  59  93 116 160 199 242 297 352
#     4   9  16  34  62  86 118 157 209 236 282 366
#     4  10  20  36  59  91 122 156 196 248 302 349
#     4   9  17  35  62  84 111 163 208 237 281 362
#     4  12  25  38  60  93 131 154 192 253 311 349
#     4  11  23  41  65  89 117 159 207 249 293 359
#
# _framework density 20.567520999999999
#
# number of rings (size 3 to 8) (size 9 to 14) (size 15 to 20)
#    0.000    2.286    1.429    5.143    2.000    1.714 
#    0.000    2.857    6.286    0.000    0.000    0.000 
#    0.000    0.000    0.000    0.000    0.000    0.000 
#
# Total GULP energy -78142.835740 kJ/mol
# GULP energy per Si atom -5581.631124 kJ/mol
# Density = 2.052071 g / cm^3
# Si number density = 20.567521 Si / 1000 Ang^3
#
#
#
# Elastic Constant Matrix: (Units=GPa)
#
#
# Indices 1 2 3 4 5 6 
#
# 1 31.4895 21.6134 35.2584 3.3563 -12.6678 6.3256
# 2 21.6134 116.6281 50.5700 19.6816 3.7114 39.4108
# 3 35.2584 50.5700 171.2693 27.5743 -0.7113 15.3157
# 4 3.3563 19.6816 27.5743 27.2257 -1.3894 10.1086
# 5 -12.6678 3.7114 -0.7113 -1.3894 36.3392 5.1257
# 6 6.3256 39.4108 15.3157 10.1086 5.1257 26.2836
#
#
#
# Elastic Compliance Matrix: (Units=1/GPa)
#
#
# Indices 1 2 3 4 5 6 
#
# 1 0.057633 -0.006181 -0.011342 0.012623 0.021989 -0.007136
# 2 -0.006181 0.019708 -0.001911 -0.001886 -0.000594 -0.026109
# 3 -0.011342 -0.001911 0.009779 -0.008915 -0.004501 0.004203
# 4 0.012623 -0.001886 -0.008915 0.052264 0.008791 -0.016829
# 5 0.021989 -0.000594 -0.004501 0.008791 0.037245 -0.012422
# 6 -0.007136 -0.026109 0.004203 -0.016829 -0.012422 0.085359
#
#
# Mechanical properties :
#
#
# Convention : Reuss Voigt Hill
#
# Bulk Modulus (GPa) = 20.72469 59.36338 40.04403
# Shear Modulus (GPa) = 15.77589 32.09936 23.93763
#
# Velocity S-wave (km/s) = 2.77253 3.95483 3.41523
# Velocity P-wave (km/s) = 4.51083 7.05547 5.92145
#
# Compressibility (1/GPa) = 0.04825164
#
# Stress axis : x y z
#
# Youngs Moduli (GPa) = 17.35113 50.74045 102.26369
#
# Poissons Ratio (x) = 0.31363 1.15992
# Poissons Ratio (y) = 0.10725 0.19539
# Poissons Ratio (z) = 0.19680 0.09695
#
# Static dielectric constant tensor:
#      x y z
#    x 1.750040 -0.018360 0.016360 
#    y -0.018360 1.752090 0.007490 
#    z 0.016360 0.007490 1.759660 
# 
# From -- ./inp_files/425551.got.cif
#   From: 2010.05.17/outbox.cif.g08.bks.cpg/sg2_213_cif.got.tgz:425551.got - 2010.06.03 11:33:40.
