data_PCOD9078067
_publ_section_title
;
Structure prediction by ZEFSAII (Michael W. Deem and Ramdas Pophale) SiO2 
 PCOD9078067
Probable space group: P -1
;
_chemical_formula_sum "Si O2"
_cell_formula_units_Z 16
_cell_length_a 7.231015
_cell_length_b 18.373130
_cell_length_c 11.000726
_cell_angle_alpha 147.598580
_cell_angle_beta 117.057819
_cell_angle_gamma 66.097354
_cell_volume 696.749911
_symmetry_space_group_name_H-M "P -1"
_symmetry_group_IT_number 2
_symmetry_cell_setting 'triclinic'
loop_
_space_group_symop_operation_xyz
x,y,z
-x,-y,-z
loop_
_atom_site_type_symbol
_atom_site_label
_atom_site_fract_x
_atom_site_fract_y
_atom_site_fract_z
Si Si1 0.959225 0.316718 0.681694
Si Si2 0.770312 0.055221 0.689422
Si Si3 0.342694 0.211358 0.784591
Si Si4 0.903319 0.444045 0.081592
Si Si5 0.024955 0.685602 0.827917
Si Si6 0.317347 0.342551 0.524039
Si Si7 0.127447 0.099135 0.262035
Si Si8 0.526656 0.452471 0.304883
O O1 0.202882 0.291584 0.757586
O O2 0.945789 0.453993 0.795274
O O3 0.947585 0.190539 0.409465
O O4 0.848403 0.337582 0.808973
O O5 0.568515 0.148719 0.725104
O O6 0.784789 0.924747 0.421190
O O7 0.745846 0.987224 0.719481
O O8 0.952186 0.156343 0.909307
O O9 0.388210 0.324559 0.055398
O O10 0.003081 0.381018 0.143440
O O11 0.724043 0.544030 0.224004
O O12 0.242042 0.616930 0.746673
O O13 0.858729 0.663425 0.642811
O O14 0.281449 0.198209 0.375872
O O15 0.497677 0.413538 0.601079
O O16 0.000000 0.000000 0.000000
O O17 0.500000 0.500000 0.500000
#
# Coordination Sequence:
#
# PCOD9078067 Si02
#       8
#     2   2   2   2   2   2   2   2
#     4   9  19  33  54  82 110 151 176 233 288 320
#     4   9  18  36  54  80 104 153 186 223 280 327
#     4   9  19  34  53  75 111 147 185 213 277 345
#     4   9  18  33  51  81 115 134 188 232 277 332
#     4  10  19  34  58  83 109 147 192 234 277 325
#     4  10  20  34  58  86 109 149 189 233 280 326
#     4  10  18  35  58  82 112 145 191 235 278 332
#     4  10  21  34  53  83 114 147 185 229 281 333
#
# _framework density 22.963764999999999
#
# number of rings (size 3 to 8) (size 9 to 14) (size 15 to 20)
#    0.000    2.500    1.250    1.500    3.500    0.000 
#    0.000   20.625    0.000    3.000    3.250    0.000 
#    0.000    0.000    0.000    0.000    0.000    0.000 
#
# Total GULP energy -89078.194114 kJ/mol
# GULP energy per Si atom -5567.387132 kJ/mol
# Density = 2.291150 g / cm^3
# Si number density = 22.963765 Si / 1000 Ang^3
#
#
#
# Elastic Constant Matrix: (Units=GPa)
#
#
# Indices 1 2 3 4 5 6 
#
# 1 54.5784 23.4333 35.0495 1.8061 -11.2405 14.7094
# 2 23.4333 123.3413 39.8628 2.5611 -11.7158 13.0929
# 3 35.0495 39.8628 217.3013 11.8577 -10.1855 14.6993
# 4 1.8061 2.5611 11.8577 34.1445 9.4619 -6.1342
# 5 -11.2405 -11.7158 -10.1855 9.4619 25.9671 -6.9283
# 6 14.7094 13.0929 14.6993 -6.1342 -6.9283 18.7635
#
#
#
# Elastic Compliance Matrix: (Units=1/GPa)
#
#
# Indices 1 2 3 4 5 6 
#
# 1 0.026836 -0.001738 -0.002185 -0.005690 0.007454 -0.017221
# 2 -0.001738 0.009474 -0.000959 -0.001767 0.002702 -0.004077
# 3 -0.002185 -0.000959 0.005466 -0.002410 0.001028 -0.002309
# 4 -0.005690 -0.001767 -0.002410 0.037001 -0.013797 0.014584
# 5 0.007454 0.002702 0.001028 -0.013797 0.049814 0.005348
# 6 -0.017221 -0.004077 -0.002309 0.014584 0.005348 0.078191
#
#
# Mechanical properties :
#
#
# Convention : Reuss Voigt Hill
#
# Bulk Modulus (GPa) = 31.23755 65.76800 48.50278
# Shear Modulus (GPa) = 22.00535 35.56672 28.78603
#
# Velocity S-wave (km/s) = 3.09894 3.93977 3.54438
# Velocity P-wave (km/s) = 5.14170 7.02836 6.15772
#
# Compressibility (1/GPa) = 0.03201275
#
# Stress axis : x y z
#
# Youngs Moduli (GPa) = 37.26274 105.55450 182.94635
#
# Poissons Ratio (x) = 0.18347 0.39972
# Poissons Ratio (y) = 0.06477 0.17539
# Poissons Ratio (z) = 0.08142 0.10120
#
# Static dielectric constant tensor:
#      x y z
#    x 1.902730 -0.007890 0.005910 
#    y -0.007890 1.890370 0.045110 
#    z 0.005910 0.045110 1.934890 
# 
# From -- ./inp_files/218958.got.cif
#   From: 2010.05.17/outbox.cif.g08.bks.cpg/sg2_110_cif.got.tgz:218958.got - 2010.06.03 11:33:40.
