data_PCOD9078840
_publ_section_title
;
Structure prediction by ZEFSAII (Michael W. Deem and Ramdas Pophale) SiO2 
 PCOD9078840
Probable space group: P -1
;
_chemical_formula_sum "Si O2"
_cell_formula_units_Z 16
_cell_length_a 13.565106
_cell_length_b 7.126279
_cell_length_c 14.685811
_cell_angle_alpha 75.097986
_cell_angle_beta 137.761536
_cell_angle_gamma 125.561160
_cell_volume 736.270989
_symmetry_space_group_name_H-M "P -1"
_symmetry_group_IT_number 2
_symmetry_cell_setting 'triclinic'
loop_
_space_group_symop_operation_xyz
x,y,z
-x,-y,-z
loop_
_atom_site_type_symbol
_atom_site_label
_atom_site_fract_x
_atom_site_fract_y
_atom_site_fract_z
Si Si1 0.272499 0.428191 0.836451
Si Si2 0.442680 0.926272 0.172158
Si Si3 0.802096 0.587761 0.883034
Si Si4 0.334886 0.095640 0.237950
Si Si5 0.355434 0.094858 0.919223
Si Si6 0.053491 0.631441 0.684910
Si Si7 0.701473 0.415969 0.361574
Si Si8 0.894699 0.406852 0.796997
O O1 0.238045 0.179730 0.870202
O O2 0.112926 0.456813 0.730748
O O3 0.325470 0.471097 0.759498
O O4 0.444318 0.646908 0.984568
O O5 0.313168 0.961142 0.143840
O O6 0.641781 0.157179 0.312299
O O7 0.390682 0.666132 0.188502
O O8 0.394069 0.955498 0.034750
O O9 0.781712 0.801944 0.846657
O O10 0.848613 0.538102 0.821804
O O11 0.947810 0.606426 0.049583
O O12 0.450522 0.674966 0.652225
O O13 0.274655 0.880329 0.293943
O O14 0.235027 0.909332 0.780087
O O15 0.904479 0.582123 0.517289
O O16 0.962396 0.554167 0.731980
#
# Coordination Sequence:
#
# PCOD9078840 Si02
#       8
#     2   2   2   2   2   2   2   2
#     4  10  23  41  62  86 119 155 189 250 296 334
#     4   8  18  37  57  84 116 144 195 237 281 347
#     4  10  18  36  59  86 116 156 189 242 296 335
#     4   9  20  38  60  82 120 159 187 239 297 340
#     4  10  21  39  60  93 113 143 206 244 280 355
#     4  12  23  39  61  87 122 157 192 239 295 344
#     4   9  22  43  57  85 122 156 198 236 284 363
#     4  10  22  33  58  94 116 147 202 243 282 352
#
# _framework density 21.73113
#
# number of rings (size 3 to 8) (size 9 to 14) (size 15 to 20)
#    0.750    1.500    1.250    1.125    1.750    2.000 
#    6.750    0.625    0.000    0.000    0.000    0.000 
#    0.000    0.000    0.000    0.000    0.000    0.000 
#
# Total GULP energy -89186.255103 kJ/mol
# GULP energy per Si atom -5574.140944 kJ/mol
# Density = 2.168167 g / cm^3
# Si number density = 21.731130 Si / 1000 Ang^3
#
#
#
# Elastic Constant Matrix: (Units=GPa)
#
#
# Indices 1 2 3 4 5 6 
#
# 1 49.9801 22.2370 20.5022 -0.8945 0.9573 -9.4400
# 2 22.2370 86.7996 27.2827 2.3482 -0.5385 -13.9150
# 3 20.5022 27.2827 101.2951 15.4790 11.2834 1.2151
# 4 -0.8945 2.3482 15.4790 18.3301 3.8685 5.4215
# 5 0.9573 -0.5385 11.2834 3.8685 22.9580 -4.6915
# 6 -9.4400 -13.9150 1.2151 5.4215 -4.6915 32.4909
#
#
#
# Elastic Compliance Matrix: (Units=1/GPa)
#
#
# Indices 1 2 3 4 5 6 
#
# 1 0.024811 -0.004125 -0.004743 0.003864 0.001613 0.005208
# 2 -0.004125 0.014662 -0.003316 -0.001847 0.003692 0.006046
# 3 -0.004743 -0.003316 0.013840 -0.009568 -0.005586 -0.002526
# 4 0.003864 -0.001847 -0.009568 0.068670 -0.009556 -0.012149
# 5 0.001613 0.003692 -0.005586 -0.009556 0.050202 0.011102
# 6 0.005208 0.006046 -0.002526 -0.012149 0.011102 0.038605
#
#
# Mechanical properties :
#
#
# Convention : Reuss Voigt Hill
#
# Bulk Modulus (GPa) = 34.54876 42.01316 38.28096
# Shear Modulus (GPa) = 20.42440 25.95933 23.19186
#
# Velocity S-wave (km/s) = 3.06905 3.46000 3.27038
# Velocity P-wave (km/s) = 5.33775 5.94452 5.64929
#
# Compressibility (1/GPa) = 0.02894460
#
# Stress axis : x y z
#
# Youngs Moduli (GPa) = 40.30498 68.20399 72.25523
#
# Poissons Ratio (x) = 0.28134 0.34273
# Poissons Ratio (y) = 0.16626 0.23957
# Poissons Ratio (z) = 0.19118 0.22614
#
# Static dielectric constant tensor:
#      x y z
#    x 1.907360 0.054600 0.029080 
#    y 0.054600 1.824160 0.044220 
#    z 0.029080 0.044220 1.760890 
# 
# From -- ./inp_files/525627.got.cif
#   From: 2010.05.17/outbox.cif.g08.bks.cpg/sg2_263_cif.got.tgz:525627.got - 2010.06.03 11:33:40.
