data_PCOD9078018
_publ_section_title
;
Structure prediction by ZEFSAII (Michael W. Deem and Ramdas Pophale) SiO2 
 PCOD9078018
Probable space group: P -1
;
_chemical_formula_sum "Si O2"
_cell_formula_units_Z 14
_cell_length_a 9.063877
_cell_length_b 11.941433
_cell_length_c 9.492714
_cell_angle_alpha 47.537788
_cell_angle_beta 64.491256
_cell_angle_gamma 76.405532
_cell_volume 681.689238
_symmetry_space_group_name_H-M "P -1"
_symmetry_group_IT_number 2
_symmetry_cell_setting 'triclinic'
loop_
_space_group_symop_operation_xyz
x,y,z
-x,-y,-z
loop_
_atom_site_type_symbol
_atom_site_label
_atom_site_fract_x
_atom_site_fract_y
_atom_site_fract_z
Si Si1 0.144171 0.748588 0.001673
Si Si2 0.858580 0.717894 0.378815
Si Si3 0.679047 0.001023 0.115173
Si Si4 0.320026 0.544174 0.494835
Si Si5 0.678706 0.117220 0.735400
Si Si6 0.934139 0.158430 0.350466
Si Si7 0.974954 0.577641 0.733177
O O1 0.148390 0.573368 0.100272
O O2 0.001613 0.742438 0.183121
O O3 0.291975 0.847541 0.932179
O O4 0.103542 0.835622 0.802616
O O5 0.746041 0.565097 0.511818
O O6 0.940135 0.684020 0.522848
O O7 0.754245 0.863295 0.283410
O O8 0.490686 0.962024 0.185384
O O9 0.758148 0.020739 0.908008
O O10 0.500000 0.500000 0.500000
O O11 0.346124 0.724747 0.309221
O O12 0.161747 0.527021 0.681164
O O13 0.781628 0.159777 0.518266
O O14 0.040685 0.314906 0.217028
O O15 0.000000 0.000000 0.500000
#
# Coordination Sequence:
#
# PCOD9078018 Si02
#       7
#     2   2   2   2   2   2   2
#     4  11  21  35  58  85 117 154 189 235 289 342
#     4  11  20  36  62  91 113 151 198 241 289 338
#     4  11  21  36  60  87 120 148 195 246 285 346
#     4  10  18  35  57  86 115 149 186 240 291 330
#     4  10  22  38  57  89 118 153 191 240 296 337
#     4  11  22  39  60  81 117 156 195 236 289 352
#     4  10  22  38  60  88 116 150 199 242 284 344
#
# _framework density 20.537216999999998
#
# number of rings (size 3 to 8) (size 9 to 14) (size 15 to 20)
#    0.000    1.429    1.429    6.857    0.000    0.571 
#    0.000    0.000    0.000    1.714    0.000    0.000 
#    0.000    0.000    0.000    0.000    0.000    0.000 
#
# Total GULP energy -78047.910474 kJ/mol
# GULP energy per Si atom -5574.850748 kJ/mol
# Density = 2.049047 g / cm^3
# Si number density = 20.537217 Si / 1000 Ang^3
#
#
#
# Elastic Constant Matrix: (Units=GPa)
#
#
# Indices 1 2 3 4 5 6 
#
# 1 84.4497 41.8380 31.0699 -11.0455 8.4821 20.9429
# 2 41.8380 88.7048 16.7051 -26.2640 -6.2635 27.5521
# 3 31.0699 16.7051 87.6069 -5.3755 20.9355 13.9153
# 4 -11.0455 -26.2640 -5.3755 34.2678 13.1759 -0.9508
# 5 8.4821 -6.2635 20.9355 13.1759 31.7194 -11.1772
# 6 20.9429 27.5521 13.9153 -0.9508 -11.1772 37.4794
#
#
#
# Elastic Compliance Matrix: (Units=1/GPa)
#
#
# Indices 1 2 3 4 5 6 
#
# 1 0.019041 -0.004346 -0.001027 0.006895 -0.011804 -0.010409
# 2 -0.004346 0.025101 0.005242 0.023786 -0.014907 -0.021812
# 3 -0.001027 0.005242 0.020788 0.016283 -0.025594 -0.018217
# 4 0.006895 0.023786 0.016283 0.070984 -0.051843 -0.041044
# 5 -0.011804 -0.014907 -0.025594 -0.051843 0.088543 0.052148
# 6 -0.010409 -0.021812 -0.018217 -0.041044 0.052148 0.069806
#
#
# Mechanical properties :
#
#
# Convention : Reuss Voigt Hill
#
# Bulk Modulus (GPa) = 15.46370 48.88749 32.17560
# Shear Modulus (GPa) = 15.81860 32.10319 23.96089
#
# Velocity S-wave (km/s) = 2.77833 3.95799 3.41941
# Velocity P-wave (km/s) = 4.22352 6.68906 5.59382
#
# Compressibility (1/GPa) = 0.06466758
#
# Stress axis : x y z
#
# Youngs Moduli (GPa) = 52.51735 39.83843 48.10404
#
# Poissons Ratio (x) = 0.17316 0.04940
# Poissons Ratio (y) = 0.22826 -0.25214
# Poissons Ratio (z) = 0.05393 -0.20882
#
# Static dielectric constant tensor:
#      x y z
#    x 1.737580 0.002530 -0.029760 
#    y 0.002530 1.799580 -0.026660 
#    z -0.029760 -0.026660 1.797070 
# 
# From -- ./inp_files/153788.got.cif
#   From: 2010.05.17/outbox.cif.g08.bks.cpg/sg2_77_cif.got.tgz:153788.got - 2010.06.03 11:33:40.
