data_PCOD9078841
_publ_section_title
;
Structure prediction by ZEFSAII (Michael W. Deem and Ramdas Pophale) SiO2 
 PCOD9078841
Probable space group: P -1
;
_chemical_formula_sum "Si O2"
_cell_formula_units_Z 16
_cell_length_a 13.085803
_cell_length_b 11.237510
_cell_length_c 8.751596
_cell_angle_alpha 118.891381
_cell_angle_beta 43.569316
_cell_angle_gamma 130.933791
_cell_volume 670.010272
_symmetry_space_group_name_H-M "P -1"
_symmetry_group_IT_number 2
_symmetry_cell_setting 'triclinic'
loop_
_space_group_symop_operation_xyz
x,y,z
-x,-y,-z
loop_
_atom_site_type_symbol
_atom_site_label
_atom_site_fract_x
_atom_site_fract_y
_atom_site_fract_z
Si Si1 0.445340 0.750898 0.906887
Si Si2 0.131919 0.123578 0.721179
Si Si3 0.754777 0.962126 0.166380
Si Si4 0.708617 0.629920 0.527644
Si Si5 0.365710 0.937500 0.902154
Si Si6 0.926848 0.153493 0.589547
Si Si7 0.470477 0.623439 0.207706
Si Si8 0.182045 0.641072 0.342436
O O1 0.582029 0.697440 0.730955
O O2 0.507650 0.895640 0.049795
O O3 0.429629 0.818997 0.805794
O O4 0.260629 0.618147 0.085055
O O5 0.240648 0.077577 0.687258
O O6 0.220757 0.303203 0.677355
O O7 0.091793 0.008551 0.548924
O O8 0.951567 0.066425 0.964362
O O9 0.650642 0.785250 0.102998
O O10 0.661753 0.044751 0.234680
O O11 0.596528 0.451884 0.598347
O O12 0.878168 0.715646 0.502851
O O13 0.189590 0.877639 0.153002
O O14 0.854153 0.219076 0.576278
O O15 0.322429 0.653127 0.318934
O O16 0.500000 0.500000 0.000000
O O17 0.000000 0.500000 0.500000
#
# Coordination Sequence:
#
# PCOD9078841 Si02
#       8
#     2   2   2   2   2   2   2   2
#     4  10  20  32  58  89 117 147 202 253 299 350
#     4  11  24  39  62  94 124 163 201 258 306 366
#     4  11  24  41  60  91 130 159 204 252 315 359
#     4  12  21  37  63  91 121 163 206 250 307 360
#     4  10  18  36  59  86 118 152 195 261 293 352
#     4  11  21  36  65  93 119 153 212 251 304 356
#     4  12  23  39  63  92 122 162 204 251 303 363
#     4  11  22  35  56  96 123 153 197 259 305 354
#
# _framework density 23.880231999999999
#
# number of rings (size 3 to 8) (size 9 to 14) (size 15 to 20)
#    0.000    1.000    6.250    1.875    0.000    0.500 
#    0.000    2.500    0.000    0.000    0.000    7.000 
#    0.000    0.000    0.000    0.000    0.000    0.000 
#
# Total GULP energy -89342.127390 kJ/mol
# GULP energy per Si atom -5583.882962 kJ/mol
# Density = 2.382588 g / cm^3
# Si number density = 23.880232 Si / 1000 Ang^3
#
#
#
# Elastic Constant Matrix: (Units=GPa)
#
#
# Indices 1 2 3 4 5 6 
#
# 1 174.6642 15.3368 17.3869 -6.8447 13.2126 -36.1680
# 2 15.3368 43.4892 25.5387 -27.2629 8.2519 -17.8997
# 3 17.3869 25.5387 82.4769 -35.6354 -7.1993 -5.6635
# 4 -6.8447 -27.2629 -35.6354 42.0996 -7.4877 10.5076
# 5 13.2126 8.2519 -7.1993 -7.4877 38.8726 -13.4785
# 6 -36.1680 -17.8997 -5.6635 10.5076 -13.4785 38.0962
#
#
#
# Elastic Compliance Matrix: (Units=1/GPa)
#
#
# Indices 1 2 3 4 5 6 
#
# 1 0.007392 0.000314 -0.002361 -0.002563 -0.001028 0.007158
# 2 0.000314 0.045221 -0.003331 0.022743 -0.000933 0.014447
# 3 -0.002361 -0.003331 0.022081 0.018272 0.008195 -0.002665
# 4 -0.002563 0.022743 0.018272 0.055492 0.009817 -0.000863
# 5 -0.001028 -0.000933 0.008195 0.009817 0.032684 0.008660
# 6 0.007158 0.014447 -0.002665 -0.000863 0.008660 0.042739
#
#
# Mechanical properties :
#
#
# Convention : Reuss Voigt Hill
#
# Bulk Modulus (GPa) = 15.64036 46.35057 30.99546
# Shear Modulus (GPa) = 21.03694 39.97154 30.50424
#
# Velocity S-wave (km/s) = 2.97128 4.09569 3.57793
# Velocity P-wave (km/s) = 4.28194 6.46668 5.48420
#
# Compressibility (1/GPa) = 0.06393716
#
# Stress axis : x y z
#
# Youngs Moduli (GPa) = 135.27690 22.11382 45.28819
#
# Poissons Ratio (x) = -0.00695 0.10693
# Poissons Ratio (y) = -0.04253 0.15088
# Poissons Ratio (z) = 0.31941 0.07367
#
# Static dielectric constant tensor:
#      x y z
#    x 1.973030 0.001770 0.048620 
#    y 0.001770 1.929030 -0.043240 
#    z 0.048620 -0.043240 1.962880 
# 
# From -- ./inp_files/262780.got.cif
#   From: 2010.05.17/outbox.cif.g08.bks.cpg/sg2_132_cif.got.tgz:262780.got - 2010.06.03 11:33:40.
