data_PCOD9078959
_publ_section_title
;
Structure prediction by ZEFSAII (Michael W. Deem and Ramdas Pophale) SiO2 
 PCOD9078959
Probable space group: P -1
;
_chemical_formula_sum "Si O2"
_cell_formula_units_Z 16
_cell_length_a 9.575104
_cell_length_b 17.768383
_cell_length_c 16.677258
_cell_angle_alpha 145.585195
_cell_angle_beta 137.161132
_cell_angle_gamma 29.908792
_cell_volume 797.937215
_symmetry_space_group_name_H-M "P -1"
_symmetry_group_IT_number 2
_symmetry_cell_setting 'triclinic'
loop_
_space_group_symop_operation_xyz
x,y,z
-x,-y,-z
loop_
_atom_site_type_symbol
_atom_site_label
_atom_site_fract_x
_atom_site_fract_y
_atom_site_fract_z
Si Si1 0.677513 0.867421 0.883810
Si Si2 0.771772 0.548090 0.569353
Si Si3 0.567632 0.993258 0.257293
Si Si4 0.933069 0.790426 0.504852
Si Si5 0.476217 0.144457 0.729853
Si Si6 0.927009 0.071860 0.662470
Si Si7 0.360047 0.329533 0.546867
Si Si8 0.244585 0.708777 0.055267
O O1 0.633541 0.730713 0.721739
O O2 0.568860 0.994383 0.871502
O O3 0.001128 0.749876 0.937094
O O4 0.500000 0.000000 0.000000
O O5 0.630642 0.585185 0.455149
O O6 0.821003 0.394586 0.507788
O O7 0.081694 0.466045 0.602233
O O8 0.345693 0.189981 0.378078
O O9 0.632577 0.858101 0.233222
O O10 0.834031 0.967125 0.324985
O O11 0.773349 0.752344 0.349247
O O12 0.710934 0.944542 0.612273
O O13 0.990834 0.892941 0.562230
O O14 0.619467 0.222745 0.868397
O O15 0.634517 0.208015 0.610781
O O16 0.891835 0.175610 0.818498
O O17 0.500000 0.500000 0.000000
#
# Coordination Sequence:
#
# PCOD9078959 Si02
#       8
#     2   2   2   2   2   2   2   2
#     4  11  23  42  62  87 131 173 205 254 310 370
#     4  10  20  36  63  90 127 160 207 263 310 367
#     4  11  21  38  64  90 126 163 201 259 314 372
#     4  10  18  36  60  96 125 153 206 261 316 377
#     4  10  20  35  64  92 120 160 207 259 311 371
#     4  11  21  36  66  91 128 164 201 258 326 374
#     4  10  19  34  59  97 120 157 204 260 319 366
#     4  11  23  41  66  88 119 172 221 245 301 380
#
# _framework density 20.051701999999999
#
# number of rings (size 3 to 8) (size 9 to 14) (size 15 to 20)
#    0.000    1.500    3.750    3.375    0.000    0.500 
#    0.000    3.125    2.750    0.000    0.000    0.000 
#    0.000    0.000    0.000    0.000    0.000    0.000 
#
# Total GULP energy -89295.697413 kJ/mol
# GULP energy per Si atom -5580.981088 kJ/mol
# Density = 2.000606 g / cm^3
# Si number density = 20.051702 Si / 1000 Ang^3
#
#
#
# Elastic Constant Matrix: (Units=GPa)
#
#
# Indices 1 2 3 4 5 6 
#
# 1 108.0370 40.9793 19.1060 -3.8083 -0.1748 13.3936
# 2 40.9793 107.0956 18.5986 -16.5794 8.8976 24.7498
# 3 19.1060 18.5986 57.4795 -12.2646 -7.6025 2.1191
# 4 -3.8083 -16.5794 -12.2646 34.9109 -3.7111 -4.9660
# 5 -0.1748 8.8976 -7.6025 -3.7111 26.0952 -2.1658
# 6 13.3936 24.7498 2.1191 -4.9660 -2.1658 33.0989
#
#
#
# Elastic Compliance Matrix: (Units=1/GPa)
#
#
# Indices 1 2 3 4 5 6 
#
# 1 0.011335 -0.003678 -0.002877 -0.001785 0.000079 -0.001915
# 2 -0.003678 0.014408 -0.003196 0.003390 -0.006131 -0.008973
# 3 -0.002877 -0.003196 0.021991 0.007379 0.008845 0.003832
# 4 -0.001785 0.003390 0.007379 0.033746 0.006045 0.003174
# 5 0.000079 -0.006131 0.008845 0.006045 0.044496 0.007805
# 6 -0.001915 -0.008973 0.003832 0.003174 0.007805 0.038438
#
#
# Mechanical properties :
#
#
# Convention : Reuss Voigt Hill
#
# Bulk Modulus (GPa) = 35.42219 47.77556 41.59887
# Shear Modulus (GPa) = 25.86292 31.74955 28.80624
#
# Velocity S-wave (km/s) = 3.59529 3.98349 3.79436
# Velocity P-wave (km/s) = 5.91089 6.71085 6.32353
#
# Compressibility (1/GPa) = 0.02823089
#
# Stress axis : x y z
#
# Youngs Moduli (GPa) = 88.22584 69.40800 45.47263
#
# Poissons Ratio (x) = 0.25526 0.13084
# Poissons Ratio (y) = 0.32447 0.14534
# Poissons Ratio (z) = 0.25386 0.22183
#
# Static dielectric constant tensor:
#      x y z
#    x 1.748760 0.019360 -0.008370 
#    y 0.019360 1.773250 0.008910 
#    z -0.008370 0.008910 1.692820 
# 
# From -- ./inp_files/504527.got.cif
#   From: 2010.05.17/outbox.cif.g08.bks.cpg/sg2_253_cif.got.tgz:504527.got - 2010.06.03 11:33:40.
