data_PCOD9078386
_publ_section_title
;
Structure prediction by ZEFSAII (Michael W. Deem and Ramdas Pophale) SiO2 
 PCOD9078386
Probable space group: P -1
;
_chemical_formula_sum "Si O2"
_cell_formula_units_Z 16
_cell_length_a 12.902166
_cell_length_b 5.219227
_cell_length_c 11.237316
_cell_angle_alpha 115.936230
_cell_angle_beta 70.134490
_cell_angle_gamma 89.402127
_cell_volume 628.583925
_symmetry_space_group_name_H-M "P -1"
_symmetry_group_IT_number 2
_symmetry_cell_setting 'triclinic'
loop_
_space_group_symop_operation_xyz
x,y,z
-x,-y,-z
loop_
_atom_site_type_symbol
_atom_site_label
_atom_site_fract_x
_atom_site_fract_y
_atom_site_fract_z
Si Si1 0.223475 0.860988 0.000758
Si Si2 0.632864 0.004192 0.211448
Si Si3 0.163535 0.015615 0.294174
Si Si4 0.544244 0.442858 0.144299
Si Si5 0.047049 0.657119 0.906084
Si Si6 0.691327 0.519366 0.741762
Si Si7 0.110123 0.408629 0.594157
Si Si8 0.256573 0.875342 0.561595
O O1 0.264138 0.092882 0.944062
O O2 0.338514 0.716614 0.991871
O O3 0.178503 0.642799 0.883986
O O4 0.133628 0.956480 0.158256
O O5 0.566059 0.295098 0.235664
O O6 0.685016 0.059261 0.327540
O O7 0.552597 0.775477 0.205563
O O8 0.214724 0.710456 0.273264
O O9 0.257077 0.215995 0.274738
O O10 0.077671 0.223122 0.457097
O O11 0.427644 0.383420 0.127397
O O12 0.029212 0.513781 0.757757
O O13 0.000000 0.500000 0.000000
O O14 0.000000 0.000000 0.000000
O O15 0.663320 0.331502 0.601959
O O16 0.159681 0.688962 0.591374
O O17 0.205916 0.167610 0.570266
#
# Coordination Sequence:
#
# PCOD9078386 Si02
#       8
#     2   2   2   2   2   2   2   2
#     4  10  25  41  62  90 123 162 202 245 319 341
#     4  10  20  34  56  84 115 169 193 256 297 344
#     4  10  23  39  65  84 129 166 200 242 286 372
#     4  10  22  35  57  87 129 161 203 259 281 352
#     4  12  26  42  70  95 117 148 202 256 306 376
#     4  10  22  37  55  95 118 171 214 234 289 339
#     4  10  20  41  61  91 119 158 191 246 314 350
#     4  10  18  35  62  81 127 160 203 246 288 366
#
# _framework density 25.454039999999999
#
# number of rings (size 3 to 8) (size 9 to 14) (size 15 to 20)
#    0.750    1.000    1.250    3.000    3.500    2.000 
#    0.000    1.250    0.000    0.000    0.000    0.000 
#    0.000    0.000    0.000    0.000    0.000    0.000 
#
# Total GULP energy -89391.612785 kJ/mol
# GULP energy per Si atom -5586.975799 kJ/mol
# Density = 2.539611 g / cm^3
# Si number density = 25.454040 Si / 1000 Ang^3
#
#
#
# Elastic Constant Matrix: (Units=GPa)
#
#
# Indices 1 2 3 4 5 6 
#
# 1 65.4416 30.2660 20.7932 -0.3374 2.9747 -3.6256
# 2 30.2660 132.2539 13.1518 -14.3788 -9.6257 10.5945
# 3 20.7932 13.1518 104.9465 -4.7301 14.8753 -7.7576
# 4 -0.3374 -14.3788 -4.7301 30.4364 -5.0036 -4.0290
# 5 2.9747 -9.6257 14.8753 -5.0036 33.9082 -3.3176
# 6 -3.6256 10.5945 -7.7576 -4.0290 -3.3176 43.4906
#
#
#
# Elastic Compliance Matrix: (Units=1/GPa)
#
#
# Indices 1 2 3 4 5 6 
#
# 1 0.018408 -0.004471 -0.002805 -0.002413 -0.001837 0.001760
# 2 -0.004471 0.009644 -0.000831 0.004752 0.003988 -0.002126
# 3 -0.002805 -0.000831 0.010988 0.000757 -0.004537 0.001653
# 4 -0.002413 0.004752 0.000757 0.036684 0.006906 0.002702
# 5 -0.001837 0.003988 -0.004537 0.006906 0.033920 0.001294
# 6 0.001760 -0.002126 0.001653 0.002702 0.001294 0.024302
#
#
# Mechanical properties :
#
#
# Convention : Reuss Voigt Hill
#
# Bulk Modulus (GPa) = 43.80904 47.89599 45.85252
# Shear Modulus (GPa) = 31.69182 37.46246 34.57714
#
# Velocity S-wave (km/s) = 3.53237 3.84053 3.68967
# Velocity P-wave (km/s) = 5.82110 6.20675 6.01701
#
# Compressibility (1/GPa) = 0.02282634
#
# Stress axis : x y z
#
# Youngs Moduli (GPa) = 54.32304 103.69038 91.00889
#
# Poissons Ratio (x) = 0.46358 0.25530
# Poissons Ratio (y) = 0.24287 0.07563
# Poissons Ratio (z) = 0.15239 0.08617
#
# Static dielectric constant tensor:
#      x y z
#    x 1.953230 0.093760 -0.050100 
#    y 0.093760 1.806540 0.037210 
#    z -0.050100 0.037210 2.120400 
# 
# From -- ./inp_files/442246.got.cif
#   From: 2010.05.17/outbox.cif.g08.bks.cpg/sg2_222_cif.got.tgz:442246.got - 2010.06.03 11:33:40.
