data_PCOD9078157
_publ_section_title
;
Structure prediction by ZEFSAII (Michael W. Deem and Ramdas Pophale) SiO2 
 PCOD9078157
Probable space group: P -1
;
_chemical_formula_sum "Si O2"
_cell_formula_units_Z 15
_cell_length_a 13.608391
_cell_length_b 7.732902
_cell_length_c 14.643210
_cell_angle_alpha 85.962146
_cell_angle_beta 146.610684
_cell_angle_gamma 114.678846
_cell_volume 640.302420
_symmetry_space_group_name_H-M "P -1"
_symmetry_group_IT_number 2
_symmetry_cell_setting 'triclinic'
loop_
_space_group_symop_operation_xyz
x,y,z
-x,-y,-z
loop_
_atom_site_type_symbol
_atom_site_label
_atom_site_fract_x
_atom_site_fract_y
_atom_site_fract_z
Si Si1 0.451925 0.681797 0.496353
Si Si2 0.500000 0.500000 0.000000
Si Si3 0.533160 0.515696 0.241082
Si Si4 0.419489 0.061006 0.119506
Si Si5 0.197270 0.647467 0.724437
Si Si6 0.675029 0.151419 0.761602
Si Si7 0.950379 0.725828 0.677992
Si Si8 0.154333 0.273704 0.108670
O O1 0.409372 0.731653 0.360921
O O2 0.210744 0.470953 0.365350
O O3 0.649783 0.660456 0.667792
O O4 0.547211 0.909261 0.619873
O O5 0.527523 0.567450 0.130237
O O6 0.693253 0.468090 0.162976
O O7 0.532116 0.303498 0.243233
O O8 0.768446 0.715507 0.472798
O O9 0.300722 0.404669 0.125226
O O10 0.589046 0.112941 0.167332
O O11 0.389569 0.900315 0.180244
O O12 0.165475 0.960107 0.886175
O O13 0.000000 0.500000 0.500000
O O14 0.084262 0.673368 0.720414
O O15 0.953071 0.288050 0.965590
O O16 0.000000 0.000000 0.000000
#
# Coordination Sequence:
#
# PCOD9078157 Si02
#       8
#     2   1   2   2   2   2   2   2
#     4   9  19  34  56  87 111 152 196 235 281 348
#     4  10  22  36  68  84 112 152 198 238 290 356
#     4  10  20  41  57  91 116 152 200 239 294 348
#     4  11  21  37  63  87 118 158 196 238 296 354
#     4  11  21  42  63  87 116 156 193 243 300 344
#     4  10  18  35  59  84 116 156 193 240 288 339
#     4  11  21  39  64  84 122 156 190 246 297 344
#     4   9  16  33  59  78 114 153 186 234 290 336
#
# _framework density 23.426431999999998
#
# number of rings (size 3 to 8) (size 9 to 14) (size 15 to 20)
#    0.000    1.867    6.667    0.400    1.867    0.533 
#    2.400    5.333    2.933    0.000    0.000    0.000 
#    0.000    0.000    0.000    0.000    0.000    0.000 
#
# Total GULP energy -83600.359812 kJ/mol
# GULP energy per Si atom -5573.357321 kJ/mol
# Density = 2.337311 g / cm^3
# Si number density = 23.426432 Si / 1000 Ang^3
#
#
#
# Elastic Constant Matrix: (Units=GPa)
#
#
# Indices 1 2 3 4 5 6 
#
# 1 116.4619 32.0897 39.4067 -1.4035 15.2146 26.5498
# 2 32.0897 50.1458 47.3860 -27.4476 7.8991 -1.6566
# 3 39.4067 47.3860 158.8020 -13.2124 -3.7978 30.4472
# 4 -1.4035 -27.4476 -13.2124 49.0693 7.5612 -2.7598
# 5 15.2146 7.8991 -3.7978 7.5612 47.3839 -5.3839
# 6 26.5498 -1.6566 30.4472 -2.7598 -5.3839 36.2248
#
#
#
# Elastic Compliance Matrix: (Units=1/GPa)
#
#
# Indices 1 2 3 4 5 6 
#
# 1 0.017791 -0.023274 0.005274 -0.011929 -0.001745 -0.019705
# 2 -0.023274 0.086048 -0.024786 0.044951 -0.011077 0.043605
# 3 0.005274 -0.024786 0.014971 -0.011213 0.003390 -0.017932
# 4 -0.011929 0.044951 -0.011213 0.044831 -0.009185 0.022274
# 5 -0.001745 -0.011077 0.003390 -0.009185 0.025361 0.000993
# 6 -0.019705 0.043605 -0.017932 0.022274 0.000993 0.060958
#
#
# Mechanical properties :
#
#
# Convention : Reuss Voigt Hill
#
# Bulk Modulus (GPa) = 30.08733 62.57491 46.33112
# Shear Modulus (GPa) = 14.42534 40.30409 27.36471
#
# Velocity S-wave (km/s) = 2.48417 4.15234 3.42147
# Velocity P-wave (km/s) = 4.59340 7.05396 5.95222
#
# Compressibility (1/GPa) = 0.03323659
#
# Stress axis : x y z
#
# Youngs Moduli (GPa) = 56.20701 11.62149 66.79673
#
# Poissons Ratio (x) = 0.27048 -0.35228
# Poissons Ratio (y) = 1.30818 1.65562
# Poissons Ratio (z) = -0.29643 0.28805
#
# Static dielectric constant tensor:
#      x y z
#    x 1.934500 -0.064560 -0.098730 
#    y -0.064560 1.965680 0.130230 
#    z -0.098730 0.130230 1.991660 
# 
# From -- ./inp_files/528528.got.cif
#   From: 2010.05.17/outbox.cif.g08.bks.cpg/sg2_265_cif.got.tgz:528528.got - 2010.06.03 11:33:40.
