data_PCOD9078324
_publ_section_title
;
Structure prediction by ZEFSAII (Michael W. Deem and Ramdas Pophale) SiO2 
 PCOD9078324
Probable space group: P -1
;
_chemical_formula_sum "Si O2"
_cell_formula_units_Z 14
_cell_length_a 15.969537
_cell_length_b 9.271737
_cell_length_c 11.915130
_cell_angle_alpha 112.819759
_cell_angle_beta 58.237994
_cell_angle_gamma 157.671721
_cell_volume 542.397172
_symmetry_space_group_name_H-M "P -1"
_symmetry_group_IT_number 2
_symmetry_cell_setting 'triclinic'
loop_
_space_group_symop_operation_xyz
x,y,z
-x,-y,-z
loop_
_atom_site_type_symbol
_atom_site_label
_atom_site_fract_x
_atom_site_fract_y
_atom_site_fract_z
Si Si1 0.874387 0.987509 0.606657
Si Si2 0.147917 0.412729 0.982994
Si Si3 0.765785 0.087475 0.109968
Si Si4 0.391051 0.117009 0.609822
Si Si5 0.004019 0.746816 0.627122
Si Si6 0.807642 0.619101 0.310061
Si Si7 0.580271 0.273251 0.914976
O O1 0.584921 0.535097 0.645819
O O2 0.983859 0.263163 0.518342
O O3 0.000000 0.000000 0.500000
O O4 0.967022 0.145376 0.715280
O O5 0.219860 0.471493 0.825023
O O6 0.330342 0.828086 0.006691
O O7 0.226859 0.410138 0.024902
O O8 0.869121 0.072854 0.075158
O O9 0.704355 0.092436 0.268672
O O10 0.524194 0.743742 0.096602
O O11 0.000000 0.500000 0.000000
O O12 0.560829 0.255613 0.452722
O O13 0.174349 0.878886 0.617420
O O14 0.730711 0.371393 0.758971
O O15 0.122594 0.094298 0.659940
#
# Coordination Sequence:
#
# PCOD9078324 Si02
#       7
#     2   2   2   2   2   2   2
#     4   8  16  31  53  80 111 147 180 228 286 332
#     4  10  22  39  58  86 116 150 195 240 280 339
#     4  10  20  38  60  80 109 158 194 224 287 351
#     4  10  18  36  59  84 117 154 189 232 291 347
#     4  10  18  35  61  86 114 157 190 227 292 349
#     4  10  20  36  58  89 116 143 198 243 276 336
#     4  10  20  39  61  77 118 159 188 229 296 341
#
# _framework density 25.811342
#
# number of rings (size 3 to 8) (size 9 to 14) (size 15 to 20)
#    0.000    2.571    1.429    4.286    0.000    0.571 
#    5.143    8.571    0.000    0.000    0.000    0.000 
#    0.000    0.000    0.000    0.000    0.000    0.000 
#
# Total GULP energy -78215.269634 kJ/mol
# GULP energy per Si atom -5586.804974 kJ/mol
# Density = 2.575259 g / cm^3
# Si number density = 25.811342 Si / 1000 Ang^3
#
#
#
# Elastic Constant Matrix: (Units=GPa)
#
#
# Indices 1 2 3 4 5 6 
#
# 1 117.3398 79.9667 39.8692 12.8534 9.2792 59.3952
# 2 79.9667 92.8026 42.5253 6.1931 0.8207 46.3785
# 3 39.8692 42.5253 160.7431 -2.3057 24.8258 27.7581
# 4 12.8534 6.1931 -2.3057 49.1462 13.2204 9.0136
# 5 9.2792 0.8207 24.8258 13.2204 37.4185 4.6701
# 6 59.3952 46.3785 27.7581 9.0136 4.6701 70.7537
#
#
#
# Elastic Compliance Matrix: (Units=1/GPa)
#
#
# Indices 1 2 3 4 5 6 
#
# 1 0.025648 -0.017270 0.000626 -0.001423 -0.004650 -0.009968
# 2 -0.017270 0.029149 -0.003896 -0.000548 0.006854 -0.003463
# 3 0.000626 -0.003896 0.008319 0.002645 -0.006380 -0.001151
# 4 -0.001423 -0.000548 0.002645 0.023835 -0.009575 -0.001888
# 5 -0.004650 0.006854 -0.006380 -0.009575 0.035243 0.000807
# 6 -0.009968 -0.003463 -0.001151 -0.001888 0.000807 0.025410
#
#
# Mechanical properties :
#
#
# Convention : Reuss Voigt Hill
#
# Bulk Modulus (GPa) = 45.38078 77.28977 61.33527
# Shear Modulus (GPa) = 25.50641 45.36528 35.43585
#
# Velocity S-wave (km/s) = 3.14695 4.19689 3.70926
# Velocity P-wave (km/s) = 5.55196 7.31398 6.49302
#
# Compressibility (1/GPa) = 0.02203576
#
# Stress axis : x y z
#
# Youngs Moduli (GPa) = 38.98929 34.30612 120.21279
#
# Poissons Ratio (x) = 0.59247 -0.07531
# Poissons Ratio (y) = 0.67335 0.46840
# Poissons Ratio (z) = -0.02443 0.13367
#
# Static dielectric constant tensor:
#      x y z
#    x 2.089130 -0.023660 0.037630 
#    y -0.023660 2.097260 0.034130 
#    z 0.037630 0.034130 2.100370 
# 
# From -- ./inp_files/312297.got.cif
#   From: 2010.05.17/outbox.cif.g08.bks.cpg/sg2_157_cif.got.tgz:312297.got - 2010.06.03 11:33:40.
