data_PCOD9078772
_publ_section_title
;
Structure prediction by ZEFSAII (Michael W. Deem and Ramdas Pophale) SiO2 
 PCOD9078772
Probable space group: P -1
;
_chemical_formula_sum "Si O2"
_cell_formula_units_Z 16
_cell_length_a 8.666328
_cell_length_b 14.468185
_cell_length_c 7.888306
_cell_angle_alpha 68.267247
_cell_angle_beta 67.046214
_cell_angle_gamma 53.877626
_cell_volume 722.460910
_symmetry_space_group_name_H-M "P -1"
_symmetry_group_IT_number 2
_symmetry_cell_setting 'triclinic'
loop_
_space_group_symop_operation_xyz
x,y,z
-x,-y,-z
loop_
_atom_site_type_symbol
_atom_site_label
_atom_site_fract_x
_atom_site_fract_y
_atom_site_fract_z
Si Si1 0.574122 0.391131 0.865733
Si Si2 0.344086 0.197616 0.599508
Si Si3 0.300659 0.582349 0.639413
Si Si4 0.645690 0.994031 0.079622
Si Si5 0.580657 0.197313 0.197119
Si Si6 0.070990 0.591585 0.412436
Si Si7 0.314040 0.785544 0.378082
Si Si8 0.007506 0.025109 0.180873
O O1 0.362200 0.503928 0.834466
O O2 0.738523 0.427515 0.760544
O O3 0.637541 0.294629 0.754856
O O4 0.570179 0.316446 0.074382
O O5 0.363616 0.074756 0.708521
O O6 0.404172 0.215831 0.376094
O O7 0.497415 0.208720 0.648490
O O8 0.116327 0.291501 0.655624
O O9 0.500000 0.500000 0.500000
O O10 0.128795 0.596492 0.581004
O O11 0.276447 0.708051 0.580665
O O12 0.591902 0.121115 0.079944
O O13 0.851724 0.924579 0.937249
O O14 0.500000 0.000000 0.000000
O O15 0.784197 0.109898 0.267414
O O16 0.000000 0.500000 0.500000
O O17 0.126592 0.910721 0.323677
O O18 0.000000 0.000000 0.000000
#
# Coordination Sequence:
#
# PCOD9078772 Si02
#       8
#     2   2   2   2   2   2   2   2
#     4  10  18  40  62  81 111 158 204 237 287 362
#     4  12  23  36  56  92 127 145 193 258 305 332
#     4   8  18  32  60  83 104 146 201 243 280 335
#     4  11  21  39  58  86 115 160 201 241 283 348
#     4  11  24  37  57  89 122 161 191 244 301 351
#     4  10  20  36  62  90 111 151 202 247 291 349
#     4  10  18  36  58  83 111 158 198 235 283 363
#     4  10  19  36  61  78 112 153 208 224 283 359
#
# _framework density 22.146526999999999
#
# number of rings (size 3 to 8) (size 9 to 14) (size 15 to 20)
#    0.000    2.000    3.750    3.375    5.250    0.500 
#    0.000    3.125    0.000    0.000    0.000    0.000 
#    0.000    0.000    0.000    0.000    0.000    0.000 
#
# Total GULP energy -89167.667997 kJ/mol
# GULP energy per Si atom -5572.979250 kJ/mol
# Density = 2.209612 g / cm^3
# Si number density = 22.146527 Si / 1000 Ang^3
#
#
#
# Elastic Constant Matrix: (Units=GPa)
#
#
# Indices 1 2 3 4 5 6 
#
# 1 125.6328 46.2250 10.4967 -24.0104 2.7340 -2.3065
# 2 46.2250 76.1317 44.7523 -40.7120 10.5372 3.7206
# 3 10.4967 44.7523 81.1398 -42.1927 -8.7409 4.1629
# 4 -24.0104 -40.7120 -42.1927 52.8068 4.9254 5.3159
# 5 2.7340 10.5372 -8.7409 4.9254 31.4457 -14.3151
# 6 -2.3065 3.7206 4.1629 5.3159 -14.3151 35.0248
#
#
#
# Elastic Compliance Matrix: (Units=1/GPa)
#
#
# Indices 1 2 3 4 5 6 
#
# 1 0.011467 -0.010910 0.004834 -0.000245 0.005735 0.003721
# 2 -0.010910 0.046736 -0.013563 0.025334 -0.032010 -0.020999
# 3 0.004834 -0.013563 0.026314 0.011734 0.010035 0.000952
# 4 -0.000245 0.025334 0.011734 0.052049 -0.023125 -0.021453
# 5 0.005735 -0.032010 0.010035 -0.023125 0.062922 0.031812
# 6 0.003721 -0.020999 0.000952 -0.021453 0.031812 0.047172
#
#
# Mechanical properties :
#
#
# Convention : Reuss Voigt Hill
#
# Bulk Modulus (GPa) = 22.10573 53.98357 38.04465
# Shear Modulus (GPa) = 16.61031 35.95080 26.28056
#
# Velocity S-wave (km/s) = 2.74162 4.03341 3.44854
# Velocity P-wave (km/s) = 4.47495 6.79115 5.75087
#
# Compressibility (1/GPa) = 0.04523715
#
# Stress axis : x y z
#
# Youngs Moduli (GPa) = 87.20830 21.39663 38.00318
#
# Poissons Ratio (x) = 0.23344 -0.18369
# Poissons Ratio (y) = 0.95145 0.51545
# Poissons Ratio (z) = -0.42153 0.29021
#
# Static dielectric constant tensor:
#      x y z
#    x 1.741110 0.084550 0.028160 
#    y 0.084550 1.862430 -0.076740 
#    z 0.028160 -0.076740 1.968870 
# 
# From -- ./inp_files/206287.got.cif
#   From: 2010.05.17/outbox.cif.g08.bks.cpg/sg2_104_cif.got.tgz:206287.got - 2010.06.03 11:33:40.
