data_PCOD9078314
_publ_section_title
;
Structure prediction by ZEFSAII (Michael W. Deem and Ramdas Pophale) SiO2 
 PCOD9078314
Probable space group: P -1
;
_chemical_formula_sum "Si O2"
_cell_formula_units_Z 14
_cell_length_a 7.919560
_cell_length_b 10.918322
_cell_length_c 11.922463
_cell_angle_alpha 67.481015
_cell_angle_beta 119.163370
_cell_angle_gamma 63.763588
_cell_volume 521.009690
_symmetry_space_group_name_H-M "P -1"
_symmetry_group_IT_number 2
_symmetry_cell_setting 'triclinic'
loop_
_space_group_symop_operation_xyz
x,y,z
-x,-y,-z
loop_
_atom_site_type_symbol
_atom_site_label
_atom_site_fract_x
_atom_site_fract_y
_atom_site_fract_z
Si Si1 0.202594 0.589730 0.295489
Si Si2 0.679398 0.048370 0.042055
Si Si3 0.704776 0.695236 0.980851
Si Si4 0.641952 0.983617 0.710959
Si Si5 0.466353 0.649097 0.743153
Si Si6 0.107326 0.111253 0.395065
Si Si7 0.648519 0.643199 0.360111
O O1 0.398243 0.483059 0.280823
O O2 0.338101 0.481130 0.500167
O O3 0.972203 0.585439 0.195034
O O4 0.000773 0.829658 0.169481
O O5 0.526209 0.250335 0.852388
O O6 0.627845 0.117553 0.130211
O O7 0.500000 0.000000 0.000000
O O8 0.704738 0.568670 0.945324
O O9 0.731399 0.806893 0.869913
O O10 0.329498 0.114049 0.497689
O O11 0.543665 0.144271 0.710272
O O12 0.900221 0.891062 0.740506
O O13 0.205178 0.705225 0.701943
O O14 0.289557 0.880185 0.570597
O O15 0.000000 0.500000 0.500000
#
# Coordination Sequence:
#
# PCOD9078314 Si02
#       7
#     2   2   2   2   2   2   2
#     4  11  20  34  60  91 117 154 198 241 292 346
#     4  10  19  34  55  91 120 150 196 243 284 348
#     4  10  19  35  59  87 119 154 192 241 290 350
#     4  10  18  35  61  84 113 150 197 244 289 347
#     4  10  20  35  59  87 121 153 193 245 299 345
#     4   9  20  36  57  87 117 153 194 243 297 351
#     4  12  19  33  62  88 113 154 200 243 283 346
#
# _framework density 26.870899999999999
#
# number of rings (size 3 to 8) (size 9 to 14) (size 15 to 20)
#    0.000    1.714    7.143    0.429    0.000    0.000 
#    0.000    0.714    3.143    4.286    3.714    0.000 
#    0.000    0.000    0.000    0.000    0.000    0.000 
#
# Total GULP energy -78309.561983 kJ/mol
# GULP energy per Si atom -5593.540142 kJ/mol
# Density = 2.680974 g / cm^3
# Si number density = 26.870900 Si / 1000 Ang^3
#
#
#
# Elastic Constant Matrix: (Units=GPa)
#
#
# Indices 1 2 3 4 5 6 
#
# 1 113.1506 58.5985 28.8013 -2.6490 -9.8148 -40.6074
# 2 58.5985 203.9623 51.0830 1.5811 12.8555 -53.9297
# 3 28.8013 51.0830 92.3141 -5.2074 -7.1910 -13.1305
# 4 -2.6490 1.5811 -5.2074 44.3553 -0.0189 2.9295
# 5 -9.8148 12.8555 -7.1910 -0.0189 29.1950 8.9512
# 6 -40.6074 -53.9297 -13.1305 2.9295 8.9512 56.3765
#
#
#
# Elastic Compliance Matrix: (Units=1/GPa)
#
#
# Indices 1 2 3 4 5 6 
#
# 1 0.012824 -0.001490 -0.001996 0.000125 0.002339 0.006969
# 2 -0.001490 0.008919 -0.004045 -0.001403 -0.007827 0.007832
# 3 -0.001996 -0.004045 0.013787 0.001848 0.005445 -0.003057
# 4 0.000125 -0.001403 0.001848 0.022973 0.001837 -0.002306
# 5 0.002339 -0.007827 0.005445 0.001837 0.043358 -0.011514
# 6 0.006969 0.007832 -0.003057 -0.002306 -0.011514 0.031486
#
#
# Mechanical properties :
#
#
# Convention : Reuss Voigt Hill
#
# Bulk Modulus (GPa) = 48.85708 76.26585 62.56147
# Shear Modulus (GPa) = 32.20949 44.04830 38.12890
#
# Velocity S-wave (km/s) = 3.46595 4.05317 3.77100
# Velocity P-wave (km/s) = 5.85138 7.09564 6.50334
#
# Compressibility (1/GPa) = 0.02046786
#
# Stress axis : x y z
#
# Youngs Moduli (GPa) = 77.97577 112.11547 72.52979
#
# Poissons Ratio (x) = 0.16710 0.14476
# Poissons Ratio (y) = 0.11622 0.29341
# Poissons Ratio (z) = 0.15563 0.45356
#
# Static dielectric constant tensor:
#      x y z
#    x 2.188670 -0.030140 0.089340 
#    y -0.030140 2.061070 0.094860 
#    z 0.089340 0.094860 2.245390 
# 
# From -- ./inp_files/397202.got.cif
#   From: 2010.05.17/outbox.cif.g08.bks.cpg/sg2_199_cif.got.tgz:397202.got - 2010.06.03 11:33:40.
