data_PCOD9078045
_publ_section_title
;
Structure prediction by ZEFSAII (Michael W. Deem and Ramdas Pophale) SiO2 
 PCOD9078045
Probable space group: P -1
;
_chemical_formula_sum "Si O2"
_cell_formula_units_Z 16
_cell_length_a 14.623328
_cell_length_b 9.590159
_cell_length_c 8.130266
_cell_angle_alpha 47.442927
_cell_angle_beta 100.218240
_cell_angle_gamma 69.445040
_cell_volume 628.232492
_symmetry_space_group_name_H-M "P -1"
_symmetry_group_IT_number 2
_symmetry_cell_setting 'triclinic'
loop_
_space_group_symop_operation_xyz
x,y,z
-x,-y,-z
loop_
_atom_site_type_symbol
_atom_site_label
_atom_site_fract_x
_atom_site_fract_y
_atom_site_fract_z
Si Si1 0.356481 0.006718 0.384189
Si Si2 0.761286 0.127399 0.352680
Si Si3 0.538159 0.439633 0.800323
Si Si4 0.981464 0.676276 0.628118
Si Si5 0.500249 0.925148 0.828486
Si Si6 0.869900 0.240969 0.563595
Si Si7 0.689198 0.512087 0.592265
Si Si8 0.074646 0.665298 0.029669
O O1 0.236699 0.061812 0.374985
O O2 0.430898 0.730644 0.556018
O O3 0.425373 0.986783 0.585720
O O4 0.374287 0.142624 0.141545
O O5 0.802185 0.249897 0.373768
O O6 0.853078 0.958181 0.369597
O O7 0.628515 0.334877 0.069930
O O8 0.620324 0.410434 0.701461
O O9 0.492875 0.285131 0.912143
O O10 0.950675 0.497809 0.755989
O O11 0.069840 0.636390 0.548956
O O12 0.040799 0.664581 0.830439
O O13 0.412235 0.187664 0.686258
O O14 0.775226 0.371006 0.576594
O O15 0.982731 0.944136 0.849903
O O16 0.786273 0.451446 0.811329
#
# Coordination Sequence:
#
# PCOD9078045 Si02
#       8
#     2   2   2   2   2   2   2   2
#     4   9  18  33  58  84 102 130 178 226 263 306
#     4  10  18  35  58  78 105 139 175 222 266 304
#     4  10  19  35  59  82 103 135 178 221 263 311
#     4  10  21  36  56  80 105 139 180 223 261 301
#     4   9  18  33  54  82 107 129 174 222 260 311
#     4  11  23  36  51  78 113 144 175 213 262 315
#     4  11  22  34  54  80 110 145 173 210 263 319
#     4  10  20  36  55  77 105 140 183 220 255 307
#
# _framework density 25.46828
#
# number of rings (size 3 to 8) (size 9 to 14) (size 15 to 20)
#    0.000    2.000    0.000    6.375    0.000    1.500 
#    0.000    8.750    0.000    3.750    0.000    0.000 
#    0.000    0.000    0.000    0.000    0.000    0.000 
#
# Total GULP energy -89631.218451 kJ/mol
# GULP energy per Si atom -5601.951153 kJ/mol
# Density = 2.541031 g / cm^3
# Si number density = 25.468280 Si / 1000 Ang^3
#
#
#
# Elastic Constant Matrix: (Units=GPa)
#
#
# Indices 1 2 3 4 5 6 
#
# 1 154.9742 40.2891 49.5287 0.6304 -46.7139 -19.7663
# 2 40.2891 103.8474 36.3277 -3.9114 -23.8850 -21.6753
# 3 49.5287 36.3277 83.1650 -19.1873 -28.5176 -1.7516
# 4 0.6304 -3.9114 -19.1873 23.4958 -2.5938 -4.5533
# 5 -46.7139 -23.8850 -28.5176 -2.5938 64.3048 13.9013
# 6 -19.7663 -21.6753 -1.7516 -4.5533 13.9013 50.5855
#
#
#
# Elastic Compliance Matrix: (Units=1/GPa)
#
#
# Indices 1 2 3 4 5 6 
#
# 1 0.009669 -0.000921 -0.004731 -0.003481 0.004057 0.001792
# 2 -0.000921 0.012825 -0.004818 -0.000772 0.000923 0.004646
# 3 -0.004731 -0.004818 0.023427 0.018557 0.006614 -0.003249
# 4 -0.003481 -0.000772 0.018557 0.058921 0.007304 0.002248
# 5 0.004057 0.000923 0.006614 0.007304 0.022803 -0.003399
# 6 0.001792 0.004646 -0.003249 0.002248 -0.003399 0.023483
#
#
# Mechanical properties :
#
#
# Convention : Reuss Voigt Hill
#
# Bulk Modulus (GPa) = 40.02734 66.03086 53.02910
# Shear Modulus (GPa) = 27.71694 42.06661 34.89178
#
# Velocity S-wave (km/s) = 3.30251 4.06855 3.70538
# Velocity P-wave (km/s) = 5.50388 6.93209 6.25886
#
# Compressibility (1/GPa) = 0.02498293
#
# Stress axis : x y z
#
# Youngs Moduli (GPa) = 103.41851 77.97402 42.68581
#
# Poissons Ratio (x) = 0.07178 0.20194
# Poissons Ratio (y) = 0.09520 0.20565
# Poissons Ratio (z) = 0.48926 0.37566
#
# Static dielectric constant tensor:
#      x y z
#    x 2.006330 -0.023260 -0.011740 
#    y -0.023260 1.967940 0.056310 
#    z -0.011740 0.056310 2.081040 
# 
# From -- ./inp_files/306242.got.cif
#   From: 2010.05.17/outbox.cif.g08.bks.cpg/sg2_154_cif.got.tgz:306242.got - 2010.06.03 11:33:40.
