data_PCOD9078550
_publ_section_title
;
Structure prediction by ZEFSAII (Michael W. Deem and Ramdas Pophale) SiO2 
 PCOD9078550
Probable space group: P -1
;
_chemical_formula_sum "Si O2"
_cell_formula_units_Z 14
_cell_length_a 9.085405
_cell_length_b 9.417682
_cell_length_c 11.031233
_cell_angle_alpha 63.820044
_cell_angle_beta 42.296970
_cell_angle_gamma 74.130024
_cell_volume 567.846997
_symmetry_space_group_name_H-M "P -1"
_symmetry_group_IT_number 2
_symmetry_cell_setting 'triclinic'
loop_
_space_group_symop_operation_xyz
x,y,z
-x,-y,-z
loop_
_atom_site_type_symbol
_atom_site_label
_atom_site_fract_x
_atom_site_fract_y
_atom_site_fract_z
Si Si1 0.243687 0.489732 0.904940
Si Si2 0.784736 0.210876 0.029887
Si Si3 0.034840 0.258225 0.303258
Si Si4 0.278712 0.145272 0.694731
Si Si5 0.144854 0.083435 0.540096
Si Si6 0.602020 0.355958 0.590426
Si Si7 0.661105 0.152801 0.868634
O O1 0.283310 0.648400 0.898539
O O2 0.208068 0.332478 0.071741
O O3 0.430399 0.478946 0.693130
O O4 0.000000 0.500000 0.000000
O O5 0.654115 0.222225 0.979959
O O6 0.048096 0.217107 0.842848
O O7 0.732276 0.035923 0.183403
O O8 0.857623 0.387993 0.384803
O O9 0.153320 0.196768 0.374307
O O10 0.878897 0.101391 0.415207
O O11 0.298814 0.135146 0.540211
O O12 0.465604 0.243969 0.619894
O O13 0.903837 0.096799 0.735511
O O14 0.636473 0.268012 0.729524
O O15 0.500000 0.000000 0.000000
#
# Coordination Sequence:
#
# PCOD9078550 Si02
#       7
#     2   2   2   2   2   2   2
#     4  12  24  43  68  96 136 176 207 273 336 385
#     4  10  21  36  66  97 132 171 216 267 329 385
#     4  10  23  42  67  97 132 172 219 266 327 388
#     4  10  19  39  67  99 123 173 225 265 323 388
#     4   9  20  39  64  94 133 172 217 272 324 377
#     4  11  23  40  69  96 130 173 221 269 321 386
#     4  10  18  35  64  98 128 168 220 270 315 385
#
# _framework density 24.654529
#
# number of rings (size 3 to 8) (size 9 to 14) (size 15 to 20)
#    0.000    1.714    2.857    1.714    2.000    1.714 
#    0.000    6.429    3.143    0.000    0.000    0.000 
#    0.000    0.000    0.000    0.000    0.000    0.000 
#
# Total GULP energy -78320.663866 kJ/mol
# GULP energy per Si atom -5594.333133 kJ/mol
# Density = 2.459841 g / cm^3
# Si number density = 24.654529 Si / 1000 Ang^3
#
#
#
# Elastic Constant Matrix: (Units=GPa)
#
#
# Indices 1 2 3 4 5 6 
#
# 1 156.1677 44.5539 29.8951 2.4900 23.9723 24.6329
# 2 44.5539 110.7575 31.8768 7.8487 7.3117 13.1170
# 3 29.8951 31.8768 93.2345 10.4638 -5.3190 -3.6488
# 4 2.4900 7.8487 10.4638 41.1166 -12.6264 1.7333
# 5 23.9723 7.3117 -5.3190 -12.6264 32.9239 9.7667
# 6 24.6329 13.1170 -3.6488 1.7333 9.7667 37.6878
#
#
#
# Elastic Compliance Matrix: (Units=1/GPa)
#
#
# Indices 1 2 3 4 5 6 
#
# 1 0.008970 -0.001947 -0.002565 -0.001136 -0.005798 -0.003879
# 2 -0.001947 0.011243 -0.003227 -0.001547 -0.001450 -0.002506
# 3 -0.002565 -0.003227 0.013157 -0.001791 0.003023 0.003373
# 4 -0.001136 -0.001547 -0.001791 0.029358 0.013229 -0.003671
# 5 -0.005798 -0.001450 0.003023 0.013229 0.042571 -0.007054
# 6 -0.003879 -0.002506 0.003373 -0.003671 -0.007054 0.032264
#
#
# Mechanical properties :
#
#
# Convention : Reuss Voigt Hill
#
# Bulk Modulus (GPa) = 55.89529 63.64569 59.77049
# Shear Modulus (GPa) = 31.44547 39.26792 35.35670
#
# Velocity S-wave (km/s) = 3.57521 3.99523 3.79104
# Velocity P-wave (km/s) = 6.30583 6.86684 6.59231
#
# Compressibility (1/GPa) = 0.01789060
#
# Stress axis : x y z
#
# Youngs Moduli (GPa) = 111.48306 88.94555 76.00580
#
# Poissons Ratio (x) = 0.17321 0.19499
# Poissons Ratio (y) = 0.21710 0.24525
# Poissons Ratio (z) = 0.28601 0.28700
#
# Static dielectric constant tensor:
#      x y z
#    x 1.903390 -0.139830 0.038450 
#    y -0.139830 1.957290 0.089420 
#    z 0.038450 0.089420 1.940760 
# 
# From -- ./inp_files/381191.got.cif
#   From: 2010.05.17/outbox.cif.g08.bks.cpg/sg2_191_cif.got.tgz:381191.got - 2010.06.03 11:33:40.
