data_PCOD9078599
_publ_section_title
;
Structure prediction by ZEFSAII (Michael W. Deem and Ramdas Pophale) SiO2 
 PCOD9078599
Probable space group: P -1
;
_chemical_formula_sum "Si O2"
_cell_formula_units_Z 13
_cell_length_a 7.953412
_cell_length_b 9.261600
_cell_length_c 15.719127
_cell_angle_alpha 48.805342
_cell_angle_beta 148.309325
_cell_angle_gamma 128.268591
_cell_volume 452.600496
_symmetry_space_group_name_H-M "P -1"
_symmetry_group_IT_number 2
_symmetry_cell_setting 'triclinic'
loop_
_space_group_symop_operation_xyz
x,y,z
-x,-y,-z
loop_
_atom_site_type_symbol
_atom_site_label
_atom_site_fract_x
_atom_site_fract_y
_atom_site_fract_z
Si Si1 0.000000 0.000000 0.500000
Si Si2 0.128671 0.003719 0.388185
Si Si3 0.447492 0.679789 0.845496
Si Si4 0.819312 0.367566 0.546331
Si Si5 0.527309 0.292031 0.733128
Si Si6 0.957798 0.818781 0.134296
Si Si7 0.964832 0.772824 0.897208
O O1 0.867971 0.219358 0.343854
O O2 0.718784 0.942050 0.476088
O O3 0.791640 0.876459 0.334065
O O4 0.274862 0.841258 0.459253
O O5 0.045326 0.177374 0.226040
O O6 0.646739 0.664579 0.849354
O O7 0.500000 0.500000 0.000000
O O8 0.662536 0.836134 0.938649
O O9 0.554436 0.497787 0.407246
O O10 0.058470 0.342857 0.736212
O O11 0.000000 0.500000 0.500000
O O12 0.771368 0.236402 0.790314
O O13 0.718923 0.306611 0.900067
O O14 0.001008 0.013429 0.130874
#
# Coordination Sequence:
#
# PCOD9078599 Si02
#       7
#     1   2   2   2   2   2   2
#     4  12  26  46  68  88 138 190 220 266 350 406
#     4  10  22  40  65  96 130 177 223 276 338 399
#     4  11  26  45  67  99 139 180 222 272 336 413
#     4   9  20  34  61 100 132 162 220 287 320 387
#     4  10  18  35  67 102 126 166 218 283 337 384
#     4  10  20  40  68  98 132 171 226 279 330 397
#     4  10  21  43  68 101 130 170 233 281 329 394
#
# _framework density 28.722905999999998
#
# number of rings (size 3 to 8) (size 9 to 14) (size 15 to 20)
#    0.000    1.846    0.000    4.615    4.308    3.077 
#   11.077    0.769    0.000    0.000    0.000    0.000 
#    0.000    0.000    0.000    0.000    0.000    0.000 
#
# Total GULP energy -72594.119360 kJ/mol
# GULP energy per Si atom -5584.163028 kJ/mol
# Density = 2.865753 g / cm^3
# Si number density = 28.722906 Si / 1000 Ang^3
#
#
#
# Elastic Constant Matrix: (Units=GPa)
#
#
# Indices 1 2 3 4 5 6 
#
# 1 109.7154 4.9809 60.2183 -20.5416 -26.9811 5.2764
# 2 4.9809 68.9341 26.6744 -23.2935 3.4278 5.6452
# 3 60.2183 26.6744 194.4660 -25.4626 -21.2913 -0.0049
# 4 -20.5416 -23.2935 -25.4626 57.5897 2.5665 -5.2809
# 5 -26.9811 3.4278 -21.2913 2.5665 73.9350 -17.5986
# 6 5.2764 5.6452 -0.0049 -5.2809 -17.5986 37.8505
#
#
#
# Elastic Compliance Matrix: (Units=1/GPa)
#
#
# Indices 1 2 3 4 5 6 
#
# 1 0.012251 0.001287 -0.003156 0.003357 0.003424 0.000160
# 2 0.001287 0.017784 -0.002191 0.006511 -0.001878 -0.002797
# 3 -0.003156 -0.002191 0.006684 0.001025 0.001187 0.001463
# 4 0.003357 0.006511 0.001025 0.021793 0.000948 0.002042
# 5 0.003424 -0.001878 0.001187 0.000948 0.017042 0.007859
# 6 0.000160 -0.002797 0.001463 0.002042 0.007859 0.030754
#
#
# Mechanical properties :
#
#
# Convention : Reuss Voigt Hill
#
# Bulk Modulus (GPa) = 34.96570 61.87362 48.41966
# Shear Modulus (GPa) = 40.33558 52.62449 46.48003
#
# Velocity S-wave (km/s) = 3.75146 4.28500 4.02708
# Velocity P-wave (km/s) = 5.56458 6.78748 6.20623
#
# Compressibility (1/GPa) = 0.02859945
#
# Stress axis : x y z
#
# Youngs Moduli (GPa) = 81.62633 56.23083 149.60563
#
# Poissons Ratio (x) = -0.07237 0.47211
# Poissons Ratio (y) = -0.10505 0.32779
# Poissons Ratio (z) = 0.25759 0.12320
#
# Static dielectric constant tensor:
#      x y z
#    x 2.023770 0.324360 0.192580 
#    y 0.324360 2.525000 -0.034860 
#    z 0.192580 -0.034860 2.150110 
# 
# From -- ./inp_files/557898.got.cif
#   From: 2010.05.17/outbox.cif.g08.bks.cpg/sg2_279_cif.got.tgz:557898.got - 2010.06.03 11:33:40.
