data_PCOD9078972
_publ_section_title
;
Structure prediction by ZEFSAII (Michael W. Deem and Ramdas Pophale) SiO2 
 PCOD9078972
Probable space group: P -1
;
_chemical_formula_sum "Si O2"
_cell_formula_units_Z 16
_cell_length_a 11.072204
_cell_length_b 19.963671
_cell_length_c 10.992805
_cell_angle_alpha 43.846206
_cell_angle_beta 142.964217
_cell_angle_gamma 150.759825
_cell_volume 712.384695
_symmetry_space_group_name_H-M "P -1"
_symmetry_group_IT_number 2
_symmetry_cell_setting 'triclinic'
loop_
_space_group_symop_operation_xyz
x,y,z
-x,-y,-z
loop_
_atom_site_type_symbol
_atom_site_label
_atom_site_fract_x
_atom_site_fract_y
_atom_site_fract_z
Si Si1 0.644010 0.445247 0.174114
Si Si2 0.702780 0.352667 0.602736
Si Si3 0.988114 0.733813 0.385686
Si Si4 0.497991 0.794747 0.675783
Si Si5 0.829048 0.192924 0.276483
Si Si6 0.441659 0.447958 0.383987
Si Si7 0.730112 0.945852 0.423597
Si Si8 0.738927 0.980661 0.842078
O O1 0.654074 0.392961 0.381873
O O2 0.476708 0.308430 0.137175
O O3 0.965546 0.558352 0.235301
O O4 0.500000 0.500000 0.000000
O O5 0.558410 0.378747 0.546237
O O6 0.541483 0.194042 0.678914
O O7 0.655698 0.591723 0.294444
O O8 0.159453 0.699276 0.517138
O O9 0.053861 0.776742 0.527733
O O10 0.122914 0.866840 0.241719
O O11 0.704189 0.886843 0.610690
O O12 0.569684 0.904562 0.681755
O O13 0.509463 0.128593 0.117075
O O14 0.098996 0.334156 0.240362
O O15 0.763159 0.069513 0.318120
O O16 0.500000 0.500000 0.500000
O O17 0.000000 0.000000 0.500000
O O18 0.000000 0.000000 0.000000
#
# Coordination Sequence:
#
# PCOD9078972 Si02
#       8
#     2   2   2   2   2   2   2   2
#     4  10  22  38  60  87 122 152 199 254 292 349
#     4  10  21  36  60  90 110 160 205 231 305 359
#     4  10  18  36  61  83 111 150 197 247 283 345
#     4  10  19  37  59  85 113 151 200 244 291 347
#     4  10  19  36  57  85 112 151 193 238 296 345
#     4  10  20  34  62  85 115 149 199 246 295 360
#     4  11  19  32  61  84 114 151 200 244 285 361
#     4  11  22  35  60  89 115 152 198 245 295 347
#
# _framework density 22.459773999999999
#
# number of rings (size 3 to 8) (size 9 to 14) (size 15 to 20)
#    0.000    1.750    5.000    0.750    0.000    2.000 
#    0.000    0.625    8.250    2.250    0.000    0.000 
#    0.000    0.000    0.000    0.000    0.000    0.000 
#
# Total GULP energy -89070.882385 kJ/mol
# GULP energy per Si atom -5566.930149 kJ/mol
# Density = 2.240865 g / cm^3
# Si number density = 22.459774 Si / 1000 Ang^3
#
#
#
# Elastic Constant Matrix: (Units=GPa)
#
#
# Indices 1 2 3 4 5 6 
#
# 1 111.0312 45.8132 26.4725 4.8280 40.1138 10.8781
# 2 45.8132 174.9778 34.5466 6.8651 29.2905 13.9631
# 3 26.4725 34.5466 69.8073 -0.1946 34.7477 11.9209
# 4 4.8280 6.8651 -0.1946 27.1044 2.7886 20.1827
# 5 40.1138 29.2905 34.7477 2.7886 35.9069 5.4339
# 6 10.8781 13.9631 11.9209 20.1827 5.4339 47.1503
#
#
#
# Elastic Compliance Matrix: (Units=1/GPa)
#
#
# Indices 1 2 3 4 5 6 
#
# 1 0.016888 -0.001602 0.006876 0.002491 -0.023882 -0.003474
# 2 -0.001602 0.006892 -0.001659 -0.000741 -0.002064 -0.000697
# 3 0.006876 -0.001659 0.032853 0.010380 -0.037486 -0.009524
# 4 0.002491 -0.000741 0.010380 0.057465 -0.012735 -0.026110
# 5 -0.023882 -0.002064 -0.037486 -0.012735 0.091896 0.010459
# 6 -0.003474 -0.000697 -0.009524 -0.026110 0.010459 0.034596
#
#
# Mechanical properties :
#
#
# Convention : Reuss Voigt Hill
#
# Bulk Modulus (GPa) = 15.65814 63.27564 39.46689
# Shear Modulus (GPa) = 19.63491 38.63125 29.13308
#
# Velocity S-wave (km/s) = 2.95994 4.15181 3.60547
# Velocity P-wave (km/s) = 4.32070 7.15663 5.91125
#
# Compressibility (1/GPa) = 0.06386453
#
# Stress axis : x y z
#
# Youngs Moduli (GPa) = 59.21237 145.09146 30.43843
#
# Poissons Ratio (x) = 0.23245 -0.20931
# Poissons Ratio (y) = 0.09486 0.05050
# Poissons Ratio (z) = -0.40717 0.24070
#
# Static dielectric constant tensor:
#      x y z
#    x 1.894020 -0.067910 -0.052510 
#    y -0.067910 3.264270 1.706190 
#    z -0.052510 1.706190 3.917820 
# 
# From -- ./inp_files/417438.got.cif
#   From: 2010.05.17/outbox.cif.g08.bks.cpg/sg2_209_cif.got.tgz:417438.got - 2010.06.03 11:33:40.
