data_PCOD9078148
_publ_section_title
;
Structure prediction by ZEFSAII (Michael W. Deem and Ramdas Pophale) SiO2 
 PCOD9078148
Probable space group: P -1
;
_chemical_formula_sum "Si O2"
_cell_formula_units_Z 14
_cell_length_a 8.995369
_cell_length_b 15.302942
_cell_length_c 16.850200
_cell_angle_alpha 137.201137
_cell_angle_beta 35.513392
_cell_angle_gamma 112.552759
_cell_volume 769.622267
_symmetry_space_group_name_H-M "P -1"
_symmetry_group_IT_number 2
_symmetry_cell_setting 'triclinic'
loop_
_space_group_symop_operation_xyz
x,y,z
-x,-y,-z
loop_
_atom_site_type_symbol
_atom_site_label
_atom_site_fract_x
_atom_site_fract_y
_atom_site_fract_z
Si Si1 0.307905 0.475919 0.384140
Si Si2 0.827712 0.179211 0.871166
Si Si3 0.794599 0.943691 0.221654
Si Si4 0.800560 0.938342 0.513324
Si Si5 0.217260 0.782229 0.676397
Si Si6 0.493058 0.003234 0.154657
Si Si7 0.564850 0.263892 0.272710
O O1 0.289748 0.634076 0.498020
O O2 0.359607 0.416192 0.413054
O O3 0.000000 0.500000 0.500000
O O4 0.583304 0.341650 0.123848
O O5 0.099348 0.086461 0.754175
O O6 0.972931 0.190685 0.733524
O O7 0.665744 0.083401 0.865594
O O8 0.496779 0.943801 0.329971
O O9 0.730601 0.104865 0.323801
O O10 0.089375 0.814387 0.959917
O O11 0.659148 0.922096 0.644782
O O12 0.000000 0.000000 0.500000
O O13 0.409688 0.729425 0.639292
O O14 0.856542 0.881657 0.922073
O O15 0.466999 0.144140 0.211978
#
# Coordination Sequence:
#
# PCOD9078148 Si02
#       7
#     2   2   2   2   2   2   2
#     4  11  23  35  52  82 116 145 170 221 275 324
#     4  10  22  34  55  83 111 143 180 215 275 320
#     4  10  19  34  58  85 106 137 184 230 266 306
#     4  10  19  35  57  80 110 139 181 227 265 314
#     4  11  19  35  57  81 112 139 178 224 271 321
#     4  10  18  35  59  83 104 138 182 232 263 312
#     4  10  20  34  59  82 107 138 186 222 271 313
#
# _framework density 18.190740999999999
#
# number of rings (size 3 to 8) (size 9 to 14) (size 15 to 20)
#    0.000    1.714    4.286    1.714    2.000    1.714 
#    0.000    0.714    0.000    0.857    0.000    0.000 
#    0.000    0.000    0.000    0.000    0.000    0.000 
#
# Total GULP energy -77977.420955 kJ/mol
# GULP energy per Si atom -5569.815782 kJ/mol
# Density = 1.814934 g / cm^3
# Si number density = 18.190741 Si / 1000 Ang^3
#
#
#
# Elastic Constant Matrix: (Units=GPa)
#
#
# Indices 1 2 3 4 5 6 
#
# 1 104.4694 29.6355 32.9872 5.2287 -8.5962 4.0015
# 2 29.6355 39.2691 32.8339 6.9546 -2.1348 -0.9960
# 3 32.9872 32.8339 71.7200 -10.9892 1.9249 -2.3433
# 4 5.2287 6.9546 -10.9892 26.4414 -4.1034 -0.2841
# 5 -8.5962 -2.1348 1.9249 -4.1034 30.0277 -3.4804
# 6 4.0015 -0.9960 -2.3433 -0.2841 -3.4804 29.2800
#
#
#
# Elastic Compliance Matrix: (Units=1/GPa)
#
#
# Indices 1 2 3 4 5 6 
#
# 1 0.012883 -0.006448 -0.003395 -0.001821 0.002976 -0.001916
# 2 -0.006448 0.057616 -0.027259 -0.025106 0.000624 0.000490
# 3 -0.003395 -0.027259 0.031250 0.020560 -0.001870 0.002015
# 4 -0.001821 -0.025106 0.020560 0.053968 0.003987 0.002038
# 5 0.002976 0.000624 -0.001870 0.003987 0.035292 0.003698
# 6 -0.001916 0.000490 0.002015 0.002038 0.003698 0.035052
#
#
# Mechanical properties :
#
#
# Convention : Reuss Voigt Hill
#
# Bulk Modulus (GPa) = 36.30368 45.15242 40.72805
# Shear Modulus (GPa) = 16.15788 25.14993 20.65390
#
# Velocity S-wave (km/s) = 2.98358 3.72232 3.37324
# Velocity P-wave (km/s) = 5.64531 6.58406 6.13267
#
# Compressibility (1/GPa) = 0.02754541
#
# Stress axis : x y z
#
# Youngs Moduli (GPa) = 77.62317 17.35637 31.99989
#
# Poissons Ratio (x) = 0.11191 0.10864
# Poissons Ratio (y) = 0.50051 0.87227
# Poissons Ratio (z) = 0.26353 0.47311
#
# Static dielectric constant tensor:
#      x y z
#    x 1.662540 -0.006120 0.013580 
#    y -0.006120 1.638430 -0.032430 
#    z 0.013580 -0.032430 1.627400 
# 
# From -- ./inp_files/395719.got.cif
#   From: 2010.05.17/outbox.cif.g08.bks.cpg/sg2_198_cif.got.tgz:395719.got - 2010.06.03 11:33:40.
