data_PCOD9078082
_publ_section_title
;
Structure prediction by ZEFSAII (Michael W. Deem and Ramdas Pophale) SiO2 
 PCOD9078082
Probable space group: P -1
;
_chemical_formula_sum "Si O2"
_cell_formula_units_Z 12
_cell_length_a 11.734404
_cell_length_b 8.322797
_cell_length_c 8.876684
_cell_angle_alpha 102.202424
_cell_angle_beta 107.118929
_cell_angle_gamma 34.809787
_cell_volume 472.230651
_symmetry_space_group_name_H-M "P -1"
_symmetry_group_IT_number 2
_symmetry_cell_setting 'triclinic'
loop_
_space_group_symop_operation_xyz
x,y,z
-x,-y,-z
loop_
_atom_site_type_symbol
_atom_site_label
_atom_site_fract_x
_atom_site_fract_y
_atom_site_fract_z
Si Si1 0.324237 0.251804 0.100136
Si Si2 0.284512 0.588392 0.970515
Si Si3 0.286473 0.587979 0.613284
Si Si4 0.434451 0.916192 0.551620
Si Si5 0.911526 0.839599 0.373611
Si Si6 0.767309 0.999319 0.016988
O O1 0.428591 0.228699 0.273616
O O2 0.195282 0.531718 0.013409
O O3 0.500000 0.000000 0.000000
O O4 0.233677 0.176630 0.099424
O O5 0.264643 0.589114 0.783327
O O6 0.199002 0.865576 0.029578
O O7 0.530047 0.303285 0.039095
O O8 0.508392 0.298365 0.577887
O O9 0.217447 0.847325 0.596091
O O10 0.133033 0.634955 0.479877
O O11 0.205735 0.163026 0.573830
O O12 0.500000 0.000000 0.500000
O O13 0.895018 0.828016 0.186544
#
# Coordination Sequence:
#
# PCOD9078082 Si02
#       6
#     2   2   2   2   2   2
#     4  10  18  35  58  84 119 159 198 246 300 361
#     4   9  17  34  61  85 111 162 200 244 306 357
#     4  10  23  39  65  92 118 158 210 251 305 363
#     4  12  23  38  61  94 124 159 204 249 306 367
#     4  10  21  42  63  87 126 160 198 258 308 357
#     4   9  17  33  61  83 112 162 201 236 304 365
#
# _framework density 25.41131
#
# number of rings (size 3 to 8) (size 9 to 14) (size 15 to 20)
#    0.000    2.000    3.333    2.500    0.000    0.667 
#    3.000    0.833    3.667    3.000    0.000    0.000 
#    0.000    0.000    0.000    0.000    0.000    0.000 
#
# Total GULP energy -67112.317098 kJ/mol
# GULP energy per Si atom -5592.693092 kJ/mol
# Density = 2.535347 g / cm^3
# Si number density = 25.411310 Si / 1000 Ang^3
#
#
#
# Elastic Constant Matrix: (Units=GPa)
#
#
# Indices 1 2 3 4 5 6 
#
# 1 135.9155 27.5289 10.3338 -1.2621 -18.1943 21.0981
# 2 27.5289 100.8440 18.8180 4.4185 -11.2762 31.3306
# 3 10.3338 18.8180 71.0031 -15.9850 -2.8622 -7.6593
# 4 -1.2621 4.4185 -15.9850 34.7254 -0.1573 -0.6568
# 5 -18.1943 -11.2762 -2.8622 -0.1573 45.7231 -2.6246
# 6 21.0981 31.3306 -7.6593 -0.6568 -2.6246 40.0700
#
#
#
# Elastic Compliance Matrix: (Units=1/GPa)
#
#
# Indices 1 2 3 4 5 6 
#
# 1 0.008629 -0.000325 -0.001629 -0.000465 0.002997 -0.004412
# 2 -0.000325 0.016009 -0.006771 -0.005411 0.002598 -0.013559
# 3 -0.001629 -0.006771 0.019408 0.009923 -0.000496 0.009992
# 4 -0.000465 -0.005411 0.009923 0.034166 -0.000384 0.006907
# 5 0.002997 0.002598 -0.000496 -0.000384 0.023547 -0.002168
# 6 -0.004412 -0.013559 0.009992 0.006907 -0.002168 0.039762
#
#
# Mechanical properties :
#
#
# Convention : Reuss Voigt Hill
#
# Bulk Modulus (GPa) = 37.60417 46.79155 42.19786
# Shear Modulus (GPa) = 29.79086 40.84250 35.31668
#
# Velocity S-wave (km/s) = 3.42767 4.01341 3.73205
# Velocity P-wave (km/s) = 5.52228 6.31904 5.93405
#
# Compressibility (1/GPa) = 0.02659280
#
# Stress axis : x y z
#
# Youngs Moduli (GPa) = 115.88868 62.46590 51.52630
#
# Poissons Ratio (x) = 0.02033 0.08396
# Poissons Ratio (y) = 0.03771 0.34891
# Poissons Ratio (z) = 0.18883 0.42298
#
# Static dielectric constant tensor:
#      x y z
#    x 2.104080 -0.021140 0.035820 
#    y -0.021140 2.043350 -0.008520 
#    z 0.035820 -0.008520 1.928080 
# 
# From -- ./inp_files/150472.got.cif
#   From: 2010.05.17/outbox.cif.g08.bks.cpg/sg2_76_cif.got.tgz:150472.got - 2010.06.03 11:33:40.
