data_PCOD9078675
_publ_section_title
;
Structure prediction by ZEFSAII (Michael W. Deem and Ramdas Pophale) SiO2 
 PCOD9078675
Probable space group: P -1
;
_chemical_formula_sum "Si O2"
_cell_formula_units_Z 14
_cell_length_a 15.147709
_cell_length_b 8.928680
_cell_length_c 11.947930
_cell_angle_alpha 143.584634
_cell_angle_beta 140.978270
_cell_angle_gamma 63.832843
_cell_volume 525.526093
_symmetry_space_group_name_H-M "P -1"
_symmetry_group_IT_number 2
_symmetry_cell_setting 'triclinic'
loop_
_space_group_symop_operation_xyz
x,y,z
-x,-y,-z
loop_
_atom_site_type_symbol
_atom_site_label
_atom_site_fract_x
_atom_site_fract_y
_atom_site_fract_z
Si Si1 0.525632 0.965605 0.338588
Si Si2 0.938823 0.657538 0.229247
Si Si3 0.689032 0.550452 0.750124
Si Si4 0.754177 0.661400 0.261759
Si Si5 0.112217 0.912080 0.163293
Si Si6 0.695382 0.794683 0.661138
Si Si7 0.438972 0.213416 0.027708
O O1 0.570292 0.202306 0.423984
O O2 0.700903 0.028486 0.590513
O O3 0.428228 0.082134 0.387493
O O4 0.393188 0.625315 0.999753
O O5 0.834117 0.561886 0.183427
O O6 0.852508 0.588438 0.982990
O O7 0.009765 0.435454 0.162437
O O8 0.000000 0.000000 0.500000
O O9 0.710976 0.710326 0.752168
O O10 0.631280 0.691640 0.877087
O O11 0.884246 0.873376 0.607624
O O12 0.683243 0.834421 0.222828
O O13 0.138672 0.013041 0.121275
O O14 0.602457 0.496612 0.323768
O O15 0.500000 0.000000 0.000000
#
# Coordination Sequence:
#
# PCOD9078675 Si02
#       7
#     2   2   2   2   2   2   2
#     4  10  18  36  55  87 126 153 187 226 286 363
#     4  10  23  45  63  78 110 156 210 257 284 330
#     4   9  22  35  59  85 119 161 190 234 297 350
#     4  11  22  36  62  93 115 159 197 232 295 354
#     4  11  22  34  61  88 119 154 192 238 287 357
#     4  11  20  33  55  87 125 162 183 226 298 357
#     4  10  21  31  50  90 131 154 184 227 290 360
#
# _framework density 26.639970999999999
#
# number of rings (size 3 to 8) (size 9 to 14) (size 15 to 20)
#    0.000    1.714    2.857    3.429    6.000    0.571 
#    0.000    0.714    0.000    0.857    0.000    0.000 
#    0.000    0.000    0.000    0.000    0.000    0.000 
#
# Total GULP energy -78055.569844 kJ/mol
# GULP energy per Si atom -5575.397846 kJ/mol
# Density = 2.657934 g / cm^3
# Si number density = 26.639971 Si / 1000 Ang^3
#
#
#
# Elastic Constant Matrix: (Units=GPa)
#
#
# Indices 1 2 3 4 5 6 
#
# 1 83.6370 29.8275 12.4942 1.5298 -13.2370 12.2863
# 2 29.8275 99.7164 22.8163 11.4003 -17.8704 39.5750
# 3 12.4942 22.8163 103.2070 24.9318 -14.6951 20.3197
# 4 1.5298 11.4003 24.9318 54.0645 0.1783 -11.8353
# 5 -13.2370 -17.8704 -14.6951 0.1783 40.5126 -2.4755
# 6 12.2863 39.5750 20.3197 -11.8353 -2.4755 46.1564
#
#
#
# Elastic Compliance Matrix: (Units=1/GPa)
#
#
# Indices 1 2 3 4 5 6 
#
# 1 0.013733 -0.003542 -0.000647 0.000643 0.002685 -0.000025
# 2 -0.003542 0.021518 0.003733 -0.010891 0.008423 -0.021491
# 3 -0.000647 0.003733 0.014527 -0.010044 0.006035 -0.011676
# 4 0.000643 -0.010891 -0.010044 0.030006 -0.007092 0.020902
# 5 0.002685 0.008423 0.006035 -0.007092 0.030840 -0.010759
# 6 -0.000025 -0.021491 -0.011676 0.020902 -0.010759 0.050022
#
#
# Mechanical properties :
#
#
# Convention : Reuss Voigt Hill
#
# Bulk Modulus (GPa) = 20.46448 46.31514 33.38981
# Shear Modulus (GPa) = 28.11428 42.90820 35.51124
#
# Velocity S-wave (km/s) = 3.25213 4.01767 3.65500
# Velocity P-wave (km/s) = 4.66908 6.24064 5.51116
#
# Compressibility (1/GPa) = 0.04886517
#
# Stress axis : x y z
#
# Youngs Moduli (GPa) = 72.81566 46.47307 68.83930
#
# Poissons Ratio (x) = 0.16462 0.04457
# Poissons Ratio (y) = 0.25793 -0.25701
# Poissons Ratio (z) = 0.04715 -0.17350
#
# Static dielectric constant tensor:
#      x y z
#    x 2.191540 -0.002850 0.045550 
#    y -0.002850 2.185430 0.020240 
#    z 0.045550 0.020240 2.202090 
# 
# From -- ./inp_files/170734.got.cif
#   From: 2010.05.17/outbox.cif.g08.bks.cpg/sg2_86_cif.got.tgz:170734.got - 2010.06.03 11:33:40.
