data_PCOD9078845
_publ_section_title
;
Structure prediction by ZEFSAII (Michael W. Deem and Ramdas Pophale) SiO2 
 PCOD9078845
Probable space group: P -1
;
_chemical_formula_sum "Si O2"
_cell_formula_units_Z 16
_cell_length_a 13.591169
_cell_length_b 8.004580
_cell_length_c 12.906238
_cell_angle_alpha 135.999188
_cell_angle_beta 118.519818
_cell_angle_gamma 49.856041
_cell_volume 745.356491
_symmetry_space_group_name_H-M "P -1"
_symmetry_group_IT_number 2
_symmetry_cell_setting 'triclinic'
loop_
_space_group_symop_operation_xyz
x,y,z
-x,-y,-z
loop_
_atom_site_type_symbol
_atom_site_label
_atom_site_fract_x
_atom_site_fract_y
_atom_site_fract_z
Si Si1 0.817090 0.942040 0.109622
Si Si2 0.413809 0.585102 0.892397
Si Si3 0.528715 0.607035 0.390004
Si Si4 0.959083 0.424086 0.076784
Si Si5 0.808953 0.567036 0.256410
Si Si6 0.101355 0.687845 0.380200
Si Si7 0.323257 0.814091 0.544441
Si Si8 0.202874 0.509869 0.561058
O O1 0.844365 0.663534 0.057830
O O2 0.686907 0.092931 0.042791
O O3 0.809071 0.186642 0.288626
O O4 0.944232 0.840806 0.058184
O O5 0.490799 0.462570 0.768376
O O6 0.315457 0.469396 0.811126
O O7 0.500000 0.500000 0.000000
O O8 0.404237 0.811659 0.483918
O O9 0.587522 0.346206 0.383905
O O10 0.643821 0.679997 0.468167
O O11 0.904856 0.368664 0.129612
O O12 0.044518 0.566282 0.215045
O O13 0.851394 0.547800 0.388046
O O14 0.768764 0.870536 0.332129
O O15 0.234162 0.679623 0.413615
O O16 0.130142 0.516395 0.424365
O O17 0.000000 0.000000 0.500000
#
# Coordination Sequence:
#
# PCOD9078845 Si02
#       8
#     2   2   2   2   2   2   2   2
#     4   9  20  39  59  78 115 154 187 231 287 333
#     4  10  22  42  55  82 118 151 185 241 282 336
#     4   8  18  37  59  75 114 146 189 232 288 329
#     4  11  20  37  60  86 111 152 195 227 280 343
#     4  10  20  35  60  80 111 152 184 224 295 342
#     4  11  19  35  57  82 119 141 184 244 272 328
#     4  10  18  36  59  87 105 150 190 233 286 337
#     4   9  19  35  56  79 114 148 179 238 289 332
#
# _framework density 21.466238000000001
#
# number of rings (size 3 to 8) (size 9 to 14) (size 15 to 20)
#    0.000    2.500    2.500    1.500    0.000    4.500 
#   13.500    1.250    0.000    0.000    0.000    0.000 
#    0.000    0.000    0.000    0.000    0.000    0.000 
#
# Total GULP energy -89171.243419 kJ/mol
# GULP energy per Si atom -5573.202714 kJ/mol
# Density = 2.141738 g / cm^3
# Si number density = 21.466238 Si / 1000 Ang^3
#
#
#
# Elastic Constant Matrix: (Units=GPa)
#
#
# Indices 1 2 3 4 5 6 
#
# 1 83.0748 8.0827 34.6645 -7.8651 -34.9085 6.4089
# 2 8.0827 83.3471 25.0397 -30.1752 -5.3753 -2.9681
# 3 34.6645 25.0397 69.3982 -19.4296 -23.1762 -6.6676
# 4 -7.8651 -30.1752 -19.4296 37.9599 1.8013 -3.9168
# 5 -34.9085 -5.3753 -23.1762 1.8013 44.7101 -5.3113
# 6 6.4089 -2.9681 -6.6676 -3.9168 -5.3113 26.1271
#
#
#
# Elastic Compliance Matrix: (Units=1/GPa)
#
#
# Indices 1 2 3 4 5 6 
#
# 1 0.020040 0.000824 -0.006630 0.000435 0.011811 -0.004048
# 2 0.000824 0.017639 -0.002185 0.013369 0.001515 0.003556
# 3 -0.006630 -0.002185 0.025475 0.010677 0.008672 0.011243
# 4 0.000435 0.013369 0.010677 0.043435 0.007170 0.012106
# 5 0.011811 0.001515 0.008672 0.007170 0.036935 0.008071
# 6 -0.004048 0.003556 0.011243 0.012106 0.008071 0.045996
#
#
# Mechanical properties :
#
#
# Convention : Reuss Voigt Hill
#
# Bulk Modulus (GPa) = 21.19954 41.26600 31.23277
# Shear Modulus (GPa) = 22.60118 32.96163 27.78140
#
# Velocity S-wave (km/s) = 3.24832 3.92281 3.60139
# Velocity P-wave (km/s) = 4.89550 6.30740 5.64576
#
# Compressibility (1/GPa) = 0.04717083
#
# Stress axis : x y z
#
# Youngs Moduli (GPa) = 49.89997 56.69215 39.25385
#
# Poissons Ratio (x) = -0.04669 0.26025
# Poissons Ratio (y) = -0.04109 0.08578
# Poissons Ratio (z) = 0.33084 0.12389
#
# Static dielectric constant tensor:
#      x y z
#    x 1.800350 0.005950 -0.028590 
#    y 0.005950 1.861990 -0.026360 
#    z -0.028590 -0.026360 1.769840 
# 
# From -- ./inp_files/446425.got.cif
#   From: 2010.05.17/outbox.cif.g08.bks.cpg/sg2_224_cif.got.tgz:446425.got - 2010.06.03 11:33:40.
