data_PCOD9078357
_publ_section_title
;
Structure prediction by ZEFSAII (Michael W. Deem and Ramdas Pophale) SiO2 
 PCOD9078357
Probable space group: P -1
;
_chemical_formula_sum "Si O2"
_cell_formula_units_Z 14
_cell_length_a 9.237116
_cell_length_b 14.055664
_cell_length_c 24.289751
_cell_angle_alpha 155.167296
_cell_angle_beta 145.743658
_cell_angle_gamma 45.228687
_cell_volume 731.375726
_symmetry_space_group_name_H-M "P -1"
_symmetry_group_IT_number 2
_symmetry_cell_setting 'triclinic'
loop_
_space_group_symop_operation_xyz
x,y,z
-x,-y,-z
loop_
_atom_site_type_symbol
_atom_site_label
_atom_site_fract_x
_atom_site_fract_y
_atom_site_fract_z
Si Si1 0.891196 0.140145 0.297065
Si Si2 0.089254 0.580371 0.176649
Si Si3 0.442661 0.501498 0.643065
Si Si4 0.045501 0.932041 0.593112
Si Si5 0.808013 0.101307 0.809987
Si Si6 0.521202 0.302598 0.447503
Si Si7 0.473469 0.824418 0.347023
O O1 0.652350 0.257004 0.265267
O O2 0.169041 0.323732 0.476215
O O3 0.871266 0.073420 0.319648
O O4 0.936695 0.942050 0.165648
O O5 0.335554 0.518903 0.254466
O O6 0.215487 0.645466 0.190113
O O7 0.996986 0.805319 0.291276
O O8 0.862207 0.356897 0.985311
O O9 0.554235 0.435436 0.585399
O O10 0.253285 0.834276 0.570648
O O11 0.761172 0.767260 0.407408
O O12 0.586880 0.079522 0.680924
O O13 0.728531 0.902760 0.726339
O O14 0.500000 0.500000 0.500000
O O15 0.500000 0.000000 0.500000
#
# Coordination Sequence:
#
# PCOD9078357 Si02
#       7
#     2   2   2   2   2   2   2
#     4  10  18  36  62  87 113 157 200 245 284 340
#     4  11  22  37  61  92 124 152 192 247 299 352
#     4  10  21  37  61  87 118 154 203 245 285 345
#     4  11  20  37  64  86 118 154 198 245 294 342
#     4  11  23  37  61  91 123 154 194 242 302 353
#     4  11  23  40  61  86 117 158 203 244 289 351
#     4  10  18  35  61  91 112 147 201 248 280 339
#
# _framework density 19.142008000000001
#
# number of rings (size 3 to 8) (size 9 to 14) (size 15 to 20)
#    0.000    1.429    5.714    3.000    0.000    3.429 
#    0.000    0.714    0.000    0.000    0.000    0.000 
#    0.000    0.000    0.000    0.000    0.000    0.000 
#
# Total GULP energy -78000.002285 kJ/mol
# GULP energy per Si atom -5571.428735 kJ/mol
# Density = 1.909844 g / cm^3
# Si number density = 19.142008 Si / 1000 Ang^3
#
#
#
# Elastic Constant Matrix: (Units=GPa)
#
#
# Indices 1 2 3 4 5 6 
#
# 1 96.8194 33.2537 13.9419 3.5887 -12.3619 -14.8689
# 2 33.2537 124.9527 23.1155 1.3088 -5.7467 -9.2905
# 3 13.9419 23.1155 52.9761 9.7753 2.0371 1.4917
# 4 3.5887 1.3088 9.7753 19.3994 1.9866 -2.1282
# 5 -12.3619 -5.7467 2.0371 1.9866 14.8968 11.1082
# 6 -14.8689 -9.2905 1.4917 -2.1282 11.1082 42.5331
#
#
#
# Elastic Compliance Matrix: (Units=1/GPa)
#
#
# Indices 1 2 3 4 5 6 
#
# 1 0.013010 -0.002452 -0.002424 -0.001790 0.009229 0.001598
# 2 -0.002452 0.009494 -0.003903 0.001801 0.001049 0.001170
# 3 -0.002424 -0.003903 0.023439 -0.010952 -0.003691 -0.002106
# 4 -0.001790 0.001801 -0.010952 0.059165 -0.011802 0.006194
# 5 0.009229 0.001049 -0.003691 -0.011802 0.093185 -0.021342
# 6 0.001598 0.001170 -0.002106 0.006194 -0.021342 0.030283
#
#
# Mechanical properties :
#
#
# Convention : Reuss Voigt Hill
#
# Bulk Modulus (GPa) = 35.22806 46.15227 40.69017
# Shear Modulus (GPa) = 19.56228 28.99498 24.27863
#
# Velocity S-wave (km/s) = 3.20027 3.89618 3.56524
# Velocity P-wave (km/s) = 5.66561 6.66356 6.18475
#
# Compressibility (1/GPa) = 0.02838646
#
# Stress axis : x y z
#
# Youngs Moduli (GPa) = 76.86597 105.33061 42.66320
#
# Poissons Ratio (x) = 0.25827 0.10339
# Poissons Ratio (y) = 0.18847 0.16651
# Poissons Ratio (z) = 0.18629 0.41108
#
# Static dielectric constant tensor:
#      x y z
#    x 1.683990 0.014310 0.026020 
#    y 0.014310 1.711160 0.050180 
#    z 0.026020 0.050180 1.703680 
# 
# From -- ./inp_files/188636.got.cif
#   From: 2010.05.17/outbox.cif.g08.bks.cpg/sg2_95_cif.got.tgz:188636.got - 2010.06.03 11:33:40.
