data_PCOD9078627
_publ_section_title
;
Structure prediction by ZEFSAII (Michael W. Deem and Ramdas Pophale) SiO2 
 PCOD9078627
Probable space group: P -1
;
_chemical_formula_sum "Si O2"
_cell_formula_units_Z 12
_cell_length_a 10.353285
_cell_length_b 11.824405
_cell_length_c 5.228897
_cell_angle_alpha 101.464449
_cell_angle_beta 95.227340
_cell_angle_gamma 47.918156
_cell_volume 464.836727
_symmetry_space_group_name_H-M "P -1"
_symmetry_group_IT_number 2
_symmetry_cell_setting 'triclinic'
loop_
_space_group_symop_operation_xyz
x,y,z
-x,-y,-z
loop_
_atom_site_type_symbol
_atom_site_label
_atom_site_fract_x
_atom_site_fract_y
_atom_site_fract_z
Si Si1 0.233895 0.477110 0.641185
Si Si2 0.807761 0.943618 0.127377
Si Si3 0.331929 0.033350 0.384592
Si Si4 0.929621 0.653757 0.299020
Si Si5 0.598561 0.319551 0.503103
Si Si6 0.808898 0.241774 0.022191
O O1 0.142925 0.431451 0.770443
O O2 0.435342 0.334870 0.549291
O O3 0.220645 0.606970 0.838700
O O4 0.125273 0.545513 0.387474
O O5 0.662385 0.025298 0.918568
O O6 0.984570 0.895621 0.038953
O O7 0.737974 0.012684 0.430188
O O8 0.872222 0.772753 0.119021
O O9 0.181359 0.220229 0.434621
O O10 0.500000 0.000000 0.500000
O O11 0.500000 0.500000 0.500000
O O12 0.718077 0.227008 0.233038
O O13 0.714743 0.271625 0.752529
#
# Coordination Sequence:
#
# PCOD9078627 Si02
#       6
#     2   2   2   2   2   2
#     4  10  18  36  48  81 115 144 165 208 254 322
#     4  10  19  35  53  79 102 133 175 212 266 305
#     4  10  20  37  54  77 102 130 177 219 261 310
#     4   9  21  33  53  79 111 141 166 207 274 308
#     4  10  20  31  49  71 106 147 178 202 236 303
#     4  11  19  35  49  75 109 140 176 206 246 305
#
# _framework density 25.815515000000001
#
# number of rings (size 3 to 8) (size 9 to 14) (size 15 to 20)
#    1.000    1.000    1.667    5.500    0.000    0.667 
#    9.000    0.000    0.000    0.000    0.000    7.000 
#    0.000    0.000    0.000    0.000    0.000    0.000 
#
# Total GULP energy -67147.837078 kJ/mol
# GULP energy per Si atom -5595.653090 kJ/mol
# Density = 2.575676 g / cm^3
# Si number density = 25.815515 Si / 1000 Ang^3
#
#
#
# Elastic Constant Matrix: (Units=GPa)
#
#
# Indices 1 2 3 4 5 6 
#
# 1 160.7278 35.2153 72.4624 -11.9868 5.3448 -10.0717
# 2 35.2153 70.7951 24.6423 12.8217 6.5076 -10.7878
# 3 72.4624 24.6423 180.1508 -23.1047 18.6713 -11.0280
# 4 -11.9868 12.8217 -23.1047 42.5776 -2.4371 -4.3902
# 5 5.3448 6.5076 18.6713 -2.4371 44.3934 -4.2678
# 6 -10.0717 -10.7878 -11.0280 -4.3902 -4.2678 58.7357
#
#
#
# Elastic Compliance Matrix: (Units=1/GPa)
#
#
# Indices 1 2 3 4 5 6 
#
# 1 0.008373 -0.003621 -0.002656 0.002102 0.000802 0.000487
# 2 -0.003621 0.018280 -0.001700 -0.007368 -0.001766 0.001738
# 3 -0.002656 -0.001700 0.007638 0.003855 -0.002357 0.000783
# 4 0.002102 -0.007368 0.003855 0.028644 0.000965 0.001942
# 5 0.000802 -0.001766 -0.002357 0.000965 0.023845 0.001175
# 6 0.000487 0.001738 0.000783 0.001942 0.001175 0.017806
#
#
# Mechanical properties :
#
#
# Convention : Reuss Voigt Hill
#
# Bulk Modulus (GPa) = 54.53145 75.14597 64.83871
# Shear Modulus (GPa) = 39.47795 47.76493 43.62144
#
# Velocity S-wave (km/s) = 3.91478 4.30611 4.11510
# Velocity P-wave (km/s) = 6.45007 7.34135 6.91010
#
# Compressibility (1/GPa) = 0.01833804
#
# Stress axis : x y z
#
# Youngs Moduli (GPa) = 119.42808 54.70602 130.91604
#
# Poissons Ratio (x) = 0.19807 0.34777
# Poissons Ratio (y) = 0.43240 0.22250
# Poissons Ratio (z) = 0.31725 0.09298
#
# Static dielectric constant tensor:
#      x y z
#    x 2.050560 0.104910 -0.014970 
#    y 0.104910 2.174040 0.108350 
#    z -0.014970 0.108350 2.062050 
# 
# From -- ./inp_files/35489.got.cif
#   From: 2010.05.17/outbox.cif.g08.bks.cpg/sg2_18_cif.got.tgz:35489.got - 2010.06.03 11:33:40.
