data_PCOD9078555
_publ_section_title
;
Structure prediction by ZEFSAII (Michael W. Deem and Ramdas Pophale) SiO2 
 PCOD9078555
Probable space group: P -1
;
_chemical_formula_sum "Si O2"
_cell_formula_units_Z 16
_cell_length_a 8.075358
_cell_length_b 12.101719
_cell_length_c 19.687169
_cell_angle_alpha 38.339591
_cell_angle_beta 139.203741
_cell_angle_gamma 146.040772
_cell_volume 634.420192
_symmetry_space_group_name_H-M "P -1"
_symmetry_group_IT_number 2
_symmetry_cell_setting 'triclinic'
loop_
_space_group_symop_operation_xyz
x,y,z
-x,-y,-z
loop_
_atom_site_type_symbol
_atom_site_label
_atom_site_fract_x
_atom_site_fract_y
_atom_site_fract_z
Si Si1 0.777066 0.186164 0.542259
Si Si2 0.308433 0.640863 0.435273
Si Si3 0.412422 0.258773 0.036805
Si Si4 0.443783 0.863932 0.981361
Si Si5 0.571828 0.328974 0.194434
Si Si6 0.259229 0.525742 0.328272
Si Si7 0.846411 0.510963 0.830816
Si Si8 0.911943 0.870276 0.741835
O O1 0.664110 0.194556 0.578617
O O2 0.965156 0.422577 0.451928
O O3 0.500000 0.000000 0.500000
O O4 0.011449 0.113654 0.648040
O O5 0.321363 0.675342 0.341309
O O6 0.558074 0.584766 0.552323
O O7 0.322684 0.088179 0.030502
O O8 0.346942 0.184689 0.130574
O O9 0.797279 0.409194 0.088591
O O10 0.332300 0.427283 0.910416
O O11 0.165510 0.854318 0.864404
O O12 0.337207 0.631623 0.091856
O O13 0.500000 0.000000 0.000000
O O14 0.380672 0.243789 0.244556
O O15 0.884774 0.344043 0.294152
O O16 0.309602 0.624578 0.220908
O O17 0.836325 0.722133 0.723662
#
# Coordination Sequence:
#
# PCOD9078555 Si02
#       8
#     2   2   2   2   2   2   2   2
#     4  11  24  44  71  94 119 164 212 262 318 365
#     4  10  24  47  63  94 130 152 213 271 306 375
#     4   9  18  36  57  85 122 163 205 248 292 364
#     4  11  22  36  56  91 132 164 200 253 309 367
#     4  10  18  35  65  87 120 164 211 245 302 371
#     4  10  22  39  66  91 122 170 192 259 328 352
#     4  10  19  39  63  87 124 165 208 249 304 373
#     4  11  21  39  64  94 117 165 218 251 304 381
#
# _framework density 25.219877
#
# number of rings (size 3 to 8) (size 9 to 14) (size 15 to 20)
#    0.000    1.750    2.500    2.250    1.750    2.000 
#    2.250   13.125    0.000    0.000    0.000    0.000 
#    0.000    0.000    0.000    0.000    0.000    0.000 
#
# Total GULP energy -89387.917904 kJ/mol
# GULP energy per Si atom -5586.744869 kJ/mol
# Density = 2.516248 g / cm^3
# Si number density = 25.219877 Si / 1000 Ang^3
#
#
#
# Elastic Constant Matrix: (Units=GPa)
#
#
# Indices 1 2 3 4 5 6 
#
# 1 121.1887 37.9029 31.6129 7.9769 2.4725 -44.1275
# 2 37.9029 97.6569 26.5066 9.1692 1.3749 -44.7056
# 3 31.6129 26.5066 76.7645 14.8509 -4.6193 -21.4783
# 4 7.9769 9.1692 14.8509 35.2158 -9.7338 -2.2301
# 5 2.4725 1.3749 -4.6193 -9.7338 39.5922 6.6394
# 6 -44.1275 -44.7056 -21.4783 -2.2301 6.6394 57.4752
#
#
#
# Elastic Compliance Matrix: (Units=1/GPa)
#
#
# Indices 1 2 3 4 5 6 
#
# 1 0.012279 0.000246 -0.002401 -0.002116 -0.003084 0.008995
# 2 0.000246 0.017059 -0.001791 -0.004018 -0.004001 0.013094
# 3 -0.002401 -0.001791 0.016503 -0.005700 0.000287 0.002676
# 4 -0.002116 -0.004018 -0.005700 0.034446 0.009183 -0.006604
# 5 -0.003084 -0.004001 0.000287 0.009183 0.029289 -0.008399
# 6 0.008995 0.013094 0.002676 -0.006604 -0.008399 0.036204
#
#
# Mechanical properties :
#
#
# Convention : Reuss Voigt Hill
#
# Bulk Modulus (GPa) = 26.35183 54.18389 40.26786
# Shear Modulus (GPa) = 30.06249 39.76248 34.91249
#
# Velocity S-wave (km/s) = 3.45630 3.97499 3.72469
# Velocity P-wave (km/s) = 5.13805 6.52676 5.87359
#
# Compressibility (1/GPa) = 0.03794803
#
# Stress axis : x y z
#
# Youngs Moduli (GPa) = 81.44289 58.62148 60.59519
#
# Poissons Ratio (x) = -0.01443 0.14548
# Poissons Ratio (y) = -0.02004 0.10854
# Poissons Ratio (z) = 0.19554 0.10500
#
# Static dielectric constant tensor:
#      x y z
#    x 2.071430 -0.077370 0.015870 
#    y -0.077370 2.189680 -0.023000 
#    z 0.015870 -0.023000 2.011220 
# 
# From -- ./inp_files/284983.got.cif
#   From: 2010.05.17/outbox.cif.g08.bks.cpg/sg2_143_cif.got.tgz:284983.got - 2010.06.03 11:33:40.
