data_PCOD9078748
_publ_section_title
;
Structure prediction by ZEFSAII (Michael W. Deem and Ramdas Pophale) SiO2 
 PCOD9078748
Probable space group: P -1
;
_chemical_formula_sum "Si O2"
_cell_formula_units_Z 16
_cell_length_a 8.587845
_cell_length_b 16.290915
_cell_length_c 15.231629
_cell_angle_alpha 142.239887
_cell_angle_beta 142.877929
_cell_angle_gamma 64.346359
_cell_volume 665.721905
_symmetry_space_group_name_H-M "P -1"
_symmetry_group_IT_number 2
_symmetry_cell_setting 'triclinic'
loop_
_space_group_symop_operation_xyz
x,y,z
-x,-y,-z
loop_
_atom_site_type_symbol
_atom_site_label
_atom_site_fract_x
_atom_site_fract_y
_atom_site_fract_z
Si Si1 0.239015 0.963253 0.030772
Si Si2 0.734578 0.800756 0.882639
Si Si3 0.122574 0.674038 0.244775
Si Si4 0.165655 0.800443 0.189641
Si Si5 0.162881 0.404358 0.504836
Si Si6 0.495541 0.426008 0.030371
Si Si7 0.648096 0.447593 0.622932
Si Si8 0.360632 0.846177 0.141837
O O1 0.472436 0.966503 0.211641
O O2 0.009549 0.802000 0.953177
O O3 0.334897 0.073255 0.080433
O O4 0.000000 0.000000 0.000000
O O5 0.898996 0.837149 0.081933
O O6 0.453431 0.627234 0.582694
O O7 0.347633 0.689335 0.434770
O O8 0.246219 0.790958 0.317177
O O9 0.843485 0.666570 0.160824
O O10 0.000000 0.500000 0.000000
O O11 0.972545 0.611912 0.912173
O O12 0.439798 0.889067 0.317212
O O13 0.307710 0.437635 0.694760
O O14 0.422090 0.468877 0.601037
O O15 0.000000 0.500000 0.500000
O O16 0.937587 0.218224 0.233442
O O17 0.602576 0.301369 0.978817
O O18 0.500000 0.500000 0.000000
#
# Coordination Sequence:
#
# PCOD9078748 Si02
#       8
#     2   2   2   2   2   2   2   2
#     4  10  18  36  57  92 112 147 189 246 289 330
#     4   9  19  33  61  82 112 143 191 239 281 332
#     4  10  20  33  51  80 117 152 184 232 285 340
#     4   9  18  32  54  85 111 143 193 233 281 329
#     4  12  21  35  61  89 112 148 193 244 292 332
#     4  12  22  36  56  86 120 149 188 241 291 334
#     4  11  18  33  54  87 112 147 187 233 278 347
#     4   9  19  33  57  84 111 143 189 234 291 321
#
# _framework density 24.034061999999999
#
# number of rings (size 3 to 8) (size 9 to 14) (size 15 to 20)
#    0.750    1.000    6.250    1.875    0.000    0.000 
#    2.250    0.000    2.750    6.750    0.000    0.000 
#    0.000    0.000    0.000    0.000    0.000    0.000 
#
# Total GULP energy -89161.143099 kJ/mol
# GULP energy per Si atom -5572.571444 kJ/mol
# Density = 2.397936 g / cm^3
# Si number density = 24.034062 Si / 1000 Ang^3
#
#
#
# Elastic Constant Matrix: (Units=GPa)
#
#
# Indices 1 2 3 4 5 6 
#
# 1 68.3262 46.9314 9.6564 -7.2084 -7.0618 -1.6165
# 2 46.9314 198.3158 16.4588 -8.5086 -10.6010 20.4388
# 3 9.6564 16.4588 50.8404 -12.0529 -22.7191 -2.9241
# 4 -7.2084 -8.5086 -12.0529 42.2407 9.5838 -9.5941
# 5 -7.0618 -10.6010 -22.7191 9.5838 34.6583 -7.8273
# 6 -1.6165 20.4388 -2.9241 -9.5941 -7.8273 44.5031
#
#
#
# Elastic Compliance Matrix: (Units=1/GPa)
#
#
# Indices 1 2 3 4 5 6 
#
# 1 0.018321 -0.004465 -0.000165 0.002466 0.002404 0.003660
# 2 -0.004465 0.006564 -0.002021 -0.000638 -0.000863 -0.003599
# 3 -0.000165 -0.002021 0.031001 0.005651 0.019839 0.007667
# 4 0.002466 -0.000638 0.005651 0.027502 -0.002171 0.006301
# 5 0.002404 -0.000863 0.019839 -0.002171 0.044760 0.009192
# 6 0.003660 -0.003599 0.007667 0.006301 0.009192 0.027735
#
#
# Mechanical properties :
#
#
# Convention : Reuss Voigt Hill
#
# Bulk Modulus (GPa) = 23.48287 51.50838 37.49563
# Shear Modulus (GPa) = 27.26586 40.57614 33.92100
#
# Velocity S-wave (km/s) = 3.37184 4.11332 3.76090
# Velocity P-wave (km/s) = 4.99509 6.63605 5.87316
#
# Compressibility (1/GPa) = 0.04258422
#
# Stress axis : x y z
#
# Youngs Moduli (GPa) = 54.58238 152.34155 32.25701
#
# Poissons Ratio (x) = 0.68018 0.00533
# Poissons Ratio (y) = 0.24370 0.06519
# Poissons Ratio (z) = 0.00902 0.30788
#
# Static dielectric constant tensor:
#      x y z
#    x 1.942090 0.076710 -0.048360 
#    y 0.076710 2.038360 -0.029980 
#    z -0.048360 -0.029980 2.068620 
# 
# From -- ./inp_files/506718.got.cif
#   From: 2010.05.17/outbox.cif.g08.bks.cpg/sg2_254_cif.got.tgz:506718.got - 2010.06.03 11:33:40.
