data_PCOD9078491
_publ_section_title
;
Structure prediction by ZEFSAII (Michael W. Deem and Ramdas Pophale) SiO2 
 PCOD9078491
Probable space group: P -1
;
_chemical_formula_sum "Si O2"
_cell_formula_units_Z 16
_cell_length_a 5.894149
_cell_length_b 13.776576
_cell_length_c 13.805367
_cell_angle_alpha 35.586849
_cell_angle_beta 76.489463
_cell_angle_gamma 90.913708
_cell_volume 590.802100
_symmetry_space_group_name_H-M "P -1"
_symmetry_group_IT_number 2
_symmetry_cell_setting 'triclinic'
loop_
_space_group_symop_operation_xyz
x,y,z
-x,-y,-z
loop_
_atom_site_type_symbol
_atom_site_label
_atom_site_fract_x
_atom_site_fract_y
_atom_site_fract_z
Si Si1 0.522214 0.685407 0.491588
Si Si2 0.177363 0.746354 0.364055
Si Si3 0.539796 0.391141 0.991394
Si Si4 0.982967 0.932355 0.369619
Si Si5 0.919186 0.339854 0.294022
Si Si6 0.079216 0.686000 0.208705
Si Si7 0.315294 0.847358 0.709852
Si Si8 0.382629 0.308499 0.865901
O O1 0.462613 0.756975 0.338390
O O2 0.761091 0.800202 0.433216
O O3 0.303240 0.678867 0.595266
O O4 0.509742 0.486401 0.644162
O O5 0.030813 0.536417 0.587499
O O6 0.193182 0.921267 0.284641
O O7 0.071646 0.754192 0.263359
O O8 0.516029 0.198903 0.190150
O O9 0.500000 0.500000 0.000000
O O10 0.377781 0.371918 0.927129
O O11 0.832013 0.489110 0.854721
O O12 0.000063 0.828138 0.550063
O O13 0.899442 0.094057 0.271682
O O14 0.817180 0.317650 0.214180
O O15 0.900537 0.751101 0.102484
O O16 0.379526 0.757521 0.099175
O O17 0.500000 0.000000 0.500000
#
# Coordination Sequence:
#
# PCOD9078491 Si02
#       8
#     2   2   2   2   2   2   2   2
#     4  10  18  35  63  91 135 169 217 269 334 389
#     4   9  20  32  58  96 130 174 210 279 336 388
#     4  12  25  43  68  96 128 178 226 274 333 406
#     4  11  20  38  62  92 135 169 219 276 335 394
#     4  11  22  42  64  92 133 181 217 275 332 401
#     4  10  21  35  63  98 133 171 226 278 331 395
#     4  12  25  41  64  96 133 172 224 278 340 403
#     4  11  21  39  61  95 130 174 221 280 326 394
#
# _framework density 27.081827000000001
#
# number of rings (size 3 to 8) (size 9 to 14) (size 15 to 20)
#    0.000    1.250    3.750    3.750    1.750    2.500 
#    0.000    0.000    0.000    1.500    0.000    0.000 
#    0.000    0.000    0.000    0.000    0.000    0.000 
#
# Total GULP energy -89345.153421 kJ/mol
# GULP energy per Si atom -5584.072089 kJ/mol
# Density = 2.702019 g / cm^3
# Si number density = 27.081827 Si / 1000 Ang^3
#
#
#
# Elastic Constant Matrix: (Units=GPa)
#
#
# Indices 1 2 3 4 5 6 
#
# 1 156.0489 21.1607 42.5992 13.5546 25.0901 15.7786
# 2 21.1607 126.1716 12.1033 23.0119 22.8059 3.3787
# 3 42.5992 12.1033 70.4230 9.2885 5.6263 6.1431
# 4 13.5546 23.0119 9.2885 21.9699 12.7562 12.0401
# 5 25.0901 22.8059 5.6263 12.7562 55.2098 11.4496
# 6 15.7786 3.3787 6.1431 12.0401 11.4496 44.3565
#
#
#
# Elastic Compliance Matrix: (Units=1/GPa)
#
#
# Indices 1 2 3 4 5 6 
#
# 1 0.008337 -0.000338 -0.004577 -0.000436 -0.002777 -0.001471
# 2 -0.000338 0.010285 -0.000217 -0.010772 -0.002175 0.002853
# 3 -0.004577 -0.000217 0.017574 -0.005451 0.001580 0.000283
# 4 -0.000436 -0.010772 -0.005451 0.072942 -0.008350 -0.015914
# 5 -0.002777 -0.002175 0.001580 -0.008350 0.022587 -0.002629
# 6 -0.001471 0.002853 0.000283 -0.015914 -0.002629 0.027810
#
#
# Mechanical properties :
#
#
# Convention : Reuss Voigt Hill
#
# Bulk Modulus (GPa) = 38.56507 56.04108 47.30308
# Shear Modulus (GPa) = 28.02019 42.75927 35.38973
#
# Velocity S-wave (km/s) = 3.22009 3.97784 3.61885
# Velocity P-wave (km/s) = 5.30060 6.46806 5.91321
#
# Compressibility (1/GPa) = 0.02593020
#
# Stress axis : x y z
#
# Youngs Moduli (GPa) = 119.95265 97.23094 56.90218
#
# Poissons Ratio (x) = 0.03290 0.26045
# Poissons Ratio (y) = 0.04059 0.01236
# Poissons Ratio (z) = 0.54904 0.02111
#
# Static dielectric constant tensor:
#      x y z
#    x 2.215850 -0.087420 -0.021870 
#    y -0.087420 2.248200 0.035600 
#    z -0.021870 0.035600 2.182400 
# 
# From -- ./inp_files/483810.got.cif
#   From: 2010.05.17/outbox.cif.g08.bks.cpg/sg2_242_cif.got.tgz:483810.got - 2010.06.03 11:33:40.
