data_PCOD9078813
_publ_section_title
;
Structure prediction by ZEFSAII (Michael W. Deem and Ramdas Pophale) SiO2 
 PCOD9078813
Probable space group: P -1
;
_chemical_formula_sum "Si O2"
_cell_formula_units_Z 14
_cell_length_a 10.709052
_cell_length_b 8.387845
_cell_length_c 7.420036
_cell_angle_alpha 78.341102
_cell_angle_beta 75.974916
_cell_angle_gamma 59.268275
_cell_volume 553.382255
_symmetry_space_group_name_H-M "P -1"
_symmetry_group_IT_number 2
_symmetry_cell_setting 'triclinic'
loop_
_space_group_symop_operation_xyz
x,y,z
-x,-y,-z
loop_
_atom_site_type_symbol
_atom_site_label
_atom_site_fract_x
_atom_site_fract_y
_atom_site_fract_z
Si Si1 0.038603 0.527285 0.711823
Si Si2 0.685866 0.513071 0.579485
Si Si3 0.995627 0.245914 0.985940
Si Si4 0.586038 0.647872 0.988177
Si Si5 0.252149 0.135025 0.167308
Si Si6 0.378757 0.804070 0.470079
Si Si7 0.706504 0.239832 0.113136
O O1 0.159627 0.514387 0.536330
O O2 0.078194 0.584571 0.879601
O O3 0.875999 0.700091 0.705160
O O4 0.031007 0.338908 0.784320
O O5 0.658760 0.556790 0.790278
O O6 0.550736 0.686054 0.486536
O O7 0.673563 0.331071 0.574114
O O8 0.149430 0.109104 0.060698
O O9 0.871055 0.189300 0.013367
O O10 0.652318 0.782214 0.979001
O O11 0.411879 0.761392 0.984061
O O12 0.626420 0.465738 0.134376
O O13 0.344150 0.970589 0.309473
O O14 0.295677 0.861057 0.678847
#
# Coordination Sequence:
#
# PCOD9078813 Si02
#       7
#     2   2   2   2   2   2   2
#     4   9  17  33  60  79 115 143 198 225 282 329
#     4  10  21  35  56  89 119 150 180 248 293 332
#     4   9  17  34  60  85 108 156 198 225 271 363
#     4  10  21  35  61  86 116 146 198 235 291 328
#     4  10  20  36  61  91 107 151 202 234 268 352
#     4  10  21  37  61  82 119 151 198 226 288 341
#     4  10  18  36  59  81 112 160 190 222 278 368
#
# _framework density 25.298966
#
# number of rings (size 3 to 8) (size 9 to 14) (size 15 to 20)
#    0.857    1.429    2.857    0.000    0.000    5.143 
#    0.000    0.714    3.143    3.429    0.000    0.000 
#    0.000    0.000    0.000    0.000    0.000    0.000 
#
# Total GULP energy -78339.977055 kJ/mol
# GULP energy per Si atom -5595.712647 kJ/mol
# Density = 2.524138 g / cm^3
# Si number density = 25.298966 Si / 1000 Ang^3
#
#
#
# Elastic Constant Matrix: (Units=GPa)
#
#
# Indices 1 2 3 4 5 6 
#
# 1 156.2115 31.1189 19.1639 -3.9919 -24.8043 5.7535
# 2 31.1189 52.0221 19.8373 -16.9006 -3.2249 -12.0547
# 3 19.1639 19.8373 101.5202 -10.7370 -10.4460 -2.9354
# 4 -3.9919 -16.9006 -10.7370 41.7494 -9.0691 5.2473
# 5 -24.8043 -3.2249 -10.4460 -9.0691 39.9029 5.2466
# 6 5.7535 -12.0547 -2.9354 5.2473 5.2466 39.4911
#
#
#
# Elastic Compliance Matrix: (Units=1/GPa)
#
#
# Indices 1 2 3 4 5 6 
#
# 1 0.008496 -0.005515 -0.000063 0.000184 0.005342 -0.003660
# 2 -0.005515 0.028570 -0.003478 0.008871 -0.001096 0.008233
# 3 -0.000063 -0.003478 0.011084 0.002256 0.003220 -0.000956
# 4 0.000184 0.008871 0.002256 0.030305 0.008615 -0.002323
# 5 0.005342 -0.001096 0.003220 0.008615 0.031917 -0.006259
# 6 -0.003660 0.008233 -0.000956 -0.002323 -0.006259 0.029438
#
#
# Mechanical properties :
#
#
# Convention : Reuss Voigt Hill
#
# Bulk Modulus (GPa) = 33.29201 49.99936 41.64569
# Shear Modulus (GPa) = 29.77378 40.20423 34.98900
#
# Velocity S-wave (km/s) = 3.43429 3.99076 3.72293
# Velocity P-wave (km/s) = 5.37715 6.40634 5.91418
#
# Compressibility (1/GPa) = 0.03003724
#
# Stress axis : x y z
#
# Youngs Moduli (GPa) = 117.70627 35.00211 90.21982
#
# Poissons Ratio (x) = 0.19305 0.00566
# Poissons Ratio (y) = 0.64919 0.31379
# Poissons Ratio (z) = 0.00738 0.12174
#
# Static dielectric constant tensor:
#      x y z
#    x 1.994590 0.025850 0.030990 
#    y 0.025850 2.065800 0.014030 
#    z 0.030990 0.014030 1.956850 
# 
# From -- ./inp_files/242500.got.cif
#   From: 2010.05.17/outbox.cif.g08.bks.cpg/sg2_122_cif.got.tgz:242500.got - 2010.06.03 11:33:40.
