data_PCOD9078237
_publ_section_title
;
Structure prediction by ZEFSAII (Michael W. Deem and Ramdas Pophale) SiO2 
 PCOD9078237
Probable space group: P -1
;
_chemical_formula_sum "Si O2"
_cell_formula_units_Z 14
_cell_length_a 12.082115
_cell_length_b 11.097089
_cell_length_c 11.357294
_cell_angle_alpha 85.413133
_cell_angle_beta 114.594972
_cell_angle_gamma 40.984624
_cell_volume 681.465414
_symmetry_space_group_name_H-M "P -1"
_symmetry_group_IT_number 2
_symmetry_cell_setting 'triclinic'
loop_
_space_group_symop_operation_xyz
x,y,z
-x,-y,-z
loop_
_atom_site_type_symbol
_atom_site_label
_atom_site_fract_x
_atom_site_fract_y
_atom_site_fract_z
Si Si1 0.208359 0.582712 0.854770
Si Si2 0.986723 0.416218 0.891303
Si Si3 0.612775 0.032156 0.023086
Si Si4 0.417684 0.406636 0.219108
Si Si5 0.220114 0.219726 0.406898
Si Si6 0.221290 0.714103 0.632208
Si Si7 0.147583 0.154674 0.608927
O O1 0.251683 0.662573 0.788336
O O2 0.929862 0.771791 0.701470
O O3 0.274702 0.545244 0.021884
O O4 0.403424 0.314072 0.914338
O O5 0.767263 0.509561 0.790628
O O6 0.939371 0.538870 0.745805
O O7 0.232479 0.123588 0.014171
O O8 0.000000 0.500000 0.000000
O O9 0.797731 0.888844 0.225751
O O10 0.500000 0.000000 0.000000
O O11 0.538492 0.430205 0.304373
O O12 0.644627 0.119154 0.322161
O O13 0.195366 0.228042 0.537645
O O14 0.500000 0.000000 0.500000
O O15 0.119448 0.675042 0.541553
O O16 0.000000 0.000000 0.500000
#
# Coordination Sequence:
#
# PCOD9078237 Si02
#       7
#     2   2   2   2   2   2   2
#     4  10  20  37  59  88 115 156 198 238 288 354
#     4  12  22  38  58  88 120 152 199 246 295 355
#     4  11  22  38  59  86 121 162 191 237 298 358
#     4  10  18  35  60  84 113 153 197 241 286 347
#     4  11  20  33  57  87 122 148 187 244 296 335
#     4   9  19  36  60  87 114 150 200 246 285 340
#     4   9  20  36  57  86 120 149 197 245 286 347
#
# _framework density 20.543960999999999
#
# number of rings (size 3 to 8) (size 9 to 14) (size 15 to 20)
#    0.000    1.714    4.286    1.286    0.000    0.571 
#    0.000    1.429    0.000    0.000    0.000    0.000 
#    0.000    0.000    0.000    0.000    0.000    0.000 
#
# Total GULP energy -77963.719192 kJ/mol
# GULP energy per Si atom -5568.837085 kJ/mol
# Density = 2.049720 g / cm^3
# Si number density = 20.543961 Si / 1000 Ang^3
#
#
#
# Elastic Constant Matrix: (Units=GPa)
#
#
# Indices 1 2 3 4 5 6 
#
# 1 125.0881 5.4739 19.7450 0.1234 10.1208 -10.7714
# 2 5.4739 54.5456 7.4809 -8.4384 9.1636 -5.7725
# 3 19.7450 7.4809 80.9578 1.6868 -4.2090 0.3985
# 4 0.1234 -8.4384 1.6868 11.2127 -4.3763 1.2452
# 5 10.1208 9.1636 -4.2090 -4.3763 56.1566 -10.5188
# 6 -10.7714 -5.7725 0.3985 1.2452 -10.5188 10.4962
#
#
#
# Elastic Compliance Matrix: (Units=1/GPa)
#
#
# Indices 1 2 3 4 5 6 
#
# 1 0.009186 0.000342 -0.002313 -0.000616 -0.000125 0.009651
# 2 0.000342 0.022278 -0.002560 0.015726 -0.000780 0.010053
# 3 -0.002313 -0.002560 0.013288 -0.003173 0.001048 -0.002860
# 4 -0.000616 0.015726 -0.003173 0.103544 0.005662 0.001527
# 5 -0.000125 -0.000780 0.001048 0.005662 0.022454 0.021233
# 6 0.009651 0.010053 -0.002860 0.001527 0.021233 0.131911
#
#
# Mechanical properties :
#
#
# Convention : Reuss Voigt Hill
#
# Bulk Modulus (GPa) = 28.01879 36.22121 32.12000
# Shear Modulus (GPa) = 15.45024 30.76589 23.10806
#
# Velocity S-wave (km/s) = 2.74534 3.87404 3.35746
# Velocity P-wave (km/s) = 4.87004 6.13842 5.54064
#
# Compressibility (1/GPa) = 0.03569034
#
# Stress axis : x y z
#
# Youngs Moduli (GPa) = 108.85754 44.88768 75.25866
#
# Poissons Ratio (x) = -0.01537 0.17410
# Poissons Ratio (y) = -0.03728 0.19265
# Poissons Ratio (z) = 0.25182 0.11490
#
# Static dielectric constant tensor:
#      x y z
#    x 1.647710 0.153790 0.077070 
#    y 0.153790 1.569010 -0.043130 
#    z 0.077070 -0.043130 1.777590 
# 
# From -- ./inp_files/235378.got.cif
#   From: 2010.05.17/outbox.cif.g08.bks.cpg/sg2_118_cif.got.tgz:235378.got - 2010.06.03 11:33:40.
