data_PCOD9078285
_publ_section_title
;
Structure prediction by ZEFSAII (Michael W. Deem and Ramdas Pophale) SiO2 
 PCOD9078285
Probable space group: P -1
;
_chemical_formula_sum "Si O2"
_cell_formula_units_Z 13
_cell_length_a 10.976806
_cell_length_b 21.696006
_cell_length_c 9.114046
_cell_angle_alpha 42.407510
_cell_angle_beta 57.140109
_cell_angle_gamma 23.963217
_cell_volume 520.769341
_symmetry_space_group_name_H-M "P -1"
_symmetry_group_IT_number 2
_symmetry_cell_setting 'triclinic'
loop_
_space_group_symop_operation_xyz
x,y,z
-x,-y,-z
loop_
_atom_site_type_symbol
_atom_site_label
_atom_site_fract_x
_atom_site_fract_y
_atom_site_fract_z
Si Si1 0.295142 0.394069 0.919754
Si Si2 0.000000 0.000000 0.500000
Si Si3 0.065946 0.718896 0.440022
Si Si4 0.092589 0.121966 0.032900
Si Si5 0.760561 0.666286 0.234075
Si Si6 0.726814 0.874278 0.804549
Si Si7 0.003436 0.107728 0.579445
O O1 0.274363 0.390089 0.765897
O O2 0.250680 0.527551 0.730657
O O3 0.649553 0.148797 0.173522
O O4 0.000000 0.500000 0.000000
O O5 0.059509 0.872917 0.780581
O O6 0.184790 0.844109 0.505599
O O7 0.663996 0.917970 0.356184
O O8 0.119878 0.784683 0.372524
O O9 0.130422 0.699665 0.258349
O O10 0.402656 0.902285 0.121585
O O11 0.244162 0.104035 0.087285
O O12 0.000000 0.500000 0.500000
O O13 0.900338 0.676296 0.040657
O O14 0.893066 0.855900 0.628346
#
# Coordination Sequence:
#
# PCOD9078285 Si02
#       7
#     2   1   2   2   2   2   2
#     4  12  22  35  64  99 128 154 197 255 321 374
#     4  10  26  44  66  78 120 186 212 242 306 366
#     4  11  20  37  63  94 121 155 203 263 314 356
#     4  10  21  40  61  88 127 166 206 253 303 369
#     4  11  21  34  60 100 126 156 198 258 318 370
#     4  10  18  35  60  90 130 154 194 256 320 359
#     4  11  22  42  61  90 124 167 206 250 305 370
#
# _framework density 24.963066999999999
#
# number of rings (size 3 to 8) (size 9 to 14) (size 15 to 20)
#    0.000    1.231    4.615    5.077    2.154    0.615 
#    0.000    1.538    3.385    0.000    0.000    0.000 
#    0.000    0.000    0.000    0.000    0.000    0.000 
#
# Total GULP energy -72432.944099 kJ/mol
# GULP energy per Si atom -5571.764931 kJ/mol
# Density = 2.490625 g / cm^3
# Si number density = 24.963067 Si / 1000 Ang^3
#
#
#
# Elastic Constant Matrix: (Units=GPa)
#
#
# Indices 1 2 3 4 5 6 
#
# 1 101.3287 29.3851 -0.1089 -2.2795 -15.4680 34.2287
# 2 29.3851 43.9403 11.6551 -1.8934 15.5990 22.2710
# 3 -0.1089 11.6551 151.1761 1.2685 -30.1260 -15.3591
# 4 -2.2795 -1.8934 1.2685 40.9699 6.9857 0.4144
# 5 -15.4680 15.5990 -30.1260 6.9857 32.3698 1.2074
# 6 34.2287 22.2710 -15.3591 0.4144 1.2074 46.2759
#
#
#
# Elastic Compliance Matrix: (Units=1/GPa)
#
#
# Indices 1 2 3 4 5 6 
#
# 1 0.026755 -0.037086 0.011636 -0.007955 0.043171 0.000865
# 2 -0.037086 0.115029 -0.034535 0.023270 -0.108946 -0.036756
# 3 0.011636 -0.034535 0.018917 -0.008692 0.041189 0.013296
# 4 -0.007955 0.023270 -0.008692 0.030397 -0.029377 -0.007705
# 5 0.043171 -0.108946 0.041189 -0.029377 0.147556 0.030584
# 6 0.000865 -0.036756 0.013296 -0.007705 0.030584 0.042343
#
#
# Mechanical properties :
#
#
# Convention : Reuss Voigt Hill
#
# Bulk Modulus (GPa) = 24.55140 42.03420 33.29280
# Shear Modulus (GPa) = 9.71732 40.95735 25.33734
#
# Velocity S-wave (km/s) = 1.97513 4.05497 3.18935
# Velocity P-wave (km/s) = 3.88046 6.22887 5.18926
#
# Compressibility (1/GPa) = 0.04073088
#
# Stress axis : x y z
#
# Youngs Moduli (GPa) = 37.37595 8.69347 52.86136
#
# Poissons Ratio (x) = 0.32241 -0.61510
# Poissons Ratio (y) = 1.38614 1.82557
# Poissons Ratio (z) = -0.43491 0.30023
#
# Static dielectric constant tensor:
#      x y z
#    x 4.958800 -0.338650 0.670340 
#    y -0.338650 2.082550 -0.067250 
#    z 0.670340 -0.067250 2.106970 
# 
# From -- ./inp_files/257248.got.cif
#   From: 2010.05.17/outbox.cif.g08.bks.cpg/sg2_129_cif.got.tgz:257248.got - 2010.06.03 11:33:40.
