data_PCOD9078290
_publ_section_title
;
Structure prediction by ZEFSAII (Michael W. Deem and Ramdas Pophale) SiO2 
 PCOD9078290
Probable space group: P -1
;
_chemical_formula_sum "Si O2"
_cell_formula_units_Z 16
_cell_length_a 7.643925
_cell_length_b 13.544123
_cell_length_c 14.832352
_cell_angle_alpha 132.887462
_cell_angle_beta 36.827733
_cell_angle_gamma 130.399928
_cell_volume 655.462407
_symmetry_space_group_name_H-M "P -1"
_symmetry_group_IT_number 2
_symmetry_cell_setting 'triclinic'
loop_
_space_group_symop_operation_xyz
x,y,z
-x,-y,-z
loop_
_atom_site_type_symbol
_atom_site_label
_atom_site_fract_x
_atom_site_fract_y
_atom_site_fract_z
Si Si1 0.662588 0.217318 0.604661
Si Si2 0.208909 0.755803 0.631732
Si Si3 0.845782 0.309077 0.072140
Si Si4 0.508044 0.486761 0.868816
Si Si5 0.823114 0.785165 0.970924
Si Si6 0.029450 0.197107 0.757818
Si Si7 0.457179 0.464167 0.667798
Si Si8 0.366483 0.963745 0.326669
O O1 0.844101 0.231999 0.445638
O O2 0.686829 0.366393 0.733580
O O3 0.723782 0.112898 0.588458
O O4 0.312862 0.174771 0.686888
O O5 0.294658 0.608460 0.521144
O O6 0.957821 0.790027 0.819441
O O7 0.501474 0.875205 0.611125
O O8 0.917659 0.211040 0.059781
O O9 0.627881 0.402398 0.255840
O O10 0.157568 0.420384 0.988104
O O11 0.790902 0.228447 0.949195
O O12 0.618217 0.628485 0.963633
O O13 0.553375 0.514244 0.760510
O O14 0.638111 0.896295 0.139449
O O15 0.876098 0.079192 0.678498
O O16 0.171120 0.335305 0.726392
#
# Coordination Sequence:
#
# PCOD9078290 Si02
#       8
#     2   2   2   2   2   2   2   2
#     4   9  21  41  64  91 118 150 204 253 295 345
#     4  10  25  40  54  88 129 163 191 241 298 362
#     4  10  18  35  60  92 120 143 204 258 288 349
#     4   9  18  35  61  93 110 148 204 251 297 348
#     4  12  22  35  64  89 123 158 196 244 305 352
#     4   9  19  36  64  94 111 148 206 261 282 337
#     4   9  19  36  57  84 124 150 192 253 302 340
#     4  12  21  40  69  83 117 165 207 236 292 353
#
# _framework density 24.410250000000001
#
# number of rings (size 3 to 8) (size 9 to 14) (size 15 to 20)
#    0.000    2.500    2.500    4.125    1.750    4.500 
#    0.000    0.625   13.750    0.000    0.000    0.000 
#    0.000    0.000    0.000    0.000    0.000    0.000 
#
# Total GULP energy -89438.088481 kJ/mol
# GULP energy per Si atom -5589.880530 kJ/mol
# Density = 2.435469 g / cm^3
# Si number density = 24.410250 Si / 1000 Ang^3
#
#
#
# Elastic Constant Matrix: (Units=GPa)
#
#
# Indices 1 2 3 4 5 6 
#
# 1 71.7192 23.8942 33.6299 13.6216 5.9869 -8.8939
# 2 23.8942 35.1475 30.1005 11.2265 2.9539 3.2350
# 3 33.6299 30.1005 139.9090 5.0895 9.0146 -24.9496
# 4 13.6216 11.2265 5.0895 36.2400 -4.5707 4.1753
# 5 5.9869 2.9539 9.0146 -4.5707 38.7067 15.0594
# 6 -8.8939 3.2350 -24.9496 4.1753 15.0594 28.8257
#
#
#
# Elastic Compliance Matrix: (Units=1/GPa)
#
#
# Indices 1 2 3 4 5 6 
#
# 1 0.022329 -0.014958 0.001609 -0.007074 -0.009785 0.016098
# 2 -0.014958 0.052910 -0.013269 -0.004288 0.011537 -0.027444
# 3 0.001609 -0.013269 0.013870 -0.002020 -0.010370 0.019701
# 4 -0.007074 -0.004288 -0.002020 0.035032 0.011729 -0.014652
# 5 -0.009785 0.011537 -0.010370 0.011729 0.045309 -0.038659
# 6 0.016098 -0.027444 0.019701 -0.014652 -0.038659 0.082109
#
#
# Mechanical properties :
#
#
# Convention : Reuss Voigt Hill
#
# Bulk Modulus (GPa) = 27.87551 46.89168 37.38360
# Shear Modulus (GPa) = 15.78519 31.36457 23.57488
#
# Velocity S-wave (km/s) = 2.54571 3.58843 3.11107
# Velocity P-wave (km/s) = 4.48166 6.03495 5.31535
#
# Compressibility (1/GPa) = 0.03587378
#
# Stress axis : x y z
#
# Youngs Moduli (GPa) = 44.78559 18.90002 72.09603
#
# Poissons Ratio (x) = 0.28270 -0.11603
# Poissons Ratio (y) = 0.66989 0.95667
# Poissons Ratio (z) = -0.07208 0.25079
#
# Static dielectric constant tensor:
#      x y z
#    x 1.974320 0.005580 -0.034990 
#    y 0.005580 1.963720 -0.040230 
#    z -0.034990 -0.040230 2.001040 
# 
# From -- ./inp_files/504237.got.cif
#   From: 2010.05.17/outbox.cif.g08.bks.cpg/sg2_253_cif.got.tgz:504237.got - 2010.06.03 11:33:40.
