data_PCOD9078478
_publ_section_title
;
Structure prediction by ZEFSAII (Michael W. Deem and Ramdas Pophale) SiO2 
 PCOD9078478
Probable space group: P -1
;
_chemical_formula_sum "Si O2"
_cell_formula_units_Z 16
_cell_length_a 20.852372
_cell_length_b 15.428848
_cell_length_c 11.079315
_cell_angle_alpha 140.752731
_cell_angle_beta 29.963090
_cell_angle_gamma 152.066668
_cell_volume 833.339859
_symmetry_space_group_name_H-M "P -1"
_symmetry_group_IT_number 2
_symmetry_cell_setting 'triclinic'
loop_
_space_group_symop_operation_xyz
x,y,z
-x,-y,-z
loop_
_atom_site_type_symbol
_atom_site_label
_atom_site_fract_x
_atom_site_fract_y
_atom_site_fract_z
Si Si1 0.316912 0.729037 0.962881
Si Si2 0.468610 0.469677 0.820857
Si Si3 0.506273 0.013467 0.647423
Si Si4 0.225495 0.361370 0.322877
Si Si5 0.803011 0.398078 0.218708
Si Si6 0.164489 0.921757 0.417842
Si Si7 0.491848 0.737549 0.913011
Si Si8 0.347002 0.080643 0.521316
O O1 0.239121 0.577330 0.820804
O O2 0.349087 0.683569 0.989715
O O3 0.511370 0.892041 0.768556
O O4 0.203064 0.785182 0.208185
O O5 0.652983 0.620009 0.752226
O O6 0.467778 0.565876 0.810107
O O7 0.421609 0.279831 0.657448
O O8 0.324291 0.411351 0.090346
O O9 0.325177 0.820045 0.782910
O O10 0.654717 0.021202 0.471214
O O11 0.500000 0.000000 0.500000
O O12 0.524114 0.175713 0.850770
O O13 0.228188 0.519278 0.534253
O O14 0.023600 0.179527 0.439335
O O15 0.000000 0.500000 0.000000
O O16 0.319951 0.102420 0.282644
O O17 0.184665 0.979915 0.588463
#
# Coordination Sequence:
#
# PCOD9078478 Si02
#       8
#     2   2   2   2   2   2   2   2
#     4  10  18  35  63  90 110 149 201 250 290 337
#     4  11  25  40  59  84 130 161 196 229 307 369
#     4  11  20  34  61  90 113 154 205 238 287 351
#     4  11  23  40  59  88 122 166 189 242 303 358
#     4  11  19  36  63  88 116 151 199 248 297 341
#     4  11  20  39  67  87 118 151 208 253 290 338
#     4  11  21  38  62  91 117 152 201 254 289 349
#     4  10  20  40  63  88 117 164 194 240 301 363
#
# _framework density 19.199849
#
# number of rings (size 3 to 8) (size 9 to 14) (size 15 to 20)
#    0.000    1.250    7.500    1.500    1.750    3.000 
#    0.000    1.875    0.000    0.000    0.000    0.000 
#    0.000    0.000    0.000    0.000    0.000    0.000 
#
# Total GULP energy -89154.854132 kJ/mol
# GULP energy per Si atom -5572.178383 kJ/mol
# Density = 1.915615 g / cm^3
# Si number density = 19.199849 Si / 1000 Ang^3
#
#
#
# Elastic Constant Matrix: (Units=GPa)
#
#
# Indices 1 2 3 4 5 6 
#
# 1 106.7278 19.8315 28.2523 -2.4489 13.2933 8.9095
# 2 19.8315 38.6514 18.1484 4.6380 -4.2394 9.6258
# 3 28.2523 18.1484 81.5369 1.7359 3.3993 6.9753
# 4 -2.4489 4.6380 1.7359 18.1840 5.9573 -2.9919
# 5 13.2933 -4.2394 3.3993 5.9573 25.9298 4.5054
# 6 8.9095 9.6258 6.9753 -2.9919 4.5054 36.4929
#
#
#
# Elastic Compliance Matrix: (Units=1/GPa)
#
#
# Indices 1 2 3 4 5 6 
#
# 1 0.012636 -0.007368 -0.002597 0.006995 -0.009133 0.001056
# 2 -0.007368 0.038935 -0.005501 -0.017716 0.016837 -0.010951
# 3 -0.002597 -0.005501 0.014489 0.000041 -0.001389 -0.000510
# 4 0.006995 -0.017716 0.000041 0.070492 -0.024732 0.011790
# 5 -0.009133 0.016837 -0.001389 -0.024732 0.053707 -0.010604
# 6 0.001056 -0.010951 -0.000510 0.011790 -0.010604 0.032407
#
#
# Mechanical properties :
#
#
# Convention : Reuss Voigt Hill
#
# Bulk Modulus (GPa) = 28.46684 39.93119 34.19901
# Shear Modulus (GPa) = 18.84603 26.83361 22.83982
#
# Velocity S-wave (km/s) = 3.13640 3.74250 3.45278
# Velocity P-wave (km/s) = 5.28912 6.28632 5.80916
#
# Compressibility (1/GPa) = 0.03512859
#
# Stress axis : x y z
#
# Youngs Moduli (GPa) = 79.13916 25.68358 69.01670
#
# Poissons Ratio (x) = 0.18924 0.17923
# Poissons Ratio (y) = 0.58309 0.37967
# Poissons Ratio (z) = 0.20551 0.14129
#
# Static dielectric constant tensor:
#      x y z
#    x 1.737610 0.031400 -0.006270 
#    y 0.031400 1.665640 0.011370 
#    z -0.006270 0.011370 1.688240 
# 
# From -- ./inp_files/471762.got.cif
#   From: 2010.05.17/outbox.cif.g08.bks.cpg/sg2_236_cif.got.tgz:471762.got - 2010.06.03 11:33:40.
