data_PCOD9078684
_publ_section_title
;
Structure prediction by ZEFSAII (Michael W. Deem and Ramdas Pophale) SiO2 
 PCOD9078684
Probable space group: P -1
;
_chemical_formula_sum "Si O2"
_cell_formula_units_Z 16
_cell_length_a 12.218478
_cell_length_b 24.521052
_cell_length_c 15.473023
_cell_angle_alpha 152.469874
_cell_angle_beta 152.556477
_cell_angle_gamma 26.265328
_cell_volume 846.315709
_symmetry_space_group_name_H-M "P -1"
_symmetry_group_IT_number 2
_symmetry_cell_setting 'triclinic'
loop_
_space_group_symop_operation_xyz
x,y,z
-x,-y,-z
loop_
_atom_site_type_symbol
_atom_site_label
_atom_site_fract_x
_atom_site_fract_y
_atom_site_fract_z
Si Si1 0.002926 0.031646 0.785506
Si Si2 0.531743 0.774666 0.572868
Si Si3 0.165870 0.720602 0.111617
Si Si4 0.213900 0.887090 0.058854
Si Si5 0.380422 0.068140 0.881803
Si Si6 0.101481 0.254373 0.366017
Si Si7 0.024763 0.458554 0.356733
Si Si8 0.410606 0.040257 0.662424
O O1 0.864848 0.174057 0.836458
O O2 0.890843 0.059551 0.843829
O O3 0.885001 0.941987 0.536675
O O4 0.331128 0.966741 0.922588
O O5 0.396455 0.711869 0.326803
O O6 0.776117 0.774404 0.686692
O O7 0.670138 0.678928 0.617988
O O8 0.338860 0.937028 0.682641
O O9 0.881804 0.798874 0.076910
O O10 0.176594 0.590864 0.890888
O O11 0.500305 0.877137 0.222230
O O12 0.166947 0.759585 0.835378
O O13 0.000000 0.000000 0.000000
O O14 0.414161 0.080120 0.820054
O O15 0.025450 0.409450 0.546696
O O16 0.353364 0.124682 0.410938
O O17 0.000000 0.500000 0.500000
#
# Coordination Sequence:
#
# PCOD9078684 Si02
#       8
#     2   2   2   2   2   2   2   2
#     4  12  19  33  57  82 111 141 175 219 280 322
#     4  10  19  35  52  78 113 144 177 219 264 323
#     4  12  23  33  56  83 112 148 179 214 275 325
#     4  10  18  36  56  77 110 137 179 233 273 308
#     4  11  21  36  52  82 117 141 174 230 265 324
#     4   9  17  35  52  74 110 138 173 225 264 309
#     4  10  21  35  51  76 112 150 180 216 262 323
#     4  10  21  35  56  84 107 139 182 227 272 318
#
# _framework density 18.905474000000002
#
# number of rings (size 3 to 8) (size 9 to 14) (size 15 to 20)
#    0.000    1.500    7.500    1.875    0.000    2.000 
#    2.250    0.000    0.000    0.750    0.000    1.750 
#    0.000    0.000    0.000    0.000    0.000    0.000 
#
# Total GULP energy -89170.561365 kJ/mol
# GULP energy per Si atom -5573.160085 kJ/mol
# Density = 1.886244 g / cm^3
# Si number density = 18.905474 Si / 1000 Ang^3
#
#
#
# Elastic Constant Matrix: (Units=GPa)
#
#
# Indices 1 2 3 4 5 6 
#
# 1 67.8817 19.0789 32.0219 4.9410 8.0576 8.1353
# 2 19.0789 43.9430 32.8072 -5.5518 8.1579 1.3527
# 3 32.0219 32.8072 148.3077 -6.6873 21.5681 1.7798
# 4 4.9410 -5.5518 -6.6873 27.8432 6.0423 -3.6160
# 5 8.0576 8.1579 21.5681 6.0423 30.8125 0.0603
# 6 8.1353 1.3527 1.7798 -3.6160 0.0603 14.9819
#
#
#
# Elastic Compliance Matrix: (Units=1/GPa)
#
#
# Indices 1 2 3 4 5 6 
#
# 1 0.020015 -0.007055 -0.002968 -0.007213 0.000149 -0.011620
# 2 -0.007055 0.030799 -0.004267 0.007878 -0.004874 0.003478
# 3 -0.002968 -0.004267 0.009205 0.003231 -0.005174 0.001704
# 4 -0.007213 0.007878 0.003231 0.043682 -0.011053 0.013409
# 5 0.000149 -0.004874 -0.005174 -0.011053 0.039499 -0.001853
# 6 -0.011620 0.003478 0.001704 0.013409 -0.001853 0.075784
#
#
# Mechanical properties :
#
#
# Convention : Reuss Voigt Hill
#
# Bulk Modulus (GPa) = 31.80929 47.54982 39.67955
# Shear Modulus (GPa) = 19.37647 26.47583 22.92615
#
# Velocity S-wave (km/s) = 3.20490 3.74629 3.48612
# Velocity P-wave (km/s) = 5.52785 6.62713 6.10230
#
# Compressibility (1/GPa) = 0.03143736
#
# Stress axis : x y z
#
# Youngs Moduli (GPa) = 49.96372 32.46874 108.63205
#
# Poissons Ratio (x) = 0.22907 0.32245
# Poissons Ratio (y) = 0.35249 0.46359
# Poissons Ratio (z) = 0.14830 0.13856
#
# Static dielectric constant tensor:
#      x y z
#    x 1.667350 -0.022860 -0.002860 
#    y -0.022860 1.727990 -0.002940 
#    z -0.002860 -0.002940 1.732620 
# 
# From -- ./inp_files/432895.got.cif
#   From: 2010.05.17/outbox.cif.g08.bks.cpg/sg2_217_cif.got.tgz:432895.got - 2010.06.03 11:33:40.
