data_PCOD9078887
_publ_section_title
;
Structure prediction by ZEFSAII (Michael W. Deem and Ramdas Pophale) SiO2 
 PCOD9078887
Probable space group: P -1
;
_chemical_formula_sum "Si O2"
_cell_formula_units_Z 16
_cell_length_a 22.915200
_cell_length_b 9.083507
_cell_length_c 24.994082
_cell_angle_alpha 138.909475
_cell_angle_beta 162.608452
_cell_angle_gamma 31.885323
_cell_volume 766.772093
_symmetry_space_group_name_H-M "P -1"
_symmetry_group_IT_number 2
_symmetry_cell_setting 'triclinic'
loop_
_space_group_symop_operation_xyz
x,y,z
-x,-y,-z
loop_
_atom_site_type_symbol
_atom_site_label
_atom_site_fract_x
_atom_site_fract_y
_atom_site_fract_z
Si Si1 0.195599 0.191636 0.790006
Si Si2 0.518264 0.468345 0.747869
Si Si3 0.918025 0.234766 0.123850
Si Si4 0.124729 0.644761 0.537811
Si Si5 0.535726 0.389805 0.913795
Si Si6 0.798950 0.489674 0.259218
Si Si7 0.125147 0.846470 0.422035
Si Si8 0.575828 0.201911 0.617349
O O1 0.066611 0.536836 0.771287
O O2 0.110866 0.112631 0.642022
O O3 0.082129 0.167010 0.737355
O O4 0.500000 0.000000 0.000000
O O5 0.345271 0.445608 0.629909
O O6 0.308444 0.776002 0.614512
O O7 0.648411 0.228907 0.748346
O O8 0.728325 0.417596 0.956666
O O9 0.776347 0.173997 0.024814
O O10 0.191204 0.948394 0.261497
O O11 0.296514 0.627293 0.730010
O O12 0.988461 0.540889 0.420497
O O13 0.412788 0.299438 0.821534
O O14 0.630944 0.514778 0.070485
O O15 0.982676 0.151833 0.350395
O O16 0.325649 0.547178 0.480404
O O17 0.500000 0.000000 0.500000
#
# Coordination Sequence:
#
# PCOD9078887 Si02
#       8
#     2   2   2   2   2   2   2   2
#     4  11  21  35  59  87 117 147 192 241 288 335
#     4   8  20  35  60  89 109 145 197 236 286 345
#     4  11  18  37  61  86 112 153 191 242 283 341
#     4  10  20  40  59  84 115 156 192 229 291 348
#     4  10  23  35  62  82 113 161 195 225 286 354
#     4  11  21  40  56  82 122 153 191 236 286 340
#     4   9  21  36  53  87 115 144 189 241 281 340
#     4  10  18  36  60  83 113 151 190 238 293 336
#
# _framework density 20.866696999999998
#
# number of rings (size 3 to 8) (size 9 to 14) (size 15 to 20)
#    0.750    1.250    2.500    1.500    1.750    1.000 
#    2.250    4.375    0.000    1.500    0.000    0.000 
#    0.000    0.000    0.000    0.000    0.000    0.000 
#
# Total GULP energy -89092.756606 kJ/mol
# GULP energy per Si atom -5568.297288 kJ/mol
# Density = 2.081920 g / cm^3
# Si number density = 20.866697 Si / 1000 Ang^3
#
#
#
# Elastic Constant Matrix: (Units=GPa)
#
#
# Indices 1 2 3 4 5 6 
#
# 1 139.1339 37.5885 55.5928 -15.3176 21.0569 -8.6904
# 2 37.5885 47.8468 28.0526 -13.5293 10.4307 -6.1158
# 3 55.5928 28.0526 136.8183 -10.6570 -1.0967 -11.7257
# 4 -15.3176 -13.5293 -10.6570 23.4797 -14.3975 -0.4556
# 5 21.0569 10.4307 -1.0967 -14.3975 58.0501 0.4643
# 6 -8.6904 -6.1158 -11.7257 -0.4556 0.4643 35.2994
#
#
#
# Elastic Compliance Matrix: (Units=1/GPa)
#
#
# Indices 1 2 3 4 5 6 
#
# 1 0.010407 -0.005584 -0.003006 0.000569 -0.002693 0.000639
# 2 -0.005584 0.031070 -0.002835 0.012744 -0.000476 0.003237
# 3 -0.003006 -0.002835 0.009461 0.002143 0.002295 0.001909
# 4 0.000569 0.012744 0.002143 0.058761 0.012089 0.003659
# 5 -0.002693 -0.000476 0.002295 0.012089 0.021331 -0.000108
# 6 0.000639 0.003237 0.001909 0.003659 -0.000108 0.029730
#
#
# Mechanical properties :
#
#
# Convention : Reuss Voigt Hill
#
# Bulk Modulus (GPa) = 35.60334 62.91850 49.26092
# Shear Modulus (GPa) = 25.91028 36.87018 31.39023
#
# Velocity S-wave (km/s) = 3.52761 4.20806 3.88277
# Velocity P-wave (km/s) = 5.80442 7.33678 6.61512
#
# Compressibility (1/GPa) = 0.02808725
#
# Stress axis : x y z
#
# Youngs Moduli (GPa) = 96.08866 32.18516 105.69934
#
# Poissons Ratio (x) = 0.17971 0.31777
# Poissons Ratio (y) = 0.53653 0.29970
# Poissons Ratio (z) = 0.28887 0.09126
#
# Static dielectric constant tensor:
#      x y z
#    x 1.797020 -0.000250 -0.015690 
#    y -0.000250 1.820350 0.014390 
#    z -0.015690 0.014390 1.794790 
# 
# From -- ./inp_files/613526.got.cif
#   From: 2010.05.17/outbox.cif.g08.bks.cpg/sg2_307_cif.got.tgz:613526.got - 2010.06.03 11:33:40.
