data_PCOD9078166
_publ_section_title
;
Structure prediction by ZEFSAII (Michael W. Deem and Ramdas Pophale) SiO2 
 PCOD9078166
Probable space group: P -1
;
_chemical_formula_sum "Si O2"
_cell_formula_units_Z 16
_cell_length_a 11.953060
_cell_length_b 17.569061
_cell_length_c 8.117458
_cell_angle_alpha 45.099089
_cell_angle_beta 83.850738
_cell_angle_gamma 121.621870
_cell_volume 628.807650
_symmetry_space_group_name_H-M "P -1"
_symmetry_group_IT_number 2
_symmetry_cell_setting 'triclinic'
loop_
_space_group_symop_operation_xyz
x,y,z
-x,-y,-z
loop_
_atom_site_type_symbol
_atom_site_label
_atom_site_fract_x
_atom_site_fract_y
_atom_site_fract_z
Si Si1 0.982179 0.375148 0.585250
Si Si2 0.736070 0.105561 0.730295
Si Si3 0.162573 0.070270 0.590894
Si Si4 0.145638 0.995389 0.330776
Si Si5 0.236452 0.373383 0.578442
Si Si6 0.466225 0.723917 0.589605
Si Si7 0.541733 0.443694 0.400870
Si Si8 0.520542 0.961130 0.382715
O O1 0.890889 0.304181 0.518716
O O2 0.000000 0.500000 0.500000
O O3 0.181661 0.454329 0.442678
O O4 0.775528 0.148164 0.046611
O O5 0.862432 0.129589 0.551462
O O6 0.568976 0.032989 0.753200
O O7 0.598664 0.914141 0.161268
O O8 0.067305 0.110383 0.515236
O O9 0.183609 0.034498 0.460798
O O10 0.377774 0.229880 0.411912
O O11 0.986235 0.868685 0.043780
O O12 0.345710 0.218814 0.866089
O O13 0.428840 0.461961 0.329047
O O14 0.291525 0.397825 0.723773
O O15 0.347479 0.547793 0.755762
O O16 0.385514 0.742584 0.709188
O O17 0.500000 0.000000 0.500000
#
# Coordination Sequence:
#
# PCOD9078166 Si02
#       8
#     2   2   2   2   2   2   2   2
#     4  11  24  38  59  85 115 153 191 240 279 341
#     4  10  21  36  59  84 113 149 196 234 279 339
#     4  10  18  35  59  85 115 142 192 235 288 331
#     4   9  20  33  60  85 112 150 187 236 282 341
#     4  10  20  37  57  83 118 147 189 226 295 328
#     4  10  19  35  60  86 108 149 192 238 275 341
#     4   9  21  35  60  83 114 151 185 235 278 350
#     4  11  23  41  61  83 114 153 194 238 288 336
#
# _framework density 25.444980999999999
#
# number of rings (size 3 to 8) (size 9 to 14) (size 15 to 20)
#    0.000    2.000    2.500    2.250    7.000    1.500 
#    0.000    1.875    0.000    3.000    0.000    0.000 
#    0.000    0.000    0.000    0.000    0.000    0.000 
#
# Total GULP energy -89347.063567 kJ/mol
# GULP energy per Si atom -5584.191473 kJ/mol
# Density = 2.538707 g / cm^3
# Si number density = 25.444981 Si / 1000 Ang^3
#
#
#
# Elastic Constant Matrix: (Units=GPa)
#
#
# Indices 1 2 3 4 5 6 
#
# 1 141.3658 52.3866 24.7476 2.6236 0.0085 -11.1855
# 2 52.3866 118.2119 1.6840 -3.8645 3.5181 -33.6464
# 3 24.7476 1.6840 77.4373 3.2531 6.0825 7.7808
# 4 2.6236 -3.8645 3.2531 17.9627 -3.9230 5.9561
# 5 0.0085 3.5181 6.0825 -3.9230 21.7123 2.2334
# 6 -11.1855 -33.6464 7.7808 5.9561 2.2334 61.0639
#
#
#
# Elastic Compliance Matrix: (Units=1/GPa)
#
#
# Indices 1 2 3 4 5 6 
#
# 1 0.009114 -0.004122 -0.002846 -0.001385 0.001227 -0.000149
# 2 -0.004122 0.012034 0.000652 0.000564 -0.002629 0.005834
# 3 -0.002846 0.000652 0.014422 -0.002495 -0.004432 -0.001594
# 4 -0.001385 0.000564 -0.002495 0.061129 0.012274 -0.006036
# 5 0.001227 -0.002629 -0.004432 0.012274 0.050322 -0.003697
# 6 -0.000149 0.005834 -0.001594 -0.006036 -0.003697 0.020490
#
#
# Mechanical properties :
#
#
# Convention : Reuss Voigt Hill
#
# Bulk Modulus (GPa) = 43.59660 54.96127 49.27894
# Shear Modulus (GPa) = 26.62564 37.36088 31.99326
#
# Velocity S-wave (km/s) = 3.23832 3.83600 3.54976
# Velocity P-wave (km/s) = 5.58150 6.42392 6.01747
#
# Compressibility (1/GPa) = 0.02293757
#
# Stress axis : x y z
#
# Youngs Moduli (GPa) = 109.72613 83.09697 69.33786
#
# Poissons Ratio (x) = 0.34257 0.19734
# Poissons Ratio (y) = 0.45234 -0.04524
# Poissons Ratio (z) = 0.31229 -0.05421
#
# Static dielectric constant tensor:
#      x y z
#    x 2.004610 -0.088650 -0.012170 
#    y -0.088650 2.033710 0.063340 
#    z -0.012170 0.063340 2.137230 
# 
# From -- ./inp_files/216630.got.cif
#   From: 2010.05.17/outbox.cif.g08.bks.cpg/sg2_109_cif.got.tgz:216630.got - 2010.06.03 11:33:40.
