data_PCOD9078061
_publ_section_title
;
Structure prediction by ZEFSAII (Michael W. Deem and Ramdas Pophale) SiO2 
 PCOD9078061
Probable space group: P -1
;
_chemical_formula_sum "Si O2"
_cell_formula_units_Z 16
_cell_length_a 23.942298
_cell_length_b 9.820204
_cell_length_c 11.750913
_cell_angle_alpha 36.542499
_cell_angle_beta 147.347449
_cell_angle_gamma 150.758893
_cell_volume 702.967797
_symmetry_space_group_name_H-M "P -1"
_symmetry_group_IT_number 2
_symmetry_cell_setting 'triclinic'
loop_
_space_group_symop_operation_xyz
x,y,z
-x,-y,-z
loop_
_atom_site_type_symbol
_atom_site_label
_atom_site_fract_x
_atom_site_fract_y
_atom_site_fract_z
Si Si1 0.386564 0.492292 0.048563
Si Si2 0.846038 0.769613 0.029436
Si Si3 0.871768 0.990580 0.675371
Si Si4 0.198194 0.617426 0.068088
Si Si5 0.312216 0.029359 0.794631
Si Si6 0.670446 0.105587 0.654702
Si Si7 0.065025 0.649519 0.129285
Si Si8 0.370937 0.474665 0.778072
O O1 0.536619 0.774452 0.114072
O O2 0.391705 0.223200 0.257501
O O3 0.293798 0.484554 0.988478
O O4 0.324195 0.442228 0.849343
O O5 0.838859 0.905321 0.808687
O O6 0.971285 0.774004 0.226953
O O7 0.893340 0.030509 0.022174
O O8 0.830211 0.687161 0.756686
O O9 0.784477 0.057902 0.417166
O O10 0.276422 0.818417 0.175632
O O11 0.054158 0.536712 0.862991
O O12 0.274919 0.762571 0.986494
O O13 0.292892 0.216772 0.725753
O O14 0.800212 0.303492 0.664585
O O15 0.593433 0.232199 0.411051
O O16 0.000000 0.500000 0.000000
O O17 0.500000 0.500000 0.000000
#
# Coordination Sequence:
#
# PCOD9078061 Si02
#       8
#     2   2   2   2   2   2   2   2
#     4  10  22  38  56  87 123 150 194 244 293 349
#     4   9  20  41  62  83 117 156 196 243 287 347
#     4  10  21  40  62  83 113 159 202 237 289 340
#     4  10  19  35  56  86 119 150 198 238 289 348
#     4  11  22  35  56  89 117 156 194 239 290 352
#     4  10  18  35  58  81 120 158 186 243 299 339
#     4   8  17  33  58  88 113 147 192 238 291 347
#     4  10  21  34  52  87 119 149 194 232 289 355
#
# _framework density 22.760645
#
# number of rings (size 3 to 8) (size 9 to 14) (size 15 to 20)
#    0.000    2.250    2.500    0.000    0.000    5.500 
#    0.000   10.000    0.000    0.000    0.000    0.000 
#    0.000    0.000    0.000    0.000    0.000    0.000 
#
# Total GULP energy -89270.720600 kJ/mol
# GULP energy per Si atom -5579.420038 kJ/mol
# Density = 2.270884 g / cm^3
# Si number density = 22.760645 Si / 1000 Ang^3
#
#
#
# Elastic Constant Matrix: (Units=GPa)
#
#
# Indices 1 2 3 4 5 6 
#
# 1 107.3476 33.6425 20.8426 12.1436 -10.2831 38.1967
# 2 33.6425 86.8890 32.9721 3.3453 3.8146 35.3258
# 3 20.8426 32.9721 104.5971 4.9340 -2.6638 24.4118
# 4 12.1436 3.3453 4.9340 22.2413 -4.0659 3.0114
# 5 -10.2831 3.8146 -2.6638 -4.0659 19.4994 0.6804
# 6 38.1967 35.3258 24.4118 3.0114 0.6804 46.5112
#
#
#
# Elastic Compliance Matrix: (Units=1/GPa)
#
#
# Indices 1 2 3 4 5 6 
#
# 1 0.014999 -0.001619 0.000564 -0.005168 0.007615 -0.011161
# 2 -0.001619 0.017727 -0.002901 -0.000531 -0.004462 -0.010512
# 3 0.000564 -0.002901 0.011474 -0.001428 0.002282 -0.004223
# 4 -0.005168 -0.000531 -0.001428 0.049244 0.007378 0.002100
# 5 0.007615 -0.004462 0.002282 0.007378 0.058211 -0.005392
# 6 -0.011161 -0.010512 -0.004223 0.002100 -0.005392 0.040809
#
#
# Mechanical properties :
#
#
# Convention : Reuss Voigt Hill
#
# Bulk Modulus (GPa) = 27.55773 52.63868 40.09820
# Shear Modulus (GPa) = 23.53274 31.74214 27.63744
#
# Velocity S-wave (km/s) = 3.21895 3.73849 3.48841
# Velocity P-wave (km/s) = 5.09406 6.46625 5.82073
#
# Compressibility (1/GPa) = 0.03628746
#
# Stress axis : x y z
#
# Youngs Moduli (GPa) = 66.67228 56.41241 87.15704
#
# Poissons Ratio (x) = 0.09135 -0.04917
# Poissons Ratio (y) = 0.10797 0.25280
# Poissons Ratio (z) = -0.03762 0.16363
#
# Static dielectric constant tensor:
#      x y z
#    x 1.974680 0.005600 0.016080 
#    y 0.005600 1.901100 0.009030 
#    z 0.016080 0.009030 1.806240 
# 
# From -- ./inp_files/476544.got.cif
#   From: 2010.05.17/outbox.cif.g08.bks.cpg/sg2_239_cif.got.tgz:476544.got - 2010.06.03 11:33:40.
