data_PCOD9078031
_publ_section_title
;
Structure prediction by ZEFSAII (Michael W. Deem and Ramdas Pophale) SiO2 
 PCOD9078031
Probable space group: P -1
;
_chemical_formula_sum "Si O2"
_cell_formula_units_Z 14
_cell_length_a 9.367227
_cell_length_b 8.585636
_cell_length_c 10.435816
_cell_angle_alpha 121.824530
_cell_angle_beta 121.216093
_cell_angle_gamma 95.797943
_cell_volume 522.728668
_symmetry_space_group_name_H-M "P -1"
_symmetry_group_IT_number 2
_symmetry_cell_setting 'triclinic'
loop_
_space_group_symop_operation_xyz
x,y,z
-x,-y,-z
loop_
_atom_site_type_symbol
_atom_site_label
_atom_site_fract_x
_atom_site_fract_y
_atom_site_fract_z
Si Si1 0.226244 0.388736 0.065496
Si Si2 0.357005 0.806160 0.438198
Si Si3 0.285157 0.540838 0.883887
Si Si4 0.047756 0.775142 0.914411
Si Si5 0.561294 0.784394 0.759749
Si Si6 0.325933 0.994626 0.749717
Si Si7 0.060759 0.318245 0.444896
O O1 0.236384 0.608301 0.205124
O O2 0.396760 0.365854 0.200385
O O3 0.035290 0.225463 0.985453
O O4 0.252662 0.396543 0.930253
O O5 0.466799 0.727116 0.550810
O O6 0.500000 0.000000 0.500000
O O7 0.263297 0.895548 0.533745
O O8 0.131934 0.618579 0.871296
O O9 0.224058 0.399456 0.665396
O O10 0.496412 0.761047 0.073697
O O11 0.896414 0.703462 0.693201
O O12 0.231024 0.004673 0.072821
O O13 0.423027 0.860749 0.792532
O O14 0.128882 0.908475 0.700161
O O15 0.000000 0.500000 0.500000
#
# Coordination Sequence:
#
# PCOD9078031 Si02
#       7
#     2   2   2   2   2   2   2
#     4  12  20  38  60  92 125 153 201 252 310 368
#     4  10  18  35  57  88 118 149 201 249 297 349
#     4  10  21  37  63  90 118 160 205 255 298 351
#     4  10  21  38  59  90 119 158 204 249 301 362
#     4   9  22  35  58  91 120 161 192 253 316 356
#     4   9  20  39  60  89 122 152 210 253 297 357
#     4  10  21  38  63  92 115 161 211 250 296 356
#
# _framework density 26.782537000000001
#
# number of rings (size 3 to 8) (size 9 to 14) (size 15 to 20)
#    0.857    1.143    1.429    3.000    0.000    6.286 
#    0.000    0.714    0.000    7.714    0.000    0.000 
#    0.000    0.000    0.000    0.000    0.000    0.000 
#
# Total GULP energy -78306.595506 kJ/mol
# GULP energy per Si atom -5593.328250 kJ/mol
# Density = 2.672158 g / cm^3
# Si number density = 26.782537 Si / 1000 Ang^3
#
#
#
# Elastic Constant Matrix: (Units=GPa)
#
#
# Indices 1 2 3 4 5 6 
#
# 1 91.8754 52.5750 26.2273 0.3198 2.4518 12.3869
# 2 52.5750 138.9534 54.7227 -20.6960 8.9043 32.5105
# 3 26.2273 54.7227 125.7370 -21.2777 6.4331 17.2895
# 4 0.3198 -20.6960 -21.2777 44.1211 10.1091 9.2988
# 5 2.4518 8.9043 6.4331 10.1091 23.7176 7.3460
# 6 12.3869 32.5105 17.2895 9.2988 7.3460 33.2465
#
#
#
# Elastic Compliance Matrix: (Units=1/GPa)
#
#
# Indices 1 2 3 4 5 6 
#
# 1 0.014611 -0.006390 -0.001584 -0.004997 0.002695 0.002431
# 2 -0.006390 0.015243 -0.001386 0.010540 -0.004948 -0.013659
# 3 -0.001584 -0.001386 0.010781 0.006345 -0.003500 -0.004662
# 4 -0.004997 0.010540 0.006345 0.038283 -0.015592 -0.019007
# 5 0.002695 -0.004948 -0.003500 -0.015592 0.051778 -0.001425
# 6 0.002431 -0.013659 -0.004662 -0.019007 -0.001425 0.050584
#
#
# Mechanical properties :
#
#
# Convention : Reuss Voigt Hill
#
# Bulk Modulus (GPa) = 45.63455 69.29064 57.46259
# Shear Modulus (GPa) = 24.11888 35.08642 29.60265
#
# Velocity S-wave (km/s) = 3.00416 3.62339 3.32821
# Velocity P-wave (km/s) = 5.39530 6.59037 6.02255
#
# Compressibility (1/GPa) = 0.02191322
#
# Stress axis : x y z
#
# Youngs Moduli (GPa) = 68.44148 65.60411 92.75846
#
# Poissons Ratio (x) = 0.41922 0.14697
# Poissons Ratio (y) = 0.43735 0.12857
# Poissons Ratio (z) = 0.10844 0.09093
#
# Static dielectric constant tensor:
#      x y z
#    x 2.140160 0.016280 -0.018010 
#    y 0.016280 2.118130 -0.065850 
#    z -0.018010 -0.065850 2.172750 
# 
# From -- ./inp_files/223045.got.cif
#   From: 2010.05.17/outbox.cif.g08.bks.cpg/sg2_112_cif.got.tgz:223045.got - 2010.06.03 11:33:40.
