data_PCOD9078185
_publ_section_title
;
Structure prediction by ZEFSAII (Michael W. Deem and Ramdas Pophale) SiO2 
 PCOD9078185
Probable space group: P -1
;
_chemical_formula_sum "Si O2"
_cell_formula_units_Z 16
_cell_length_a 10.809455
_cell_length_b 20.587803
_cell_length_c 9.348895
_cell_angle_alpha 29.164447
_cell_angle_beta 128.559268
_cell_angle_gamma 130.239095
_cell_volume 764.074068
_symmetry_space_group_name_H-M "P -1"
_symmetry_group_IT_number 2
_symmetry_cell_setting 'triclinic'
loop_
_space_group_symop_operation_xyz
x,y,z
-x,-y,-z
loop_
_atom_site_type_symbol
_atom_site_label
_atom_site_fract_x
_atom_site_fract_y
_atom_site_fract_z
Si Si1 0.578611 0.558983 0.092620
Si Si2 0.322670 0.699334 0.784614
Si Si3 0.327465 0.974440 0.353267
Si Si4 0.068793 0.224097 0.033509
Si Si5 0.932075 0.080581 0.476539
Si Si6 0.371263 0.573126 0.340248
Si Si7 0.025288 0.359571 0.451566
Si Si8 0.869597 0.863549 0.232140
O O1 0.459821 0.646799 0.902704
O O2 0.762516 0.662093 0.023397
O O3 0.500000 0.500000 0.000000
O O4 0.584545 0.434447 0.446747
O O5 0.312356 0.855327 0.453054
O O6 0.140296 0.608555 0.785150
O O7 0.367854 0.694443 0.994489
O O8 0.197928 0.919508 0.493308
O O9 0.500000 0.000000 0.500000
O O10 0.296504 0.111481 0.996389
O O11 0.946550 0.184926 0.155147
O O12 0.103287 0.077068 0.299980
O O13 0.993640 0.274923 0.740689
O O14 0.104715 0.126854 0.598597
O O15 0.500000 0.500000 0.500000
O O16 0.182975 0.483098 0.362562
O O17 0.086891 0.266914 0.555830
O O18 0.000000 0.000000 0.000000
#
# Coordination Sequence:
#
# PCOD9078185 Si02
#       8
#     2   2   2   2   2   2   2   2
#     4  10  23  44  59  81 119 165 202 245 303 350
#     4  11  21  39  62  90 115 151 205 251 290 352
#     4  11  21  35  61  94 121 147 197 247 292 351
#     4  10  20  37  61  83 122 165 187 239 302 359
#     4  10  19  36  58  92 120 153 199 230 301 366
#     4   9  22  38  61  84 114 158 202 247 294 342
#     4  11  19  38  62  86 123 156 194 246 297 356
#     4  10  18  35  59  87 118 154 188 234 297 350
#
# _framework density 20.940379
#
# number of rings (size 3 to 8) (size 9 to 14) (size 15 to 20)
#    0.000    1.750    5.000    1.125    3.500    2.000 
#    4.500    1.250    0.000    4.500    0.000    0.000 
#    0.000    0.000    0.000    0.000    0.000    0.000 
#
# Total GULP energy -89194.625192 kJ/mol
# GULP energy per Si atom -5574.664074 kJ/mol
# Density = 2.089272 g / cm^3
# Si number density = 20.940379 Si / 1000 Ang^3
#
#
#
# Elastic Constant Matrix: (Units=GPa)
#
#
# Indices 1 2 3 4 5 6 
#
# 1 52.7787 19.5917 26.8832 6.8489 -1.2070 4.4407
# 2 19.5917 96.6075 22.0746 31.5379 -10.7132 -3.8666
# 3 26.8832 22.0746 80.2195 22.7060 -13.1510 -2.3745
# 4 6.8489 31.5379 22.7060 30.9752 -1.8145 8.2913
# 5 -1.2070 -10.7132 -13.1510 -1.8145 27.8523 13.0604
# 6 4.4407 -3.8666 -2.3745 8.2913 13.0604 31.3075
#
#
#
# Elastic Compliance Matrix: (Units=1/GPa)
#
#
# Indices 1 2 3 4 5 6 
#
# 1 0.026012 -0.006963 -0.010465 0.010794 -0.002416 -0.007194
# 2 -0.006963 0.019029 0.004504 -0.023116 0.003782 0.008224
# 3 -0.010465 0.004504 0.021556 -0.019118 0.007600 0.005568
# 4 0.010794 -0.023116 -0.019118 0.074120 -0.000846 -0.025112
# 5 -0.002416 0.003782 0.007600 -0.000846 0.049768 -0.019151
# 6 -0.007194 0.008224 0.005568 -0.025112 -0.019151 0.049039
#
#
# Mechanical properties :
#
#
# Convention : Reuss Voigt Hill
#
# Bulk Modulus (GPa) = 24.54184 40.74498 32.64341
# Shear Modulus (GPa) = 17.92401 28.76406 23.34404
#
# Velocity S-wave (km/s) = 2.92884 3.71025 3.34246
# Velocity P-wave (km/s) = 4.81485 6.15260 5.52437
#
# Compressibility (1/GPa) = 0.04074675
#
# Stress axis : x y z
#
# Youngs Moduli (GPa) = 38.44421 52.55085 46.39166
#
# Poissons Ratio (x) = 0.36593 0.48549
# Poissons Ratio (y) = 0.26770 -0.20893
# Poissons Ratio (z) = 0.40232 -0.23667
#
# Static dielectric constant tensor:
#      x y z
#    x 1.759860 0.018060 -0.016120 
#    y 0.018060 1.768660 -0.047530 
#    z -0.016120 -0.047530 1.792940 
# 
# From -- ./inp_files/263572.got.cif
#   From: 2010.05.17/outbox.cif.g08.bks.cpg/sg2_132_cif.got.tgz:263572.got - 2010.06.03 11:33:40.
