data_PCOD9078376
_publ_section_title
;
Structure prediction by ZEFSAII (Michael W. Deem and Ramdas Pophale) SiO2 
 PCOD9078376
Probable space group: P -1
;
_chemical_formula_sum "Si O2"
_cell_formula_units_Z 16
_cell_length_a 14.460267
_cell_length_b 11.934325
_cell_length_c 19.435709
_cell_angle_alpha 150.262929
_cell_angle_beta 29.542185
_cell_angle_gamma 130.366625
_cell_volume 736.410469
_symmetry_space_group_name_H-M "P -1"
_symmetry_group_IT_number 2
_symmetry_cell_setting 'triclinic'
loop_
_space_group_symop_operation_xyz
x,y,z
-x,-y,-z
loop_
_atom_site_type_symbol
_atom_site_label
_atom_site_fract_x
_atom_site_fract_y
_atom_site_fract_z
Si Si1 0.713255 0.454108 0.770190
Si Si2 0.620349 0.080718 0.704862
Si Si3 0.904212 0.763305 0.994037
Si Si4 0.666651 0.527918 0.356157
Si Si5 0.424983 0.673223 0.454896
Si Si6 0.373394 0.477155 0.892746
Si Si7 0.065173 0.535353 0.622563
Si Si8 0.829384 0.992205 0.659230
O O1 0.771471 0.181398 0.622735
O O2 0.567487 0.448381 0.799528
O O3 0.894265 0.536953 0.679621
O O4 0.594506 0.662227 0.018160
O O5 0.648498 0.040637 0.746635
O O6 0.645001 0.814031 0.520813
O O7 0.106928 0.661579 0.859785
O O8 0.978078 0.722971 0.845041
O O9 0.784527 0.596528 0.002337
O O10 0.730838 0.047738 0.269569
O O11 0.500000 0.500000 0.500000
O O12 0.588148 0.507833 0.319671
O O13 0.547810 0.680784 0.311482
O O14 0.266212 0.556075 0.475782
O O15 0.247986 0.772278 0.114748
O O16 0.124367 0.267710 0.475919
O O17 0.000000 0.000000 0.500000
#
# Coordination Sequence:
#
# PCOD9078376 Si02
#       8
#     2   2   2   2   2   2   2   2
#     4  10  21  35  67  93 128 173 214 277 336 385
#     4  10  18  35  61  98 123 155 225 282 317 378
#     4  12  24  45  73  96 134 182 227 273 332 405
#     4  12  24  42  70 100 131 177 226 278 331 395
#     4  12  28  45  63 101 146 176 220 279 334 403
#     4  11  25  45  64 100 137 175 222 279 340 401
#     4  12  22  41  69 100 126 175 229 278 335 386
#     4  11  18  38  67  95 127 162 224 278 323 394
#
# _framework density 21.727012999999999
#
# number of rings (size 3 to 8) (size 9 to 14) (size 15 to 20)
#    0.000    0.750    5.000    3.750    1.750    1.500 
#    2.250    0.000    0.000    0.000    0.000    0.000 
#    0.000    0.000    0.000    0.000    0.000    0.000 
#
# Total GULP energy -89174.303959 kJ/mol
# GULP energy per Si atom -5573.393997 kJ/mol
# Density = 2.167756 g / cm^3
# Si number density = 21.727013 Si / 1000 Ang^3
#
#
#
# Elastic Constant Matrix: (Units=GPa)
#
#
# Indices 1 2 3 4 5 6 
#
# 1 84.9598 -8.6803 13.2764 -22.0873 -26.1667 0.8660
# 2 -8.6803 29.1420 -0.8387 -3.3207 5.9690 9.3041
# 3 13.2764 -0.8387 63.3525 6.5275 -4.7050 -4.9830
# 4 -22.0873 -3.3207 6.5275 30.4517 5.9616 -0.1424
# 5 -26.1667 5.9690 -4.7050 5.9616 29.1184 -6.6056
# 6 0.8660 9.3041 -4.9830 -0.1424 -6.6056 29.8174
#
#
#
# Elastic Compliance Matrix: (Units=1/GPa)
#
#
# Indices 1 2 3 4 5 6 
#
# 1 0.021046 0.004625 -0.004679 0.013945 0.014451 0.000432
# 2 0.004625 0.044845 -0.003788 0.011305 -0.011897 -0.017342
# 3 -0.004679 -0.003788 0.018094 -0.008102 0.002243 0.004800
# 4 0.013945 0.011305 -0.008102 0.046251 -0.001804 -0.005465
# 5 0.014451 -0.011897 0.002243 -0.001804 0.054046 0.015632
# 6 0.000432 -0.017342 0.004800 -0.005465 0.015632 0.043175
#
#
# Mechanical properties :
#
#
# Convention : Reuss Voigt Hill
#
# Bulk Modulus (GPa) = 13.10582 20.55212 16.82897
# Shear Modulus (GPa) = 19.18843 29.45730 24.32286
#
# Velocity S-wave (km/s) = 2.97502 3.68610 3.34949
# Velocity P-wave (km/s) = 4.22447 5.25321 4.76668
#
# Compressibility (1/GPa) = 0.07630198
#
# Stress axis : x y z
#
# Youngs Moduli (GPa) = 47.51563 22.29886 55.26703
#
# Poissons Ratio (x) = -0.10314 0.25859
# Poissons Ratio (y) = -0.21978 0.20936
# Poissons Ratio (z) = 0.22232 0.08447
#
# Static dielectric constant tensor:
#      x y z
#    x 1.951560 0.086050 -0.098160 
#    y 0.086050 1.791230 -0.018060 
#    z -0.098160 -0.018060 1.950090 
# 
# From -- ./inp_files/402255.got.cif
#   From: 2010.05.17/outbox.cif.g08.bks.cpg/sg2_202_cif.got.tgz:402255.got - 2010.06.03 11:33:40.
