data_PCOD9078387
_publ_section_title
;
Structure prediction by ZEFSAII (Michael W. Deem and Ramdas Pophale) SiO2 
 PCOD9078387
Probable space group: P -1
;
_chemical_formula_sum "Si O2"
_cell_formula_units_Z 14
_cell_length_a 11.342700
_cell_length_b 15.268042
_cell_length_c 11.651887
_cell_angle_alpha 127.236803
_cell_angle_beta 112.836259
_cell_angle_gamma 25.485654
_cell_volume 613.209153
_symmetry_space_group_name_H-M "P -1"
_symmetry_group_IT_number 2
_symmetry_cell_setting 'triclinic'
loop_
_space_group_symop_operation_xyz
x,y,z
-x,-y,-z
loop_
_atom_site_type_symbol
_atom_site_label
_atom_site_fract_x
_atom_site_fract_y
_atom_site_fract_z
Si Si1 0.238048 0.647145 0.375749
Si Si2 0.182104 0.098064 0.967554
Si Si3 0.900245 0.019404 0.336537
Si Si4 0.143744 0.267239 0.885585
Si Si5 0.530932 0.299419 0.796050
Si Si6 0.328530 0.038270 0.536949
Si Si7 0.459740 0.735589 0.968849
O O1 0.296272 0.715509 0.518285
O O2 0.541790 0.366256 0.200422
O O3 0.970081 0.905330 0.392467
O O4 0.042508 0.702535 0.409339
O O5 0.253797 0.150919 0.962164
O O6 0.242962 0.953804 0.784451
O O7 0.352163 0.928261 0.013280
O O8 0.817742 0.384838 0.084206
O O9 0.237961 0.793300 0.242884
O O10 0.825970 0.448708 0.899051
O O11 0.354388 0.061830 0.697218
O O12 0.000000 0.500000 0.000000
O O13 0.527804 0.188085 0.635238
O O14 0.657738 0.180822 0.879985
O O15 0.500000 0.000000 0.500000
#
# Coordination Sequence:
#
# PCOD9078387 Si02
#       7
#     2   2   2   2   2   2   2
#     4   9  19  35  57  82 114 153 193 236 282 341
#     4  11  21  36  59  85 115 154 190 234 288 340
#     4  10  18  36  58  81 117 157 193 231 286 337
#     4  10  21  41  62  83 112 152 192 237 286 338
#     4  10  21  36  55  85 121 150 186 237 283 341
#     4  10  18  35  62  82 105 148 189 235 291 333
#     4  10  21  37  56  87 117 148 193 232 288 340
#
# _framework density 22.83071
#
# number of rings (size 3 to 8) (size 9 to 14) (size 15 to 20)
#    0.000    2.000    4.286    2.143    0.000    1.714 
#    0.000    4.286    0.000    6.000    0.000    0.000 
#    0.000    0.000    0.000    0.000    0.000    0.000 
#
# Total GULP energy -77944.904398 kJ/mol
# GULP energy per Si atom -5567.493171 kJ/mol
# Density = 2.277875 g / cm^3
# Si number density = 22.830710 Si / 1000 Ang^3
#
#
#
# Elastic Constant Matrix: (Units=GPa)
#
#
# Indices 1 2 3 4 5 6 
#
# 1 104.2489 18.2989 24.3247 -0.9371 -6.8795 19.7043
# 2 18.2989 102.8993 18.1838 6.0901 -6.7526 29.2083
# 3 24.3247 18.1838 102.6624 2.1964 2.5081 14.5871
# 4 -0.9371 6.0901 2.1964 9.5468 9.5682 1.8768
# 5 -6.8795 -6.7526 2.5081 9.5682 44.5084 -8.0147
# 6 19.7043 29.2083 14.5871 1.8768 -8.0147 24.9699
#
#
#
# Elastic Compliance Matrix: (Units=1/GPa)
#
#
# Indices 1 2 3 4 5 6 
#
# 1 0.011629 0.000655 -0.001597 0.003371 -0.000431 -0.009402
# 2 0.000655 0.014956 -0.000246 -0.006831 0.000772 -0.017106
# 3 -0.001597 -0.000246 0.010991 0.000610 -0.002038 -0.005573
# 4 0.003371 -0.006831 0.000610 0.148485 -0.035644 -0.017627
# 5 -0.000431 0.000772 -0.002038 -0.035644 0.032786 0.013830
# 6 -0.009402 -0.017106 -0.005573 -0.017627 0.013830 0.076496
#
#
# Mechanical properties :
#
#
# Convention : Reuss Voigt Hill
#
# Bulk Modulus (GPa) = 28.40957 47.93614 38.17286
# Shear Modulus (GPa) = 16.15751 32.40523 24.28137
#
# Velocity S-wave (km/s) = 2.66317 3.77154 3.26473
# Velocity P-wave (km/s) = 4.68265 6.32518 5.56485
#
# Compressibility (1/GPa) = 0.03519941
#
# Stress axis : x y z
#
# Youngs Moduli (GPa) = 85.99193 66.86326 90.98140
#
# Poissons Ratio (x) = -0.04380 0.14531
# Poissons Ratio (y) = -0.05633 0.02241
# Poissons Ratio (z) = 0.13734 0.01647
#
# Static dielectric constant tensor:
#      x y z
#    x 1.939910 -0.020050 0.067350 
#    y -0.020050 1.906690 -0.122660 
#    z 0.067350 -0.122660 2.037210 
# 
# From -- ./inp_files/259231.got.cif
#   From: 2010.05.17/outbox.cif.g08.bks.cpg/sg2_130_cif.got.tgz:259231.got - 2010.06.03 11:33:40.
