data_PCOD9078246
_publ_section_title
;
Structure prediction by ZEFSAII (Michael W. Deem and Ramdas Pophale) SiO2 
 PCOD9078246
Probable space group: P -1
;
_chemical_formula_sum "Si O2"
_cell_formula_units_Z 14
_cell_length_a 11.770208
_cell_length_b 7.162240
_cell_length_c 9.252119
_cell_angle_alpha 56.495693
_cell_angle_beta 100.467994
_cell_angle_gamma 122.245468
_cell_volume 542.976201
_symmetry_space_group_name_H-M "P -1"
_symmetry_group_IT_number 2
_symmetry_cell_setting 'triclinic'
loop_
_space_group_symop_operation_xyz
x,y,z
-x,-y,-z
loop_
_atom_site_type_symbol
_atom_site_label
_atom_site_fract_x
_atom_site_fract_y
_atom_site_fract_z
Si Si1 0.635433 0.855018 0.833757
Si Si2 0.325748 0.475573 0.264127
Si Si3 0.653363 0.361536 0.272783
Si Si4 0.124980 0.129111 0.080689
Si Si5 0.062273 0.401003 0.177704
Si Si6 0.619752 0.784987 0.204992
Si Si7 0.208088 0.926242 0.617810
O O1 0.637440 0.628672 0.828901
O O2 0.496916 0.821143 0.754193
O O3 0.801585 0.032549 0.801001
O O4 0.616055 0.828168 0.014200
O O5 0.470583 0.693016 0.267166
O O6 0.251476 0.213871 0.453901
O O7 0.221706 0.573111 0.179115
O O8 0.640229 0.536224 0.318426
O O9 0.711507 0.180819 0.406609
O O10 0.767721 0.587178 0.094303
O O11 0.065932 0.165351 0.198882
O O12 0.000000 0.000000 0.000000
O O13 0.951683 0.282188 0.328363
O O14 0.000000 0.500000 0.000000
O O15 0.732144 0.020467 0.227014
#
# Coordination Sequence:
#
# PCOD9078246 Si02
#       7
#     2   2   2   2   2   2   2
#     4   9  19  38  63  86 118 163 202 253 301 361
#     4  10  22  41  63  88 130 164 196 258 320 356
#     4  10  20  38  60  87 126 157 206 247 312 365
#     4  10  18  35  60  85 116 155 203 258 296 346
#     4  11  21  38  62  87 122 164 210 248 300 373
#     4  10  21  40  65  90 125 159 207 255 304 364
#     4  12  24  38  64  95 125 163 201 256 316 366
#
# _framework density 25.783818
#
# number of rings (size 3 to 8) (size 9 to 14) (size 15 to 20)
#    0.000    1.714    1.429    7.286    0.000    2.857 
#    2.571    0.000    3.143    5.143    0.000    0.000 
#    0.000    0.000    0.000    0.000    0.000    0.000 
#
# Total GULP energy -78022.322989 kJ/mol
# GULP energy per Si atom -5573.023071 kJ/mol
# Density = 2.572513 g / cm^3
# Si number density = 25.783818 Si / 1000 Ang^3
#
#
#
# Elastic Constant Matrix: (Units=GPa)
#
#
# Indices 1 2 3 4 5 6 
#
# 1 202.3336 41.2131 29.2855 -10.4866 11.9490 25.5673
# 2 41.2131 74.4915 7.3643 0.1085 0.6588 -2.0323
# 3 29.2855 7.3643 67.4312 -7.6642 0.4369 9.4527
# 4 -10.4866 0.1085 -7.6642 19.4413 -0.0044 0.4012
# 5 11.9490 0.6588 0.4369 -0.0044 29.3525 -3.3423
# 6 25.5673 -2.0323 9.4527 0.4012 -3.3423 36.0247
#
#
#
# Elastic Compliance Matrix: (Units=1/GPa)
#
#
# Indices 1 2 3 4 5 6 
#
# 1 0.006942 -0.003808 -0.001491 0.003283 -0.003298 -0.005093
# 2 -0.003808 0.015722 -0.000932 -0.002592 0.001668 0.004018
# 3 -0.001491 -0.000932 0.016730 0.005868 -0.000013 -0.003451
# 4 0.003283 -0.002592 0.005868 0.055634 -0.001905 -0.004812
# 5 -0.003298 0.001668 -0.000013 -0.001905 0.036034 0.005803
# 6 -0.005093 0.004018 -0.003451 -0.004812 0.005803 0.033098
#
#
# Mechanical properties :
#
#
# Convention : Reuss Voigt Hill
#
# Bulk Modulus (GPa) = 37.12916 55.55357 46.34136
# Shear Modulus (GPa) = 26.93985 34.72326 30.83156
#
# Velocity S-wave (km/s) = 3.23590 3.67373 3.46174
# Velocity P-wave (km/s) = 5.32849 6.29188 5.83012
#
# Compressibility (1/GPa) = 0.02693301
#
# Stress axis : x y z
#
# Youngs Moduli (GPa) = 144.04596 63.60542 59.77337
#
# Poissons Ratio (x) = 0.24221 0.08910
# Poissons Ratio (y) = 0.54853 0.05569
# Poissons Ratio (z) = 0.21473 0.05927
#
# Static dielectric constant tensor:
#      x y z
#    x 2.150810 0.058830 0.097900 
#    y 0.058830 2.106270 0.011640 
#    z 0.097900 0.011640 2.118120 
# 
# From -- ./inp_files/414134.got.cif
#   From: 2010.05.17/outbox.cif.g08.bks.cpg/sg2_208_cif.got.tgz:414134.got - 2010.06.03 11:33:40.
