data_PCOD9078107
_publ_section_title
;
Structure prediction by ZEFSAII (Michael W. Deem and Ramdas Pophale) SiO2 
 PCOD9078107
Probable space group: P -1
;
_chemical_formula_sum "Si O2"
_cell_formula_units_Z 16
_cell_length_a 9.378137
_cell_length_b 9.524295
_cell_length_c 9.546212
_cell_angle_alpha 75.561271
_cell_angle_beta 120.993883
_cell_angle_gamma 115.748294
_cell_volume 657.990850
_symmetry_space_group_name_H-M "P -1"
_symmetry_group_IT_number 2
_symmetry_cell_setting 'triclinic'
loop_
_space_group_symop_operation_xyz
x,y,z
-x,-y,-z
loop_
_atom_site_type_symbol
_atom_site_label
_atom_site_fract_x
_atom_site_fract_y
_atom_site_fract_z
Si Si1 0.042256 0.081443 0.802509
Si Si2 0.449809 0.541345 0.122676
Si Si3 0.834228 0.268877 0.527215
Si Si4 0.806359 0.865449 0.419979
Si Si5 0.182110 0.225643 0.136463
Si Si6 0.213992 0.440906 0.520448
Si Si7 0.466063 0.072312 0.320903
Si Si8 0.533087 0.121059 0.859492
O O1 0.977524 0.894421 0.821835
O O2 0.879984 0.134774 0.661961
O O3 0.190864 0.154849 0.742555
O O4 0.116415 0.161941 0.964244
O O5 0.264674 0.410668 0.117618
O O6 0.612734 0.530414 0.302211
O O7 0.424801 0.706744 0.098385
O O8 0.500000 0.500000 0.000000
O O9 0.788083 0.393376 0.569944
O O10 0.666925 0.197662 0.355808
O O11 0.020837 0.360885 0.518985
O O12 0.783909 0.707431 0.530418
O O13 0.630711 0.903553 0.328473
O O14 0.000000 0.000000 0.500000
O O15 0.349592 0.176568 0.265193
O O16 0.500000 0.000000 0.500000
O O17 0.359901 0.945616 0.180193
O O18 0.500000 0.000000 0.000000
#
# Coordination Sequence:
#
# PCOD9078107 Si02
#       8
#     2   2   2   2   2   2   2   2
#     4  10  21  38  61  87 118 165 203 249 305 379
#     4  11  21  39  62  93 125 161 209 258 315 368
#     4  10  18  35  58  88 119 158 207 250 306 367
#     4  10  20  38  58  85 123 157 206 250 312 360
#     4  11  22  39  64  87 123 164 205 248 316 372
#     4   9  19  32  57  87 121 154 207 254 301 362
#     4  12  23  40  65  93 125 167 207 255 315 373
#     4  11  24  40  64  94 125 159 211 262 305 374
#
# _framework density 24.316447
#
# number of rings (size 3 to 8) (size 9 to 14) (size 15 to 20)
#    0.000    1.500    2.500    5.250    0.000    0.000 
#    2.250    1.875    0.000    2.250    0.000    0.000 
#    0.000    0.000    0.000    0.000    0.000    0.000 
#
# Total GULP energy -89084.831899 kJ/mol
# GULP energy per Si atom -5567.801994 kJ/mol
# Density = 2.426110 g / cm^3
# Si number density = 24.316447 Si / 1000 Ang^3
#
#
#
# Elastic Constant Matrix: (Units=GPa)
#
#
# Indices 1 2 3 4 5 6 
#
# 1 36.5652 15.6195 -3.9608 -0.9898 -3.8515 4.3103
# 2 15.6195 202.8657 16.6379 -5.7602 -6.8278 -7.3358
# 3 -3.9608 16.6379 60.7003 6.6633 1.6627 -3.7028
# 4 -0.9898 -5.7602 6.6633 36.2817 2.8446 5.4775
# 5 -3.8515 -6.8278 1.6627 2.8446 39.6249 6.8610
# 6 4.3103 -7.3358 -3.7028 5.4775 6.8610 38.5313
#
#
#
# Elastic Compliance Matrix: (Units=1/GPa)
#
#
# Indices 1 2 3 4 5 6 
#
# 1 0.029472 -0.002489 0.002226 0.000389 0.003033 -0.004152
# 2 -0.002489 0.005335 -0.001684 0.000910 0.000525 0.000910
# 3 0.002226 -0.001684 0.017614 -0.003645 -0.000862 0.001795
# 4 0.000389 0.000910 -0.003645 0.029097 -0.001018 -0.004176
# 5 0.003033 0.000525 -0.000862 -0.001018 0.026582 -0.004911
# 6 -0.004152 0.000910 0.001795 -0.004176 -0.004911 0.028231
#
#
# Mechanical properties :
#
#
# Convention : Reuss Voigt Hill
#
# Bulk Modulus (GPa) = 20.60604 39.63607 30.12106
# Shear Modulus (GPa) = 31.96923 41.00988 36.48956
#
# Velocity S-wave (km/s) = 3.62984 4.11117 3.87798
# Velocity P-wave (km/s) = 5.10491 6.23467 5.69786
#
# Compressibility (1/GPa) = 0.04852946
#
# Stress axis : x y z
#
# Youngs Moduli (GPa) = 33.93033 187.42461 56.77197
#
# Poissons Ratio (x) = 0.46646 -0.12638
# Poissons Ratio (y) = 0.08444 0.09558
# Poissons Ratio (z) = -0.07553 0.31555
#
# Static dielectric constant tensor:
#      x y z
#    x 2.094230 -0.052300 -0.024650 
#    y -0.052300 2.136430 0.058970 
#    z -0.024650 0.058970 2.000230 
# 
# From -- ./inp_files/416966.got.cif
#   From: 2010.05.17/outbox.cif.g08.bks.cpg/sg2_209_cif.got.tgz:416966.got - 2010.06.03 11:33:40.
