data_PCOD9078811
_publ_section_title
;
Structure prediction by ZEFSAII (Michael W. Deem and Ramdas Pophale) SiO2 
 PCOD9078811
Probable space group: P -1
;
_chemical_formula_sum "Si O2"
_cell_formula_units_Z 12
_cell_length_a 8.277471
_cell_length_b 13.951749
_cell_length_c 8.548724
_cell_angle_alpha 119.258107
_cell_angle_beta 87.954428
_cell_angle_gamma 139.642220
_cell_volume 447.840021
_symmetry_space_group_name_H-M "P -1"
_symmetry_group_IT_number 2
_symmetry_cell_setting 'triclinic'
loop_
_space_group_symop_operation_xyz
x,y,z
-x,-y,-z
loop_
_atom_site_type_symbol
_atom_site_label
_atom_site_fract_x
_atom_site_fract_y
_atom_site_fract_z
Si Si1 0.713314 0.959211 0.277606
Si Si2 0.358967 0.848917 0.657956
Si Si3 0.973795 0.251304 0.100625
Si Si4 0.244859 0.222439 0.254743
Si Si5 0.617282 0.442450 0.937943
Si Si6 0.227263 0.575202 0.768296
O O1 0.617835 0.799138 0.258604
O O2 0.663250 0.059117 0.385309
O O3 0.465873 0.802089 0.014635
O O4 0.068819 0.147690 0.361277
O O5 0.129746 0.622719 0.423284
O O6 0.713913 0.032110 0.836153
O O7 0.198129 0.792550 0.782472
O O8 0.228780 0.321004 0.226208
O O9 0.140565 0.421262 0.101979
O O10 0.579067 0.363557 0.333906
O O11 0.000000 0.000000 0.000000
O O12 0.500000 0.500000 0.000000
O O13 0.773415 0.508452 0.151867
#
# Coordination Sequence:
#
# PCOD9078811 Si02
#       6
#     2   2   2   2   2   2
#     4   8  19  33  57  77 112 143 177 222 276 319
#     4  10  21  38  55  82 109 151 179 217 273 333
#     4  10  20  34  58  79 116 140 180 231 270 314
#     4   9  15  34  57  77 103 145 178 220 264 319
#     4  10  18  36  59  81 109 144 179 232 274 308
#     4   9  19  34  62  78 106 146 188 216 272 324
#
# _framework density 26.795283999999999
#
# number of rings (size 3 to 8) (size 9 to 14) (size 15 to 20)
#    1.000    1.667    1.667    0.000    0.000    4.000 
#    0.000   14.167   11.000    0.000    0.000    0.000 
#    0.000    0.000    0.000    0.000    0.000    0.000 
#
# Total GULP energy -66988.101568 kJ/mol
# GULP energy per Si atom -5582.341797 kJ/mol
# Density = 2.673430 g / cm^3
# Si number density = 26.795284 Si / 1000 Ang^3
#
#
#
# Elastic Constant Matrix: (Units=GPa)
#
#
# Indices 1 2 3 4 5 6 
#
# 1 73.5474 44.7741 31.4663 -2.0007 -0.1163 -11.1138
# 2 44.7741 197.4502 32.1723 7.0954 2.4409 -15.0759
# 3 31.4663 32.1723 91.4569 35.3777 0.0435 -0.1558
# 4 -2.0007 7.0954 35.3777 36.7522 -4.3196 4.4890
# 5 -0.1163 2.4409 0.0435 -4.3196 28.3584 -5.3974
# 6 -11.1138 -15.0759 -0.1558 4.4890 -5.3974 39.9979
#
#
#
# Elastic Compliance Matrix: (Units=1/GPa)
#
#
# Indices 1 2 3 4 5 6 
#
# 1 0.021026 -0.003207 -0.010744 0.012003 0.002899 0.003636
# 2 -0.003207 0.006048 -0.000663 -0.000926 -0.000400 0.001436
# 3 -0.010744 -0.000663 0.024172 -0.024062 -0.003873 -0.000963
# 4 0.012003 -0.000926 -0.024062 0.052354 0.007772 -0.001935
# 5 0.002899 -0.000400 -0.003873 0.007772 0.037416 0.004816
# 6 0.003636 0.001436 -0.000963 -0.001935 0.004816 0.027416
#
#
# Mechanical properties :
#
#
# Convention : Reuss Voigt Hill
#
# Bulk Modulus (GPa) = 45.41840 64.36444 54.89142
# Shear Modulus (GPa) = 24.39032 37.95782 31.17407
#
# Velocity S-wave (km/s) = 3.02030 3.76784 3.41459
# Velocity P-wave (km/s) = 5.39907 6.55757 6.00632
#
# Compressibility (1/GPa) = 0.02201751
#
# Stress axis : x y z
#
# Youngs Moduli (GPa) = 47.55964 165.35292 41.36988
#
# Poissons Ratio (x) = 0.53026 0.44449
# Poissons Ratio (y) = 0.15252 0.02744
# Poissons Ratio (z) = 0.51099 0.10966
#
# Static dielectric constant tensor:
#      x y z
#    x 2.207120 -0.044890 -0.042810 
#    y -0.044890 2.075430 0.002380 
#    z -0.042810 0.002380 2.074190 
# 
# From -- ./inp_files/239702.got.cif
#   From: 2010.05.17/outbox.cif.g08.bks.cpg/sg2_120_cif.got.tgz:239702.got - 2010.06.03 11:33:40.
