data_PCOD9078778
_publ_section_title
;
Structure prediction by ZEFSAII (Michael W. Deem and Ramdas Pophale) SiO2 
 PCOD9078778
Probable space group: P -1
;
_chemical_formula_sum "Si O2"
_cell_formula_units_Z 14
_cell_length_a 14.493165
_cell_length_b 6.838490
_cell_length_c 14.611651
_cell_angle_alpha 77.782788
_cell_angle_beta 29.411210
_cell_angle_gamma 61.860062
_cell_volume 556.793779
_symmetry_space_group_name_H-M "P -1"
_symmetry_group_IT_number 2
_symmetry_cell_setting 'triclinic'
loop_
_space_group_symop_operation_xyz
x,y,z
-x,-y,-z
loop_
_atom_site_type_symbol
_atom_site_label
_atom_site_fract_x
_atom_site_fract_y
_atom_site_fract_z
Si Si1 0.802667 0.562640 0.312599
Si Si2 0.645028 0.319392 0.739996
Si Si3 0.073976 0.986985 0.768188
Si Si4 0.708230 0.791724 0.000178
Si Si5 0.874763 0.089383 0.740239
Si Si6 0.389791 0.671174 0.768100
Si Si7 0.427925 0.206759 0.687294
O O1 0.555039 0.714852 0.564651
O O2 0.762692 0.693994 0.237339
O O3 0.856123 0.291515 0.274744
O O4 0.035877 0.471880 0.175807
O O5 0.472645 0.239647 0.889552
O O6 0.724244 0.309072 0.775786
O O7 0.516505 0.568025 0.767156
O O8 0.881494 0.118856 0.499819
O O9 0.315639 0.954294 0.564757
O O10 0.949268 0.135174 0.767126
O O11 0.881591 0.118450 0.000046
O O12 0.612391 0.895381 0.175997
O O13 0.747733 0.964372 0.890053
O O14 0.405813 0.446549 0.725118
#
# Coordination Sequence:
#
# PCOD9078778 Si02
#       7
#     2   2   2   2   2   2   2
#     4  10  20  35  55  82 112 148 185 224 275 324
#     4  10  19  35  59  83 109 146 184 224 278 328
#     4  10  19  35  57  82 115 144 185 229 271 325
#     4  10  18  36  58  84 112 144 180 234 270 326
#     4  10  19  35  59  83 109 146 184 224 278 328
#     4  10  19  35  57  82 115 144 185 229 271 325
#     4  10  20  35  55  82 112 148 185 224 275 324
#
# _framework density 25.143955999999999
#
# number of rings (size 3 to 8) (size 9 to 14) (size 15 to 20)
#    0.000    2.000    5.714    2.571    0.000    2.857 
#    0.000    5.714    0.000   10.286    0.000    0.000 
#    0.000    0.000    0.000    0.000    0.000    0.000 
#
# Total GULP energy -78381.336695 kJ/mol
# GULP energy per Si atom -5598.666907 kJ/mol
# Density = 2.508673 g / cm^3
# Si number density = 25.143956 Si / 1000 Ang^3
#
#
#
# Elastic Constant Matrix: (Units=GPa)
#
#
# Indices 1 2 3 4 5 6 
#
# 1 91.7805 69.5344 25.0692 13.8193 -22.7998 -49.8901
# 2 69.5344 52.3298 26.9174 -19.6313 8.5999 -0.0915
# 3 25.0692 26.9174 206.0039 2.7519 14.3412 6.8743
# 4 13.8193 -19.6313 2.7519 21.6812 38.4533 -3.1136
# 5 -22.7998 8.5999 14.3412 38.4533 -10.2772 -7.1137
# 6 -49.8901 -0.0915 6.8743 -3.1136 -7.1137 47.1528
#
#
#
# Elastic Compliance Matrix: (Units=1/GPa)
#
#
# Indices 1 2 3 4 5 6 
#
# 1 0.056922 -0.052121 0.002082 0.037271 -0.063968 0.052633
# 2 -0.052121 0.066868 -0.005184 -0.034094 0.068727 -0.046144
# 3 0.002082 -0.005184 0.005498 -0.000431 -0.003477 0.000838
# 4 0.037271 -0.034094 -0.000431 0.031792 -0.019565 0.038579
# 5 -0.063968 0.068727 -0.003477 -0.019565 0.064612 -0.058585
# 6 0.052633 -0.046144 0.000838 0.038579 -0.058585 0.070393
#
#
# Mechanical properties :
#
#
# Convention : Reuss Voigt Hill
#
# Bulk Modulus (GPa) = 53.07013 65.90624 59.48819
# Shear Modulus (GPa) = 12.11207 26.95090 19.53149
#
# Velocity S-wave (km/s) = 2.19717 3.27749 2.79011
# Velocity P-wave (km/s) = 5.25253 6.37111 5.83867
#
# Compressibility (1/GPa) = 0.01884299
#
# Stress axis : x y z
#
# Youngs Moduli (GPa) = 17.56781 14.95489 181.88273
#
# Poissons Ratio (x) = 0.77947 -0.37873
# Poissons Ratio (y) = 0.91566 0.94281
# Poissons Ratio (z) = -0.03658 0.07752
#
# Static dielectric constant tensor:
#      x y z
#    x 1.969790 0.063170 0.019370 
#    y 0.063170 2.023900 0.025310 
#    z 0.019370 0.025310 1.992710 
# 
# From -- ./inp_files/528450.got.cif
#   From: 2010.05.17/outbox.cif.g08.bks.cpg/sg2_265_cif.got.tgz:528450.got - 2010.06.03 11:33:40.
