data_PCOD9078474
_publ_section_title
;
Structure prediction by ZEFSAII (Michael W. Deem and Ramdas Pophale) SiO2 
 PCOD9078474
Probable space group: P -1
;
_chemical_formula_sum "Si O2"
_cell_formula_units_Z 16
_cell_length_a 19.814692
_cell_length_b 7.246524
_cell_length_c 7.263204
_cell_angle_alpha 88.810284
_cell_angle_beta 53.648470
_cell_angle_gamma 66.214249
_cell_volume 734.114870
_symmetry_space_group_name_H-M "P -1"
_symmetry_group_IT_number 2
_symmetry_cell_setting 'triclinic'
loop_
_space_group_symop_operation_xyz
x,y,z
-x,-y,-z
loop_
_atom_site_type_symbol
_atom_site_label
_atom_site_fract_x
_atom_site_fract_y
_atom_site_fract_z
Si Si1 0.471278 0.736292 0.981838
Si Si2 0.905324 0.512399 0.072605
Si Si3 0.401508 0.103965 0.356040
Si Si4 0.730579 0.161424 0.649501
Si Si5 0.129053 0.033871 0.285994
Si Si6 0.741853 0.978655 0.243520
Si Si7 0.227147 0.463983 0.410983
Si Si8 0.078130 0.655871 0.356452
O O1 0.360432 0.834493 0.106374
O O2 0.468908 0.877218 0.158516
O O3 0.500000 0.500000 0.000000
O O4 0.539220 0.769701 0.726972
O O5 0.829815 0.756122 0.164186
O O6 0.854121 0.431549 0.301975
O O7 0.000000 0.500000 0.000000
O O8 0.920587 0.400073 0.856083
O O9 0.349427 0.062276 0.613626
O O10 0.313342 0.246733 0.354436
O O11 0.828432 0.976727 0.579482
O O12 0.729537 0.379521 0.690102
O O13 0.722614 0.134678 0.444342
O O14 0.100646 0.849445 0.329525
O O15 0.031531 0.250957 0.397848
O O16 0.216521 0.970834 0.005391
O O17 0.164444 0.469285 0.335754
#
# Coordination Sequence:
#
# PCOD9078474 Si02
#       8
#     2   2   2   2   2   2   2   2
#     4  10  18  35  63  89 117 153 194 245 298 356
#     4  11  22  34  52  81 116 156 196 243 292 345
#     4   9  20  35  57  94 118 149 201 239 297 360
#     4  10  20  36  62  84 112 160 193 245 299 347
#     4  10  21  38  57  85 117 155 205 243 290 347
#     4  10  21  35  55  83 119 152 192 246 291 353
#     4  10  20  37  58  84 118 153 201 241 292 349
#     4  10  22  37  58  83 117 161 201 243 287 350
#
# _framework density 21.794957
#
# number of rings (size 3 to 8) (size 9 to 14) (size 15 to 20)
#    0.000    2.000    1.250    2.250    0.000    5.000 
#    0.000    5.625    0.000    7.500    0.000    0.000 
#    0.000    0.000    0.000    0.000    0.000    0.000 
#
# Total GULP energy -89251.481736 kJ/mol
# GULP energy per Si atom -5578.217609 kJ/mol
# Density = 2.174535 g / cm^3
# Si number density = 21.794957 Si / 1000 Ang^3
#
#
#
# Elastic Constant Matrix: (Units=GPa)
#
#
# Indices 1 2 3 4 5 6 
#
# 1 86.9079 2.1775 43.0518 -3.6473 -9.2518 6.8163
# 2 2.1775 56.2020 0.2400 0.1280 -16.1558 8.4850
# 3 43.0518 0.2400 131.4429 -14.1929 -23.0571 6.5661
# 4 -3.6473 0.1280 -14.1929 30.8890 4.3520 -6.3636
# 5 -9.2518 -16.1558 -23.0571 4.3520 32.4008 -6.7702
# 6 6.8163 8.4850 6.5661 -6.3636 -6.7702 17.8115
#
#
#
# Elastic Compliance Matrix: (Units=1/GPa)
#
#
# Indices 1 2 3 4 5 6 
#
# 1 0.014020 0.000165 -0.004490 -0.001296 0.000191 -0.004179
# 2 0.000165 0.022208 0.002014 -0.002368 0.011206 -0.007972
# 3 -0.004490 0.002014 0.010642 0.003522 0.006978 0.000747
# 4 -0.001296 -0.002368 0.003522 0.036696 -0.001267 0.012955
# 5 0.000191 0.011206 0.006978 -0.001267 0.043319 0.008029
# 6 -0.004179 -0.007972 0.000747 0.012955 0.008029 0.068946
#
#
# Mechanical properties :
#
#
# Convention : Reuss Voigt Hill
#
# Bulk Modulus (GPa) = 23.67027 40.61015 32.14021
# Shear Modulus (GPa) = 23.30605 31.49251 27.39928
#
# Velocity S-wave (km/s) = 3.27361 3.80537 3.54946
# Velocity P-wave (km/s) = 5.01724 6.16287 5.61933
#
# Compressibility (1/GPa) = 0.04224710
#
# Stress axis : x y z
#
# Youngs Moduli (GPa) = 71.32522 45.02861 93.96863
#
# Poissons Ratio (x) = -0.00742 0.42192
# Poissons Ratio (y) = -0.01176 -0.18922
# Poissons Ratio (z) = 0.32025 -0.09067
#
# Static dielectric constant tensor:
#      x y z
#    x 1.810720 0.003790 -0.017420 
#    y 0.003790 1.822570 -0.024360 
#    z -0.017420 -0.024360 1.868310 
# 
# From -- ./inp_files/351406.got.cif
#   From: 2010.05.17/outbox.cif.g08.bks.cpg/sg2_176_cif.got.tgz:351406.got - 2010.06.03 11:33:40.
