data_PCOD9078632
_publ_section_title
;
Structure prediction by ZEFSAII (Michael W. Deem and Ramdas Pophale) SiO2 
 PCOD9078632
Probable space group: P -1
;
_chemical_formula_sum "Si O2"
_cell_formula_units_Z 16
_cell_length_a 8.662779
_cell_length_b 10.533666
_cell_length_c 16.959254
_cell_angle_alpha 30.162748
_cell_angle_beta 62.438494
_cell_angle_gamma 76.797250
_cell_volume 636.092889
_symmetry_space_group_name_H-M "P -1"
_symmetry_group_IT_number 2
_symmetry_cell_setting 'triclinic'
loop_
_space_group_symop_operation_xyz
x,y,z
-x,-y,-z
loop_
_atom_site_type_symbol
_atom_site_label
_atom_site_fract_x
_atom_site_fract_y
_atom_site_fract_z
Si Si1 0.699131 0.855704 0.211105
Si Si2 0.519253 0.099191 0.256608
Si Si3 0.876934 0.144032 0.603602
Si Si4 0.759688 0.386380 0.248958
Si Si5 0.876584 0.585240 0.897810
Si Si6 0.720009 0.503033 0.536321
Si Si7 0.047615 0.568967 0.204138
Si Si8 0.635352 0.799141 0.531365
O O1 0.780723 0.695063 0.340128
O O2 0.508312 0.642332 0.333154
O O3 0.616515 0.014171 0.206347
O O4 0.835481 0.106060 0.991704
O O5 0.306266 0.009944 0.327589
O O6 0.548346 0.928198 0.413997
O O7 0.666107 0.406163 0.072393
O O8 0.810483 0.280683 0.618972
O O9 0.016840 0.381721 0.387527
O O10 0.930023 0.891289 0.749360
O O11 0.842513 0.522020 0.240504
O O12 0.558173 0.402918 0.272719
O O13 0.946693 0.515311 0.079900
O O14 0.730786 0.063229 0.423009
O O15 0.869805 0.562342 0.815068
O O16 0.750716 0.660212 0.527536
#
# Coordination Sequence:
#
# PCOD9078632 Si02
#       8
#     2   2   2   2   2   2   2   2
#     4   8  16  30  46  72 104 124 164 199 252 293
#     4   9  16  30  50  74 101 127 162 208 248 288
#     4  11  18  31  50  75 108 131 158 197 258 301
#     4   9  20  33  52  74  96 131 168 208 243 286
#     4   9  19  31  48  78 100 130 167 203 244 290
#     4   9  19  31  49  72 103 136 156 199 251 304
#     4   9  18  31  48  78  98 128 163 210 244 281
#     4  10  18  36  52  72  98 133 166 203 252 287
#
# _framework density 25.153559999999999
#
# number of rings (size 3 to 8) (size 9 to 14) (size 15 to 20)
#    0.750    2.000    1.250    1.500    0.000    1.000 
#    0.000    0.625    0.000    0.000    0.000    2.625 
#    0.000    0.000    0.000    0.000    0.000    0.000 
#
# Total GULP energy -89157.979917 kJ/mol
# GULP energy per Si atom -5572.373745 kJ/mol
# Density = 2.509631 g / cm^3
# Si number density = 25.153560 Si / 1000 Ang^3
#
#
#
# Elastic Constant Matrix: (Units=GPa)
#
#
# Indices 1 2 3 4 5 6 
#
# 1 55.7897 13.4145 37.6368 -4.7267 -3.2765 9.1886
# 2 13.4145 120.8593 45.7602 -7.7619 4.3324 -12.4655
# 3 37.6368 45.7602 148.4367 -10.6721 -9.8915 4.8909
# 4 -4.7267 -7.7619 -10.6721 42.1448 1.6016 -5.2844
# 5 -3.2765 4.3324 -9.8915 1.6016 17.9444 -16.4756
# 6 9.1886 -12.4655 4.8909 -5.2844 -16.4756 36.5794
#
#
#
# Elastic Compliance Matrix: (Units=1/GPa)
#
#
# Indices 1 2 3 4 5 6 
#
# 1 0.022959 -0.001018 -0.005635 0.000179 -0.006109 -0.008086
# 2 -0.001018 0.010015 -0.002897 0.001520 -0.000701 0.003960
# 3 -0.005635 -0.002897 0.009546 0.001302 0.007179 0.002574
# 4 0.000179 0.001520 0.001302 0.024901 0.002963 0.005231
# 5 -0.006109 -0.000701 0.007179 0.002963 0.100903 0.046211
# 6 -0.008086 0.003960 0.002574 0.005231 0.046211 0.051944
#
#
# Mechanical properties :
#
#
# Convention : Reuss Voigt Hill
#
# Bulk Modulus (GPa) = 42.70040 57.63430 50.16735
# Shear Modulus (GPa) = 20.22849 34.55199 27.39024
#
# Velocity S-wave (km/s) = 2.83892 3.71029 3.30346
# Velocity P-wave (km/s) = 5.26865 6.42789 5.87692
#
# Compressibility (1/GPa) = 0.02341898
#
# Stress axis : x y z
#
# Youngs Moduli (GPa) = 43.55555 99.84793 104.75491
#
# Poissons Ratio (x) = 0.10167 0.59033
# Poissons Ratio (y) = 0.04435 0.30350
# Poissons Ratio (z) = 0.24545 0.28928
#
# Static dielectric constant tensor:
#      x y z
#    x 2.118510 -0.010330 -0.094280 
#    y -0.010330 2.021990 0.063800 
#    z -0.094280 0.063800 2.185590 
# 
# From -- ./inp_files/594896.got.cif
#   From: 2010.05.17/outbox.cif.g08.bks.cpg/sg2_298_cif.got.tgz:594896.got - 2010.06.03 11:33:40.
