data_PCOD9078432
_publ_section_title
;
Structure prediction by ZEFSAII (Michael W. Deem and Ramdas Pophale) SiO2 
 PCOD9078432
Probable space group: P -1
;
_chemical_formula_sum "Si O2"
_cell_formula_units_Z 16
_cell_length_a 11.786694
_cell_length_b 9.332490
_cell_length_c 11.184176
_cell_angle_alpha 64.353601
_cell_angle_beta 103.275650
_cell_angle_gamma 62.222383
_cell_volume 825.372067
_symmetry_space_group_name_H-M "P -1"
_symmetry_group_IT_number 2
_symmetry_cell_setting 'triclinic'
loop_
_space_group_symop_operation_xyz
x,y,z
-x,-y,-z
loop_
_atom_site_type_symbol
_atom_site_label
_atom_site_fract_x
_atom_site_fract_y
_atom_site_fract_z
Si Si1 0.515782 0.651584 0.339972
Si Si2 0.719560 0.169055 0.599340
Si Si3 0.835989 0.068667 0.402453
Si Si4 0.076427 0.271009 0.648697
Si Si5 0.000937 0.050097 0.844601
Si Si6 0.350470 0.674348 0.062388
Si Si7 0.656605 0.779788 0.150852
Si Si8 0.349755 0.477738 0.929787
O O1 0.638765 0.413358 0.495719
O O2 0.404642 0.816640 0.356610
O O3 0.403861 0.657801 0.216223
O O4 0.611199 0.698908 0.274901
O O5 0.749445 0.100470 0.493369
O O6 0.883553 0.040998 0.748829
O O7 0.738215 0.294976 0.233644
O O8 0.871442 0.888033 0.391044
O O9 0.000000 0.000000 0.500000
O O10 0.970487 0.255688 0.715421
O O11 0.220613 0.202633 0.783895
O O12 0.000000 0.500000 0.500000
O O13 0.179702 0.876598 0.923891
O O14 0.000000 0.000000 0.000000
O O15 0.476087 0.661109 0.022576
O O16 0.353509 0.497308 0.066034
O O17 0.713966 0.624738 0.108307
O O18 0.500000 0.000000 0.000000
#
# Coordination Sequence:
#
# PCOD9078432 Si02
#       8
#     2   2   2   2   2   2   2   2
#     4  10  21  38  60  93 123 168 204 263 315 377
#     4  11  21  37  64  89 124 159 221 266 303 365
#     4  12  21  38  65  94 123 166 223 266 305 378
#     4  12  25  41  65  96 131 165 209 267 330 378
#     4  12  23  38  65  96 122 165 214 259 309 383
#     4  10  18  35  62  92 118 157 217 261 301 361
#     4  11  23  37  60  92 133 161 202 257 328 373
#     4  10  20  36  62  89 124 157 219 258 303 371
#
# _framework density 19.385197000000002
#
# number of rings (size 3 to 8) (size 9 to 14) (size 15 to 20)
#    0.000    1.000    6.250    3.000    1.750    0.000 
#    0.000    0.625    2.750    1.500    0.000    0.000 
#    0.000    0.000    0.000    0.000    0.000    0.000 
#
# Total GULP energy -89174.165928 kJ/mol
# GULP energy per Si atom -5573.385370 kJ/mol
# Density = 1.934108 g / cm^3
# Si number density = 19.385197 Si / 1000 Ang^3
#
#
#
# Elastic Constant Matrix: (Units=GPa)
#
#
# Indices 1 2 3 4 5 6 
#
# 1 51.3479 26.6348 -3.1806 10.9997 3.4321 -1.0415
# 2 26.6348 122.4213 22.9568 20.3175 -1.3301 8.4185
# 3 -3.1806 22.9568 59.8375 0.5954 10.8050 -4.6818
# 4 10.9997 20.3175 0.5954 39.5456 -4.8589 2.4004
# 5 3.4321 -1.3301 10.8050 -4.8589 42.6729 6.1432
# 6 -1.0415 8.4185 -4.6818 2.4004 6.1432 30.1129
#
#
#
# Elastic Compliance Matrix: (Units=1/GPa)
#
#
# Indices 1 2 3 4 5 6 
#
# 1 0.024109 -0.005700 0.004669 -0.004666 -0.004469 0.004437
# 2 -0.005700 0.011349 -0.005401 -0.003600 0.002405 -0.004413
# 3 0.004669 -0.005401 0.020732 -0.000040 -0.006700 0.006265
# 4 -0.004666 -0.003600 -0.000040 0.029054 0.003909 -0.002274
# 5 -0.004469 0.002405 -0.006700 0.003909 0.027120 -0.007713
# 6 0.004437 -0.004413 0.006265 -0.002274 -0.007713 0.037324
#
#
# Mechanical properties :
#
#
# Convention : Reuss Voigt Hill
#
# Bulk Modulus (GPa) = 23.08052 36.26985 29.67519
# Shear Modulus (GPa) = 28.24943 34.94599 31.59771
#
# Velocity S-wave (km/s) = 3.82156 4.25045 4.04170
# Velocity P-wave (km/s) = 5.60397 6.54516 6.09277
#
# Compressibility (1/GPa) = 0.04332657
#
# Stress axis : x y z
#
# Youngs Moduli (GPa) = 41.47782 88.11679 48.23356
#
# Poissons Ratio (x) = 0.50228 -0.22520
# Poissons Ratio (y) = 0.23643 0.26049
# Poissons Ratio (z) = -0.19366 0.47589
#
# Static dielectric constant tensor:
#      x y z
#    x 1.754370 -0.056720 -0.069260 
#    y -0.056720 1.763780 0.043090 
#    z -0.069260 0.043090 1.773340 
# 
# From -- ./inp_files/416900.got.cif
#   From: 2010.05.17/outbox.cif.g08.bks.cpg/sg2_209_cif.got.tgz:416900.got - 2010.06.03 11:33:40.
