data_PCOD9078425
_publ_section_title
;
Structure prediction by ZEFSAII (Michael W. Deem and Ramdas Pophale) SiO2 
 PCOD9078425
Probable space group: P -1
;
_chemical_formula_sum "Si O2"
_cell_formula_units_Z 14
_cell_length_a 7.793795
_cell_length_b 17.281362
_cell_length_c 8.417984
_cell_angle_alpha 147.086971
_cell_angle_beta 113.132858
_cell_angle_gamma 58.155249
_cell_volume 520.247823
_symmetry_space_group_name_H-M "P -1"
_symmetry_group_IT_number 2
_symmetry_cell_setting 'triclinic'
loop_
_space_group_symop_operation_xyz
x,y,z
-x,-y,-z
loop_
_atom_site_type_symbol
_atom_site_label
_atom_site_fract_x
_atom_site_fract_y
_atom_site_fract_z
Si Si1 0.313880 0.914206 0.688907
Si Si2 0.568703 0.273032 0.276007
Si Si3 0.922633 0.250287 0.814077
Si Si4 0.287927 0.992528 0.356539
Si Si5 0.663911 0.487693 0.895445
Si Si6 0.236831 0.237546 0.518094
Si Si7 0.866966 0.723589 0.781787
O O1 0.309240 0.840062 0.729647
O O2 0.251221 0.816159 0.366164
O O3 0.548428 0.872810 0.673189
O O4 0.180251 0.093937 0.942896
O O5 0.596005 0.427773 0.607568
O O6 0.334584 0.291856 0.246393
O O7 0.661721 0.179650 0.987672
O O8 0.868083 0.363678 0.837802
O O9 0.123128 0.092681 0.596126
O O10 0.953513 0.336767 0.129470
O O11 0.191115 0.110652 0.378477
O O12 0.500000 0.000000 0.500000
O O13 0.500000 0.500000 0.000000
O O14 0.706025 0.640789 0.150532
O O15 0.097580 0.329847 0.480031
#
# Coordination Sequence:
#
# PCOD9078425 Si02
#       7
#     2   2   2   2   2   2   2
#     4  10  18  35  62  91 118 156 211 251 295 355
#     4  10  19  37  64  87 122 160 200 248 312 356
#     4  11  24  35  63  93 130 155 205 258 306 360
#     4  12  23  41  65  95 123 161 203 261 310 362
#     4  11  22  41  62  90 126 167 204 251 304 365
#     4  11  21  40  67  86 125 167 203 249 310 364
#     4  11  18  36  63  97 115 159 214 255 296 362
#
# _framework density 26.910250999999999
#
# number of rings (size 3 to 8) (size 9 to 14) (size 15 to 20)
#    0.000    1.143    8.571    1.286    0.000    3.429 
#    0.000    0.714    0.000    0.000    0.000    0.000 
#    0.000    0.000    0.000    0.000    0.000    0.000 
#
# Total GULP energy -78273.689790 kJ/mol
# GULP energy per Si atom -5590.977842 kJ/mol
# Density = 2.684900 g / cm^3
# Si number density = 26.910251 Si / 1000 Ang^3
#
#
#
# Elastic Constant Matrix: (Units=GPa)
#
#
# Indices 1 2 3 4 5 6 
#
# 1 31.9349 0.2631 2.3791 -8.8458 -0.5199 -19.7662
# 2 0.2631 66.2195 10.0069 -16.0419 2.7696 -16.2441
# 3 2.3791 10.0069 160.7243 -19.5787 18.2812 -9.4246
# 4 -8.8458 -16.0419 -19.5787 57.1803 -2.8549 8.4703
# 5 -0.5199 2.7696 18.2812 -2.8549 37.6051 0.2648
# 6 -19.7662 -16.2441 -9.4246 8.4703 0.2648 30.5912
#
#
#
# Elastic Compliance Matrix: (Units=1/GPa)
#
#
# Indices 1 2 3 4 5 6 
#
# 1 0.060065 0.011898 0.001845 0.006731 -0.000740 0.043840
# 2 0.011898 0.020531 0.000320 0.005087 -0.001239 0.017291
# 3 0.001845 0.000320 0.006980 0.002168 -0.003248 0.002940
# 4 0.006731 0.005087 0.002168 0.020403 0.000199 0.002067
# 5 -0.000740 -0.001239 -0.003248 0.000199 0.028284 -0.002437
# 6 0.043840 0.017291 0.002940 0.002067 -0.002437 0.070552
#
#
# Mechanical properties :
#
#
# Convention : Reuss Voigt Hill
#
# Bulk Modulus (GPa) = 8.64277 31.57524 20.10900
# Shear Modulus (GPa) = 23.01411 41.49064 32.25238
#
# Velocity S-wave (km/s) = 2.92758 3.93086 3.46572
# Velocity P-wave (km/s) = 3.82705 5.68869 4.84807
#
# Compressibility (1/GPa) = 0.11570369
#
# Stress axis : x y z
#
# Youngs Moduli (GPa) = 16.64850 48.70590 143.25689
#
# Poissons Ratio (x) = -0.57951 -0.26429
# Poissons Ratio (y) = -0.19809 -0.04585
# Poissons Ratio (z) = -0.03071 -0.01559
#
# Static dielectric constant tensor:
#      x y z
#    x 2.186050 0.000440 -0.039000 
#    y 0.000440 2.123470 -0.043880 
#    z -0.039000 -0.043880 2.176670 
# 
# From -- ./inp_files/176844.got.cif
#   From: 2010.05.17/outbox.cif.g08.bks.cpg/sg2_89_cif.got.tgz:176844.got - 2010.06.03 11:33:40.
