data_PCOD9078600
_publ_section_title
;
Structure prediction by ZEFSAII (Michael W. Deem and Ramdas Pophale) SiO2 
 PCOD9078600
Probable space group: P -1
;
_chemical_formula_sum "Si O2"
_cell_formula_units_Z 14
_cell_length_a 17.501753
_cell_length_b 9.361853
_cell_length_c 16.513920
_cell_angle_alpha 144.395272
_cell_angle_beta 22.741179
_cell_angle_gamma 132.068465
_cell_volume 569.360321
_symmetry_space_group_name_H-M "P -1"
_symmetry_group_IT_number 2
_symmetry_cell_setting 'triclinic'
loop_
_space_group_symop_operation_xyz
x,y,z
-x,-y,-z
loop_
_atom_site_type_symbol
_atom_site_label
_atom_site_fract_x
_atom_site_fract_y
_atom_site_fract_z
Si Si1 0.031296 0.481348 0.301181
Si Si2 0.205300 0.244101 0.698029
Si Si3 0.250672 0.065343 0.326205
Si Si4 0.841780 0.082812 0.267832
Si Si5 0.974031 0.087995 0.387491
Si Si6 0.450003 0.771997 0.767277
Si Si7 0.605306 0.506045 0.157807
O O1 0.952251 0.246329 0.289402
O O2 0.094053 0.612825 0.378773
O O3 0.839610 0.712259 0.550620
O O4 0.217684 0.405350 0.017718
O O5 0.406178 0.287583 0.480984
O O6 0.195170 0.152639 0.757133
O O7 0.173459 0.000980 0.568637
O O8 0.000000 0.500000 0.000000
O O9 0.052615 0.060340 0.571497
O O10 0.411079 0.127043 0.258962
O O11 0.354560 0.776350 0.054661
O O12 0.618211 0.282534 0.549665
O O13 0.000000 0.000000 0.000000
O O14 0.217448 0.979144 0.073156
O O15 0.404064 0.548079 0.762090
#
# Coordination Sequence:
#
# PCOD9078600 Si02
#       7
#     2   2   2   2   2   2   2
#     4  11  21  40  71 107 138 163 226 276 328 397
#     4  11  28  47  63  91 137 183 226 271 336 402
#     4  10  18  35  67 111 136 167 215 272 332 398
#     4  12  28  46  66  94 136 181 225 283 327 391
#     4  10  21  39  69 103 130 174 218 272 331 397
#     4  11  19  36  70  98 131 173 217 269 331 394
#     4  11  20  37  71 103 131 170 225 273 328 389
#
# _framework density 24.588996999999999
#
# number of rings (size 3 to 8) (size 9 to 14) (size 15 to 20)
#    0.000    1.143    4.286    3.000    2.000    2.857 
#    0.000   10.000    0.000    0.000    0.000    0.000 
#    0.000    0.000    0.000    0.000    0.000    0.000 
#
# Total GULP energy -78343.794009 kJ/mol
# GULP energy per Si atom -5595.985286 kJ/mol
# Density = 2.453303 g / cm^3
# Si number density = 24.588997 Si / 1000 Ang^3
#
#
#
# Elastic Constant Matrix: (Units=GPa)
#
#
# Indices 1 2 3 4 5 6 
#
# 1 59.1527 27.0979 25.0902 -4.1927 15.6897 4.3020
# 2 27.0979 170.2234 66.1340 -30.2219 12.1859 -12.5087
# 3 25.0902 66.1340 178.5361 -42.0710 -0.8353 -23.5141
# 4 -4.1927 -30.2219 -42.0710 44.6929 -4.0057 4.6131
# 5 15.6897 12.1859 -0.8353 -4.0057 34.8359 -6.2279
# 6 4.3020 -12.5087 -23.5141 4.6131 -6.2279 47.4926
#
#
#
# Elastic Compliance Matrix: (Units=1/GPa)
#
#
# Indices 1 2 3 4 5 6 
#
# 1 0.022736 -0.002349 -0.003977 -0.003589 -0.010952 -0.005735
# 2 -0.002349 0.007590 -0.001605 0.003204 -0.001095 0.000962
# 3 -0.003977 -0.001605 0.008960 0.006908 0.004121 0.004243
# 4 -0.003589 0.003204 0.006908 0.030894 0.004606 0.002192
# 5 -0.010952 -0.001095 0.004121 0.004606 0.035902 0.007004
# 6 -0.005735 0.000962 0.004243 0.002192 0.007004 0.024635
#
#
# Mechanical properties :
#
#
# Convention : Reuss Voigt Hill
#
# Bulk Modulus (GPa) = 42.69030 71.61738 57.15384
# Shear Modulus (GPa) = 32.38593 44.71030 38.54811
#
# Velocity S-wave (km/s) = 3.63311 4.26878 3.96371
# Velocity P-wave (km/s) = 5.91596 7.31339 6.65148
#
# Compressibility (1/GPa) = 0.02342452
#
# Stress axis : x y z
#
# Youngs Moduli (GPa) = 43.98319 131.75286 111.60118
#
# Poissons Ratio (x) = 0.30944 0.44389
# Poissons Ratio (y) = 0.10330 0.17910
# Poissons Ratio (z) = 0.17494 0.21144
#
# Static dielectric constant tensor:
#      x y z
#    x 2.042130 0.036620 0.062790 
#    y 0.036620 1.955590 -0.028270 
#    z 0.062790 -0.028270 1.904930 
# 
# From -- ./inp_files/427782.got.cif
#   From: 2010.05.17/outbox.cif.g08.bks.cpg/sg2_214_cif.got.tgz:427782.got - 2010.06.03 11:33:40.
