data_PCOD9078593
_publ_section_title
;
Structure prediction by ZEFSAII (Michael W. Deem and Ramdas Pophale) SiO2 
 PCOD9078593
Probable space group: P -1
;
_chemical_formula_sum "Si O2"
_cell_formula_units_Z 16
_cell_length_a 24.983878
_cell_length_b 14.754117
_cell_length_c 19.280059
_cell_angle_alpha 149.366750
_cell_angle_beta 20.796245
_cell_angle_gamma 160.742643
_cell_volume 817.259906
_symmetry_space_group_name_H-M "P -1"
_symmetry_group_IT_number 2
_symmetry_cell_setting 'triclinic'
loop_
_space_group_symop_operation_xyz
x,y,z
-x,-y,-z
loop_
_atom_site_type_symbol
_atom_site_label
_atom_site_fract_x
_atom_site_fract_y
_atom_site_fract_z
Si Si1 0.224971 0.723920 0.013872
Si Si2 0.209238 0.293180 0.136027
Si Si3 0.304210 0.639790 0.127573
Si Si4 0.465514 0.351500 0.273047
Si Si5 0.103359 0.700917 0.300106
Si Si6 0.019305 0.139497 0.638625
Si Si7 0.737591 0.641942 0.271077
Si Si8 0.307691 0.429172 0.264582
O O1 0.187184 0.686487 0.118270
O O2 0.051110 0.721260 0.196515
O O3 0.202379 0.502206 0.870299
O O4 0.488428 0.037601 0.887438
O O5 0.202474 0.440300 0.183782
O O6 0.284433 0.430818 0.211298
O O7 0.420974 0.348825 0.896485
O O8 0.958980 0.969423 0.231587
O O9 0.122685 0.587142 0.266338
O O10 0.431736 0.620242 0.906244
O O11 0.285846 0.351708 0.481544
O O12 0.670146 0.572081 0.225409
O O13 0.291345 0.033957 0.301768
O O14 0.845464 0.551596 0.504771
O O15 0.000000 0.000000 0.500000
O O16 0.831110 0.876700 0.745597
O O17 0.500000 0.500000 0.500000
#
# Coordination Sequence:
#
# PCOD9078593 Si02
#       8
#     2   2   2   2   2   2   2   2
#     4  11  20  37  66  96 118 158 211 251 295 362
#     4  11  25  40  61  86 128 167 196 247 315 362
#     4  11  19  37  64  96 117 158 212 254 290 357
#     4  10  19  35  63  93 125 155 203 254 301 354
#     4  10  18  35  66  95 118 153 209 260 289 354
#     4  11  17  34  69  97 114 155 212 255 295 351
#     4  12  25  44  58  87 130 167 194 252 319 361
#     4  10  21  41  60  90 126 157 202 253 304 360
#
# _framework density 19.577615000000002
#
# number of rings (size 3 to 8) (size 9 to 14) (size 15 to 20)
#    0.000    1.250    7.500    2.250    0.000    1.000 
#    0.000    4.375    0.000    0.000    0.000    0.000 
#    0.000    0.000    0.000    0.000    0.000    0.000 
#
# Total GULP energy -89349.573034 kJ/mol
# GULP energy per Si atom -5584.348315 kJ/mol
# Density = 1.953306 g / cm^3
# Si number density = 19.577615 Si / 1000 Ang^3
#
#
#
# Elastic Constant Matrix: (Units=GPa)
#
#
# Indices 1 2 3 4 5 6 
#
# 1 77.3451 28.9938 14.0050 7.7046 -16.8575 -32.8453
# 2 28.9938 62.8526 31.4304 -2.6664 -4.5886 -22.1912
# 3 14.0050 31.4304 69.7193 4.6650 -24.2888 -18.2568
# 4 7.7046 -2.6664 4.6650 25.4909 -4.1312 -9.5261
# 5 -16.8575 -4.5886 -24.2888 -4.1312 35.9041 0.8839
# 6 -32.8453 -22.1912 -18.2568 -9.5261 0.8839 30.5556
#
#
#
# Elastic Compliance Matrix: (Units=1/GPa)
#
#
# Indices 1 2 3 4 5 6 
#
# 1 0.038195 -0.007178 0.017492 0.006917 0.028472 0.047627
# 2 -0.007178 0.028231 -0.012103 0.009443 -0.007078 0.008704
# 3 0.017492 -0.012103 0.034434 0.003455 0.029599 0.030807
# 4 0.006917 0.009443 0.003455 0.051398 0.011917 0.032037
# 5 0.028472 -0.007078 0.029599 0.011917 0.060599 0.045113
# 6 0.047627 0.008704 0.030807 0.032037 0.045113 0.117334
#
#
# Mechanical properties :
#
#
# Convention : Reuss Voigt Hill
#
# Bulk Modulus (GPa) = 10.27971 39.86391 25.07181
# Shear Modulus (GPa) = 13.65381 27.42264 20.53822
#
# Velocity S-wave (km/s) = 2.64373 3.74667 3.24244
# Velocity P-wave (km/s) = 3.81854 6.25483 5.18190
#
# Compressibility (1/GPa) = 0.09727900
#
# Stress axis : x y z
#
# Youngs Moduli (GPa) = 26.18172 35.42209 29.04129
#
# Poissons Ratio (x) = 0.25427 -0.50798
# Poissons Ratio (y) = 0.18794 0.35150
# Poissons Ratio (z) = -0.45796 0.42873
#
# Static dielectric constant tensor:
#      x y z
#    x 1.724810 -0.007540 -0.009220 
#    y -0.007540 1.650290 0.009920 
#    z -0.009220 0.009920 1.738650 
# 
# From -- ./inp_files/602448.got.cif
#   From: 2010.05.17/outbox.cif.g08.bks.cpg/sg2_302_cif.got.tgz:602448.got - 2010.06.03 11:33:40.
