data_PCOD9078621
_publ_section_title
;
Structure prediction by ZEFSAII (Michael W. Deem and Ramdas Pophale) SiO2 
 PCOD9078621
Probable space group: P -1
;
_chemical_formula_sum "Si O2"
_cell_formula_units_Z 16
_cell_length_a 15.632579
_cell_length_b 10.583056
_cell_length_c 8.876031
_cell_angle_alpha 108.614416
_cell_angle_beta 45.107576
_cell_angle_gamma 75.691182
_cell_volume 700.487830
_symmetry_space_group_name_H-M "P -1"
_symmetry_group_IT_number 2
_symmetry_cell_setting 'triclinic'
loop_
_space_group_symop_operation_xyz
x,y,z
-x,-y,-z
loop_
_atom_site_type_symbol
_atom_site_label
_atom_site_fract_x
_atom_site_fract_y
_atom_site_fract_z
Si Si1 0.418381 0.458306 0.698126
Si Si2 0.816417 0.934840 0.715501
Si Si3 0.193743 0.304601 0.158065
Si Si4 0.957120 0.987000 0.841715
Si Si5 0.096217 0.671676 0.012597
Si Si6 0.848227 0.832990 0.134215
Si Si7 0.334317 0.731263 0.165137
Si Si8 0.517272 0.232759 0.751491
O O1 0.500000 0.500000 0.500000
O O2 0.544111 0.263932 0.558146
O O3 0.274609 0.492275 0.795438
O O4 0.346739 0.600912 0.981874
O O5 0.759674 0.847911 0.840134
O O6 0.893607 0.972737 0.759445
O O7 0.964137 0.783531 0.356889
O O8 0.678970 0.127059 0.869685
O O9 0.000000 0.500000 0.500000
O O10 0.195715 0.240999 0.964805
O O11 0.332522 0.310847 0.008227
O O12 0.158871 0.850044 0.519678
O O13 0.878931 0.195368 0.027420
O O14 0.915044 0.914023 0.995485
O O15 0.997740 0.673956 0.001966
O O16 0.673998 0.010658 0.501132
O O17 0.471717 0.662682 0.094552
#
# Coordination Sequence:
#
# PCOD9078621 Si02
#       8
#     2   2   2   2   2   2   2   2
#     4  12  26  39  64 104 147 167 214 278 344 392
#     4  10  19  40  71  90 127 174 227 261 326 392
#     4  11  27  47  68  90 133 185 231 272 333 395
#     4  10  18  35  70  94 133 166 223 255 341 388
#     4  11  19  39  64 100 127 169 218 272 332 395
#     4  11  24  41  71  96 129 178 229 274 327 400
#     4  11  22  41  67 101 132 178 216 273 330 410
#     4  12  26  45  66 101 139 175 223 281 331 391
#
# _framework density 22.841224
#
# number of rings (size 3 to 8) (size 9 to 14) (size 15 to 20)
#    0.000    1.000    5.000    3.375    5.250    1.500 
#    0.000    2.500    0.000    0.000    0.000    0.000 
#    0.000    0.000    0.000    0.000    0.000    0.000 
#
# Total GULP energy -89480.773036 kJ/mol
# GULP energy per Si atom -5592.548315 kJ/mol
# Density = 2.278924 g / cm^3
# Si number density = 22.841224 Si / 1000 Ang^3
#
#
#
# Elastic Constant Matrix: (Units=GPa)
#
#
# Indices 1 2 3 4 5 6 
#
# 1 147.5021 51.6195 39.4548 -10.1635 -19.5860 -21.8270
# 2 51.6195 73.1796 4.6262 -6.3132 -20.2633 -14.4817
# 3 39.4548 4.6262 52.8950 0.6046 -12.0050 0.1848
# 4 -10.1635 -6.3132 0.6046 20.0889 3.6019 -1.2035
# 5 -19.5860 -20.2633 -12.0050 3.6019 31.2379 2.8345
# 6 -21.8270 -14.4817 0.1848 -1.2035 2.8345 41.7742
#
#
#
# Elastic Compliance Matrix: (Units=1/GPa)
#
#
# Indices 1 2 3 4 5 6 
#
# 1 0.012608 -0.007432 -0.009136 0.004821 -0.001371 0.004284
# 2 -0.007432 0.022541 0.006259 0.001180 0.011947 0.003126
# 3 -0.009136 0.006259 0.027482 -0.005460 0.009845 -0.003550
# 4 0.004821 0.001180 -0.005460 0.053934 -0.004969 0.004843
# 5 -0.001371 0.011947 0.009845 -0.004969 0.043232 0.000305
# 6 0.004284 0.003126 -0.003550 0.004843 0.000305 0.027395
#
#
# Mechanical properties :
#
#
# Convention : Reuss Voigt Hill
#
# Bulk Modulus (GPa) = 23.80191 51.66418 37.73305
# Shear Modulus (GPa) = 22.54159 30.47861 26.51010
#
# Velocity S-wave (km/s) = 3.14488 3.65686 3.41049
# Velocity P-wave (km/s) = 4.86109 6.36381 5.66252
#
# Compressibility (1/GPa) = 0.04201343
#
# Stress axis : x y z
#
# Youngs Moduli (GPa) = 79.31365 44.36440 36.38784
#
# Poissons Ratio (x) = 0.32972 0.33243
# Poissons Ratio (y) = 0.58947 -0.22777
# Poissons Ratio (z) = 0.72459 -0.27770
#
# Static dielectric constant tensor:
#      x y z
#    x 1.838280 -0.012380 0.003350 
#    y -0.012380 1.890980 0.032600 
#    z 0.003350 0.032600 1.864880 
# 
# From -- ./inp_files/186921.got.cif
#   From: 2010.05.17/outbox.cif.g08.bks.cpg/sg2_94_cif.got.tgz:186921.got - 2010.06.03 11:33:40.
