data_PCOD9078577
_publ_section_title
;
Structure prediction by ZEFSAII (Michael W. Deem and Ramdas Pophale) SiO2 
 PCOD9078577
Probable space group: P -1
;
_chemical_formula_sum "Si O2"
_cell_formula_units_Z 14
_cell_length_a 8.816836
_cell_length_b 11.015511
_cell_length_c 9.425904
_cell_angle_alpha 129.594904
_cell_angle_beta 53.141786
_cell_angle_gamma 118.503397
_cell_volume 557.701999
_symmetry_space_group_name_H-M "P -1"
_symmetry_group_IT_number 2
_symmetry_cell_setting 'triclinic'
loop_
_space_group_symop_operation_xyz
x,y,z
-x,-y,-z
loop_
_atom_site_type_symbol
_atom_site_label
_atom_site_fract_x
_atom_site_fract_y
_atom_site_fract_z
Si Si1 0.292433 0.047289 0.708502
Si Si2 0.913959 0.045012 0.728501
Si Si3 0.070810 0.444061 0.628901
Si Si4 0.178615 0.712748 0.566686
Si Si5 0.222853 0.623442 0.929295
Si Si6 0.390588 0.250703 0.357243
Si Si7 0.412647 0.357830 0.748934
O O1 0.344703 0.238916 0.829042
O O2 0.087298 0.040092 0.737327
O O3 0.500000 0.000000 0.500000
O O4 0.236338 0.892580 0.725209
O O5 0.719233 0.918020 0.763252
O O6 0.862906 0.220537 0.867512
O O7 0.000000 0.000000 0.500000
O O8 0.053124 0.600947 0.665068
O O9 0.072557 0.501572 0.830925
O O10 0.274018 0.382663 0.457215
O O11 0.926099 0.300331 0.536431
O O12 0.360628 0.627546 0.368809
O O13 0.393268 0.697368 0.776879
O O14 0.327114 0.520753 0.905839
O O15 0.366189 0.265178 0.553037
#
# Coordination Sequence:
#
# PCOD9078577 Si02
#       7
#     2   2   2   2   2   2   2
#     4  10  22  39  62  89 127 172 203 249 316 374
#     4  12  25  43  64  91 126 170 210 258 316 368
#     4  10  19  35  66  92 128 162 204 255 314 367
#     4  10  18  35  65  94 126 170 199 244 319 379
#     4  11  23  40  64  99 125 157 216 263 303 368
#     4  11  19  40  65  95 126 162 204 263 315 364
#     4  10  19  38  66  92 126 162 207 257 314 362
#
# _framework density 25.103010999999999
#
# number of rings (size 3 to 8) (size 9 to 14) (size 15 to 20)
#    0.000    1.429    5.714    1.286    0.000    0.571 
#    0.000    2.143    0.000    3.429    0.000    0.000 
#    0.000    0.000    0.000    0.000    0.000    0.000 
#
# Total GULP energy -78066.406267 kJ/mol
# GULP energy per Si atom -5576.171876 kJ/mol
# Density = 2.504588 g / cm^3
# Si number density = 25.103011 Si / 1000 Ang^3
#
#
#
# Elastic Constant Matrix: (Units=GPa)
#
#
# Indices 1 2 3 4 5 6 
#
# 1 87.8059 -2.1792 32.7422 -1.3815 -21.8844 7.6364
# 2 -2.1792 121.1846 31.5979 38.9751 -6.1464 -12.0333
# 3 32.7422 31.5979 120.3057 33.7897 -30.5651 -9.4077
# 4 -1.3815 38.9751 33.7897 35.5676 -2.9299 -12.7206
# 5 -21.8844 -6.1464 -30.5651 -2.9299 31.4915 5.8715
# 6 7.6364 -12.0333 -9.4077 -12.7206 5.8715 36.0257
#
#
#
# Elastic Compliance Matrix: (Units=1/GPa)
#
#
# Indices 1 2 3 4 5 6 
#
# 1 0.015097 0.000366 -0.002901 0.002039 0.008784 -0.004547
# 2 0.000366 0.013024 0.001732 -0.016178 0.003255 -0.001518
# 3 -0.002901 0.001732 0.016955 -0.018059 0.013653 -0.002981
# 4 0.002039 -0.016178 -0.018059 0.067437 -0.015951 0.015860
# 5 0.008784 0.003255 0.013653 -0.015951 0.052383 -0.011379
# 6 -0.004547 -0.001518 -0.002981 0.015860 -0.011379 0.034891
#
#
# Mechanical properties :
#
#
# Convention : Reuss Voigt Hill
#
# Bulk Modulus (GPa) = 23.00500 50.40200 36.70350
# Shear Modulus (GPa) = 23.16066 38.42599 30.79332
#
# Velocity S-wave (km/s) = 3.04077 3.91670 3.50620
# Velocity P-wave (km/s) = 4.63816 6.36991 5.57172
#
# Compressibility (1/GPa) = 0.04346881
#
# Stress axis : x y z
#
# Youngs Moduli (GPa) = 66.24026 76.77918 58.98036
#
# Poissons Ratio (x) = -0.02813 0.17112
# Poissons Ratio (y) = -0.02427 -0.10213
# Poissons Ratio (z) = 0.19218 -0.13295
#
# Static dielectric constant tensor:
#      x y z
#    x 2.022450 -0.011340 0.056430 
#    y -0.011340 2.095530 -0.057060 
#    z 0.056430 -0.057060 1.986170 
# 
# From -- ./inp_files/176463.got.cif
#   From: 2010.05.17/outbox.cif.g08.bks.cpg/sg2_89_cif.got.tgz:176463.got - 2010.06.03 11:33:40.
