data_PCOD9078403
_publ_section_title
;
Structure prediction by ZEFSAII (Michael W. Deem and Ramdas Pophale) SiO2 
 PCOD9078403
Probable space group: P -1
;
_chemical_formula_sum "Si O2"
_cell_formula_units_Z 16
_cell_length_a 11.641812
_cell_length_b 15.433404
_cell_length_c 11.822010
_cell_angle_alpha 35.539169
_cell_angle_beta 138.054176
_cell_angle_gamma 114.812566
_cell_volume 725.052779
_symmetry_space_group_name_H-M "P -1"
_symmetry_group_IT_number 2
_symmetry_cell_setting 'triclinic'
loop_
_space_group_symop_operation_xyz
x,y,z
-x,-y,-z
loop_
_atom_site_type_symbol
_atom_site_label
_atom_site_fract_x
_atom_site_fract_y
_atom_site_fract_z
Si Si1 0.286806 0.164556 0.674850
Si Si2 0.755606 0.166765 0.747317
Si Si3 0.387611 0.622604 0.179445
Si Si4 0.139128 0.160565 0.984178
Si Si5 0.108334 0.943370 0.779875
Si Si6 0.635652 0.768317 0.096689
Si Si7 0.254868 0.106856 0.383075
Si Si8 0.687878 0.627243 0.735114
O O1 0.300893 0.289981 0.463221
O O2 0.126908 0.107929 0.587529
O O3 0.258500 0.230397 0.711193
O O4 0.500000 0.000000 0.000000
O O5 0.527447 0.296687 0.447929
O O6 0.797283 0.010774 0.860720
O O7 0.808843 0.100632 0.984964
O O8 0.906466 0.235440 0.751668
O O9 0.500000 0.500000 0.500000
O O10 0.271787 0.555614 0.085007
O O11 0.246835 0.796990 0.952325
O O12 0.537269 0.651649 0.178186
O O13 0.213233 0.273345 0.850324
O O14 0.242502 0.110649 0.234600
O O15 0.902935 0.946718 0.632392
O O16 0.460911 0.959703 0.737830
O O17 0.206923 0.295178 0.189521
#
# Coordination Sequence:
#
# PCOD9078403 Si02
#       8
#     2   2   2   2   2   2   2   2
#     4  12  17  35  62  87 114 146 204 245 291 342
#     4  10  18  35  62  88 114 148 207 243 287 342
#     4  12  23  38  63  86 120 160 200 239 293 358
#     4  10  21  36  62  91 116 154 199 253 288 340
#     4  11  21  37  61  94 117 152 196 249 299 349
#     4  12  21  38  61  93 118 154 198 246 298 348
#     4  11  24  38  62  88 128 152 195 247 299 348
#     4  12  22  38  60  86 119 164 191 245 297 349
#
# _framework density 22.067359
#
# number of rings (size 3 to 8) (size 9 to 14) (size 15 to 20)
#    0.000    0.750    8.750    0.375    0.000    2.500 
#    0.000    1.250    0.000    0.000    0.000    0.000 
#    0.000    0.000    0.000    0.000    0.000    0.000 
#
# Total GULP energy -89388.699968 kJ/mol
# GULP energy per Si atom -5586.793748 kJ/mol
# Density = 2.201713 g / cm^3
# Si number density = 22.067359 Si / 1000 Ang^3
#
#
#
# Elastic Constant Matrix: (Units=GPa)
#
#
# Indices 1 2 3 4 5 6 
#
# 1 167.9018 50.4521 31.3568 1.0300 -14.9680 25.1498
# 2 50.4521 158.7761 25.1594 5.8773 -7.2378 4.5166
# 3 31.3568 25.1594 25.4081 4.8795 -0.4446 -0.2947
# 4 1.0300 5.8773 4.8795 23.8908 -2.1438 -11.9347
# 5 -14.9680 -7.2378 -0.4446 -2.1438 26.3694 7.2756
# 6 25.1498 4.5166 -0.2947 -11.9347 7.2756 48.6573
#
#
#
# Elastic Compliance Matrix: (Units=1/GPa)
#
#
# Indices 1 2 3 4 5 6 
#
# 1 0.009839 -0.000853 -0.011170 -0.000416 0.006839 -0.006199
# 2 -0.000853 0.007712 -0.006414 -0.000777 0.001669 -0.000754
# 3 -0.011170 -0.006414 0.060969 -0.008170 -0.009433 0.006145
# 4 -0.000416 -0.000777 -0.008170 0.049978 0.000029 0.012492
# 5 0.006839 0.001669 -0.009433 0.000029 0.044994 -0.010468
# 6 -0.006199 -0.000754 0.006145 0.012492 -0.010468 0.028492
#
#
# Mechanical properties :
#
#
# Convention : Reuss Voigt Hill
#
# Bulk Modulus (GPa) = 24.01202 62.89139 43.45171
# Shear Modulus (GPa) = 19.78308 36.12467 27.95388
#
# Velocity S-wave (km/s) = 2.99739 4.05040 3.56301
# Velocity P-wave (km/s) = 4.78372 7.10182 6.05474
#
# Compressibility (1/GPa) = 0.04164580
#
# Stress axis : x y z
#
# Youngs Moduli (GPa) = 101.63663 129.67020 16.40165
#
# Poissons Ratio (x) = 0.11060 0.18321
# Poissons Ratio (y) = 0.08669 0.10520
# Poissons Ratio (z) = 1.13531 0.83171
#
# Static dielectric constant tensor:
#      x y z
#    x 1.802810 0.026630 0.026990 
#    y 0.026630 1.845990 0.020790 
#    z 0.026990 0.020790 1.846770 
# 
# From -- ./inp_files/378346.got.cif
#   From: 2010.05.17/outbox.cif.g08.bks.cpg/sg2_190_cif.got.tgz:378346.got - 2010.06.03 11:33:40.
