data_PCOD9078003
_publ_section_title
;
Structure prediction by ZEFSAII (Michael W. Deem and Ramdas Pophale) SiO2 
 PCOD9078003
Probable space group: P -1
;
_chemical_formula_sum "Si O2"
_cell_formula_units_Z 16
_cell_length_a 11.483522
_cell_length_b 7.808756
_cell_length_c 17.198765
_cell_angle_alpha 34.585802
_cell_angle_beta 62.041509
_cell_angle_gamma 73.387409
_cell_volume 757.705546
_symmetry_space_group_name_H-M "P -1"
_symmetry_group_IT_number 2
_symmetry_cell_setting 'triclinic'
loop_
_space_group_symop_operation_xyz
x,y,z
-x,-y,-z
loop_
_atom_site_type_symbol
_atom_site_label
_atom_site_fract_x
_atom_site_fract_y
_atom_site_fract_z
Si Si1 0.451194 0.708831 0.871545
Si Si2 0.376793 0.672587 0.468275
Si Si3 0.481071 0.646345 0.163737
Si Si4 0.184842 0.399964 0.300722
Si Si5 0.181529 0.799402 0.998498
Si Si6 0.615278 0.297762 0.363266
Si Si7 0.892259 0.544366 0.184565
Si Si8 0.102008 0.685221 0.556923
O O1 0.448812 0.529563 0.857988
O O2 0.309343 0.790765 0.908380
O O3 0.562911 0.016724 0.711609
O O4 0.500000 0.500000 0.000000
O O5 0.500000 0.500000 0.500000
O O6 0.353627 0.714072 0.551372
O O7 0.223908 0.543436 0.536139
O O8 0.323673 0.485059 0.272539
O O9 0.550693 0.580542 0.247011
O O10 0.500000 0.000000 0.000000
O O11 0.050857 0.411159 0.388985
O O12 0.154827 0.054066 0.404142
O O13 0.204388 0.634057 0.134346
O O14 0.157953 0.138033 0.900497
O O15 0.039485 0.626206 0.070169
O O16 0.762935 0.326682 0.267804
O O17 0.500000 0.000000 0.500000
O O18 0.919365 0.411174 0.309990
#
# Coordination Sequence:
#
# PCOD9078003 Si02
#       8
#     2   2   2   2   2   2   2   2
#     4  12  22  37  59  90 119 148 198 244 287 337
#     4  11  22  37  62  90 112 148 194 248 290 332
#     4  12  24  37  57  86 122 161 188 233 295 355
#     4  10  18  35  57  84 110 145 191 238 281 332
#     4  10  19  35  58  87 114 140 195 249 278 335
#     4  11  21  40  58  83 118 153 192 230 291 358
#     4   9  19  34  59  85 110 150 189 238 290 335
#     4   9  17  33  58  85 106 139 194 245 274 328
#
# _framework density 21.116385000000001
#
# number of rings (size 3 to 8) (size 9 to 14) (size 15 to 20)
#    0.000    1.500    3.750    3.000    1.750    0.000 
#    0.000    0.625    2.750    0.750    0.000    0.000 
#    0.000    0.000    0.000    0.000    0.000    0.000 
#
# Total GULP energy -89179.421637 kJ/mol
# GULP energy per Si atom -5573.713852 kJ/mol
# Density = 2.106832 g / cm^3
# Si number density = 21.116385 Si / 1000 Ang^3
#
#
#
# Elastic Constant Matrix: (Units=GPa)
#
#
# Indices 1 2 3 4 5 6 
#
# 1 138.2542 17.2004 33.5627 22.9669 -34.6680 -34.4408
# 2 17.2004 36.9317 2.8294 14.2300 -15.4454 -30.6519
# 3 33.5627 2.8294 107.6883 -0.0491 3.5960 -13.4807
# 4 22.9669 14.2300 -0.0491 19.9718 -20.0625 -8.5071
# 5 -34.6680 -15.4454 3.5960 -20.0625 54.7470 10.3907
# 6 -34.4408 -30.6519 -13.4807 -8.5071 10.3907 36.2584
#
#
#
# Elastic Compliance Matrix: (Units=1/GPa)
#
#
# Indices 1 2 3 4 5 6 
#
# 1 0.019403 0.039873 -0.001836 -0.026426 0.005692 0.043623
# 2 0.039873 0.211279 0.005573 -0.105304 0.009632 0.191089
# 3 -0.001836 0.005573 0.010695 -0.000632 -0.001918 0.007346
# 4 -0.026426 -0.105304 -0.000632 0.139635 0.021420 -0.087735
# 5 0.005692 0.009632 -0.001918 0.021420 0.030852 0.009021
# 6 0.043623 0.191089 0.007346 -0.087735 0.009021 0.210119
#
#
# Mechanical properties :
#
#
# Convention : Reuss Voigt Hill
#
# Bulk Modulus (GPa) = 3.04325 43.33992 23.19159
# Shear Modulus (GPa) = 7.76043 37.48086 22.62065
#
# Velocity S-wave (km/s) = 1.91913 4.21760 3.27653
# Velocity P-wave (km/s) = 2.52092 6.65481 5.03197
#
# Compressibility (1/GPa) = 0.32859603
#
# Stress axis : x y z
#
# Youngs Moduli (GPa) = 51.53953 4.73309 93.50030
#
# Poissons Ratio (x) = -0.18872 0.17167
# Poissons Ratio (y) = -2.05501 -0.52110
# Poissons Ratio (z) = 0.09463 -0.02638
#
# Static dielectric constant tensor:
#      x y z
#    x 1.909290 -0.081360 -0.047680 
#    y -0.081360 1.820310 -0.008180 
#    z -0.047680 -0.008180 1.790700 
# 
# From -- ./inp_files/254586.got.cif
#   From: 2010.05.17/outbox.cif.g08.bks.cpg/sg2_128_cif.got.tgz:254586.got - 2010.06.03 11:33:40.
