data_PCOD9078402
_publ_section_title
;
Structure prediction by ZEFSAII (Michael W. Deem and Ramdas Pophale) SiO2 
 PCOD9078402
Probable space group: P -1
;
_chemical_formula_sum "Si O2"
_cell_formula_units_Z 16
_cell_length_a 11.146222
_cell_length_b 18.989448
_cell_length_c 11.943401
_cell_angle_alpha 22.228179
_cell_angle_beta 60.730997
_cell_angle_gamma 48.489060
_cell_volume 643.123830
_symmetry_space_group_name_H-M "P -1"
_symmetry_group_IT_number 2
_symmetry_cell_setting 'triclinic'
loop_
_space_group_symop_operation_xyz
x,y,z
-x,-y,-z
loop_
_atom_site_type_symbol
_atom_site_label
_atom_site_fract_x
_atom_site_fract_y
_atom_site_fract_z
Si Si1 0.280403 0.337744 0.963600
Si Si2 0.540486 0.852157 0.448541
Si Si3 0.974092 0.812351 0.836483
Si Si4 0.208286 0.302726 0.611676
Si Si5 0.352484 0.741502 0.556497
Si Si6 0.859398 0.400067 0.591965
Si Si7 0.542897 0.435699 0.706581
Si Si8 0.840039 0.489932 0.997922
O O1 0.184829 0.519960 0.634338
O O2 0.458963 0.306593 0.959315
O O3 0.158224 0.454833 0.956100
O O4 0.369579 0.074801 0.262519
O O5 0.608378 0.898645 0.237945
O O6 0.498055 0.685141 0.663121
O O7 0.704789 0.734749 0.630587
O O8 0.986819 0.689560 0.893727
O O9 0.809752 0.979960 0.749397
O O10 0.000000 0.000000 0.500000
O O11 0.118901 0.564824 0.205103
O O12 0.222876 0.366050 0.636851
O O13 0.068937 0.254266 0.729761
O O14 0.439925 0.656161 0.519039
O O15 0.266935 0.614098 0.801457
O O16 0.753481 0.303730 0.816020
O O17 0.500000 0.500000 0.500000
#
# Coordination Sequence:
#
# PCOD9078402 Si02
#       8
#     2   2   2   2   2   2   2   2
#     4  10  21  37  61  85 122 157 196 234 306 355
#     4  11  20  35  58  92 115 155 203 244 289 349
#     4   9  19  37  60  88 116 151 198 244 290 350
#     4  10  21  37  59  89 120 149 201 250 289 334
#     4  10  18  35  62  88 111 157 204 239 291 349
#     4  10  20  40  59  81 119 160 193 242 292 347
#     4   9  19  38  59  83 117 156 192 241 290 350
#     4   9  20  37  59  84 127 150 191 254 297 349
#
# _framework density 24.878568000000001
#
# number of rings (size 3 to 8) (size 9 to 14) (size 15 to 20)
#    0.000    2.250    1.250    1.500    0.000    0.500 
#    9.000    7.500    5.500    0.000    0.000    0.000 
#    0.000    0.000    0.000    0.000    0.000    0.000 
#
# Total GULP energy -89169.646012 kJ/mol
# GULP energy per Si atom -5573.102876 kJ/mol
# Density = 2.482194 g / cm^3
# Si number density = 24.878568 Si / 1000 Ang^3
#
#
#
# Elastic Constant Matrix: (Units=GPa)
#
#
# Indices 1 2 3 4 5 6 
#
# 1 116.2143 38.7393 6.5967 -10.7172 -8.6197 12.4343
# 2 38.7393 210.8892 34.0608 -34.2544 7.7137 21.3050
# 3 6.5967 34.0608 43.4256 -5.2488 -0.8428 7.5240
# 4 -10.7172 -34.2544 -5.2488 30.5055 -7.3989 0.7631
# 5 -8.6197 7.7137 -0.8428 -7.3989 24.7650 -5.2466
# 6 12.4343 21.3050 7.5240 0.7631 -5.2466 61.9292
#
#
#
# Elastic Compliance Matrix: (Units=1/GPa)
#
#
# Indices 1 2 3 4 5 6 
#
# 1 0.009796 -0.001394 0.000264 0.003046 0.004514 -0.001175
# 2 -0.001394 0.006921 -0.004172 0.006299 -0.001278 -0.001780
# 3 0.000264 -0.004172 0.026659 0.000548 0.002106 -0.001685
# 4 0.003046 0.006299 0.000548 0.043924 0.011733 -0.002392
# 5 0.004514 -0.001278 0.002106 0.011733 0.046578 0.003079
# 6 -0.001175 -0.001780 -0.001685 -0.002392 0.003079 0.017491
#
#
# Mechanical properties :
#
#
# Convention : Reuss Voigt Hill
#
# Bulk Modulus (GPa) = 30.51248 58.81364 44.66306
# Shear Modulus (GPa) = 28.91897 42.84877 35.88387
#
# Velocity S-wave (km/s) = 3.41311 4.15458 3.80196
# Velocity P-wave (km/s) = 5.27481 6.83416 6.10448
#
# Compressibility (1/GPa) = 0.03277347
#
# Stress axis : x y z
#
# Youngs Moduli (GPa) = 102.08478 144.47829 37.51054
#
# Poissons Ratio (x) = 0.20138 -0.00992
# Poissons Ratio (y) = 0.14229 0.15650
# Poissons Ratio (z) = -0.02700 0.60278
#
# Static dielectric constant tensor:
#      x y z
#    x 2.062920 -0.065680 0.012060 
#    y -0.065680 1.997210 0.026630 
#    z 0.012060 0.026630 2.003540 
# 
# From -- ./inp_files/202534.got.cif
#   From: 2010.05.17/outbox.cif.g08.bks.cpg/sg2_102_cif.got.tgz:202534.got - 2010.06.03 11:33:40.
