data_PCOD9078739
_publ_section_title
;
Structure prediction by ZEFSAII (Michael W. Deem and Ramdas Pophale) SiO2 
 PCOD9078739
Probable space group: P -1
;
_chemical_formula_sum "Si O2"
_cell_formula_units_Z 14
_cell_length_a 13.500444
_cell_length_b 11.020031
_cell_length_c 9.250758
_cell_angle_alpha 109.063302
_cell_angle_beta 121.914274
_cell_angle_gamma 32.013706
_cell_volume 596.256023
_symmetry_space_group_name_H-M "P -1"
_symmetry_group_IT_number 2
_symmetry_cell_setting 'triclinic'
loop_
_space_group_symop_operation_xyz
x,y,z
-x,-y,-z
loop_
_atom_site_type_symbol
_atom_site_label
_atom_site_fract_x
_atom_site_fract_y
_atom_site_fract_z
Si Si1 0.569989 0.251280 0.334219
Si Si2 0.735136 0.749574 0.525404
Si Si3 0.109469 0.594623 0.707374
Si Si4 0.037112 0.153765 0.020792
Si Si5 0.973693 0.172134 0.529855
Si Si6 0.695720 0.260082 0.740373
Si Si7 0.839646 0.483020 0.766026
O O1 0.647552 0.232165 0.543308
O O2 0.480536 0.463015 0.268282
O O3 0.383560 0.318154 0.239856
O O4 0.784263 0.996805 0.327957
O O5 0.737957 0.649749 0.351858
O O6 0.855289 0.577200 0.692824
O O7 0.876187 0.739786 0.582235
O O8 0.500000 0.000000 0.500000
O O9 0.114620 0.647330 0.891427
O O10 0.111034 0.711459 0.645710
O O11 0.914482 0.143354 0.856892
O O12 0.033438 0.269302 0.942316
O O13 0.253652 0.895230 0.159670
O O14 0.819783 0.375893 0.607537
O O15 0.000000 0.000000 0.500000
#
# Coordination Sequence:
#
# PCOD9078739 Si02
#       7
#     2   2   2   2   2   2   2
#     4  10  18  36  57  86 119 170 195 237 274 357
#     4  10  22  43  64  88 107 158 216 248 284 358
#     4  10  22  39  63  85 122 157 194 251 302 342
#     4  10  19  36  56  91 124 160 184 247 309 347
#     4  11  20  34  59  90 118 159 199 234 288 370
#     4   9  18  30  58  81 128 164 185 223 304 353
#     4  10  23  37  63  88 119 157 204 244 298 349
#
# _framework density 23.479845999999998
#
# number of rings (size 3 to 8) (size 9 to 14) (size 15 to 20)
#    0.000    2.000    1.429    3.429    2.000    0.571 
#    0.000    4.286    0.000    0.000    0.000    0.000 
#    0.000    0.000    0.000    0.000    0.000    0.000 
#
# Total GULP energy -78074.024597 kJ/mol
# GULP energy per Si atom -5576.716043 kJ/mol
# Density = 2.342640 g / cm^3
# Si number density = 23.479846 Si / 1000 Ang^3
#
#
#
# Elastic Constant Matrix: (Units=GPa)
#
#
# Indices 1 2 3 4 5 6 
#
# 1 56.7096 6.8720 13.2656 3.3637 -14.2084 7.5656
# 2 6.8720 76.5769 19.9523 6.9029 -4.0888 -10.9327
# 3 13.2656 19.9523 100.9197 -7.4904 -28.0088 15.1159
# 4 3.3637 6.9029 -7.4904 38.2260 8.1653 -5.7068
# 5 -14.2084 -4.0888 -28.0088 8.1653 41.1540 -7.2787
# 6 7.5656 -10.9327 15.1159 -5.7068 -7.2787 38.9672
#
#
#
# Elastic Compliance Matrix: (Units=1/GPa)
#
#
# Indices 1 2 3 4 5 6 
#
# 1 0.020251 -0.001596 -0.000197 -0.003508 0.006767 -0.003553
# 2 -0.001596 0.015244 -0.003893 -0.002485 -0.000185 0.005699
# 3 -0.000197 -0.003893 0.013655 0.001022 0.007797 -0.004745
# 4 -0.003508 -0.002485 0.001022 0.028801 -0.006002 0.002684
# 5 0.006767 -0.000185 0.007797 -0.006002 0.033281 0.000947
# 6 -0.003553 0.005699 -0.004745 0.002684 0.000947 0.030362
#
#
# Mechanical properties :
#
#
# Convention : Reuss Voigt Hill
#
# Bulk Modulus (GPa) = 26.47045 34.93175 30.70110
# Shear Modulus (GPa) = 30.20090 36.61054 33.40572
#
# Velocity S-wave (km/s) = 3.59032 3.95300 3.77601
# Velocity P-wave (km/s) = 5.33717 5.97867 5.66701
#
# Compressibility (1/GPa) = 0.03777798
#
# Stress axis : x y z
#
# Youngs Moduli (GPa) = 49.38138 65.59914 73.23381
#
# Poissons Ratio (x) = 0.10468 0.01439
# Poissons Ratio (y) = 0.07880 0.28513
# Poissons Ratio (z) = 0.00971 0.25541
#
# Static dielectric constant tensor:
#      x y z
#    x 1.946250 -0.004050 -0.018090 
#    y -0.004050 1.923410 -0.047970 
#    z -0.018090 -0.047970 1.922220 
# 
# From -- ./inp_files/265290.got.cif
#   From: 2010.05.17/outbox.cif.g08.bks.cpg/sg2_133_cif.got.tgz:265290.got - 2010.06.03 11:33:40.
