data_PCOD9078810
_publ_section_title
;
Structure prediction by ZEFSAII (Michael W. Deem and Ramdas Pophale) SiO2 
 PCOD9078810
Probable space group: P -1
;
_chemical_formula_sum "Si O2"
_cell_formula_units_Z 14
_cell_length_a 9.223442
_cell_length_b 10.098240
_cell_length_c 11.420760
_cell_angle_alpha 115.058948
_cell_angle_beta 138.114805
_cell_angle_gamma 84.455290
_cell_volume 599.807134
_symmetry_space_group_name_H-M "P -1"
_symmetry_group_IT_number 2
_symmetry_cell_setting 'triclinic'
loop_
_space_group_symop_operation_xyz
x,y,z
-x,-y,-z
loop_
_atom_site_type_symbol
_atom_site_label
_atom_site_fract_x
_atom_site_fract_y
_atom_site_fract_z
Si Si1 0.860964 0.064841 0.820412
Si Si2 0.958605 0.263220 0.178977
Si Si3 0.476564 0.754817 0.398519
Si Si4 0.677670 0.404918 0.514671
Si Si5 0.690951 0.717916 0.940929
Si Si6 0.821222 0.320837 0.347593
Si Si7 0.368357 0.554511 0.043215
O O1 0.694527 0.157955 0.713832
O O2 0.707715 0.884882 0.637713
O O3 0.914775 0.122496 0.008907
O O4 0.092146 0.130214 0.904989
O O5 0.904041 0.221990 0.267278
O O6 0.198047 0.410961 0.365521
O O7 0.782504 0.352149 0.066547
O O8 0.344032 0.644226 0.383665
O O9 0.525228 0.666024 0.281381
O O10 0.427832 0.351880 0.280598
O O11 0.811028 0.314282 0.480602
O O12 0.454723 0.720751 0.861381
O O13 0.770898 0.599590 0.021711
O O14 0.000000 0.500000 0.500000
O O15 0.500000 0.500000 0.000000
#
# Coordination Sequence:
#
# PCOD9078810 Si02
#       7
#     2   2   2   2   2   2   2
#     4  10  22  37  57  80 108 154 184 220 271 327
#     4  10  18  36  59  80 113 143 181 227 276 322
#     4  10  22  39  54  77 118 145 183 225 275 324
#     4   9  19  35  57  82 110 141 182 231 267 321
#     4  10  20  34  59  86 110 138 190 224 271 324
#     4   8  17  34  55  82 116 138 174 229 277 316
#     4  11  20  34  59  84 104 141 186 230 270 322
#
# _framework density 23.340834999999998
#
# number of rings (size 3 to 8) (size 9 to 14) (size 15 to 20)
#    0.857    1.429    1.429    1.714    0.000    5.143 
#    0.000    1.429    3.143    0.000    0.000    0.000 
#    0.000    0.000    0.000    0.000    0.000    0.000 
#
# Total GULP energy -78104.285582 kJ/mol
# GULP energy per Si atom -5578.877542 kJ/mol
# Density = 2.328771 g / cm^3
# Si number density = 23.340835 Si / 1000 Ang^3
#
#
#
# Elastic Constant Matrix: (Units=GPa)
#
#
# Indices 1 2 3 4 5 6 
#
# 1 154.7623 40.4223 65.5425 17.0426 -21.0280 8.0225
# 2 40.4223 59.6682 28.8335 12.7933 -16.7469 -1.3820
# 3 65.5425 28.8335 129.7706 13.5288 -4.8516 4.9308
# 4 17.0426 12.7933 13.5288 40.7612 2.2250 -1.3624
# 5 -21.0280 -16.7469 -4.8516 2.2250 50.3583 -4.1761
# 6 8.0225 -1.3820 4.9308 -1.3624 -4.1761 25.8257
#
#
#
# Elastic Compliance Matrix: (Units=1/GPa)
#
#
# Indices 1 2 3 4 5 6 
#
# 1 0.009626 -0.003760 -0.003665 -0.001828 0.002313 -0.002214
# 2 -0.003760 0.023663 -0.002714 -0.005188 0.006577 0.003742
# 3 -0.003665 -0.002714 0.010254 -0.000979 -0.001506 -0.001260
# 4 -0.001828 -0.005188 -0.000979 0.027497 -0.003688 0.001332
# 5 0.002313 0.006577 -0.001506 -0.003688 0.023319 0.003497
# 6 -0.002214 0.003742 -0.001260 0.001332 0.003497 0.040486
#
#
# Mechanical properties :
#
#
# Convention : Reuss Voigt Hill
#
# Bulk Modulus (GPa) = 42.98416 68.19974 55.59195
# Shear Modulus (GPa) = 30.69789 37.34923 34.02356
#
# Velocity S-wave (km/s) = 3.63050 4.00455 3.82210
# Velocity P-wave (km/s) = 6.00249 7.11789 6.58386
#
# Compressibility (1/GPa) = 0.02326438
#
# Stress axis : x y z
#
# Youngs Moduli (GPa) = 103.88199 42.25963 97.52608
#
# Poissons Ratio (x) = 0.15891 0.35745
# Poissons Ratio (y) = 0.39062 0.26468
# Poissons Ratio (z) = 0.38075 0.11469
#
# Static dielectric constant tensor:
#      x y z
#    x 1.939290 -0.077290 0.006400 
#    y -0.077290 1.922780 -0.056090 
#    z 0.006400 -0.056090 1.891450 
# 
# From -- ./inp_files/392903.got.cif
#   From: 2010.05.17/outbox.cif.g08.bks.cpg/sg2_197_cif.got.tgz:392903.got - 2010.06.03 11:33:40.
