data_PCOD9078177
_publ_section_title
;
Structure prediction by ZEFSAII (Michael W. Deem and Ramdas Pophale) SiO2 
 PCOD9078177
Probable space group: P -1
;
_chemical_formula_sum "Si O2"
_cell_formula_units_Z 14
_cell_length_a 13.973096
_cell_length_b 9.867185
_cell_length_c 7.318603
_cell_angle_alpha 67.654163
_cell_angle_beta 42.597053
_cell_angle_gamma 76.432403
_cell_volume 630.024270
_symmetry_space_group_name_H-M "P -1"
_symmetry_group_IT_number 2
_symmetry_cell_setting 'triclinic'
loop_
_space_group_symop_operation_xyz
x,y,z
-x,-y,-z
loop_
_atom_site_type_symbol
_atom_site_label
_atom_site_fract_x
_atom_site_fract_y
_atom_site_fract_z
Si Si1 0.239018 0.513932 0.160100
Si Si2 0.164300 0.997576 0.135666
Si Si3 0.425423 0.111194 0.918011
Si Si4 0.004320 0.290596 0.534756
Si Si5 0.607487 0.724242 0.786666
Si Si6 0.393833 0.799295 0.731651
Si Si7 0.096115 0.149140 0.820876
O O1 0.122036 0.606420 0.377169
O O2 0.335072 0.437184 0.213227
O O3 0.150613 0.384718 0.239082
O O4 0.324823 0.638173 0.858649
O O5 0.272226 0.906097 0.903862
O O6 0.264893 0.050086 0.133195
O O7 0.120847 0.137699 0.008340
O O8 0.036778 0.870900 0.407404
O O9 0.507647 0.133937 0.601229
O O10 0.434356 0.255832 0.954677
O O11 0.500000 0.000000 0.000000
O O12 0.017442 0.265858 0.750434
O O13 0.488143 0.766117 0.793386
O O14 0.746298 0.834187 0.493839
O O15 0.000000 0.000000 0.000000
#
# Coordination Sequence:
#
# PCOD9078177 Si02
#       7
#     2   2   2   2   2   2   2
#     4   9  19  36  58  85 110 153 199 230 280 336
#     4  10  18  35  59  86 117 148 188 234 292 338
#     4  12  23  35  57  90 121 147 185 239 292 342
#     4   8  17  34  61  85 107 150 200 234 272 343
#     4  11  21  36  58  88 117 151 191 233 284 342
#     4  11  21  37  60  84 118 155 187 235 285 341
#     4   9  17  33  58  84 110 149 189 228 284 339
#
# _framework density 22.221366
#
# number of rings (size 3 to 8) (size 9 to 14) (size 15 to 20)
#    0.000    2.000    2.857    1.714    0.000    0.571 
#    0.000    6.429    0.000    1.714    0.000    0.000 
#    0.000    0.000    0.000    0.000    0.000    0.000 
#
# Total GULP energy -78046.737803 kJ/mol
# GULP energy per Si atom -5574.766986 kJ/mol
# Density = 2.217079 g / cm^3
# Si number density = 22.221366 Si / 1000 Ang^3
#
#
#
# Elastic Constant Matrix: (Units=GPa)
#
#
# Indices 1 2 3 4 5 6 
#
# 1 120.0203 23.0845 22.1886 -7.8687 8.2587 -4.7702
# 2 23.0845 63.6651 17.7526 -21.8411 9.4145 -6.3774
# 3 22.1886 17.7526 70.9056 -12.5695 -6.0681 11.6337
# 4 -7.8687 -21.8411 -12.5695 33.6934 5.8558 -5.5039
# 5 8.2587 9.4145 -6.0681 5.8558 41.1479 -9.5207
# 6 -4.7702 -6.3774 11.6337 -5.5039 -9.5207 43.5738
#
#
#
# Elastic Compliance Matrix: (Units=1/GPa)
#
#
# Indices 1 2 3 4 5 6 
#
# 1 0.009422 -0.002278 -0.002658 0.000178 -0.001534 0.001095
# 2 -0.002278 0.024643 -0.004032 0.015945 -0.006902 0.004940
# 3 -0.002658 -0.004032 0.017290 0.001994 0.002642 -0.004668
# 4 0.000178 0.015945 0.001994 0.043129 -0.008263 0.005463
# 5 -0.001534 -0.006902 0.002642 -0.008263 0.028520 0.003304
# 6 0.001095 0.004940 -0.004668 0.005463 0.003304 0.026451
#
#
# Mechanical properties :
#
#
# Convention : Reuss Voigt Hill
#
# Bulk Modulus (GPa) = 29.92165 42.29360 36.10763
# Shear Modulus (GPa) = 28.00678 36.45405 32.23042
#
# Velocity S-wave (km/s) = 3.55400 4.05470 3.81258
# Velocity P-wave (km/s) = 5.50778 6.40273 5.97204
#
# Compressibility (1/GPa) = 0.03342062
#
# Stress axis : x y z
#
# Youngs Moduli (GPa) = 106.13382 40.58002 57.83757
#
# Poissons Ratio (x) = 0.09243 0.15371
# Poissons Ratio (y) = 0.24175 0.23318
# Poissons Ratio (z) = 0.28206 0.16360
#
# Static dielectric constant tensor:
#      x y z
#    x 1.857940 0.007360 -0.027740 
#    y 0.007360 1.905260 0.013360 
#    z -0.027740 0.013360 1.837220 
# 
# From -- ./inp_files/68275.got.cif
#   From: 2010.05.17/outbox.cif.g08.bks.cpg/sg2_35_cif.got.tgz:68275.got - 2010.06.03 11:33:40.
