data_PCOD9078128
_publ_section_title
;
Structure prediction by ZEFSAII (Michael W. Deem and Ramdas Pophale) SiO2 
 PCOD9078128
Probable space group: P -1
;
_chemical_formula_sum "Si O2"
_cell_formula_units_Z 16
_cell_length_a 15.702367
_cell_length_b 8.856701
_cell_length_c 8.543659
_cell_angle_alpha 63.719109
_cell_angle_beta 66.247460
_cell_angle_gamma 43.187133
_cell_volume 722.899363
_symmetry_space_group_name_H-M "P -1"
_symmetry_group_IT_number 2
_symmetry_cell_setting 'triclinic'
loop_
_space_group_symop_operation_xyz
x,y,z
-x,-y,-z
loop_
_atom_site_type_symbol
_atom_site_label
_atom_site_fract_x
_atom_site_fract_y
_atom_site_fract_z
Si Si1 0.024664 0.253177 0.426909
Si Si2 0.238024 0.604698 0.009041
Si Si3 0.519734 0.168463 0.924853
Si Si4 0.091546 0.805283 0.712289
Si Si5 0.643806 0.272299 0.948505
Si Si6 0.193587 0.338246 0.391394
Si Si7 0.601271 0.159905 0.524975
Si Si8 0.666959 0.403219 0.532342
O O1 0.006642 0.205618 0.286150
O O2 0.903796 0.489885 0.482408
O O3 0.132204 0.262689 0.365897
O O4 0.049380 0.050177 0.600359
O O5 0.251868 0.774657 0.995564
O O6 0.220673 0.473059 0.207023
O O7 0.379743 0.409688 0.931936
O O8 0.135038 0.722739 0.894985
O O9 0.616289 0.109538 0.014777
O O10 0.577255 0.151604 0.727138
O O11 0.500000 0.000000 0.000000
O O12 0.214030 0.634315 0.588697
O O13 0.681049 0.302066 0.737783
O O14 0.500000 0.500000 0.000000
O O15 0.313538 0.093649 0.484639
O O16 0.656296 0.281780 0.450678
O O17 0.464370 0.341369 0.469955
#
# Coordination Sequence:
#
# PCOD9078128 Si02
#       8
#     2   2   2   2   2   2   2   2
#     4  10  25  43  64  87 122 169 220 257 308 364
#     4  11  22  38  64  90 127 160 207 259 319 365
#     4  10  18  35  58  94 130 158 192 249 319 377
#     4  11  22  43  67  88 120 171 217 254 306 386
#     4   9  21  35  55  91 131 162 195 243 309 389
#     4  11  22  42  64  92 128 161 205 274 312 357
#     4  10  19  33  65  93 123 160 202 251 318 376
#     4  10  19  36  64  93 120 165 205 248 315 384
#
# _framework density 22.133094
#
# number of rings (size 3 to 8) (size 9 to 14) (size 15 to 20)
#    0.000    1.750    3.750    0.750    1.750    1.000 
#    0.000    7.500    0.000    0.000    0.000    0.000 
#    0.000    0.000    0.000    0.000    0.000    0.000 
#
# Total GULP energy -89179.570318 kJ/mol
# GULP energy per Si atom -5573.723145 kJ/mol
# Density = 2.208272 g / cm^3
# Si number density = 22.133094 Si / 1000 Ang^3
#
#
#
# Elastic Constant Matrix: (Units=GPa)
#
#
# Indices 1 2 3 4 5 6 
#
# 1 113.4545 34.3436 9.8189 -17.4090 4.6581 36.6369
# 2 34.3436 69.1967 6.0803 -7.5303 13.1381 -9.5100
# 3 9.8189 6.0803 35.8287 -2.5951 2.7918 6.4415
# 4 -17.4090 -7.5303 -2.5951 21.3334 -5.3317 -7.2618
# 5 4.6581 13.1381 2.7918 -5.3317 28.1705 -0.9300
# 6 36.6369 -9.5100 6.4415 -7.2618 -0.9300 31.2156
#
#
#
# Elastic Compliance Matrix: (Units=1/GPa)
#
#
# Indices 1 2 3 4 5 6 
#
# 1 0.026190 -0.018387 0.002387 0.003866 0.003557 -0.035827
# 2 -0.018387 0.030640 -0.005040 0.004084 -0.008900 0.032640
# 3 0.002387 -0.005040 0.030122 -0.000135 -0.001406 -0.010626
# 4 0.003866 0.004084 -0.000135 0.057106 0.008617 0.010276
# 5 0.003557 -0.008900 -0.001406 0.008617 0.040719 -0.003378
# 6 -0.035827 0.032640 -0.010626 0.010276 -0.003378 0.088512
#
#
# Mechanical properties :
#
#
# Convention : Reuss Voigt Hill
#
# Bulk Modulus (GPa) = 22.28520 35.44062 28.86291
# Shear Modulus (GPa) = 15.13655 27.35969 21.24812
#
# Velocity S-wave (km/s) = 2.61796 3.51970 3.10177
# Velocity P-wave (km/s) = 4.38507 5.70657 5.08890
#
# Compressibility (1/GPa) = 0.04487283
#
# Stress axis : x y z
#
# Youngs Moduli (GPa) = 38.18252 32.63689 33.19849
#
# Poissons Ratio (x) = 0.60009 -0.07925
# Poissons Ratio (y) = 0.70206 0.16731
# Poissons Ratio (z) = -0.09114 0.16448
#
# Static dielectric constant tensor:
#      x y z
#    x 1.950760 0.137590 -0.007610 
#    y 0.137590 1.991770 -0.047580 
#    z -0.007610 -0.047580 1.799160 
# 
# From -- ./inp_files/294800.got.cif
#   From: 2010.05.17/outbox.cif.g08.bks.cpg/sg2_148_cif.got.tgz:294800.got - 2010.06.03 11:33:40.
