data_PCOD9078247
_publ_section_title
;
Structure prediction by ZEFSAII (Michael W. Deem and Ramdas Pophale) SiO2 
 PCOD9078247
Probable space group: P -1
;
_chemical_formula_sum "Si O2"
_cell_formula_units_Z 16
_cell_length_a 8.702364
_cell_length_b 10.104817
_cell_length_c 11.551332
_cell_angle_alpha 113.088373
_cell_angle_beta 117.415624
_cell_angle_gamma 60.168740
_cell_volume 764.466862
_symmetry_space_group_name_H-M "P -1"
_symmetry_group_IT_number 2
_symmetry_cell_setting 'triclinic'
loop_
_space_group_symop_operation_xyz
x,y,z
-x,-y,-z
loop_
_atom_site_type_symbol
_atom_site_label
_atom_site_fract_x
_atom_site_fract_y
_atom_site_fract_z
Si Si1 0.582784 0.166973 0.623928
Si Si2 0.149093 0.751314 0.708785
Si Si3 0.268381 0.676469 0.085920
Si Si4 0.784456 0.097365 0.423889
Si Si5 0.440022 0.132844 0.176753
Si Si6 0.105304 0.048381 0.950168
Si Si7 0.514578 0.337928 0.070312
Si Si8 0.734176 0.809592 0.625739
O O1 0.639483 0.285124 0.756108
O O2 0.682834 0.136369 0.524124
O O3 0.366660 0.226214 0.532791
O O4 0.657073 0.000322 0.659032
O O5 0.204028 0.761167 0.599167
O O6 0.323027 0.627016 0.792853
O O7 0.955088 0.736764 0.660054
O O8 0.118314 0.923703 0.811683
O O9 0.334197 0.491641 0.032897
O O10 0.046663 0.774961 0.058887
O O11 0.371973 0.725958 0.031754
O O12 0.647247 0.040209 0.275480
O O13 0.000000 0.000000 0.500000
O O14 0.463473 0.231470 0.109151
O O15 0.327442 0.229535 0.283612
O O16 0.306179 0.049175 0.054619
O O17 0.000000 0.000000 0.000000
#
# Coordination Sequence:
#
# PCOD9078247 Si02
#       8
#     2   2   2   2   2   2   2   2
#     4  10  20  35  58  89 112 159 201 239 298 358
#     4  11  20  38  58  89 121 153 196 248 302 339
#     4  11  21  42  61  82 122 162 199 236 305 356
#     4  10  19  35  55  85 121 149 189 251 293 339
#     4  10  22  36  55  91 117 154 203 241 297 351
#     4  12  20  37  63  89 116 157 199 244 300 358
#     4  10  24  38  59  87 121 157 195 253 293 352
#     4  10  18  35  60  85 119 151 197 252 291 351
#
# _framework density 20.929618999999999
#
# number of rings (size 3 to 8) (size 9 to 14) (size 15 to 20)
#    0.000    1.500    5.000    0.000    0.000    2.500 
#    4.500    6.250    0.000    0.000    0.000    0.000 
#    0.000    0.000    0.000    0.000    0.000    0.000 
#
# Total GULP energy -89099.698323 kJ/mol
# GULP energy per Si atom -5568.731145 kJ/mol
# Density = 2.088198 g / cm^3
# Si number density = 20.929619 Si / 1000 Ang^3
#
#
#
# Elastic Constant Matrix: (Units=GPa)
#
#
# Indices 1 2 3 4 5 6 
#
# 1 117.4426 20.5485 38.1830 -15.3564 6.1300 1.6902
# 2 20.5485 56.0015 16.6182 -16.5715 -2.0650 -10.2670
# 3 38.1830 16.6182 84.6068 -12.6954 8.3246 2.1792
# 4 -15.3564 -16.5715 -12.6954 17.7135 -3.6649 3.5801
# 5 6.1300 -2.0650 8.3246 -3.6649 52.1630 -13.2957
# 6 1.6902 -10.2670 2.1792 3.5801 -13.2957 19.3614
#
#
#
# Elastic Compliance Matrix: (Units=1/GPa)
#
#
# Indices 1 2 3 4 5 6 
#
# 1 0.010825 -0.002037 -0.003445 0.005455 -0.001326 -0.003557
# 2 -0.002037 0.029362 -0.002794 0.021802 0.007813 0.017397
# 3 -0.003445 -0.002794 0.015306 0.005953 -0.003334 -0.006294
# 4 0.005455 0.021802 0.005953 0.087330 0.004784 -0.002448
# 5 -0.001326 0.007813 -0.003334 0.004784 0.026013 0.021613
# 6 -0.003557 0.017397 -0.006294 -0.002448 0.021613 0.077188
#
#
# Mechanical properties :
#
#
# Convention : Reuss Voigt Hill
#
# Bulk Modulus (GPa) = 25.67846 45.41670 35.54758
# Shear Modulus (GPa) = 18.14525 30.02765 24.08645
#
# Velocity S-wave (km/s) = 2.94762 3.79185 3.39607
# Velocity P-wave (km/s) = 4.88674 6.39669 5.69201
#
# Compressibility (1/GPa) = 0.03894314
#
# Stress axis : x y z
#
# Youngs Moduli (GPa) = 92.38141 34.05786 65.33390
#
# Poissons Ratio (x) = 0.06936 0.22505
# Poissons Ratio (y) = 0.18814 0.18251
# Poissons Ratio (z) = 0.31821 0.09514
#
# Static dielectric constant tensor:
#      x y z
#    x 1.784010 -0.004770 0.019110 
#    y -0.004770 1.813130 -0.027530 
#    z 0.019110 -0.027530 1.818390 
# 
# From -- ./inp_files/388085.got.cif
#   From: 2010.05.17/outbox.cif.g08.bks.cpg/sg2_195_cif.got.tgz:388085.got - 2010.06.03 11:33:40.
