data_PCOD9078629
_publ_section_title
;
Structure prediction by ZEFSAII (Michael W. Deem and Ramdas Pophale) SiO2 
 PCOD9078629
Probable space group: P -1
;
_chemical_formula_sum "Si O2"
_cell_formula_units_Z 16
_cell_length_a 23.812908
_cell_length_b 5.231669
_cell_length_c 6.862319
_cell_angle_alpha 128.906971
_cell_angle_beta 118.813268
_cell_angle_gamma 77.763943
_cell_volume 577.717083
_symmetry_space_group_name_H-M "P -1"
_symmetry_group_IT_number 2
_symmetry_cell_setting 'triclinic'
loop_
_space_group_symop_operation_xyz
x,y,z
-x,-y,-z
loop_
_atom_site_type_symbol
_atom_site_label
_atom_site_fract_x
_atom_site_fract_y
_atom_site_fract_z
Si Si1 0.587069 0.716721 0.562410
Si Si2 0.779284 0.873560 0.539101
Si Si3 0.536159 0.677475 0.900332
Si Si4 0.826178 0.898978 0.204420
Si Si5 0.910985 0.842445 0.635587
Si Si6 0.659899 0.461262 0.057711
Si Si7 0.047392 0.731049 0.407877
Si Si8 0.707054 0.475723 0.720982
O O1 0.560656 0.649222 0.705827
O O2 0.519452 0.629202 0.292696
O O3 0.641936 0.478225 0.489471
O O4 0.624784 0.087259 0.800458
O O5 0.792448 0.001009 0.395505
O O6 0.853572 0.847736 0.699842
O O7 0.736511 0.145943 0.668209
O O8 0.729893 0.533455 0.311194
O O9 0.602960 0.672165 0.126845
O O10 0.500000 0.000000 0.000000
O O11 0.874580 0.682312 0.298646
O O12 0.880254 0.163007 0.330567
O O13 0.770062 0.731169 0.892785
O O14 0.965224 0.635317 0.703942
O O15 0.936925 0.205810 0.765060
O O16 0.682198 0.587331 0.940597
O O17 0.000000 0.000000 0.500000
#
# Coordination Sequence:
#
# PCOD9078629 Si02
#       8
#     2   2   2   2   2   2   2   2
#     4  10  22  33  53  74 101 132 177 221 265 332
#     4   8  18  34  51  74 108 136 178 224 275 323
#     4  10  21  37  51  70 103 136 172 219 272 324
#     4   7  19  29  52  75 108 135 184 222 266 331
#     4   8  18  31  52  80 112 142 191 226 275 330
#     4  10  20  34  51  78 101 132 180 223 265 333
#     4   9  16  31  56  81 109 151 187 225 279 331
#     4  10  18  36  51  76 104 141 172 221 278 323
#
# _framework density 27.695217
#
# number of rings (size 3 to 8) (size 9 to 14) (size 15 to 20)
#    1.500    1.250    0.000    1.500    1.750    1.500 
#    4.500    0.000    0.000    3.750    0.000    0.000 
#    0.000    0.000    0.000    0.000    0.000    0.000 
#
# Total GULP energy -89069.892093 kJ/mol
# GULP energy per Si atom -5566.868256 kJ/mol
# Density = 2.763218 g / cm^3
# Si number density = 27.695217 Si / 1000 Ang^3
#
#
#
# Elastic Constant Matrix: (Units=GPa)
#
#
# Indices 1 2 3 4 5 6 
#
# 1 108.2918 7.2431 -2.8591 -7.7489 -12.0006 -8.3843
# 2 7.2431 129.1020 -3.9111 1.8028 -4.3258 -23.5832
# 3 -2.8591 -3.9111 36.2752 -16.0171 6.5695 -12.5052
# 4 -7.7489 1.8028 -16.0171 38.5967 -8.6500 1.5146
# 5 -12.0006 -4.3258 6.5695 -8.6500 16.4151 5.1866
# 6 -8.3843 -23.5832 -12.5052 1.5146 5.1866 44.9567
#
#
#
# Elastic Compliance Matrix: (Units=1/GPa)
#
#
# Indices 1 2 3 4 5 6 
#
# 1 0.010772 -0.000088 0.001735 0.004943 0.009384 0.001196
# 2 -0.000088 0.008836 0.003193 0.000574 -0.000462 0.005541
# 3 0.001735 0.003193 0.041353 0.014225 -0.011477 0.014346
# 4 0.004943 0.000574 0.014225 0.036423 0.016622 0.002035
# 5 0.009384 -0.000462 -0.011477 0.016622 0.084812 -0.012029
# 6 0.001196 0.005541 0.014346 0.002035 -0.012029 0.030683
#
#
# Mechanical properties :
#
#
# Convention : Reuss Voigt Hill
#
# Bulk Modulus (GPa) = 14.15598 30.51275 22.33437
# Shear Modulus (GPa) = 22.05105 38.20679 30.12892
#
# Velocity S-wave (km/s) = 2.82477 3.71825 3.30187
# Velocity P-wave (km/s) = 3.97008 5.42910 4.75587
#
# Compressibility (1/GPa) = 0.07064151
#
# Stress axis : x y z
#
# Youngs Moduli (GPa) = 92.83089 113.17145 24.18199
#
# Poissons Ratio (x) = 0.00994 -0.04196
# Poissons Ratio (y) = 0.00816 -0.07721
# Poissons Ratio (z) = -0.16106 -0.36134
#
# Static dielectric constant tensor:
#      x y z
#    x 2.242760 0.018800 0.008380 
#    y 0.018800 2.329040 -0.048580 
#    z 0.008380 -0.048580 2.374100 
# 
# From -- ./inp_files/350608.got.cif
#   From: 2010.05.17/outbox.cif.g08.bks.cpg/sg2_176_cif.got.tgz:350608.got - 2010.06.03 11:33:40.
