data_PCOD9078493
_publ_section_title
;
Structure prediction by ZEFSAII (Michael W. Deem and Ramdas Pophale) SiO2 
 PCOD9078493
Probable space group: P -1
;
_chemical_formula_sum "Si O2"
_cell_formula_units_Z 16
_cell_length_a 8.385566
_cell_length_b 19.800938
_cell_length_c 7.679602
_cell_angle_alpha 53.544915
_cell_angle_beta 128.466005
_cell_angle_gamma 94.441217
_cell_volume 711.380336
_symmetry_space_group_name_H-M "P -1"
_symmetry_group_IT_number 2
_symmetry_cell_setting 'triclinic'
loop_
_space_group_symop_operation_xyz
x,y,z
-x,-y,-z
loop_
_atom_site_type_symbol
_atom_site_label
_atom_site_fract_x
_atom_site_fract_y
_atom_site_fract_z
Si Si1 0.287073 0.619841 0.787803
Si Si2 0.991631 0.286258 0.998398
Si Si3 0.578573 0.714242 0.242434
Si Si4 0.122858 0.392451 0.684254
Si Si5 0.923138 0.793414 0.434136
Si Si6 0.878982 0.136357 0.114429
Si Si7 0.755957 0.985099 0.169148
Si Si8 0.513272 0.579267 0.643237
O O1 0.469790 0.601426 0.786865
O O2 0.076134 0.612125 0.561138
O O3 0.168355 0.723239 0.629611
O O4 0.375003 0.533655 0.116224
O O5 0.736965 0.374856 0.688331
O O6 0.158518 0.321921 0.975159
O O7 0.960905 0.208518 0.977040
O O8 0.069220 0.239551 0.309484
O O9 0.649788 0.650376 0.213956
O O10 0.727349 0.771054 0.255294
O O11 0.639168 0.634131 0.556898
O O12 0.322383 0.794700 0.993941
O O13 0.000000 0.500000 0.500000
O O14 0.864550 0.902642 0.225627
O O15 0.096521 0.060723 0.485526
O O16 0.777650 0.081013 0.013541
O O17 0.500000 0.000000 0.000000
#
# Coordination Sequence:
#
# PCOD9078493 Si02
#       8
#     2   2   2   2   2   2   2   2
#     4   9  20  37  53  79 120 156 192 248 293 344
#     4   9  20  37  53  85 119 159 193 244 292 349
#     4  10  20  36  59  85 117 158 197 245 291 347
#     4  10  22  36  54  83 121 165 201 240 290 347
#     4  10  20  33  59  87 111 155 195 240 296 356
#     4   9  19  37  60  89 117 152 196 246 299 357
#     4  10  18  35  63  92 116 149 197 245 304 362
#     4   9  19  37  53  77 115 162 189 239 291 345
#
# _framework density 22.491484
#
# number of rings (size 3 to 8) (size 9 to 14) (size 15 to 20)
#    0.000    2.500    1.250    0.000    3.500    1.500 
#   18.000    0.000    0.000   20.250    0.000    0.000 
#    0.000    0.000    0.000    0.000    0.000    0.000 
#
# Total GULP energy -89243.754130 kJ/mol
# GULP energy per Si atom -5577.734633 kJ/mol
# Density = 2.244029 g / cm^3
# Si number density = 22.491484 Si / 1000 Ang^3
#
#
#
# Elastic Constant Matrix: (Units=GPa)
#
#
# Indices 1 2 3 4 5 6 
#
# 1 79.8336 47.1649 15.4436 -21.0791 1.0720 1.9703
# 2 47.1649 127.1271 23.3349 -43.7896 8.4547 1.2155
# 3 15.4436 23.3349 52.8390 -13.3715 12.2070 -6.1089
# 4 -21.0791 -43.7896 -13.3715 34.0620 -1.4978 10.0773
# 5 1.0720 8.4547 12.2070 -1.4978 30.8851 2.9393
# 6 1.9703 1.2155 -6.1089 10.0773 2.9393 29.3996
#
#
#
# Elastic Compliance Matrix: (Units=1/GPa)
#
#
# Indices 1 2 3 4 5 6 
#
# 1 0.016915 -0.004040 -0.002726 0.005364 0.002198 -0.003591
# 2 -0.004040 0.017145 -0.001413 0.021188 -0.002228 -0.007772
# 3 -0.002726 -0.001413 0.024090 0.004138 -0.009292 0.004757
# 4 0.005364 0.021188 0.004138 0.068442 -0.002054 -0.023630
# 5 0.002198 -0.002228 -0.009292 -0.002054 0.036958 -0.004977
# 6 -0.003591 -0.007772 0.004757 -0.023630 -0.004977 0.044162
#
#
# Mechanical properties :
#
#
# Convention : Reuss Voigt Hill
#
# Bulk Modulus (GPa) = 23.92694 47.96519 35.94607
# Shear Modulus (GPa) = 21.00843 30.45974 25.73408
#
# Velocity S-wave (km/s) = 3.05956 3.68404 3.38623
# Velocity P-wave (km/s) = 4.81067 6.28239 5.59513
#
# Compressibility (1/GPa) = 0.04179389
#
# Stress axis : x y z
#
# Youngs Moduli (GPa) = 59.11827 58.32582 41.51143
#
# Poissons Ratio (x) = 0.23561 0.11314
# Poissons Ratio (y) = 0.23881 0.05865
# Poissons Ratio (z) = 0.16113 0.08241
#
# Static dielectric constant tensor:
#      x y z
#    x 1.881030 0.010860 0.015090 
#    y 0.010860 1.948120 0.005800 
#    z 0.015090 0.005800 1.845470 
# 
# From -- ./inp_files/221866.got.cif
#   From: 2010.05.17/outbox.cif.g08.bks.cpg/sg2_111_cif.got.tgz:221866.got - 2010.06.03 11:33:40.
