data_PCOD9078886
_publ_section_title
;
Structure prediction by ZEFSAII (Michael W. Deem and Ramdas Pophale) SiO2 
 PCOD9078886
Probable space group: P -1
;
_chemical_formula_sum "Si O2"
_cell_formula_units_Z 16
_cell_length_a 13.805389
_cell_length_b 15.016377
_cell_length_c 7.773036
_cell_angle_alpha 75.879640
_cell_angle_beta 114.348515
_cell_angle_gamma 150.098253
_cell_volume 708.659271
_symmetry_space_group_name_H-M "P -1"
_symmetry_group_IT_number 2
_symmetry_cell_setting 'triclinic'
loop_
_space_group_symop_operation_xyz
x,y,z
-x,-y,-z
loop_
_atom_site_type_symbol
_atom_site_label
_atom_site_fract_x
_atom_site_fract_y
_atom_site_fract_z
Si Si1 0.019135 0.295714 0.713650
Si Si2 0.250238 0.282139 0.402230
Si Si3 0.424997 0.110984 0.812011
Si Si4 0.773384 0.381443 0.409154
Si Si5 0.391261 0.920847 0.644337
Si Si6 0.928008 0.045185 0.595568
Si Si7 0.155636 0.542944 0.182131
Si Si8 0.952117 0.216904 0.087532
O O1 0.218569 0.508961 0.706268
O O2 0.834076 0.199989 0.505522
O O3 0.017210 0.185556 0.731401
O O4 0.956596 0.262430 0.880639
O O5 0.500000 0.500000 0.500000
O O6 0.126915 0.268894 0.214383
O O7 0.126681 0.181983 0.543729
O O8 0.181646 0.132123 0.341479
O O9 0.650607 0.330786 0.866738
O O10 0.481832 0.053375 0.797418
O O11 0.265286 0.048452 0.600625
O O12 0.277177 0.990570 0.925992
O O13 0.633341 0.205547 0.279340
O O14 0.741250 0.356331 0.603911
O O15 0.000000 0.500000 0.500000
O O16 0.500000 0.000000 0.500000
O O17 0.018939 0.349003 0.201082
O O18 0.000000 0.500000 0.000000
#
# Coordination Sequence:
#
# PCOD9078886 Si02
#       8
#     2   2   2   2   2   2   2   2
#     4  10  22  40  56  86 126 160 201 248 299 369
#     4  10  20  40  70  91 115 153 200 255 312 367
#     4  10  22  40  60  87 120 161 205 255 304 360
#     4  10  19  36  58  78 116 161 206 249 298 351
#     4  10  18  36  60  83 112 161 216 246 291 356
#     4   9  20  40  65  89 117 154 203 249 307 368
#     4  12  23  38  58  87 123 161 207 254 301 354
#     4  11  24  41  58  91 127 158 204 252 306 366
#
# _framework density 22.577846999999998
#
# number of rings (size 3 to 8) (size 9 to 14) (size 15 to 20)
#    0.000    1.750    1.250    5.250    0.000    1.000 
#    6.750    0.625    0.000    0.000    0.000    0.000 
#    0.000    0.000    0.000    0.000    0.000    0.000 
#
# Total GULP energy -89232.918135 kJ/mol
# GULP energy per Si atom -5577.057383 kJ/mol
# Density = 2.252646 g / cm^3
# Si number density = 22.577847 Si / 1000 Ang^3
#
#
#
# Elastic Constant Matrix: (Units=GPa)
#
#
# Indices 1 2 3 4 5 6 
#
# 1 72.8512 38.7653 16.4715 -1.3508 6.3614 -10.7089
# 2 38.7653 105.2493 20.5815 -15.0893 21.3200 5.5625
# 3 16.4715 20.5815 69.1606 -10.8323 10.2530 3.9947
# 4 -1.3508 -15.0893 -10.8323 27.8033 5.0916 3.8529
# 5 6.3614 21.3200 10.2530 5.0916 31.0478 -3.6194
# 6 -10.7089 5.5625 3.9947 3.8529 -3.6194 55.8905
#
#
#
# Elastic Compliance Matrix: (Units=1/GPa)
#
#
# Indices 1 2 3 4 5 6 
#
# 1 0.019653 -0.008828 -0.004324 -0.007302 0.005337 0.005802
# 2 -0.008828 0.017238 0.001167 0.012495 -0.013069 -0.005198
# 3 -0.004324 0.001167 0.017944 0.009303 -0.007760 -0.003371
# 4 -0.007302 0.012495 0.009303 0.050689 -0.019408 -0.008059
# 5 0.005337 -0.013069 -0.007760 -0.019408 0.046678 0.007239
# 6 0.005802 -0.005198 -0.003371 -0.008059 0.007239 0.020786
#
#
# Mechanical properties :
#
#
# Convention : Reuss Voigt Hill
#
# Bulk Modulus (GPa) = 32.39768 44.32195 38.35982
# Shear Modulus (GPa) = 24.12615 34.37784 29.25200
#
# Velocity S-wave (km/s) = 3.27245 3.90633 3.60336
# Velocity P-wave (km/s) = 5.35342 6.32608 5.85996
#
# Compressibility (1/GPa) = 0.03086641
#
# Stress axis : x y z
#
# Youngs Moduli (GPa) = 50.88282 58.01234 55.73039
#
# Poissons Ratio (x) = 0.51211 0.24095
# Poissons Ratio (y) = 0.44918 -0.06505
# Poissons Ratio (z) = 0.22000 -0.06772
#
# Static dielectric constant tensor:
#      x y z
#    x 1.858890 -0.075190 -0.042700 
#    y -0.075190 1.965950 0.029770 
#    z -0.042700 0.029770 1.856240 
# 
# From -- ./inp_files/314991.got.cif
#   From: 2010.05.17/outbox.cif.g08.bks.cpg/sg2_158_cif.got.tgz:314991.got - 2010.06.03 11:33:40.
