data_PCOD9078780
_publ_section_title
;
Structure prediction by ZEFSAII (Michael W. Deem and Ramdas Pophale) SiO2 
 PCOD9078780
Probable space group: P -1
;
_chemical_formula_sum "Si O2"
_cell_formula_units_Z 16
_cell_length_a 12.493543
_cell_length_b 8.994118
_cell_length_c 11.319277
_cell_angle_alpha 113.359537
_cell_angle_beta 127.268392
_cell_angle_gamma 44.774475
_cell_volume 711.653727
_symmetry_space_group_name_H-M "P -1"
_symmetry_group_IT_number 2
_symmetry_cell_setting 'triclinic'
loop_
_space_group_symop_operation_xyz
x,y,z
-x,-y,-z
loop_
_atom_site_type_symbol
_atom_site_label
_atom_site_fract_x
_atom_site_fract_y
_atom_site_fract_z
Si Si1 0.763735 0.421242 0.165418
Si Si2 0.476893 0.524617 0.186937
Si Si3 0.317804 0.966440 0.193851
Si Si4 0.959041 0.978935 0.100429
Si Si5 0.886339 0.456120 0.832854
Si Si6 0.512296 0.321802 0.379458
Si Si7 0.377721 0.078491 0.562732
Si Si8 0.065266 0.404096 0.311984
O O1 0.630506 0.485006 0.200015
O O2 0.870619 0.502212 0.245952
O O3 0.923746 0.168330 0.206709
O O4 0.656777 0.464797 0.986811
O O5 0.372641 0.764156 0.241265
O O6 0.551375 0.351919 0.283017
O O7 0.495111 0.921640 0.266301
O O8 0.170051 0.190338 0.230324
O O9 0.229085 0.965252 0.017220
O O10 0.082744 0.746544 0.159708
O O11 0.000000 0.000000 0.000000
O O12 0.675169 0.627087 0.740458
O O13 0.941765 0.436362 0.727594
O O14 0.000000 0.500000 0.000000
O O15 0.500000 0.500000 0.500000
O O16 0.635566 0.093724 0.453340
O O17 0.196344 0.304036 0.478657
O O18 0.500000 0.000000 0.500000
#
# Coordination Sequence:
#
# PCOD9078780 Si02
#       8
#     2   2   2   2   2   2   2   2
#     4  10  22  41  60  92 126 159 202 251 312 365
#     4  10  23  39  63  89 126 164 197 253 315 359
#     4  10  18  36  58  84 118 153 201 242 303 354
#     4  11  19  33  61  89 115 153 200 256 298 350
#     4  12  21  35  60  96 121 150 209 261 297 357
#     4  12  23  36  63  93 125 159 210 252 301 369
#     4  10  20  36  54  86 122 156 197 254 302 351
#     4  11  20  36  61  87 117 157 204 252 299 356
#
# _framework density 22.482842000000002
#
# number of rings (size 3 to 8) (size 9 to 14) (size 15 to 20)
#    0.000    1.250    5.000    3.750    1.750    0.000 
#    0.000    2.500    0.000    5.250    0.000    0.000 
#    0.000    0.000    0.000    0.000    0.000    0.000 
#
# Total GULP energy -89234.222798 kJ/mol
# GULP energy per Si atom -5577.138925 kJ/mol
# Density = 2.243167 g / cm^3
# Si number density = 22.482842 Si / 1000 Ang^3
#
#
#
# Elastic Constant Matrix: (Units=GPa)
#
#
# Indices 1 2 3 4 5 6 
#
# 1 130.4108 26.7926 42.0743 -15.6847 -5.5767 14.4524
# 2 26.7926 53.9877 12.8422 -20.3771 -19.4006 22.0704
# 3 42.0743 12.8422 71.0371 -19.1077 0.2992 8.3140
# 4 -15.6847 -20.3771 -19.1077 31.7368 6.3606 -5.2671
# 5 -5.5767 -19.4006 0.2992 6.3606 38.8922 -11.4415
# 6 14.4524 22.0704 8.3140 -5.2671 -11.4415 35.0776
#
#
#
# Elastic Compliance Matrix: (Units=1/GPa)
#
#
# Indices 1 2 3 4 5 6 
#
# 1 0.010204 -0.003979 -0.005454 -0.000802 -0.000558 -0.000710
# 2 -0.003979 0.037281 0.002525 0.018753 0.010148 -0.016290
# 3 -0.005454 0.002525 0.020215 0.011044 -0.002447 -0.003273
# 4 -0.000802 0.018753 0.011044 0.048813 -0.000903 -0.007051
# 5 -0.000558 0.010148 -0.002447 -0.000903 0.032278 0.004818
# 6 -0.000710 -0.016290 -0.003273 -0.007051 0.004818 0.040338
#
#
# Mechanical properties :
#
#
# Convention : Reuss Voigt Hill
#
# Bulk Modulus (GPa) = 18.55874 46.53931 32.54902
# Shear Modulus (GPa) = 22.63386 32.72308 27.67847
#
# Velocity S-wave (km/s) = 3.17632 3.81920 3.51250
# Velocity P-wave (km/s) = 4.66096 6.33981 5.56407
#
# Compressibility (1/GPa) = 0.05388297
#
# Stress axis : x y z
#
# Youngs Moduli (GPa) = 98.00329 26.82319 49.46773
#
# Poissons Ratio (x) = 0.10674 0.26982
# Poissons Ratio (y) = 0.38999 -0.12492
# Poissons Ratio (z) = 0.53456 -0.06774
#
# Static dielectric constant tensor:
#      x y z
#    x 1.856390 0.010970 0.037150 
#    y 0.010970 1.941420 0.047830 
#    z 0.037150 0.047830 1.993520 
# 
# From -- ./inp_files/419549.got.cif
#   From: 2010.05.17/outbox.cif.g08.bks.cpg/sg2_210_cif.got.tgz:419549.got - 2010.06.03 11:33:40.
