data_PCOD9078863
_publ_section_title
;
Structure prediction by ZEFSAII (Michael W. Deem and Ramdas Pophale) SiO2 
 PCOD9078863
Probable space group: P -1
;
_chemical_formula_sum "Si O2"
_cell_formula_units_Z 16
_cell_length_a 9.100720
_cell_length_b 15.670852
_cell_length_c 11.819234
_cell_angle_alpha 44.146592
_cell_angle_beta 48.110692
_cell_angle_gamma 32.594672
_cell_volume 623.415697
_symmetry_space_group_name_H-M "P -1"
_symmetry_group_IT_number 2
_symmetry_cell_setting 'triclinic'
loop_
_space_group_symop_operation_xyz
x,y,z
-x,-y,-z
loop_
_atom_site_type_symbol
_atom_site_label
_atom_site_fract_x
_atom_site_fract_y
_atom_site_fract_z
Si Si1 0.790278 0.279640 0.002557
Si Si2 0.240456 0.560150 0.347324
Si Si3 0.663550 0.808840 0.462746
Si Si4 0.253423 0.701461 0.409461
Si Si5 0.968396 0.638286 0.770222
Si Si6 0.308975 0.838509 0.449349
Si Si7 0.137625 0.573608 0.999973
Si Si8 0.374955 0.892824 0.766467
O O1 0.849305 0.359252 0.806492
O O2 0.451399 0.419476 0.033205
O O3 0.926957 0.269293 0.056740
O O4 0.854873 0.111521 0.099102
O O5 0.032154 0.383373 0.512458
O O6 0.269521 0.675794 0.291580
O O7 0.509752 0.357040 0.408059
O O8 0.497702 0.863190 0.380125
O O9 0.485462 0.836177 0.633266
O O10 0.713916 0.929924 0.341009
O O11 0.500000 0.500000 0.500000
O O12 0.291177 0.811213 0.352035
O O13 0.639044 0.767702 0.831967
O O14 0.014688 0.732569 0.573565
O O15 0.113110 0.593983 0.857937
O O16 0.038157 0.473465 0.839857
O O17 0.000000 0.000000 0.500000
#
# Coordination Sequence:
#
# PCOD9078863 Si02
#       8
#     2   2   2   2   2   2   2   2
#     4  10  22  39  63 100 132 184 226 283 335 423
#     4  11  24  43  70 103 142 176 227 287 356 402
#     4  11  24  43  67 102 136 183 230 287 342 403
#     4  10  21  37  61  96 137 174 219 281 341 396
#     4  10  18  36  59  91 130 180 223 285 331 404
#     4  11  25  41  69 105 140 178 233 284 341 416
#     4   9  20  34  60  92 134 173 233 272 336 407
#     4  10  23  41  66  93 140 181 232 278 340 414
#
# _framework density 25.665058999999999
#
# number of rings (size 3 to 8) (size 9 to 14) (size 15 to 20)
#    0.000    1.750    1.250    2.625    8.750    2.500 
#    0.000    0.000    0.000    1.500    0.000    0.000 
#    0.000    0.000    0.000    0.000    0.000    0.000 
#
# Total GULP energy -89224.834037 kJ/mol
# GULP energy per Si atom -5576.552127 kJ/mol
# Density = 2.560664 g / cm^3
# Si number density = 25.665059 Si / 1000 Ang^3
#
#
#
# Elastic Constant Matrix: (Units=GPa)
#
#
# Indices 1 2 3 4 5 6 
#
# 1 140.2246 57.9503 34.6545 -4.4872 10.6490 32.4918
# 2 57.9503 121.5262 16.8667 -8.6971 6.2020 13.7294
# 3 34.6545 16.8667 68.0490 -11.0684 -7.0270 14.4166
# 4 -4.4872 -8.6971 -11.0684 24.5705 6.1384 0.1161
# 5 10.6490 6.2020 -7.0270 6.1384 27.4847 -3.7186
# 6 32.4918 13.7294 14.4166 0.1161 -3.7186 54.4764
#
#
#
# Elastic Compliance Matrix: (Units=1/GPa)
#
#
# Indices 1 2 3 4 5 6 
#
# 1 0.011419 -0.004004 -0.004292 0.000087 -0.005318 -0.005029
# 2 -0.004004 0.010518 -0.000119 0.003352 -0.001649 -0.000351
# 3 -0.004292 -0.000119 0.018908 0.006506 0.004787 -0.002101
# 4 0.000087 0.003352 0.006506 0.047390 -0.010173 -0.003414
# 5 -0.005318 -0.001649 0.004787 -0.010173 0.043026 0.005279
# 6 -0.005029 -0.000351 -0.002101 -0.003414 0.005279 0.022368
#
#
# Mechanical properties :
#
#
# Convention : Reuss Voigt Hill
#
# Bulk Modulus (GPa) = 41.63987 60.97142 51.30564
# Shear Modulus (GPa) = 28.01691 35.99486 32.00588
#
# Velocity S-wave (km/s) = 3.30758 3.74904 3.53521
# Velocity P-wave (km/s) = 5.55395 6.52293 6.05784
#
# Compressibility (1/GPa) = 0.02401545
#
# Stress axis : x y z
#
# Youngs Moduli (GPa) = 87.57623 95.07539 52.88698
#
# Poissons Ratio (x) = 0.38064 0.22701
# Poissons Ratio (y) = 0.35061 0.00628
# Poissons Ratio (z) = 0.37591 0.01130
#
# Static dielectric constant tensor:
#      x y z
#    x 2.105000 0.038390 0.015600 
#    y 0.038390 2.119080 -0.122390 
#    z 0.015600 -0.122390 2.065430 
# 
# From -- ./inp_files/395443.got.cif
#   From: 2010.05.17/outbox.cif.g08.bks.cpg/sg2_198_cif.got.tgz:395443.got - 2010.06.03 11:33:40.
