data_PCOD9078741
_publ_section_title
;
Structure prediction by ZEFSAII (Michael W. Deem and Ramdas Pophale) SiO2 
 PCOD9078741
Probable space group: P -1
;
_chemical_formula_sum "Si O2"
_cell_formula_units_Z 12
_cell_length_a 8.479894
_cell_length_b 8.613123
_cell_length_c 13.982957
_cell_angle_alpha 73.695532
_cell_angle_beta 54.264405
_cell_angle_gamma 109.621186
_cell_volume 610.382556
_symmetry_space_group_name_H-M "P -1"
_symmetry_group_IT_number 2
_symmetry_cell_setting 'triclinic'
loop_
_space_group_symop_operation_xyz
x,y,z
-x,-y,-z
loop_
_atom_site_type_symbol
_atom_site_label
_atom_site_fract_x
_atom_site_fract_y
_atom_site_fract_z
Si Si1 0.198367 0.527624 0.997274
Si Si2 0.465800 0.799576 0.431206
Si Si3 0.414030 0.014244 0.247754
Si Si4 0.094397 0.831922 0.678131
Si Si5 0.673575 0.704072 0.699185
Si Si6 0.103934 0.389469 0.531867
O O1 0.396148 0.517638 0.872445
O O2 0.377728 0.774889 0.921927
O O3 0.000000 0.500000 0.000000
O O4 0.051043 0.353994 0.160095
O O5 0.507957 0.911856 0.294017
O O6 0.275415 0.809369 0.558259
O O7 0.308194 0.553307 0.509091
O O8 0.728279 0.941825 0.370949
O O9 0.161370 0.837723 0.309416
O O10 0.342527 0.110478 0.338199
O O11 0.881630 0.788474 0.692237
O O12 0.755257 0.646150 0.589557
O O13 0.000000 0.500000 0.500000
#
# Coordination Sequence:
#
# PCOD9078741 Si02
#       6
#     2   2   2   2   2   2
#     4  10  21  36  58  79 114 148 189 223 275 335
#     4  10  21  34  63  78 118 144 182 229 276 328
#     4   9  19  35  60  79 105 153 183 221 272 336
#     4  11  19  36  55  90 107 146 185 230 275 322
#     4  10  20  33  64  82 108 147 190 224 271 332
#     4  10  18  36  57  87 108 147 183 225 278 329
#
# _framework density 19.659801999999999
#
# number of rings (size 3 to 8) (size 9 to 14) (size 15 to 20)
#    1.000    1.000    5.000    1.000    0.000    0.000 
#    0.000    2.500    0.000    0.000    0.000    0.000 
#    0.000    0.000    0.000    0.000    0.000    0.000 
#
# Total GULP energy -66833.457313 kJ/mol
# GULP energy per Si atom -5569.454776 kJ/mol
# Density = 1.961506 g / cm^3
# Si number density = 19.659802 Si / 1000 Ang^3
#
#
#
# Elastic Constant Matrix: (Units=GPa)
#
#
# Indices 1 2 3 4 5 6 
#
# 1 66.2804 22.0967 19.3232 2.5655 -22.6525 20.5724
# 2 22.0967 91.4259 11.7198 -26.9764 -9.0056 32.4448
# 3 19.3232 11.7198 88.7542 -24.2737 -12.2538 17.5521
# 4 2.5655 -26.9764 -24.2737 22.6496 6.2778 -9.5630
# 5 -22.6525 -9.0056 -12.2538 6.2778 22.7412 -6.9897
# 6 20.5724 32.4448 17.5521 -9.5630 -6.9897 31.2842
#
#
#
# Elastic Compliance Matrix: (Units=1/GPa)
#
#
# Indices 1 2 3 4 5 6 
#
# 1 0.048609 -0.020749 -0.017520 -0.066162 0.045764 -0.010617
# 2 -0.020749 0.037888 0.018366 0.063838 -0.019804 -0.020863
# 3 -0.017520 0.018366 0.027107 0.052459 -0.013006 -0.009604
# 4 -0.066162 0.063838 0.052459 0.200507 -0.069676 -0.006407
# 5 0.045764 -0.019804 -0.013006 -0.069676 0.093095 -0.002758
# 6 -0.010617 -0.020863 -0.009604 -0.006407 -0.002758 0.063398
#
#
# Mechanical properties :
#
#
# Convention : Reuss Voigt Hill
#
# Bulk Modulus (GPa) = 13.55057 39.19333 26.37195
# Shear Modulus (GPa) = 9.34564 28.22303 18.78433
#
# Velocity S-wave (km/s) = 2.18266 3.79300 3.09442
# Velocity P-wave (km/s) = 3.64136 6.25792 5.11962
#
# Compressibility (1/GPa) = 0.07379761
#
# Stress axis : x y z
#
# Youngs Moduli (GPa) = 20.57228 26.39365 36.89045
#
# Poissons Ratio (x) = 0.54764 0.64632
# Poissons Ratio (y) = 0.42685 -0.67751
# Poissons Ratio (z) = 0.36043 -0.48473
#
# Static dielectric constant tensor:
#      x y z
#    x 1.716210 -0.002810 -0.008170 
#    y -0.002810 1.718350 -0.035670 
#    z -0.008170 -0.035670 1.718510 
# 
# From -- ./inp_files/178026.got.cif
#   From: 2010.05.17/outbox.cif.g08.bks.cpg/sg2_90_cif.got.tgz:178026.got - 2010.06.03 11:33:40.
