data_PCOD9078305
_publ_section_title
;
Structure prediction by ZEFSAII (Michael W. Deem and Ramdas Pophale) SiO2 
 PCOD9078305
Probable space group: P -1
;
_chemical_formula_sum "Si O2"
_cell_formula_units_Z 16
_cell_length_a 15.110971
_cell_length_b 11.153393
_cell_length_c 17.239661
_cell_angle_alpha 62.028761
_cell_angle_beta 138.322829
_cell_angle_gamma 153.254925
_cell_volume 651.965185
_symmetry_space_group_name_H-M "P -1"
_symmetry_group_IT_number 2
_symmetry_cell_setting 'triclinic'
loop_
_space_group_symop_operation_xyz
x,y,z
-x,-y,-z
loop_
_atom_site_type_symbol
_atom_site_label
_atom_site_fract_x
_atom_site_fract_y
_atom_site_fract_z
Si Si1 0.304316 0.131454 0.980661
Si Si2 0.626176 0.867792 0.228888
Si Si3 0.901799 0.358169 0.181257
Si Si4 0.763588 0.838907 0.476082
Si Si5 0.882542 0.966410 0.677650
Si Si6 0.698627 0.351713 0.776457
Si Si7 0.053670 0.756224 0.246821
Si Si8 0.087996 0.927244 0.066314
O O1 0.344459 0.159400 0.090801
O O2 0.653040 0.424789 0.076534
O O3 0.144047 0.124462 0.854369
O O4 0.024401 0.752910 0.890637
O O5 0.794053 0.912123 0.382547
O O6 0.489186 0.857291 0.201926
O O7 0.280034 0.487007 0.076608
O O8 0.900914 0.199776 0.253604
O O9 0.038343 0.582860 0.271170
O O10 0.156119 0.621426 0.194787
O O11 0.500000 0.000000 0.000000
O O12 0.015578 0.064063 0.646814
O O13 0.483633 0.455439 0.417982
O O14 0.568355 0.794001 0.392106
O O15 0.844763 0.080556 0.655004
O O16 0.236612 0.001083 0.219272
O O17 0.000000 0.000000 0.000000
#
# Coordination Sequence:
#
# PCOD9078305 Si02
#       8
#     2   2   2   2   2   2   2   2
#     4  10  19  34  56  81 114 141 168 228 281 319
#     4   9  19  36  55  77 111 143 183 221 264 319
#     4  12  21  33  55  84 112 145 180 217 272 329
#     4   8  18  38  62  74 102 150 187 217 266 322
#     4  10  18  35  61  80 103 148 182 218 276 322
#     4   8  18  36  55  77 106 146 179 221 260 314
#     4  12  23  33  54  88 116 137 176 228 274 326
#     4  11  19  32  53  81 113 139 171 223 284 314
#
# _framework density 24.541188999999999
#
# number of rings (size 3 to 8) (size 9 to 14) (size 15 to 20)
#    0.750    1.250    5.000    0.375    0.000    1.500 
#    0.000    1.250    5.500    3.000    0.000    0.000 
#    0.000    0.000    0.000    0.000    0.000    0.000 
#
# Total GULP energy -89263.563011 kJ/mol
# GULP energy per Si atom -5578.972688 kJ/mol
# Density = 2.448533 g / cm^3
# Si number density = 24.541189 Si / 1000 Ang^3
#
#
#
# Elastic Constant Matrix: (Units=GPa)
#
#
# Indices 1 2 3 4 5 6 
#
# 1 35.5993 2.1179 -16.8903 2.9465 -26.9550 -14.0840
# 2 2.1179 64.4849 8.1976 -16.4473 -20.2823 -4.4908
# 3 -16.8903 8.1976 46.4655 -6.4494 -23.9633 -7.4971
# 4 2.9465 -16.4473 -6.4494 25.5027 3.9120 -10.0469
# 5 -26.9550 -20.2823 -23.9633 3.9120 45.9057 1.0399
# 6 -14.0840 -4.4908 -7.4971 -10.0469 1.0399 36.5912
#
#
#
# Elastic Compliance Matrix: (Units=1/GPa)
#
#
# Indices 1 2 3 4 5 6 
#
# 1 -0.034616 -0.015185 -0.040913 -0.020009 -0.046058 -0.027755
# 2 -0.015185 0.017166 -0.012042 0.009771 -0.008376 -0.003284
# 3 -0.040913 -0.012042 -0.014465 -0.009865 -0.035558 -0.021887
# 4 -0.020009 0.009771 -0.009865 0.050198 -0.016990 0.005742
# 5 -0.046058 -0.008376 -0.035558 -0.016990 -0.025396 -0.029984
# 6 -0.027755 -0.003284 -0.021887 0.005742 -0.029984 0.014187
#
#
# Mechanical properties :
#
#
# Convention : Reuss Voigt Hill
#
# Bulk Modulus (GPa) = -5.94552 14.82224 4.43836
# Shear Modulus (GPa) = 57.28098 31.80822 44.54460
#
# Velocity S-wave (km/s) = 4.83647 3.60407 4.26502
# Velocity P-wave (km/s) = 5.36289 4.83445 5.10551
#
# Compressibility (1/GPa) = -0.16819373
#
# Stress axis : x y z
#
# Youngs Moduli (GPa) = -28.88839 58.25524 -69.13368
#
# Poissons Ratio (x) = 0.88460 -2.82844
# Poissons Ratio (y) = -0.43867 -0.83249
# Poissons Ratio (z) = -1.18190 0.70150
#
# Static dielectric constant tensor:
#      x y z
#    x 2.081400 0.025710 -0.030610 
#    y 0.025710 1.933030 -0.050560 
#    z -0.030610 -0.050560 2.013920 
# 
# From -- ./inp_files/531132.got.cif
#   From: 2010.05.17/outbox.cif.g08.bks.cpg/sg2_266_cif.got.tgz:531132.got - 2010.06.03 11:33:40.
