data_PCOD9078532
_publ_section_title
;
Structure prediction by ZEFSAII (Michael W. Deem and Ramdas Pophale) SiO2 
 PCOD9078532
Probable space group: P -1
;
_chemical_formula_sum "Si O2"
_cell_formula_units_Z 16
_cell_length_a 11.708068
_cell_length_b 10.424396
_cell_length_c 15.444548
_cell_angle_alpha 38.518516
_cell_angle_beta 144.055375
_cell_angle_gamma 131.596492
_cell_volume 686.697167
_symmetry_space_group_name_H-M "P -1"
_symmetry_group_IT_number 2
_symmetry_cell_setting 'triclinic'
loop_
_space_group_symop_operation_xyz
x,y,z
-x,-y,-z
loop_
_atom_site_type_symbol
_atom_site_label
_atom_site_fract_x
_atom_site_fract_y
_atom_site_fract_z
Si Si1 0.258606 0.841685 0.754656
Si Si2 0.982962 0.940889 0.370478
Si Si3 0.096461 0.502525 0.446295
Si Si4 0.542833 0.208918 0.467842
Si Si5 0.646260 0.026240 0.810587
Si Si6 0.846963 0.659961 0.798325
Si Si7 0.725722 0.580663 0.078086
Si Si8 0.271251 0.530928 0.348290
O O1 0.140680 0.894144 0.566788
O O2 0.227234 0.591774 0.872747
O O3 0.479316 0.931239 0.822828
O O4 0.181173 0.954190 0.730817
O O5 0.912141 0.723419 0.399331
O O6 0.069671 0.103499 0.268041
O O7 0.251972 0.669281 0.495836
O O8 0.188673 0.475028 0.421363
O O9 0.877979 0.559759 0.261364
O O10 0.557621 0.132709 0.616275
O O11 0.364133 0.354769 0.277660
O O12 0.500000 0.000000 0.500000
O O13 0.764244 0.227723 0.817997
O O14 0.744048 0.824997 0.941588
O O15 0.817516 0.620838 0.698655
O O16 0.000000 0.500000 0.000000
O O17 0.500000 0.500000 0.000000
O O18 0.500000 0.500000 0.500000
#
# Coordination Sequence:
#
# PCOD9078532 Si02
#       8
#     2   2   2   2   2   2   2   2
#     4   9  16  31  62  95 121 153 210 269 322 370
#     4  10  18  35  64  91 117 162 212 266 325 374
#     4  10  21  38  69  95 122 166 230 264 325 384
#     4  11  25  42  61  87 135 185 212 256 331 407
#     4  10  19  35  63  89 128 159 215 267 327 372
#     4  12  25  41  63  96 134 170 215 273 329 388
#     4   9  19  32  55  97 129 152 199 275 320 379
#     4  11  19  37  67  95 118 162 221 273 317 383
#
# _framework density 23.299935000000001
#
# number of rings (size 3 to 8) (size 9 to 14) (size 15 to 20)
#    0.000    1.750    3.750    3.000    0.000    5.000 
#    0.000    1.250    8.250    0.000    0.000    0.000 
#    0.000    0.000    0.000    0.000    0.000    0.000 
#
# Total GULP energy -89357.894542 kJ/mol
# GULP energy per Si atom -5584.868409 kJ/mol
# Density = 2.324690 g / cm^3
# Si number density = 23.299935 Si / 1000 Ang^3
#
#
#
# Elastic Constant Matrix: (Units=GPa)
#
#
# Indices 1 2 3 4 5 6 
#
# 1 52.3079 14.3996 13.4349 8.8891 15.2012 9.1441
# 2 14.3996 155.5150 49.2905 -28.1898 7.6146 18.3629
# 3 13.4349 49.2905 115.1388 -26.0278 23.5223 7.5907
# 4 8.8891 -28.1898 -26.0278 41.4654 4.7010 0.0399
# 5 15.2012 7.6146 23.5223 4.7010 24.4139 -0.4551
# 6 9.1441 18.3629 7.5907 0.0399 -0.4551 29.4369
#
#
#
# Elastic Compliance Matrix: (Units=1/GPa)
#
#
# Indices 1 2 3 4 5 6 
#
# 1 0.026033 -0.001769 0.000117 -0.005010 -0.014940 -0.007237
# 2 -0.001769 0.008698 -0.001855 0.005236 -0.000914 -0.004419
# 3 0.000117 -0.001855 0.015277 0.010145 -0.016224 -0.003083
# 4 -0.005010 0.005236 0.010145 0.036877 -0.015475 -0.004615
# 5 -0.014940 -0.000914 -0.016224 -0.015475 0.069355 0.010488
# 6 -0.007237 -0.004419 -0.003083 -0.004615 0.010488 0.039939
#
#
# Mechanical properties :
#
#
# Convention : Reuss Voigt Hill
#
# Bulk Modulus (GPa) = 23.26057 53.02354 38.14206
# Shear Modulus (GPa) = 22.98587 35.45235 29.21911
#
# Velocity S-wave (km/s) = 3.14430 3.90496 3.54509
# Velocity P-wave (km/s) = 4.81528 6.56795 5.75868
#
# Compressibility (1/GPa) = 0.04299120
#
# Stress axis : x y z
#
# Youngs Moduli (GPa) = 38.41285 114.97268 65.45793
#
# Poissons Ratio (x) = 0.20344 -0.00764
# Poissons Ratio (y) = 0.06797 0.12145
# Poissons Ratio (z) = -0.00448 0.21333
#
# Static dielectric constant tensor:
#      x y z
#    x 1.906010 -0.023630 0.040360 
#    y -0.023630 1.982940 -0.016010 
#    z 0.040360 -0.016010 1.921370 
# 
# From -- ./inp_files/597668.got.cif
#   From: 2010.05.17/outbox.cif.g08.bks.cpg/sg2_299_cif.got.tgz:597668.got - 2010.06.03 11:33:40.
