data_PCOD9078206
_publ_section_title
;
Structure prediction by ZEFSAII (Michael W. Deem and Ramdas Pophale) SiO2 
 PCOD9078206
Probable space group: P -1
;
_chemical_formula_sum "Si O2"
_cell_formula_units_Z 14
_cell_length_a 10.878600
_cell_length_b 8.548881
_cell_length_c 7.134659
_cell_angle_alpha 77.788554
_cell_angle_beta 59.320215
_cell_angle_gamma 75.560146
_cell_volume 549.786673
_symmetry_space_group_name_H-M "P -1"
_symmetry_group_IT_number 2
_symmetry_cell_setting 'triclinic'
loop_
_space_group_symop_operation_xyz
x,y,z
-x,-y,-z
loop_
_atom_site_type_symbol
_atom_site_label
_atom_site_fract_x
_atom_site_fract_y
_atom_site_fract_z
Si Si1 0.347648 0.935207 0.150718
Si Si2 0.496433 0.737087 0.587670
Si Si3 0.059644 0.123755 0.288962
Si Si4 0.974733 0.733463 0.080493
Si Si5 0.271608 0.023429 0.615729
Si Si6 0.831606 0.578120 0.902842
Si Si7 0.503149 0.393275 0.805100
O O1 0.383168 0.742556 0.145131
O O2 0.289734 0.975157 0.396049
O O3 0.215740 0.034222 0.110878
O O4 0.500000 0.000000 0.000000
O O5 0.620147 0.846133 0.474933
O O6 0.528077 0.577503 0.731073
O O7 0.490033 0.671345 0.397946
O O8 0.347116 0.861577 0.708037
O O9 0.095816 0.291540 0.304709
O O10 0.000000 0.000000 0.500000
O O11 0.867874 0.628997 0.077343
O O12 0.883132 0.874861 0.235114
O O13 0.039843 0.813194 0.827958
O O14 0.089818 0.605552 0.132639
O O15 0.661256 0.605181 0.002798
#
# Coordination Sequence:
#
# PCOD9078206 Si02
#       7
#     2   2   2   2   2   2   2
#     4  11  22  38  64  86 127 157 197 253 317 358
#     4   9  19  31  59  87 119 145 206 249 292 355
#     4  10  21  37  60  91 118 164 202 242 308 364
#     4   9  19  37  64  79 119 162 204 241 291 370
#     4  10  20  37  59  92 117 159 200 256 298 353
#     4   9  18  36  63  83 117 162 206 238 299 361
#     4  10  18  35  59  91 113 160 198 246 299 368
#
# _framework density 25.464421999999999
#
# number of rings (size 3 to 8) (size 9 to 14) (size 15 to 20)
#    0.857    1.429    2.857    0.000    4.000    4.571 
#    0.000    4.286    3.143    0.000    0.000    0.000 
#    0.000    0.000    0.000    0.000    0.000    0.000 
#
# Total GULP energy -78284.341777 kJ/mol
# GULP energy per Si atom -5591.738698 kJ/mol
# Density = 2.540646 g / cm^3
# Si number density = 25.464422 Si / 1000 Ang^3
#
#
#
# Elastic Constant Matrix: (Units=GPa)
#
#
# Indices 1 2 3 4 5 6 
#
# 1 48.0802 39.5701 6.7770 2.9296 1.6644 -4.1849
# 2 39.5701 234.7692 67.8673 -7.6941 1.7194 -33.9446
# 3 6.7770 67.8673 94.8861 -4.6402 7.5010 -13.1136
# 4 2.9296 -7.6941 -4.6402 47.0647 3.1245 9.7743
# 5 1.6644 1.7194 7.5010 3.1245 32.1522 7.0032
# 6 -4.1849 -33.9446 -13.1136 9.7743 7.0032 45.2498
#
#
#
# Elastic Compliance Matrix: (Units=1/GPa)
#
#
# Indices 1 2 3 4 5 6 
#
# 1 0.024575 -0.004674 0.001557 -0.002029 -0.001152 -0.000166
# 2 -0.004674 0.006693 -0.003978 0.000291 0.000051 0.003365
# 3 0.001557 -0.003978 0.013792 0.000515 -0.003481 0.001584
# 4 -0.002029 0.000291 0.000515 0.022486 -0.001239 -0.004486
# 5 -0.001152 0.000051 -0.003481 -0.001239 0.033393 -0.005978
# 6 -0.000166 0.003365 0.001584 -0.004486 -0.005978 0.026962
#
#
# Mechanical properties :
#
#
# Convention : Reuss Voigt Hill
#
# Bulk Modulus (GPa) = 32.39410 67.35158 49.87284
# Shear Modulus (GPa) = 32.81223 42.46142 37.63682
#
# Velocity S-wave (km/s) = 3.59353 4.08791 3.84867
# Velocity P-wave (km/s) = 5.47421 6.98484 6.27515
#
# Compressibility (1/GPa) = 0.03086982
#
# Stress axis : x y z
#
# Youngs Moduli (GPa) = 40.69152 149.40942 72.50383
#
# Poissons Ratio (x) = 0.69837 -0.11289
# Poissons Ratio (y) = 0.19020 0.28843
# Poissons Ratio (z) = -0.06336 0.59436
#
# Static dielectric constant tensor:
#      x y z
#    x 2.124580 -0.024410 0.001020 
#    y -0.024410 2.004920 -0.034620 
#    z 0.001020 -0.034620 2.010370 
# 
# From -- ./inp_files/212264.got.cif
#   From: 2010.05.17/outbox.cif.g08.bks.cpg/sg2_107_cif.got.tgz:212264.got - 2010.06.03 11:33:40.
