data_PCOD9078304
_publ_section_title
;
Structure prediction by ZEFSAII (Michael W. Deem and Ramdas Pophale) SiO2 
 PCOD9078304
Probable space group: P -1
;
_chemical_formula_sum "Si O2"
_cell_formula_units_Z 14
_cell_length_a 9.551839
_cell_length_b 7.877268
_cell_length_c 13.255188
_cell_angle_alpha 67.415403
_cell_angle_beta 35.492130
_cell_angle_gamma 81.046642
_cell_volume 511.186468
_symmetry_space_group_name_H-M "P -1"
_symmetry_group_IT_number 2
_symmetry_cell_setting 'triclinic'
loop_
_space_group_symop_operation_xyz
x,y,z
-x,-y,-z
loop_
_atom_site_type_symbol
_atom_site_label
_atom_site_fract_x
_atom_site_fract_y
_atom_site_fract_z
Si Si1 0.209892 0.893470 0.304236
Si Si2 0.659497 0.745813 0.006296
Si Si3 0.981899 0.540885 0.790122
Si Si4 0.815441 0.682595 0.442121
Si Si5 0.104425 0.953363 0.840843
Si Si6 0.609157 0.086373 0.591737
Si Si7 0.644326 0.592082 0.289146
O O1 0.939829 0.762773 0.455979
O O2 0.262854 0.962584 0.371891
O O3 0.271792 0.079427 0.154302
O O4 0.395386 0.765005 0.196210
O O5 0.708160 0.562828 0.965009
O O6 0.869762 0.792675 0.963390
O O7 0.169452 0.761343 0.633584
O O8 0.078550 0.422104 0.846625
O O9 0.031663 0.446516 0.676887
O O10 0.847457 0.863759 0.305779
O O11 0.527621 0.557640 0.653380
O O12 0.385613 0.931945 0.698968
O O13 0.000000 0.000000 0.000000
O O14 0.447985 0.221468 0.696616
O O15 0.500000 0.500000 0.500000
#
# Coordination Sequence:
#
# PCOD9078304 Si02
#       7
#     2   2   2   2   2   2   2
#     4  10  21  37  52  79 113 150 178 207 272 338
#     4  10  23  35  54  81 113 144 178 220 270 320
#     4  10  19  36  59  83 107 135 185 233 264 305
#     4   9  18  36  59  77 109 146 177 217 275 323
#     4  11  18  34  58  80 102 151 182 210 265 327
#     4  10  18  35  61  79 107 141 185 223 261 322
#     4   8  15  32  56  81  99 137 181 219 267 308
#
# _framework density 27.387266
#
# number of rings (size 3 to 8) (size 9 to 14) (size 15 to 20)
#    0.000    2.571    5.714    0.000    0.000    4.000 
#    0.000    2.857    3.143    0.000    0.000    0.000 
#    0.000    0.000    0.000    0.000    0.000    0.000 
#
# Total GULP energy -78182.666601 kJ/mol
# GULP energy per Si atom -5584.476186 kJ/mol
# Density = 2.732493 g / cm^3
# Si number density = 27.387266 Si / 1000 Ang^3
#
#
#
# Elastic Constant Matrix: (Units=GPa)
#
#
# Indices 1 2 3 4 5 6 
#
# 1 169.7025 23.6523 13.4196 9.8047 -21.2025 -1.1410
# 2 23.6523 111.5696 19.2754 45.5352 -14.7074 -0.2315
# 3 13.4196 19.2754 57.9894 19.4833 -13.5450 13.7281
# 4 9.8047 45.5352 19.4833 42.8412 6.9417 -5.5966
# 5 -21.2025 -14.7074 -13.5450 6.9417 34.0011 -10.5786
# 6 -1.1410 -0.2315 13.7281 -5.5966 -10.5786 35.9726
#
#
#
# Elastic Compliance Matrix: (Units=1/GPa)
#
#
# Indices 1 2 3 4 5 6 
#
# 1 0.006658 0.000354 0.000177 -0.002673 0.005324 0.001296
# 2 0.000354 0.022676 0.007660 -0.030977 0.018762 -0.002068
# 3 0.000177 0.007660 0.029866 -0.025928 0.017425 -0.010252
# 4 -0.002673 -0.030977 -0.025928 0.076136 -0.037715 0.010365
# 5 0.005324 0.018762 0.017425 -0.037715 0.056888 0.004502
# 6 0.001296 -0.002068 -0.010252 0.010365 0.004502 0.034675
#
#
# Mechanical properties :
#
#
# Convention : Reuss Voigt Hill
#
# Bulk Modulus (GPa) = 13.23073 50.21734 31.72404
# Shear Modulus (GPa) = 21.21236 41.42391 31.31813
#
# Velocity S-wave (km/s) = 2.78606 3.89334 3.38528
# Velocity P-wave (km/s) = 3.89756 6.21181 5.18544
#
# Compressibility (1/GPa) = 0.07558161
#
# Stress axis : x y z
#
# Youngs Moduli (GPa) = 150.20110 44.09861 33.48326
#
# Poissons Ratio (x) = -0.01560 -0.00592
# Poissons Ratio (y) = -0.05312 -0.25650
# Poissons Ratio (z) = -0.02655 -0.33782
#
# Static dielectric constant tensor:
#      x y z
#    x 2.314720 0.039110 0.060740 
#    y 0.039110 2.196480 -0.135940 
#    z 0.060740 -0.135940 2.453950 
# 
# From -- ./inp_files/182347.got.cif
#   From: 2010.05.17/outbox.cif.g08.bks.cpg/sg2_92_cif.got.tgz:182347.got - 2010.06.03 11:33:40.
