data_PCOD9078752
_publ_section_title
;
Structure prediction by ZEFSAII (Michael W. Deem and Ramdas Pophale) SiO2 
 PCOD9078752
Probable space group: P -1
;
_chemical_formula_sum "Si O2"
_cell_formula_units_Z 16
_cell_length_a 19.211075
_cell_length_b 21.971063
_cell_length_c 9.703341
_cell_angle_alpha 124.922493
_cell_angle_beta 43.834000
_cell_angle_gamma 161.245452
_cell_volume 791.581539
_symmetry_space_group_name_H-M "P -1"
_symmetry_group_IT_number 2
_symmetry_cell_setting 'triclinic'
loop_
_space_group_symop_operation_xyz
x,y,z
-x,-y,-z
loop_
_atom_site_type_symbol
_atom_site_label
_atom_site_fract_x
_atom_site_fract_y
_atom_site_fract_z
Si Si1 0.903175 0.555629 0.471136
Si Si2 0.526613 0.678689 0.693894
Si Si3 0.939875 0.836240 0.401874
Si Si4 0.588671 0.188687 0.445797
Si Si5 0.852203 0.493608 0.783121
Si Si6 0.440210 0.979683 0.872265
Si Si7 0.694977 0.997734 0.121237
Si Si8 0.869814 0.642174 0.404320
O O1 0.684030 0.337096 0.457690
O O2 0.907107 0.561194 0.638452
O O3 0.824952 0.577904 0.536336
O O4 0.236159 0.766192 0.224006
O O5 0.673424 0.704906 0.571853
O O6 0.376671 0.562868 0.610885
O O7 0.277583 0.534115 0.967334
O O8 0.785165 0.919862 0.635185
O O9 0.873311 0.731983 0.483442
O O10 0.040355 0.857896 0.152308
O O11 0.544873 0.098146 0.271971
O O12 0.312454 0.000988 0.701945
O O13 0.865567 0.349693 0.349225
O O14 0.589913 0.251173 0.829340
O O15 0.361080 0.961848 0.815211
O O16 0.185719 0.830777 0.143139
#
# Coordination Sequence:
#
# PCOD9078752 Si02
#       8
#     2   2   2   2   2   2   2   2
#     4  11  23  35  50  82 120 147 169 219 279 324
#     4  10  20  40  62  81 101 142 191 227 265 313
#     4   9  21  37  62  80 104 140 188 232 262 314
#     4  11  19  33  56  80 111 145 183 220 262 325
#     4  10  18  36  58  78 110 144 182 224 264 317
#     4  11  20  32  53  79 111 149 180 213 265 327
#     4   9  17  32  55  82 107 135 181 229 264 305
#     4  11  23  36  54  81 116 143 177 223 275 324
#
# _framework density 20.212700000000002
#
# number of rings (size 3 to 8) (size 9 to 14) (size 15 to 20)
#    0.000    1.750    3.750    1.875    0.000    1.500 
#    0.000    0.625    0.000   12.000    0.000    0.000 
#    0.000    0.000    0.000    0.000    0.000    0.000 
#
# Total GULP energy -89372.501814 kJ/mol
# GULP energy per Si atom -5585.781363 kJ/mol
# Density = 2.016669 g / cm^3
# Si number density = 20.212700 Si / 1000 Ang^3
#
#
#
# Elastic Constant Matrix: (Units=GPa)
#
#
# Indices 1 2 3 4 5 6 
#
# 1 113.4892 22.6512 29.8591 -5.3581 6.1139 -14.0120
# 2 22.6512 55.2410 10.4126 -0.5313 4.3756 -10.7129
# 3 29.8591 10.4126 37.2832 -4.8524 -14.0070 -3.6113
# 4 -5.3581 -0.5313 -4.8524 20.9826 -5.5171 -5.0442
# 5 6.1139 4.3756 -14.0070 -5.5171 24.2273 2.5848
# 6 -14.0120 -10.7129 -3.6113 -5.0442 2.5848 21.9135
#
#
#
# Elastic Compliance Matrix: (Units=1/GPa)
#
#
# Indices 1 2 3 4 5 6 
#
# 1 0.015058 -0.000230 -0.017145 -0.002158 -0.015012 0.007965
# 2 -0.000230 0.022904 -0.009771 -0.002252 -0.011335 0.010259
# 3 -0.017145 -0.009771 0.063667 0.021376 0.048412 -0.006037
# 4 -0.002158 -0.002252 0.021376 0.061781 0.026079 0.012187
# 5 -0.015012 -0.011335 0.048412 0.026079 0.082198 -0.010855
# 6 0.007965 0.010259 -0.006037 0.012187 -0.010855 0.058833
#
#
# Mechanical properties :
#
#
# Convention : Reuss Voigt Hill
#
# Bulk Modulus (GPa) = 21.12446 36.87323 28.99884
# Shear Modulus (GPa) = 13.35075 22.96403 18.15739
#
# Velocity S-wave (km/s) = 2.57283 3.37429 3.00044
# Velocity P-wave (km/s) = 4.39315 5.78475 5.13630
#
# Compressibility (1/GPa) = 0.04733849
#
# Stress axis : x y z
#
# Youngs Moduli (GPa) = 66.40822 43.66037 15.70678
#
# Poissons Ratio (x) = 0.01004 0.26929
# Poissons Ratio (y) = 0.01527 0.15346
# Poissons Ratio (z) = 1.13856 0.42659
#
# Static dielectric constant tensor:
#      x y z
#    x 1.719730 -0.013270 0.024920 
#    y -0.013270 1.772530 0.012130 
#    z 0.024920 0.012130 1.717270 
# 
# From -- ./inp_files/237721.got.cif
#   From: 2010.05.17/outbox.cif.g08.bks.cpg/sg2_119_cif.got.tgz:237721.got - 2010.06.03 11:33:40.
