data_PCOD9078712
_publ_section_title
;
Structure prediction by ZEFSAII (Michael W. Deem and Ramdas Pophale) SiO2 
 PCOD9078712
Probable space group: P -1
;
_chemical_formula_sum "Si O2"
_cell_formula_units_Z 14
_cell_length_a 5.381087
_cell_length_b 9.556416
_cell_length_c 14.950010
_cell_angle_alpha 131.727507
_cell_angle_beta 99.792527
_cell_angle_gamma 69.028392
_cell_volume 533.186709
_symmetry_space_group_name_H-M "P -1"
_symmetry_group_IT_number 2
_symmetry_cell_setting 'triclinic'
loop_
_space_group_symop_operation_xyz
x,y,z
-x,-y,-z
loop_
_atom_site_type_symbol
_atom_site_label
_atom_site_fract_x
_atom_site_fract_y
_atom_site_fract_z
Si Si1 0.993274 0.015392 0.809253
Si Si2 0.442833 0.062417 0.165528
Si Si3 0.752014 0.607980 0.822968
Si Si4 0.589325 0.343079 0.019260
Si Si5 0.856409 0.282145 0.556585
Si Si6 0.421157 0.087174 0.432565
Si Si7 0.107713 0.226818 0.736583
O O1 0.295870 0.877868 0.780682
O O2 0.985641 0.140718 0.773032
O O3 0.786161 0.895862 0.755809
O O4 0.879823 0.182460 0.950558
O O5 0.300420 0.166149 0.110723
O O6 0.565285 0.821006 0.068775
O O7 0.773243 0.507762 0.682865
O O8 0.511056 0.578694 0.854787
O O9 0.016545 0.465973 0.830330
O O10 0.500000 0.500000 0.000000
O O11 0.106825 0.209246 0.473680
O O12 0.397038 0.773567 0.514491
O O13 0.966999 0.185209 0.619898
O O14 0.577807 0.888963 0.300300
O O15 0.500000 0.000000 0.500000
#
# Coordination Sequence:
#
# PCOD9078712 Si02
#       7
#     2   2   2   2   2   2   2
#     4  10  23  41  59  86 121 158 196 245 290 353
#     4  10  24  41  58  86 128 159 193 245 294 357
#     4  10  20  40  61  93 117 163 196 242 303 351
#     4  10  20  43  61  91 119 158 199 250 284 357
#     4   9  21  34  59  91 117 147 199 254 286 349
#     4  10  18  36  56  93 117 145 198 256 291 334
#     4   9  19  37  63  90 113 158 197 251 290 348
#
# _framework density 26.257218999999999
#
# number of rings (size 3 to 8) (size 9 to 14) (size 15 to 20)
#    1.714    0.571    1.429    2.143    0.000    5.714 
#    2.571    0.000    0.000    5.143    0.000    0.000 
#    0.000    0.000    0.000    0.000    0.000    0.000 
#
# Total GULP energy -78032.487269 kJ/mol
# GULP energy per Si atom -5573.749091 kJ/mol
# Density = 2.619746 g / cm^3
# Si number density = 26.257219 Si / 1000 Ang^3
#
#
#
# Elastic Constant Matrix: (Units=GPa)
#
#
# Indices 1 2 3 4 5 6 
#
# 1 154.3669 40.1822 45.5537 3.6739 -57.7817 0.9467
# 2 40.1822 144.2014 34.9396 10.2342 -23.7694 19.3582
# 3 45.5537 34.9396 129.1250 1.1595 -37.1691 12.8883
# 4 3.6739 10.2342 1.1595 27.7377 6.8799 -2.5140
# 5 -57.7817 -23.7694 -37.1691 6.8799 51.8926 -8.8834
# 6 0.9467 19.3582 12.8883 -2.5140 -8.8834 34.3612
#
#
#
# Elastic Compliance Matrix: (Units=1/GPa)
#
#
# Indices 1 2 3 4 5 6 
#
# 1 0.012224 -0.001222 -0.000268 -0.004306 0.014076 0.003776
# 2 -0.001222 0.008631 -0.000959 -0.003787 0.001669 -0.004315
# 3 -0.000268 -0.000959 0.010150 -0.001797 0.006477 -0.001716
# 4 -0.004306 -0.003787 -0.001797 0.041526 -0.012871 0.002637
# 5 0.014076 0.001669 0.006477 -0.012871 0.043161 0.006459
# 6 0.003776 -0.004315 -0.001716 0.002637 0.006459 0.033936
#
#
# Mechanical properties :
#
#
# Convention : Reuss Voigt Hill
#
# Bulk Modulus (GPa) = 38.30505 74.33826 56.32166
# Shear Modulus (GPa) = 30.63189 43.26615 36.94902
#
# Velocity S-wave (km/s) = 3.41927 4.06369 3.75533
# Velocity P-wave (km/s) = 5.49624 7.09867 6.34822
#
# Compressibility (1/GPa) = 0.02610622
#
# Stress axis : x y z
#
# Youngs Moduli (GPa) = 81.80854 115.86352 98.51794
#
# Poissons Ratio (x) = 0.14162 0.02639
# Poissons Ratio (y) = 0.10000 0.09449
# Poissons Ratio (z) = 0.02192 0.11113
#
# Static dielectric constant tensor:
#      x y z
#    x 2.180960 -0.020160 0.130470 
#    y -0.020160 2.102410 0.000060 
#    z 0.130470 0.000060 2.285400 
# 
# From -- ./inp_files/582028.got.cif
#   From: 2010.05.17/outbox.cif.g08.bks.cpg/sg2_292_cif.got.tgz:582028.got - 2010.06.03 11:33:40.
