data_PCOD9078899
_publ_section_title
;
Structure prediction by ZEFSAII (Michael W. Deem and Ramdas Pophale) SiO2 
 PCOD9078899
Probable space group: P -1
;
_chemical_formula_sum "Si O2"
_cell_formula_units_Z 16
_cell_length_a 6.599751
_cell_length_b 20.565171
_cell_length_c 7.369750
_cell_angle_alpha 112.265732
_cell_angle_beta 122.559339
_cell_angle_gamma 53.140468
_cell_volume 672.197801
_symmetry_space_group_name_H-M "P -1"
_symmetry_group_IT_number 2
_symmetry_cell_setting 'triclinic'
loop_
_space_group_symop_operation_xyz
x,y,z
-x,-y,-z
loop_
_atom_site_type_symbol
_atom_site_label
_atom_site_fract_x
_atom_site_fract_y
_atom_site_fract_z
Si Si1 0.221429 0.530235 0.619574
Si Si2 0.187965 0.111792 0.603932
Si Si3 0.027954 0.288241 0.267390
Si Si4 0.343440 0.053579 0.200922
Si Si5 0.143220 0.553663 0.175439
Si Si6 0.776899 0.173900 0.981164
Si Si7 0.169960 0.265677 0.718216
Si Si8 0.606226 0.152036 0.280642
O O1 0.202211 0.543202 0.407656
O O2 0.545010 0.474659 0.777448
O O3 0.000000 0.500000 0.500000
O O4 0.110054 0.617876 0.752727
O O5 0.266937 0.097066 0.410346
O O6 0.118806 0.200660 0.727297
O O7 0.899745 0.113662 0.485759
O O8 0.451474 0.040115 0.755520
O O9 0.006744 0.286716 0.473624
O O10 0.351424 0.237994 0.315862
O O11 0.884901 0.237504 0.081976
O O12 0.499554 0.089484 0.199428
O O13 0.047225 0.084308 0.992503
O O14 0.925789 0.649635 0.138678
O O15 0.000000 0.500000 0.000000
O O16 0.671107 0.168361 0.125818
O O17 0.497393 0.212073 0.771986
#
# Coordination Sequence:
#
# PCOD9078899 Si02
#       8
#     2   2   2   2   2   2   2   2
#     4  10  23  39  64  89 115 156 200 244 299 358
#     4  10  19  35  60  85 115 153 195 237 288 344
#     4  10  21  40  59  84 118 152 191 239 292 347
#     4   9  19  37  57  84 118 154 190 240 291 335
#     4  10  23  42  61  87 124 156 194 248 300 354
#     4  10  21  38  58  86 119 153 192 240 287 341
#     4  11  21  39  61  85 115 156 194 235 292 347
#     4  10  18  36  60  84 116 152 195 237 287 339
#
# _framework density 23.802517000000002
#
# number of rings (size 3 to 8) (size 9 to 14) (size 15 to 20)
#    0.000    2.000    3.750    1.125    1.750    3.000 
#    4.500    0.625    0.000    0.000    0.000    0.000 
#    0.000    0.000    0.000    0.000    0.000    0.000 
#
# Total GULP energy -89365.326651 kJ/mol
# GULP energy per Si atom -5585.332916 kJ/mol
# Density = 2.374834 g / cm^3
# Si number density = 23.802517 Si / 1000 Ang^3
#
#
#
# Elastic Constant Matrix: (Units=GPa)
#
#
# Indices 1 2 3 4 5 6 
#
# 1 111.5923 37.3353 19.7105 -0.6357 14.3425 -4.4245
# 2 37.3353 124.4044 10.7938 -13.7468 -0.5537 1.6120
# 3 19.7105 10.7938 68.3596 -12.8551 11.0159 -7.0563
# 4 -0.6357 -13.7468 -12.8551 23.1072 -13.2911 7.7030
# 5 14.3425 -0.5537 11.0159 -13.2911 28.7949 1.5832
# 6 -4.4245 1.6120 -7.0563 7.7030 1.5832 21.6367
#
#
#
# Elastic Compliance Matrix: (Units=1/GPa)
#
#
# Indices 1 2 3 4 5 6 
#
# 1 0.013177 -0.005492 -0.002750 -0.014578 -0.012804 0.008334
# 2 -0.005492 0.011559 0.000141 0.015655 0.010585 -0.008286
# 3 -0.002750 0.000141 0.017418 0.007845 -0.001804 0.002447
# 4 -0.014578 0.015655 0.007845 0.101209 0.053561 -0.041540
# 5 -0.012804 0.010585 -0.001804 0.053561 0.068265 -0.028059
# 6 0.008334 -0.008286 0.002447 -0.041540 -0.028059 0.066179
#
#
# Mechanical properties :
#
#
# Convention : Reuss Voigt Hill
#
# Bulk Modulus (GPa) = 38.53250 48.89281 43.71265
# Shear Modulus (GPa) = 16.52024 30.47556 23.49790
#
# Velocity S-wave (km/s) = 2.63735 3.58208 3.14539
# Velocity P-wave (km/s) = 5.04953 6.13955 5.62102
#
# Compressibility (1/GPa) = 0.02595212
#
# Stress axis : x y z
#
# Youngs Moduli (GPa) = 75.88768 86.51598 57.41278
#
# Poissons Ratio (x) = 0.47514 0.15789
# Poissons Ratio (y) = 0.41677 -0.00811
# Poissons Ratio (z) = 0.20870 -0.01222
#
# Static dielectric constant tensor:
#      x y z
#    x 1.933250 -0.021090 -0.031410 
#    y -0.021090 1.916020 -0.007250 
#    z -0.031410 -0.007250 1.947190 
# 
# From -- ./inp_files/127601.got.cif
#   From: 2010.05.17/outbox.cif.g08.bks.cpg/sg2_64_cif.got.tgz:127601.got - 2010.06.03 11:33:40.
