data_PCOD9078910
_publ_section_title
;
Structure prediction by ZEFSAII (Michael W. Deem and Ramdas Pophale) SiO2 
 PCOD9078910
Probable space group: P -1
;
_chemical_formula_sum "Si O2"
_cell_formula_units_Z 16
_cell_length_a 13.011265
_cell_length_b 8.770429
_cell_length_c 16.185940
_cell_angle_alpha 148.006525
_cell_angle_beta 38.754192
_cell_angle_gamma 133.724477
_cell_volume 610.111269
_symmetry_space_group_name_H-M "P -1"
_symmetry_group_IT_number 2
_symmetry_cell_setting 'triclinic'
loop_
_space_group_symop_operation_xyz
x,y,z
-x,-y,-z
loop_
_atom_site_type_symbol
_atom_site_label
_atom_site_fract_x
_atom_site_fract_y
_atom_site_fract_z
Si Si1 0.241494 0.607730 0.673770
Si Si2 0.648604 0.725365 0.707076
Si Si3 0.218730 0.206084 0.899775
Si Si4 0.156928 0.242086 0.771526
Si Si5 0.317331 0.839027 0.896570
Si Si6 0.975715 0.112197 0.663158
Si Si7 0.694655 0.539294 0.876213
Si Si8 0.386518 0.784736 0.372478
O O1 0.320057 0.456288 0.478777
O O2 0.364228 0.723250 0.722849
O O3 0.097376 0.400279 0.707946
O O4 0.163586 0.890998 0.822404
O O5 0.472285 0.846444 0.862883
O O6 0.656465 0.489926 0.666765
O O7 0.786750 0.993186 0.743164
O O8 0.127902 0.233122 0.883463
O O9 0.211827 0.438300 0.084854
O O10 0.416943 0.199908 0.757296
O O11 0.190204 0.584299 0.892280
O O12 0.039421 0.065104 0.698273
O O13 0.327005 0.082209 0.580162
O O14 0.265904 0.156828 0.056194
O O15 0.000000 0.000000 0.500000
O O16 0.500000 0.500000 0.000000
O O17 0.710804 0.283077 0.684415
#
# Coordination Sequence:
#
# PCOD9078910 Si02
#       8
#     2   2   2   2   2   2   2   2
#     4   9  18  34  55  84 118 151 195 241 294 345
#     4  11  19  34  56  90 124 149 199 251 294 345
#     4  10  18  36  60  86 117 153 196 245 294 352
#     4  11  20  37  66  90 115 154 207 245 291 348
#     4  10  20  35  63  88 116 157 200 244 295 351
#     4   9  22  36  52  89 124 157 189 251 298 349
#     4   9  22  38  55  90 129 155 185 248 312 352
#     4  11  21  35  60  98 122 147 195 260 299 343
#
# _framework density 26.224724999999999
#
# number of rings (size 3 to 8) (size 9 to 14) (size 15 to 20)
#    0.000    2.000    2.500    1.500    0.000    9.000 
#    0.000    0.000    0.000    7.500    0.000    0.000 
#    0.000    0.000    0.000    0.000    0.000    0.000 
#
# Total GULP energy -89370.252836 kJ/mol
# GULP energy per Si atom -5585.640802 kJ/mol
# Density = 2.616504 g / cm^3
# Si number density = 26.224725 Si / 1000 Ang^3
#
#
#
# Elastic Constant Matrix: (Units=GPa)
#
#
# Indices 1 2 3 4 5 6 
#
# 1 160.5482 8.2774 43.4855 -1.2643 48.5664 15.8559
# 2 8.2774 84.8253 -9.4703 24.6483 5.1041 5.0816
# 3 43.4855 -9.4703 111.1326 7.7962 27.6809 4.0144
# 4 -1.2643 24.6483 7.7962 23.8654 0.4835 0.3749
# 5 48.5664 5.1041 27.6809 0.4835 48.3504 -2.8144
# 6 15.8559 5.0816 4.0144 0.3749 -2.8144 41.3841
#
#
#
# Elastic Compliance Matrix: (Units=1/GPa)
#
#
# Indices 1 2 3 4 5 6 
#
# 1 0.009954 -0.001077 -0.001726 0.002454 -0.009163 -0.004159
# 2 -0.001077 0.018761 0.004395 -0.020764 -0.003345 -0.002357
# 3 -0.001726 0.004395 0.012097 -0.008446 -0.005651 -0.001360
# 4 0.002454 -0.020764 -0.008446 0.066121 0.004024 0.002103
# 5 -0.009163 -0.003345 -0.005651 0.004024 0.033826 0.006733
# 6 -0.004159 -0.002357 -0.001360 0.002103 0.006733 0.026618
#
#
# Mechanical properties :
#
#
# Convention : Reuss Voigt Hill
#
# Bulk Modulus (GPa) = 22.72949 49.01015 35.86982
# Shear Modulus (GPa) = 27.95524 43.66754 35.81139
#
# Velocity S-wave (km/s) = 3.26849 4.08503 3.69936
# Velocity P-wave (km/s) = 4.78853 6.40149 5.65283
#
# Compressibility (1/GPa) = 0.04399571
#
# Stress axis : x y z
#
# Youngs Moduli (GPa) = 100.46617 53.30320 82.66318
#
# Poissons Ratio (x) = 0.05738 0.14269
# Poissons Ratio (y) = 0.10816 -0.36329
# Poissons Ratio (z) = 0.17342 -0.23426
#
# Static dielectric constant tensor:
#      x y z
#    x 2.177460 -0.083050 -0.039830 
#    y -0.083050 2.010680 -0.010200 
#    z -0.039830 -0.010200 2.098410 
# 
# From -- ./inp_files/403093.got.cif
#   From: 2010.05.17/outbox.cif.g08.bks.cpg/sg2_202_cif.got.tgz:403093.got - 2010.06.03 11:33:40.
