data_PCOD9078853
_publ_section_title
;
Structure prediction by ZEFSAII (Michael W. Deem and Ramdas Pophale) SiO2 
 PCOD9078853
Probable space group: P -1
;
_chemical_formula_sum "Si O2"
_cell_formula_units_Z 12
_cell_length_a 8.203996
_cell_length_b 15.741327
_cell_length_c 11.963705
_cell_angle_alpha 149.834275
_cell_angle_beta 145.649733
_cell_angle_gamma 47.147883
_cell_volume 434.966442
_symmetry_space_group_name_H-M "P -1"
_symmetry_group_IT_number 2
_symmetry_cell_setting 'triclinic'
loop_
_space_group_symop_operation_xyz
x,y,z
-x,-y,-z
loop_
_atom_site_type_symbol
_atom_site_label
_atom_site_fract_x
_atom_site_fract_y
_atom_site_fract_z
Si Si1 0.036575 0.337130 0.166204
Si Si2 0.686233 0.924902 0.685135
Si Si3 0.984581 0.679182 0.437508
Si Si4 0.316961 0.519326 0.269069
Si Si5 0.337793 0.714395 0.900420
Si Si6 0.096101 0.833768 0.308082
O O1 0.375048 0.399511 0.412186
O O2 0.869324 0.488511 0.195218
O O3 0.947022 0.321680 0.225895
O O4 0.947283 0.168173 0.853210
O O5 0.760665 0.808227 0.491923
O O6 0.440418 0.823595 0.510500
O O7 0.539477 0.097356 0.778946
O O8 0.000000 0.000000 0.000000
O O9 0.121610 0.659265 0.370007
O O10 0.247752 0.724281 0.729794
O O11 0.460504 0.436127 0.146511
O O12 0.105593 0.343194 0.978668
O O13 0.000000 0.000000 0.500000
#
# Coordination Sequence:
#
# PCOD9078853 Si02
#       6
#     2   2   2   2   2   2
#     4  10  21  34  63  88 118 152 195 241 293 341
#     4  10  22  36  60  86 121 151 192 243 295 337
#     4   9  18  34  59  82 113 155 194 232 283 342
#     4  10  19  35  61  86 112 153 201 232 275 352
#     4  10  18  36  59  88 119 154 190 238 295 346
#     4  11  21  37  62  88 113 155 205 237 277 355
#
# _framework density 27.588335000000001
#
# number of rings (size 3 to 8) (size 9 to 14) (size 15 to 20)
#    0.000    2.000    1.667    6.500    2.333    3.333 
#    0.000    0.833    3.667   10.000    0.000    0.000 
#    0.000    0.000    0.000    0.000    0.000    0.000 
#
# Total GULP energy -66807.990298 kJ/mol
# GULP energy per Si atom -5567.332525 kJ/mol
# Density = 2.752554 g / cm^3
# Si number density = 27.588335 Si / 1000 Ang^3
#
#
#
# Elastic Constant Matrix: (Units=GPa)
#
#
# Indices 1 2 3 4 5 6 
#
# 1 133.4849 73.7277 56.5189 -1.1255 -9.4610 -55.8233
# 2 73.7277 116.4194 67.7494 15.0249 -38.5153 -55.2316
# 3 56.5189 67.7494 188.7260 -1.2200 -6.7824 -36.9819
# 4 -1.1255 15.0249 -1.2200 72.2891 -30.6110 -17.8937
# 5 -9.4610 -38.5153 -6.7824 -30.6110 48.9844 5.5390
# 6 -55.8233 -55.2316 -36.9819 -17.8937 5.5390 65.9435
#
#
#
# Elastic Compliance Matrix: (Units=1/GPa)
#
#
# Indices 1 2 3 4 5 6 
#
# 1 0.014001 -0.005233 -0.000764 0.003032 -0.000516 0.007907
# 2 -0.005233 0.032042 -0.004985 0.009661 0.027275 0.019943
# 3 -0.000764 -0.004985 0.007060 -0.000415 -0.003270 -0.000701
# 4 0.003032 0.009661 -0.000415 0.024983 0.022000 0.015356
# 5 -0.000516 0.027275 -0.003270 0.022000 0.052554 0.022130
# 6 0.007907 0.019943 -0.000701 0.015356 0.022130 0.040476
#
#
# Mechanical properties :
#
#
# Convention : Reuss Voigt Hill
#
# Bulk Modulus (GPa) = 32.11377 92.73579 62.42478
# Shear Modulus (GPa) = 24.57505 53.48568 39.03036
#
# Velocity S-wave (km/s) = 2.98783 4.40785 3.76539
# Velocity P-wave (km/s) = 4.85473 7.71963 6.44830
#
# Compressibility (1/GPa) = 0.03113929
#
# Stress axis : x y z
#
# Youngs Moduli (GPa) = 71.42449 31.20873 141.65256
#
# Poissons Ratio (x) = 0.16330 0.10822
# Poissons Ratio (y) = 0.37373 0.70615
# Poissons Ratio (z) = 0.05457 0.15558
#
# Static dielectric constant tensor:
#      x y z
#    x 2.319930 0.157390 0.068670 
#    y 0.157390 2.325290 0.007800 
#    z 0.068670 0.007800 2.167430 
# 
# From -- ./inp_files/147245.got.cif
#   From: 2010.05.17/outbox.cif.g08.bks.cpg/sg2_74_cif.got.tgz:147245.got - 2010.06.03 11:33:40.
