data_PCOD9078201
_publ_section_title
;
Structure prediction by ZEFSAII (Michael W. Deem and Ramdas Pophale) SiO2 
 PCOD9078201
Probable space group: P -1
;
_chemical_formula_sum "Si O2"
_cell_formula_units_Z 16
_cell_length_a 16.208633
_cell_length_b 19.464764
_cell_length_c 9.658919
_cell_angle_alpha 30.059622
_cell_angle_beta 141.395339
_cell_angle_gamma 146.409230
_cell_volume 824.139618
_symmetry_space_group_name_H-M "P -1"
_symmetry_group_IT_number 2
_symmetry_cell_setting 'triclinic'
loop_
_space_group_symop_operation_xyz
x,y,z
-x,-y,-z
loop_
_atom_site_type_symbol
_atom_site_label
_atom_site_fract_x
_atom_site_fract_y
_atom_site_fract_z
Si Si1 0.589219 0.745200 0.222609
Si Si2 0.602726 0.535630 0.359636
Si Si3 0.569786 0.370266 0.214741
Si Si4 0.637804 0.169373 0.842955
Si Si5 0.605697 0.186085 0.329972
Si Si6 0.131868 0.536179 0.219748
Si Si7 0.923995 0.589521 0.324356
Si Si8 0.196389 0.882667 0.113256
O O1 0.625150 0.660770 0.291216
O O2 0.542381 0.630755 0.491816
O O3 0.431496 0.742243 0.976914
O O4 0.720953 0.927742 0.094023
O O5 0.555947 0.582599 0.071543
O O6 0.752952 0.522866 0.573500
O O7 0.563930 0.274736 0.510527
O O8 0.554351 0.252204 0.275678
O O9 0.744962 0.510963 0.190742
O O10 0.761707 0.275882 0.934681
O O11 0.730135 0.149141 0.871282
O O12 0.500000 0.000000 0.000000
O O13 0.760860 0.196160 0.563992
O O14 0.500000 0.000000 0.500000
O O15 0.070794 0.450746 0.437208
O O16 0.000000 0.500000 0.000000
O O17 0.000000 0.500000 0.500000
O O18 0.014890 0.771891 0.074729
#
# Coordination Sequence:
#
# PCOD9078201 Si02
#       8
#     2   2   2   2   2   2   2   2
#     4   9  19  34  59  88 122 162 194 257 305 373
#     4  10  21  39  58  87 125 161 210 248 317 367
#     4   9  19  35  58  83 116 163 203 245 299 371
#     4  10  20  38  63  93 121 158 212 262 303 356
#     4   8  14  26  51  85 109 143 194 245 287 345
#     4  11  25  40  63  93 123 162 205 266 316 368
#     4  11  20  38  61  88 123 166 201 250 311 373
#     4  10  18  35  59  89 120 155 214 245 303 368
#
# _framework density 19.414186999999998
#
# number of rings (size 3 to 8) (size 9 to 14) (size 15 to 20)
#    0.000    2.250    3.750    0.750    1.750    3.000 
#    6.750    1.250    2.750    0.000    0.000    0.000 
#    0.000    0.000    0.000    0.000    0.000    0.000 
#
# Total GULP energy -89116.017615 kJ/mol
# GULP energy per Si atom -5569.751101 kJ/mol
# Density = 1.937000 g / cm^3
# Si number density = 19.414187 Si / 1000 Ang^3
#
#
#
# Elastic Constant Matrix: (Units=GPa)
#
#
# Indices 1 2 3 4 5 6 
#
# 1 87.8360 55.5463 38.9774 -5.0789 0.9236 7.4969
# 2 55.5463 146.6497 62.4766 -8.0995 1.5438 3.7470
# 3 38.9774 62.4766 85.5307 2.3343 6.7150 3.7092
# 4 -5.0789 -8.0995 2.3343 37.2420 0.5181 -1.1311
# 5 0.9236 1.5438 6.7150 0.5181 24.7356 0.9630
# 6 7.4969 3.7470 3.7092 -1.1311 0.9630 25.4587
#
#
#
# Elastic Compliance Matrix: (Units=1/GPa)
#
#
# Indices 1 2 3 4 5 6 
#
# 1 0.016331 -0.004167 -0.004360 0.001474 0.000940 -0.003531
# 2 -0.004167 0.011271 -0.006512 0.002293 0.001150 0.000575
# 3 -0.004360 -0.006512 0.018893 -0.003147 -0.004475 -0.000481
# 4 0.001474 0.002293 -0.003147 0.027776 0.000039 0.000920
# 5 0.000940 0.001150 -0.004475 0.000039 0.041588 -0.001365
# 6 -0.003531 0.000575 -0.000481 0.000920 -0.001365 0.040397
#
#
# Mechanical properties :
#
#
# Convention : Reuss Voigt Hill
#
# Bulk Modulus (GPa) = 60.90564 70.44635 65.67599
# Shear Modulus (GPa) = 26.06791 28.35498 27.21145
#
# Velocity S-wave (km/s) = 3.66830 3.82583 3.74789
# Velocity P-wave (km/s) = 7.02721 7.47535 7.25474
#
# Compressibility (1/GPa) = 0.01641884
#
# Stress axis : x y z
#
# Youngs Moduli (GPa) = 61.23289 88.72012 52.92833
#
# Poissons Ratio (x) = 0.36967 0.23075
# Poissons Ratio (y) = 0.25514 0.34468
# Poissons Ratio (z) = 0.26695 0.57777
#
# Static dielectric constant tensor:
#      x y z
#    x 1.693920 -0.020170 0.004530 
#    y -0.020170 1.715860 0.017900 
#    z 0.004530 0.017900 1.717260 
# 
# From -- ./inp_files/317497.got.cif
#   From: 2010.05.17/outbox.cif.g08.bks.cpg/sg2_159_cif.got.tgz:317497.got - 2010.06.03 11:33:40.
