data_PCOD9078666
_publ_section_title
;
Structure prediction by ZEFSAII (Michael W. Deem and Ramdas Pophale) SiO2 
 PCOD9078666
Probable space group: P -1
;
_chemical_formula_sum "Si O2"
_cell_formula_units_Z 16
_cell_length_a 8.855414
_cell_length_b 12.778493
_cell_length_c 16.737553
_cell_angle_alpha 156.396099
_cell_angle_beta 59.495892
_cell_angle_gamma 113.688070
_cell_volume 642.295253
_symmetry_space_group_name_H-M "P -1"
_symmetry_group_IT_number 2
_symmetry_cell_setting 'triclinic'
loop_
_space_group_symop_operation_xyz
x,y,z
-x,-y,-z
loop_
_atom_site_type_symbol
_atom_site_label
_atom_site_fract_x
_atom_site_fract_y
_atom_site_fract_z
Si Si1 0.841013 0.538331 0.384669
Si Si2 0.803078 0.171597 0.654172
Si Si3 0.205526 0.543060 0.311953
Si Si4 0.808646 0.054901 0.163190
Si Si5 0.586358 0.450363 0.143082
Si Si6 0.550860 0.989127 0.710366
Si Si7 0.826599 0.638786 0.095403
Si Si8 0.074288 0.812000 0.032889
O O1 0.784629 0.292161 0.272951
O O2 0.678270 0.772156 0.576956
O O3 0.910574 0.444513 0.210807
O O4 0.000365 0.632904 0.456895
O O5 0.783980 0.270086 0.637808
O O6 0.781036 0.435254 0.898939
O O7 0.650660 0.019615 0.622108
O O8 0.000000 0.000000 0.500000
O O9 0.396471 0.538648 0.298788
O O10 0.195703 0.231087 0.077157
O O11 0.642697 0.082132 0.286521
O O12 0.995720 0.038077 0.148113
O O13 0.674164 0.670880 0.226062
O O14 0.540658 0.263195 0.952762
O O15 0.736868 0.265242 0.027068
O O16 0.914731 0.839886 0.159785
O O17 0.000000 0.500000 0.000000
#
# Coordination Sequence:
#
# PCOD9078666 Si02
#       8
#     2   2   2   2   2   2   2   2
#     4  11  20  38  57  78 108 144 186 224 257 317
#     4  11  18  32  57  83 107 140 172 224 275 318
#     4  10  19  34  55  82 108 137 186 213 268 322
#     4  10  21  35  58  80 103 147 191 217 254 322
#     4   9  21  33  54  81 113 139 175 222 273 321
#     4  10  21  35  55  82 112 136 178 227 274 311
#     4   9  17  30  52  77 108 138 170 213 269 318
#     4  10  18  36  55  78 108 144 183 216 267 318
#
# _framework density 24.910661000000001
#
# number of rings (size 3 to 8) (size 9 to 14) (size 15 to 20)
#    0.000    2.000    3.750    1.875    1.750    1.500 
#    0.000    7.500    0.000    2.250    0.000    0.000 
#    0.000    0.000    0.000    0.000    0.000    0.000 
#
# Total GULP energy -89228.474395 kJ/mol
# GULP energy per Si atom -5576.779650 kJ/mol
# Density = 2.485396 g / cm^3
# Si number density = 24.910661 Si / 1000 Ang^3
#
#
#
# Elastic Constant Matrix: (Units=GPa)
#
#
# Indices 1 2 3 4 5 6 
#
# 1 115.2262 37.1509 22.7632 -7.3410 -31.9485 22.2404
# 2 37.1509 107.8806 22.7409 24.5630 1.4036 16.9336
# 3 22.7632 22.7409 59.5602 7.2079 0.2334 -1.3855
# 4 -7.3410 24.5630 7.2079 39.4883 -9.6960 -4.1235
# 5 -31.9485 1.4036 0.2334 -9.6960 44.5387 -10.0778
# 6 22.2404 16.9336 -1.3855 -4.1235 -10.0778 26.9452
#
#
#
# Elastic Compliance Matrix: (Units=1/GPa)
#
#
# Indices 1 2 3 4 5 6 
#
# 1 0.017650 -0.007529 -0.005490 0.012386 0.015035 -0.002601
# 2 -0.007529 0.018314 -0.002334 -0.016748 -0.012472 -0.012643
# 3 -0.005490 -0.002334 0.020352 -0.003630 -0.003597 0.005143
# 4 0.012386 -0.016748 -0.003630 0.046004 0.023013 0.015762
# 5 0.015035 -0.012472 -0.003597 0.023013 0.041928 0.014447
# 6 -0.002601 -0.012643 0.005143 0.015762 0.014447 0.055284
#
#
# Mechanical properties :
#
#
# Convention : Reuss Voigt Hill
#
# Bulk Modulus (GPa) = 39.04335 49.77524 44.40929
# Shear Modulus (GPa) = 20.94031 35.52858 28.23445
#
# Velocity S-wave (km/s) = 2.90248 3.78066 3.37030
# Velocity P-wave (km/s) = 5.19037 6.25162 5.74555
#
# Compressibility (1/GPa) = 0.02561256
#
# Stress axis : x y z
#
# Youngs Moduli (GPa) = 56.65653 54.60213 49.13564
#
# Poissons Ratio (x) = 0.41108 0.26973
# Poissons Ratio (y) = 0.42655 0.11467
# Poissons Ratio (z) = 0.31102 0.12742
#
# Static dielectric constant tensor:
#      x y z
#    x 2.012000 0.031050 0.023740 
#    y 0.031050 1.960910 -0.061050 
#    z 0.023740 -0.061050 2.052540 
# 
# From -- ./inp_files/186932.got.cif
#   From: 2010.05.17/outbox.cif.g08.bks.cpg/sg2_94_cif.got.tgz:186932.got - 2010.06.03 11:33:40.
