data_PCOD9078860
_publ_section_title
;
Structure prediction by ZEFSAII (Michael W. Deem and Ramdas Pophale) SiO2 
 PCOD9078860
Probable space group: P -1
;
_chemical_formula_sum "Si O2"
_cell_formula_units_Z 16
_cell_length_a 8.226512
_cell_length_b 10.323328
_cell_length_c 12.548681
_cell_angle_alpha 128.903084
_cell_angle_beta 131.869090
_cell_angle_gamma 56.899088
_cell_volume 602.577830
_symmetry_space_group_name_H-M "P -1"
_symmetry_group_IT_number 2
_symmetry_cell_setting 'triclinic'
loop_
_space_group_symop_operation_xyz
x,y,z
-x,-y,-z
loop_
_atom_site_type_symbol
_atom_site_label
_atom_site_fract_x
_atom_site_fract_y
_atom_site_fract_z
Si Si1 0.766538 0.077466 0.764925
Si Si2 0.302307 0.271975 0.375505
Si Si3 0.300519 0.642888 0.305785
Si Si4 0.297153 0.218385 0.720952
Si Si5 0.170420 0.545863 0.729945
Si Si6 0.250398 0.868182 0.585720
Si Si7 0.609009 0.651949 0.960098
Si Si8 0.795006 0.129228 0.192484
O O1 0.746493 0.202159 0.719653
O O2 0.569683 0.171645 0.805572
O O3 0.706110 0.890935 0.637255
O O4 0.031634 0.012254 0.872314
O O5 0.434412 0.388898 0.562202
O O6 0.065658 0.366803 0.274564
O O7 0.478933 0.199695 0.323431
O O8 0.270803 0.475072 0.144569
O O9 0.192124 0.719170 0.409628
O O10 0.218200 0.041937 0.594139
O O11 0.196004 0.345871 0.648761
O O12 0.244733 0.308627 0.858992
O O13 0.416720 0.565224 0.882847
O O14 0.146594 0.681784 0.693431
O O15 0.173155 0.913931 0.693476
O O16 0.459360 0.826470 0.936926
#
# Coordination Sequence:
#
# PCOD9078860 Si02
#       8
#     2   2   2   2   2   2   2   2
#     4  10  18  36  59  90 117 154 199 244 291 346
#     4   8  19  36  56  89 119 150 197 246 289 344
#     4  10  20  36  60  89 120 155 195 247 293 347
#     4  11  21  39  64  89 118 154 198 248 294 348
#     4   9  19  38  59  91 116 156 195 246 294 351
#     4   9  22  40  59  88 118 159 197 241 295 347
#     4  10  22  37  61  87 123 153 196 242 303 347
#     4   9  21  39  58  87 121 160 192 242 293 358
#
# _framework density 26.552586000000002
#
# number of rings (size 3 to 8) (size 9 to 14) (size 15 to 20)
#    1.500    1.000    1.250    0.750    0.000    2.500 
#    2.250    2.500    0.000    1.500    0.000    0.000 
#    0.000    0.000    0.000    0.000    0.000    0.000 
#
# Total GULP energy -89139.472847 kJ/mol
# GULP energy per Si atom -5571.217053 kJ/mol
# Density = 2.649215 g / cm^3
# Si number density = 26.552586 Si / 1000 Ang^3
#
#
#
# Elastic Constant Matrix: (Units=GPa)
#
#
# Indices 1 2 3 4 5 6 
#
# 1 37.8147 24.1644 -0.6014 2.5008 1.3839 3.1814
# 2 24.1644 123.4497 2.0087 7.6777 4.6093 -10.2051
# 3 -0.6014 2.0087 57.1647 3.9772 2.6825 -3.3378
# 4 2.5008 7.6777 3.9772 28.0038 -6.3454 -4.1497
# 5 1.3839 4.6093 2.6825 -6.3454 25.6735 -0.4666
# 6 3.1814 -10.2051 -3.3378 -4.1497 -0.4666 43.0496
#
#
#
# Elastic Compliance Matrix: (Units=1/GPa)
#
#
# Indices 1 2 3 4 5 6 
#
# 1 0.030931 -0.006221 0.000507 -0.001974 -0.001163 -0.003924
# 2 -0.006221 0.009734 -0.000020 -0.002165 -0.001899 0.002536
# 3 0.000507 -0.000020 0.017893 -0.003023 -0.002622 0.001025
# 4 -0.001974 -0.002165 -0.003023 0.039834 0.010717 0.003354
# 5 -0.001163 -0.001899 -0.002622 0.010717 0.042294 0.000924
# 6 -0.003924 0.002536 0.001025 0.003354 0.000924 0.024533
#
#
# Mechanical properties :
#
#
# Convention : Reuss Voigt Hill
#
# Bulk Modulus (GPa) = 21.23607 29.95251 25.59429
# Shear Modulus (GPa) = 25.98976 32.20253 29.09615
#
# Velocity S-wave (km/s) = 3.13198 3.48628 3.31387
# Velocity P-wave (km/s) = 4.59284 5.24504 4.92974
#
# Compressibility (1/GPa) = 0.04708970
#
# Stress axis : x y z
#
# Youngs Moduli (GPa) = 32.32958 102.73542 55.88912
#
# Poissons Ratio (x) = 0.63913 -0.02832
# Poissons Ratio (y) = 0.20113 0.00110
# Poissons Ratio (z) = -0.01638 0.00202
#
# Static dielectric constant tensor:
#      x y z
#    x 2.178280 -0.061760 0.098720 
#    y -0.061760 2.051450 -0.027690 
#    z 0.098720 -0.027690 2.075340 
# 
# From -- ./inp_files/500896.got.cif
#   From: 2010.05.17/outbox.cif.g08.bks.cpg/sg2_251_cif.got.tgz:500896.got - 2010.06.03 11:33:40.
