data_PCOD9078771
_publ_section_title
;
Structure prediction by ZEFSAII (Michael W. Deem and Ramdas Pophale) SiO2 
 PCOD9078771
Probable space group: P -1
;
_chemical_formula_sum "Si O2"
_cell_formula_units_Z 16
_cell_length_a 17.693823
_cell_length_b 9.492205
_cell_length_c 8.562716
_cell_angle_alpha 60.576649
_cell_angle_beta 34.976806
_cell_angle_gamma 60.047525
_cell_volume 704.457709
_symmetry_space_group_name_H-M "P -1"
_symmetry_group_IT_number 2
_symmetry_cell_setting 'triclinic'
loop_
_space_group_symop_operation_xyz
x,y,z
-x,-y,-z
loop_
_atom_site_type_symbol
_atom_site_label
_atom_site_fract_x
_atom_site_fract_y
_atom_site_fract_z
Si Si1 0.103632 0.310407 0.037270
Si Si2 0.344979 0.674330 0.017777
Si Si3 0.651855 0.568426 0.622145
Si Si4 0.602985 0.123228 0.429152
Si Si5 0.000371 0.330882 0.881562
Si Si6 0.711177 0.817880 0.626819
Si Si7 0.270067 0.590771 0.877806
Si Si8 0.686822 0.797736 0.035091
O O1 0.230003 0.375475 0.705183
O O2 0.025258 0.252658 0.055502
O O3 0.175761 0.189872 0.114521
O O4 0.011644 0.472466 0.178217
O O5 0.506018 0.599288 0.772822
O O6 0.337282 0.853533 0.856492
O O7 0.310788 0.619336 0.277034
O O8 0.255963 0.596913 0.085992
O O9 0.638515 0.684451 0.736135
O O10 0.446568 0.121163 0.691637
O O11 0.680027 0.973214 0.479915
O O12 0.620907 0.293594 0.392363
O O13 0.130377 0.256665 0.602754
O O14 0.862946 0.321448 0.033992
O O15 0.670818 0.858171 0.851079
O O16 0.305835 0.400606 0.877065
#
# Coordination Sequence:
#
# PCOD9078771 Si02
#       8
#     2   2   2   2   2   2   2   2
#     4   9  18  35  58  81 108 135 189 234 261 309
#     4   9  19  35  55  86 106 142 178 231 268 319
#     4  10  18  36  58  83 109 137 186 229 270 318
#     4  10  21  35  56  83 113 143 174 230 277 325
#     4   9  20  36  55  80 107 150 180 224 265 321
#     4  11  22  35  56  81 115 147 180 215 276 333
#     4   9  19  35  57  78 106 143 184 223 264 317
#     4  11  19  37  57  83 107 142 187 228 270 314
#
# _framework density 22.712506999999999
#
# number of rings (size 3 to 8) (size 9 to 14) (size 15 to 20)
#    0.750    1.500    2.500    0.750    0.000    3.000 
#    2.250    0.000    0.000    1.500    0.000    0.000 
#    0.000    0.000    0.000    0.000    0.000    0.000 
#
# Total GULP energy -89161.129701 kJ/mol
# GULP energy per Si atom -5572.570606 kJ/mol
# Density = 2.266081 g / cm^3
# Si number density = 22.712507 Si / 1000 Ang^3
#
#
#
# Elastic Constant Matrix: (Units=GPa)
#
#
# Indices 1 2 3 4 5 6 
#
# 1 128.5150 25.3683 6.3052 -12.3718 -13.3354 -28.2124
# 2 25.3683 61.8670 17.6741 -16.1972 5.7461 -24.5882
# 3 6.3052 17.6741 30.7024 -10.1711 4.0200 -10.1354
# 4 -12.3718 -16.1972 -10.1711 26.8586 -14.2593 5.6016
# 5 -13.3354 5.7461 4.0200 -14.2593 27.8271 2.1343
# 6 -28.2124 -24.5882 -10.1354 5.6016 2.1343 33.7201
#
#
#
# Elastic Compliance Matrix: (Units=1/GPa)
#
#
# Indices 1 2 3 4 5 6 
#
# 1 0.011295 -0.000866 0.002395 0.008945 0.009257 0.007467
# 2 -0.000866 0.027343 -0.007115 0.009388 -0.001420 0.015605
# 3 0.002395 -0.007115 0.042467 0.012638 0.002396 0.007329
# 4 0.008945 0.009388 0.012638 0.070102 0.036122 0.004196
# 5 0.009257 -0.001420 0.002396 0.036122 0.059006 -0.002306
# 6 0.007467 0.015605 0.007329 0.004196 -0.002306 0.048934
#
#
# Mechanical properties :
#
#
# Convention : Reuss Voigt Hill
#
# Bulk Modulus (GPa) = 14.29926 35.53108 24.91517
# Shear Modulus (GPa) = 17.02813 29.13026 23.07920
#
# Velocity S-wave (km/s) = 2.74108 3.58518 3.19116
# Velocity P-wave (km/s) = 4.04073 5.72851 4.95698
#
# Compressibility (1/GPa) = 0.06993368
#
# Stress axis : x y z
#
# Youngs Moduli (GPa) = 88.53083 36.57210 23.54762
#
# Poissons Ratio (x) = 0.03168 -0.05640
# Poissons Ratio (y) = 0.07668 0.16754
# Poissons Ratio (z) = -0.21204 0.26021
#
# Static dielectric constant tensor:
#      x y z
#    x 1.892310 0.007750 0.041280 
#    y 0.007750 1.892060 -0.034490 
#    z 0.041280 -0.034490 1.861860 
# 
# From -- ./inp_files/330732.got.cif
#   From: 2010.05.17/outbox.cif.g08.bks.cpg/sg2_166_cif.got.tgz:330732.got - 2010.06.03 11:33:40.
