data_PCOD9078369
_publ_section_title
;
Structure prediction by ZEFSAII (Michael W. Deem and Ramdas Pophale) SiO2 
 PCOD9078369
Probable space group: P -1
;
_chemical_formula_sum "Si O2"
_cell_formula_units_Z 16
_cell_length_a 8.200334
_cell_length_b 9.496242
_cell_length_c 9.880141
_cell_angle_alpha 101.936600
_cell_angle_beta 105.311096
_cell_angle_gamma 77.432597
_cell_volume 715.125756
_symmetry_space_group_name_H-M "P -1"
_symmetry_group_IT_number 2
_symmetry_cell_setting 'triclinic'
loop_
_space_group_symop_operation_xyz
x,y,z
-x,-y,-z
loop_
_atom_site_type_symbol
_atom_site_label
_atom_site_fract_x
_atom_site_fract_y
_atom_site_fract_z
Si Si1 0.109248 0.581196 0.939064
Si Si2 0.050055 0.931507 0.642759
Si Si3 0.924283 0.856977 0.090262
Si Si4 0.398769 0.940778 0.619434
Si Si5 0.058487 0.374930 0.379709
Si Si6 0.639103 0.679508 0.130051
Si Si7 0.614131 0.751757 0.446255
Si Si8 0.617708 0.044875 0.915012
O O1 0.296995 0.481330 0.948739
O O2 0.019925 0.580460 0.773389
O O3 0.000000 0.500000 0.000000
O O4 0.066545 0.744884 0.019188
O O5 0.256480 0.913245 0.688139
O O6 0.001696 0.775297 0.622854
O O7 0.986118 0.050230 0.765803
O O8 0.000000 0.000000 0.500000
O O9 0.790141 0.770023 0.127725
O O10 0.806360 0.967836 0.984906
O O11 0.436889 0.808241 0.495794
O O12 0.337277 0.090386 0.552876
O O13 0.560383 0.974197 0.748873
O O14 0.262995 0.335967 0.433003
O O15 0.000000 0.500000 0.500000
O O16 0.631922 0.670570 0.290509
O O17 0.457142 0.781330 0.075465
O O18 0.500000 0.000000 0.000000
#
# Coordination Sequence:
#
# PCOD9078369 Si02
#       8
#     2   2   2   2   2   2   2   2
#     4  10  22  37  62  90 130 169 217 268 326 397
#     4  12  23  40  65  97 140 165 219 288 328 378
#     4  10  19  36  61  95 124 170 223 266 324 387
#     4  10  19  34  62  96 125 168 213 274 318 383
#     4  12  24  40  67  96 131 179 218 268 342 402
#     4   9  16  33  58  91 121 168 209 264 317 384
#     4  10  18  35  61  93 125 162 224 253 318 394
#     4   9  15  30  58  87 118 161 220 256 313 388
#
# _framework density 22.373687
#
# number of rings (size 3 to 8) (size 9 to 14) (size 15 to 20)
#    0.000    1.750    6.250    0.750    1.750    0.500 
#    0.000    0.625    0.000    2.250    0.000    0.000 
#    0.000    0.000    0.000    0.000    0.000    0.000 
#
# Total GULP energy -89269.530407 kJ/mol
# GULP energy per Si atom -5579.345650 kJ/mol
# Density = 2.232276 g / cm^3
# Si number density = 22.373687 Si / 1000 Ang^3
#
#
#
# Elastic Constant Matrix: (Units=GPa)
#
#
# Indices 1 2 3 4 5 6 
#
# 1 43.6407 32.1228 24.9581 11.3477 -6.4592 -23.3414
# 2 32.1228 127.3918 72.5354 17.3022 1.0289 -31.0766
# 3 24.9581 72.5354 149.1972 13.2439 -13.7703 -15.1784
# 4 11.3477 17.3022 13.2439 54.8798 -14.9557 -10.9018
# 5 -6.4592 1.0289 -13.7703 -14.9557 30.3526 3.8787
# 6 -23.3414 -31.0766 -15.1784 -10.9018 3.8787 39.9323
#
#
#
# Elastic Compliance Matrix: (Units=1/GPa)
#
#
# Indices 1 2 3 4 5 6 
#
# 1 0.037056 -0.003827 -0.002087 -0.001415 0.004187 0.017096
# 2 -0.003827 0.014153 -0.005918 -0.002632 -0.006094 0.006401
# 3 -0.002087 -0.005918 0.010092 0.000777 0.005007 -0.002264
# 4 -0.001415 -0.002632 0.000777 0.022652 0.010978 0.002538
# 5 0.004187 -0.006094 0.005007 0.010978 0.041911 -0.001466
# 6 0.017096 0.006401 -0.002264 0.002538 -0.001466 0.039992
#
#
# Mechanical properties :
#
#
# Convention : Reuss Voigt Hill
#
# Bulk Modulus (GPa) = 26.56991 64.38473 45.47732
# Shear Modulus (GPa) = 24.74448 37.74048 31.24248
#
# Velocity S-wave (km/s) = 3.32921 4.11155 3.74089
# Velocity P-wave (km/s) = 5.16522 7.16793 6.24735
#
# Compressibility (1/GPa) = 0.03763656
#
# Stress axis : x y z
#
# Youngs Moduli (GPa) = 26.98601 70.65868 99.09143
#
# Poissons Ratio (x) = 0.27040 0.20682
# Poissons Ratio (y) = 0.10327 0.58642
# Poissons Ratio (z) = 0.05632 0.41816
#
# Static dielectric constant tensor:
#      x y z
#    x 1.915090 -0.014360 0.039500 
#    y -0.014360 1.854990 0.029860 
#    z 0.039500 0.029860 1.853340 
# 
# From -- ./inp_files/245083.got.cif
#   From: 2010.05.17/outbox.cif.g08.bks.cpg/sg2_123_cif.got.tgz:245083.got - 2010.06.03 11:33:40.
