data_PCOD9078103
_publ_section_title
;
Structure prediction by ZEFSAII (Michael W. Deem and Ramdas Pophale) SiO2 
 PCOD9078103
Probable space group: P -1
;
_chemical_formula_sum "Si O2"
_cell_formula_units_Z 16
_cell_length_a 18.737943
_cell_length_b 11.819812
_cell_length_c 21.521949
_cell_angle_alpha 29.875752
_cell_angle_beta 158.224364
_cell_angle_gamma 149.593021
_cell_volume 837.538844
_symmetry_space_group_name_H-M "P -1"
_symmetry_group_IT_number 2
_symmetry_cell_setting 'triclinic'
loop_
_space_group_symop_operation_xyz
x,y,z
-x,-y,-z
loop_
_atom_site_type_symbol
_atom_site_label
_atom_site_fract_x
_atom_site_fract_y
_atom_site_fract_z
Si Si1 0.724415 0.539386 0.134487
Si Si2 0.907580 0.032124 0.090334
Si Si3 0.775585 0.808989 0.916055
Si Si4 0.033782 0.277128 0.202011
Si Si5 0.259137 0.970538 0.585804
Si Si6 0.466219 0.558944 0.352632
Si Si7 0.407580 0.887492 0.305211
Si Si8 0.240863 0.421075 0.116992
O O1 0.863532 0.749839 0.189904
O O2 0.776819 0.293502 0.292994
O O3 0.500000 0.500000 0.000000
O O4 0.750000 0.650358 0.033214
O O5 0.902648 0.149905 0.097036
O O6 0.128197 0.163544 0.179008
O O7 0.750000 0.084264 0.888579
O O8 0.723181 0.635529 0.897329
O O9 0.636468 0.978795 0.733884
O O10 0.000000 0.000000 0.000000
O O11 0.076141 0.074110 0.375367
O O12 0.250000 0.441263 0.269579
O O13 0.918330 0.431680 0.071748
O O14 0.418330 0.176385 0.656847
O O15 0.371803 0.979521 0.606637
O O16 0.597353 0.382974 0.558672
O O17 0.423859 0.545899 0.251296
#
# Coordination Sequence:
#
# PCOD9078103 Si02
#       8
#     2   2   2   2   2   2   2   2
#     4  11  22  37  63  86 118 154 194 238 293 353
#     4  10  18  35  58  88 113 151 197 242 282 341
#     4  11  22  37  63  86 118 154 194 238 293 353
#     4  10  21  33  61  87 120 151 200 245 280 344
#     4  11  20  36  58  88 116 155 196 242 289 339
#     4  10  21  33  61  87 120 151 200 245 280 344
#     4  10  18  35  58  88 113 151 197 242 282 341
#     4  11  20  36  58  88 116 155 196 242 289 339
#
# _framework density 19.103591999999999
#
# number of rings (size 3 to 8) (size 9 to 14) (size 15 to 20)
#    0.000    1.500    5.000    5.250    0.000    1.000 
#    0.000    1.250    0.000    0.000    0.000    0.000 
#    0.000    0.000    0.000    0.000    0.000    0.000 
#
# Total GULP energy -89243.931837 kJ/mol
# GULP energy per Si atom -5577.745740 kJ/mol
# Density = 1.906011 g / cm^3
# Si number density = 19.103592 Si / 1000 Ang^3
#
#
#
# Elastic Constant Matrix: (Units=GPa)
#
#
# Indices 1 2 3 4 5 6 
#
# 1 108.2419 48.6571 27.3816 -7.3987 1.9227 -28.4738
# 2 48.6571 122.9435 59.0989 -36.2092 0.1010 -20.9651
# 3 27.3816 59.0989 86.0548 -18.1304 -8.4515 -16.8855
# 4 -7.3987 -36.2092 -18.1304 30.3112 -2.3295 -2.3429
# 5 1.9227 0.1010 -8.4515 -2.3295 17.5516 -5.7567
# 6 -28.4738 -20.9651 -16.8855 -2.3429 -5.7567 41.3291
#
#
#
# Elastic Compliance Matrix: (Units=1/GPa)
#
#
# Indices 1 2 3 4 5 6 
#
# 1 0.012845 -0.004415 -0.000056 -0.001624 0.000530 0.006569
# 2 -0.004415 0.019664 -0.006988 0.018738 0.001235 0.005312
# 3 -0.000056 -0.006988 0.020053 0.005112 0.012561 0.006649
# 4 -0.001624 0.018738 0.005112 0.060500 0.015846 0.016112
# 5 0.000530 0.001235 0.012561 0.015846 0.070589 0.016854
# 6 0.006569 0.005312 0.006649 0.016112 0.016854 0.037394
#
#
# Mechanical properties :
#
#
# Convention : Reuss Voigt Hill
#
# Bulk Modulus (GPa) = 33.73489 65.27948 49.50719
# Shear Modulus (GPa) = 19.69704 29.97854 24.83779
#
# Velocity S-wave (km/s) = 3.21450 3.96569 3.60969
# Velocity P-wave (km/s) = 5.61023 7.43064 6.58366
#
# Compressibility (1/GPa) = 0.02964290
#
# Stress axis : x y z
#
# Youngs Moduli (GPa) = 77.85089 50.85402 49.86833
#
# Poissons Ratio (x) = 0.22454 0.00280
# Poissons Ratio (y) = 0.34374 0.34849
# Poissons Ratio (z) = 0.00437 0.35537
#
# Static dielectric constant tensor:
#      x y z
#    x 1.684320 -0.018490 -0.007260 
#    y -0.018490 1.704360 0.007710 
#    z -0.007260 0.007710 1.736380 
# 
# From -- ./inp_files/613686.got.cif
#   From: 2010.05.17/outbox.cif.g08.bks.cpg/sg2_307_cif.got.tgz:613686.got - 2010.06.03 11:33:40.
