data_PCOD9078545
_publ_section_title
;
Structure prediction by ZEFSAII (Michael W. Deem and Ramdas Pophale) SiO2 
 PCOD9078545
Probable space group: P -1
;
_chemical_formula_sum "Si O2"
_cell_formula_units_Z 16
_cell_length_a 7.259996
_cell_length_b 6.926698
_cell_length_c 14.546612
_cell_angle_alpha 58.862419
_cell_angle_beta 102.215070
_cell_angle_gamma 107.477967
_cell_volume 595.798757
_symmetry_space_group_name_H-M "P -1"
_symmetry_group_IT_number 2
_symmetry_cell_setting 'triclinic'
loop_
_space_group_symop_operation_xyz
x,y,z
-x,-y,-z
loop_
_atom_site_type_symbol
_atom_site_label
_atom_site_fract_x
_atom_site_fract_y
_atom_site_fract_z
Si Si1 0.999320 0.305303 0.323732
Si Si2 0.892977 0.094238 0.665814
Si Si3 0.308496 0.314607 0.132795
Si Si4 0.683883 0.702193 0.264234
Si Si5 0.723027 0.294458 0.809849
Si Si6 0.324178 0.777480 0.540036
Si Si7 0.247972 0.623621 0.895972
Si Si8 0.272880 0.996932 0.961044
O O1 0.849477 0.217415 0.409282
O O2 0.882615 0.348264 0.210116
O O3 0.139311 0.558346 0.288212
O O4 0.110809 0.108875 0.360396
O O5 0.772808 0.255798 0.562560
O O6 0.118540 0.200844 0.683720
O O7 0.789433 0.938451 0.777489
O O8 0.299610 0.509074 0.162768
O O9 0.530065 0.329616 0.125068
O O10 0.213585 0.393891 0.011536
O O11 0.491916 0.802197 0.229035
O O12 0.609545 0.441869 0.356035
O O13 0.738437 0.761661 0.147455
O O14 0.808388 0.111420 0.923906
O O15 0.500000 0.000000 0.500000
O O16 0.211487 0.815585 0.917168
O O17 0.500000 0.000000 0.000000
#
# Coordination Sequence:
#
# PCOD9078545 Si02
#       8
#     2   2   2   2   2   2   2   2
#     4  11  22  40  68  94 119 163 220 252 314 379
#     4  11  23  41  65  94 126 163 215 264 313 362
#     4   9  20  36  64  94 128 165 211 253 311 375
#     4  11  22  42  62  91 128 167 205 262 319 363
#     4   9  20  38  64  94 129 165 203 254 318 381
#     4  12  26  46  66  86 126 171 217 264 310 371
#     4  10  18  35  64  95 125 166 209 253 310 383
#     4   9  19  36  61  90 134 163 195 251 321 373
#
# _framework density 26.854707000000001
#
# number of rings (size 3 to 8) (size 9 to 14) (size 15 to 20)
#    0.000    1.750    1.250    3.750    1.750    2.500 
#    4.500    3.125    0.000    0.000    0.000    0.000 
#    0.000    0.000    0.000    0.000    0.000    0.000 
#
# Total GULP energy -89600.155787 kJ/mol
# GULP energy per Si atom -5600.009737 kJ/mol
# Density = 2.679358 g / cm^3
# Si number density = 26.854707 Si / 1000 Ang^3
#
#
#
# Elastic Constant Matrix: (Units=GPa)
#
#
# Indices 1 2 3 4 5 6 
#
# 1 76.8016 31.8621 52.6267 -7.3366 -12.3386 18.7666
# 2 31.8621 106.0733 81.9205 -14.9075 -8.7602 28.8976
# 3 52.6267 81.9205 252.4233 -14.5024 5.7068 20.8079
# 4 -7.3366 -14.9075 -14.5024 61.2283 5.4880 -0.9983
# 5 -12.3386 -8.7602 5.7068 5.4880 55.7042 -6.9337
# 6 18.7666 28.8976 20.8079 -0.9983 -6.9337 52.7889
#
#
#
# Elastic Compliance Matrix: (Units=1/GPa)
#
#
# Indices 1 2 3 4 5 6 
#
# 1 0.017075 -0.001641 -0.002765 0.000637 0.003292 -0.003637
# 2 -0.001641 0.015001 -0.003946 0.002296 0.001447 -0.005840
# 3 -0.002765 -0.003946 0.005822 0.000257 -0.001778 0.000619
# 4 0.000637 0.002296 0.000257 0.017130 -0.001391 -0.001443
# 5 0.003292 0.001447 -0.001778 -0.001391 0.019384 0.001258
# 6 -0.003637 -0.005840 0.000619 -0.001443 0.001258 0.023327
#
#
# Mechanical properties :
#
#
# Convention : Reuss Voigt Hill
#
# Bulk Modulus (GPa) = 47.18254 85.34630 66.26442
# Shear Modulus (GPa) = 41.14992 51.87022 46.51007
#
# Velocity S-wave (km/s) = 3.91873 4.39967 4.16614
# Velocity P-wave (km/s) = 6.17114 7.59336 6.91889
#
# Compressibility (1/GPa) = 0.02119428
#
# Stress axis : x y z
#
# Youngs Moduli (GPa) = 58.56628 66.66441 171.74841
#
# Poissons Ratio (x) = 0.10939 0.47493
# Poissons Ratio (y) = 0.09610 0.67764
# Poissons Ratio (z) = 0.16195 0.26303
#
# Static dielectric constant tensor:
#      x y z
#    x 2.178480 -0.085440 -0.029650 
#    y -0.085440 2.200180 -0.065320 
#    z -0.029650 -0.065320 2.074040 
# 
# From -- ./inp_files/558979.got.cif
#   From: 2010.05.17/outbox.cif.g08.bks.cpg/sg2_280_cif.got.tgz:558979.got - 2010.06.03 11:33:40.
