data_PCOD9078202
_publ_section_title
;
Structure prediction by ZEFSAII (Michael W. Deem and Ramdas Pophale) SiO2 
 PCOD9078202
Probable space group: P -1
;
_chemical_formula_sum "Si O2"
_cell_formula_units_Z 16
_cell_length_a 11.313451
_cell_length_b 9.565319
_cell_length_c 16.381804
_cell_angle_alpha 42.059999
_cell_angle_beta 142.032923
_cell_angle_gamma 140.225266
_cell_volume 654.428328
_symmetry_space_group_name_H-M "P -1"
_symmetry_group_IT_number 2
_symmetry_cell_setting 'triclinic'
loop_
_space_group_symop_operation_xyz
x,y,z
-x,-y,-z
loop_
_atom_site_type_symbol
_atom_site_label
_atom_site_fract_x
_atom_site_fract_y
_atom_site_fract_z
Si Si1 0.330793 0.074590 0.838170
Si Si2 0.230171 0.430967 0.573277
Si Si3 0.872834 0.305759 0.818142
Si Si4 0.686306 0.083031 0.639932
Si Si5 0.741003 0.109884 0.434802
Si Si6 0.033047 0.958650 0.867699
Si Si7 0.725922 0.524610 0.146587
Si Si8 0.574260 0.753593 0.358021
O O1 0.365187 0.345582 0.743961
O O2 0.122882 0.929684 0.842205
O O3 0.348204 0.061191 0.755782
O O4 0.500000 0.000000 0.000000
O O5 0.212722 0.668418 0.458361
O O6 0.331370 0.420427 0.544950
O O7 0.990547 0.229142 0.539037
O O8 0.755272 0.134591 0.751971
O O9 0.682705 0.365097 0.721281
O O10 0.102826 0.470660 0.831366
O O11 0.927302 0.186191 0.976380
O O12 0.789258 0.914018 0.745488
O O13 0.432745 0.991061 0.544952
O O14 0.695255 0.310906 0.280370
O O15 0.689421 0.898863 0.436327
O O16 0.161521 0.228404 0.851393
O O17 0.500000 0.500000 0.000000
#
# Coordination Sequence:
#
# PCOD9078202 Si02
#       8
#     2   2   2   2   2   2   2   2
#     4  10  22  40  65  84 118 170 206 230 308 376
#     4  10  21  41  61  93 119 164 201 252 305 356
#     4  10  18  35  59  89 121 154 201 251 302 354
#     4  10  21  36  61  95 118 154 203 254 312 346
#     4  11  20  39  61  95 123 148 208 261 304 347
#     4  11  19  38  62  84 128 161 198 249 297 372
#     4  11  21  33  59  96 121 155 203 259 307 345
#     4   9  21  37  62  86 120 159 200 248 302 356
#
# _framework density 24.448819
#
# number of rings (size 3 to 8) (size 9 to 14) (size 15 to 20)
#    0.750    1.000    3.750    4.125    0.000    2.500 
#    2.250    0.625    2.750    2.250    0.000    0.000 
#    0.000    0.000    0.000    0.000    0.000    0.000 
#
# Total GULP energy -89329.193486 kJ/mol
# GULP energy per Si atom -5583.074593 kJ/mol
# Density = 2.439317 g / cm^3
# Si number density = 24.448819 Si / 1000 Ang^3
#
#
#
# Elastic Constant Matrix: (Units=GPa)
#
#
# Indices 1 2 3 4 5 6 
#
# 1 141.3656 16.5473 13.8515 18.0362 17.8156 29.5812
# 2 16.5473 56.0771 24.0969 10.0156 1.7668 18.6675
# 3 13.8515 24.0969 132.8696 0.0760 8.6275 8.2670
# 4 18.0362 10.0156 0.0760 30.4726 18.8886 -0.5590
# 5 17.8156 1.7668 8.6275 18.8886 41.1280 6.1554
# 6 29.5812 18.6675 8.2670 -0.5590 6.1554 29.7672
#
#
#
# Elastic Compliance Matrix: (Units=1/GPa)
#
#
# Indices 1 2 3 4 5 6 
#
# 1 0.010208 0.002692 -0.000870 -0.007761 0.000997 -0.011942
# 2 0.002692 0.029416 -0.004884 -0.017958 0.010165 -0.022205
# 3 -0.000870 -0.004884 0.008585 0.004353 -0.003567 0.002362
# 4 -0.007761 -0.017958 0.004353 0.061608 -0.028797 0.024877
# 5 0.000997 0.010165 -0.003567 -0.028797 0.039683 -0.015122
# 6 -0.011942 -0.022205 0.002362 0.024877 -0.015122 0.062325
#
#
# Mechanical properties :
#
#
# Convention : Reuss Voigt Hill
#
# Bulk Modulus (GPa) = 23.76124 48.81151 36.28637
# Shear Modulus (GPa) = 21.55407 38.66132 30.10769
#
# Velocity S-wave (km/s) = 2.97240 3.98089 3.51302
# Velocity P-wave (km/s) = 4.63897 6.41390 5.59724
#
# Compressibility (1/GPa) = 0.04208534
#
# Stress axis : x y z
#
# Youngs Moduli (GPa) = 97.96688 33.99543 116.48686
#
# Poissons Ratio (x) = -0.09151 0.10129
# Poissons Ratio (y) = -0.26371 0.56887
# Poissons Ratio (z) = 0.08519 0.16602
#
# Static dielectric constant tensor:
#      x y z
#    x 2.028490 -0.013130 -0.034090 
#    y -0.013130 1.959630 0.037080 
#    z -0.034090 0.037080 1.966330 
# 
# From -- ./inp_files/568614.got.cif
#   From: 2010.05.17/outbox.cif.g08.bks.cpg/sg2_285_cif.got.tgz:568614.got - 2010.06.03 11:33:40.
