data_PCOD9078287
_publ_section_title
;
Structure prediction by ZEFSAII (Michael W. Deem and Ramdas Pophale) SiO2 
 PCOD9078287
Probable space group: P -1
;
_chemical_formula_sum "Si O2"
_cell_formula_units_Z 16
_cell_length_a 14.021952
_cell_length_b 11.395396
_cell_length_c 12.225334
_cell_angle_alpha 98.848302
_cell_angle_beta 59.973072
_cell_angle_gamma 146.786493
_cell_volume 768.494726
_symmetry_space_group_name_H-M "P -1"
_symmetry_group_IT_number 2
_symmetry_cell_setting 'triclinic'
loop_
_space_group_symop_operation_xyz
x,y,z
-x,-y,-z
loop_
_atom_site_type_symbol
_atom_site_label
_atom_site_fract_x
_atom_site_fract_y
_atom_site_fract_z
Si Si1 0.699918 0.800632 0.070719
Si Si2 0.470174 0.214882 0.303488
Si Si3 0.488790 0.616471 0.389655
Si Si4 0.177105 0.140303 0.586432
Si Si5 0.012697 0.383469 0.528897
Si Si6 0.612573 0.236685 0.447994
Si Si7 0.143622 0.317786 0.019094
Si Si8 0.771841 0.578804 0.778149
O O1 0.515605 0.612833 0.249518
O O2 0.795954 0.760704 0.992247
O O3 0.513451 0.676828 0.074078
O O4 0.913382 0.085299 0.037811
O O5 0.339155 0.204541 0.431142
O O6 0.606332 0.272767 0.330667
O O7 0.646948 0.425140 0.137073
O O8 0.249209 0.922500 0.351468
O O9 0.231974 0.323616 0.536782
O O10 0.696284 0.743969 0.351769
O O11 0.533525 0.796276 0.414837
O O12 0.914057 0.836525 0.701905
O O13 0.141715 0.519069 0.590950
O O14 0.158829 0.444176 0.363741
O O15 0.000000 0.500000 0.500000
O O16 0.500000 0.000000 0.500000
O O17 0.118239 0.355462 0.157641
#
# Coordination Sequence:
#
# PCOD9078287 Si02
#       8
#     2   2   2   2   2   2   2   2
#     4  11  22  37  61  90 133 176 200 242 310 389
#     4  10  22  39  64  93 125 161 203 266 309 372
#     4  10  18  35  60  91 123 156 206 254 307 366
#     4   9  19  35  61  94 121 157 204 260 316 357
#     4  11  23  41  68  93 117 159 217 266 314 358
#     4  11  22  38  65  90 119 157 211 263 309 359
#     4  11  24  40  58  93 137 170 201 243 317 381
#     4  11  23  39  64  93 130 168 203 256 311 383
#
# _framework density 20.819921000000001
#
# number of rings (size 3 to 8) (size 9 to 14) (size 15 to 20)
#    0.000    1.500    5.000    0.375    0.000    2.500 
#    0.000    0.625    0.000    3.750    0.000    0.000 
#    0.000    0.000    0.000    0.000    0.000    0.000 
#
# Total GULP energy -89231.819750 kJ/mol
# GULP energy per Si atom -5576.988734 kJ/mol
# Density = 2.077253 g / cm^3
# Si number density = 20.819921 Si / 1000 Ang^3
#
#
#
# Elastic Constant Matrix: (Units=GPa)
#
#
# Indices 1 2 3 4 5 6 
#
# 1 58.5185 47.9372 25.6785 -15.9306 2.1645 -1.9059
# 2 47.9372 154.4426 45.7335 -27.4680 6.2887 15.2956
# 3 25.6785 45.7335 77.6971 -19.6111 9.9383 3.9631
# 4 -15.9306 -27.4680 -19.6111 32.8107 4.7284 -4.7088
# 5 2.1645 6.2887 9.9383 4.7284 19.7419 -1.4934
# 6 -1.9059 15.2956 3.9631 -4.7088 -1.4934 41.5855
#
#
#
# Elastic Compliance Matrix: (Units=1/GPa)
#
#
# Indices 1 2 3 4 5 6 
#
# 1 0.025475 -0.006306 -0.003508 0.005637 -0.000031 0.004458
# 2 -0.006306 0.010323 -0.002487 0.003961 -0.002558 -0.003492
# 3 -0.003508 -0.002487 0.019203 0.009177 -0.010720 -0.000422
# 4 0.005637 0.003961 0.009177 0.044817 -0.017053 0.002389
# 5 -0.000031 -0.002558 -0.010720 -0.017053 0.061121 0.002225
# 6 0.004458 -0.003492 -0.000422 0.002389 0.002225 0.025926
#
#
# Mechanical properties :
#
#
# Convention : Reuss Voigt Hill
#
# Bulk Modulus (GPa) = 32.89641 58.81740 45.85691
# Shear Modulus (GPa) = 22.56321 30.24820 26.40571
#
# Velocity S-wave (km/s) = 3.29558 3.81576 3.56517
# Velocity P-wave (km/s) = 5.50599 6.90835 6.24664
#
# Compressibility (1/GPa) = 0.03039845
#
# Stress axis : x y z
#
# Youngs Moduli (GPa) = 39.25475 96.86872 52.07594
#
# Poissons Ratio (x) = 0.61085 0.18268
# Poissons Ratio (y) = 0.24754 0.12952
# Poissons Ratio (z) = 0.13771 0.24092
#
# Static dielectric constant tensor:
#      x y z
#    x 1.820410 0.063290 -0.027180 
#    y 0.063290 1.805750 -0.003760 
#    z -0.027180 -0.003760 1.747250 
# 
# From -- ./inp_files/215549.got.cif
#   From: 2010.05.17/outbox.cif.g08.bks.cpg/sg2_108_cif.got.tgz:215549.got - 2010.06.03 11:33:40.
