data_PCOD9078145
_publ_section_title
;
Structure prediction by ZEFSAII (Michael W. Deem and Ramdas Pophale) SiO2 
 PCOD9078145
Probable space group: P -1
;
_chemical_formula_sum "Si O2"
_cell_formula_units_Z 14
_cell_length_a 9.328625
_cell_length_b 11.466075
_cell_length_c 13.432667
_cell_angle_alpha 46.064701
_cell_angle_beta 47.779881
_cell_angle_gamma 41.879131
_cell_volume 653.634170
_symmetry_space_group_name_H-M "P -1"
_symmetry_group_IT_number 2
_symmetry_cell_setting 'triclinic'
loop_
_space_group_symop_operation_xyz
x,y,z
-x,-y,-z
loop_
_atom_site_type_symbol
_atom_site_label
_atom_site_fract_x
_atom_site_fract_y
_atom_site_fract_z
Si Si1 0.093020 0.942037 0.832164
Si Si2 0.855185 0.565586 0.369268
Si Si3 0.675153 0.809729 0.968815
Si Si4 0.708608 0.960731 0.128848
Si Si5 0.806972 0.369943 0.689606
Si Si6 0.611853 0.470498 0.074817
Si Si7 0.023675 0.549870 0.832383
O O1 0.211232 0.972646 0.853802
O O2 0.283475 0.747877 0.810264
O O3 0.964702 0.147454 0.719001
O O4 0.901504 0.906191 0.987695
O O5 0.752285 0.496680 0.542511
O O6 0.058185 0.573980 0.327283
O O7 0.930703 0.434880 0.313280
O O8 0.700091 0.778351 0.273592
O O9 0.757860 0.629955 0.110791
O O10 0.521360 0.869444 0.906246
O O11 0.919736 0.734063 0.844146
O O12 0.500000 0.000000 0.000000
O O13 0.588941 0.401956 0.830768
O O14 0.500000 0.500000 0.000000
O O15 0.823270 0.501007 0.953224
#
# Coordination Sequence:
#
# PCOD9078145 Si02
#       7
#     2   2   2   2   2   2   2
#     4  10  19  34  56  88 113 147 188 232 280 348
#     4  10  19  39  52  86 121 151 182 235 286 346
#     4  11  21  35  56  87 112 149 196 248 273 324
#     4  10  18  35  59  82 114 148 190 237 282 326
#     4  10  22  34  56  84 127 148 177 233 296 336
#     4  12  19  35  61  86 112 151 189 237 281 339
#     4  11  22  35  59  87 113 147 202 234 279 336
#
# _framework density 21.418710000000001
#
# number of rings (size 3 to 8) (size 9 to 14) (size 15 to 20)
#    0.000    1.429    4.286    3.429    0.000    0.000 
#    2.571    2.143    0.000    8.571    0.000    0.000 
#    0.000    0.000    0.000    0.000    0.000    0.000 
#
# Total GULP energy -77988.537066 kJ/mol
# GULP energy per Si atom -5570.609790 kJ/mol
# Density = 2.136996 g / cm^3
# Si number density = 21.418710 Si / 1000 Ang^3
#
#
#
# Elastic Constant Matrix: (Units=GPa)
#
#
# Indices 1 2 3 4 5 6 
#
# 1 62.5291 16.8698 25.2677 -3.8131 14.0240 -18.7232
# 2 16.8698 141.7755 23.7093 -10.5070 12.8158 -3.6602
# 3 25.2677 23.7093 105.9171 -12.0733 24.3832 -8.4155
# 4 -3.8131 -10.5070 -12.0733 26.6281 3.1380 7.9940
# 5 14.0240 12.8158 24.3832 3.1380 24.4534 0.2535
# 6 -18.7232 -3.6602 -8.4155 7.9940 0.2535 31.9319
#
#
#
# Elastic Compliance Matrix: (Units=1/GPa)
#
#
# Indices 1 2 3 4 5 6 
#
# 1 0.023516 -0.001193 -0.001783 -0.000630 -0.011142 0.013428
# 2 -0.001193 0.007799 -0.000324 0.003386 -0.003507 -0.000711
# 3 -0.001783 -0.000324 0.014001 0.007316 -0.013716 0.000885
# 4 -0.000630 0.003386 0.007316 0.046731 -0.014605 -0.009636
# 5 -0.011142 -0.003507 -0.013716 -0.014605 0.064750 -0.007408
# 6 0.013428 -0.000711 0.000885 -0.009636 -0.007408 0.041813
#
#
# Mechanical properties :
#
#
# Convention : Reuss Voigt Hill
#
# Bulk Modulus (GPa) = 25.82899 49.10171 37.46535
# Shear Modulus (GPa) = 22.92351 32.89433 27.90892
#
# Velocity S-wave (km/s) = 3.27503 3.92315 3.61365
# Velocity P-wave (km/s) = 5.13676 6.59514 5.91110
#
# Compressibility (1/GPa) = 0.03871618
#
# Stress axis : x y z
#
# Youngs Moduli (GPa) = 42.52399 128.21800 71.42262
#
# Poissons Ratio (x) = 0.15295 0.12734
# Poissons Ratio (y) = 0.05072 0.02317
# Poissons Ratio (z) = 0.07582 0.04159
#
# Static dielectric constant tensor:
#      x y z
#    x 1.937870 0.102140 0.006620 
#    y 0.102140 1.868760 -0.001560 
#    z 0.006620 -0.001560 1.720730 
# 
# From -- ./inp_files/331043.got.cif
#   From: 2010.05.17/outbox.cif.g08.bks.cpg/sg2_166_cif.got.tgz:331043.got - 2010.06.03 11:33:40.
