data_PCOD9078209
_publ_section_title
;
Structure prediction by ZEFSAII (Michael W. Deem and Ramdas Pophale) SiO2 
 PCOD9078209
Probable space group: P -1
;
_chemical_formula_sum "Si O2"
_cell_formula_units_Z 14
_cell_length_a 9.167556
_cell_length_b 19.181472
_cell_length_c 5.052473
_cell_angle_alpha 88.792326
_cell_angle_beta 100.777500
_cell_angle_gamma 139.544084
_cell_volume 555.988609
_symmetry_space_group_name_H-M "P -1"
_symmetry_group_IT_number 2
_symmetry_cell_setting 'triclinic'
loop_
_space_group_symop_operation_xyz
x,y,z
-x,-y,-z
loop_
_atom_site_type_symbol
_atom_site_label
_atom_site_fract_x
_atom_site_fract_y
_atom_site_fract_z
Si Si1 0.880397 0.045019 0.717950
Si Si2 0.225589 0.586012 0.882796
Si Si3 0.208934 0.137755 0.321003
Si Si4 0.294688 0.395309 0.115803
Si Si5 0.436970 0.615137 0.464335
Si Si6 0.831950 0.275010 0.177573
Si Si7 0.838588 0.186148 0.714075
O O1 0.052913 0.097011 0.527196
O O2 0.765662 0.079542 0.667254
O O3 0.040801 0.095576 0.025543
O O4 0.721492 0.918344 0.669096
O O5 0.408048 0.616029 0.143194
O O6 0.221917 0.542492 0.608318
O O7 0.000000 0.500000 0.000000
O O8 0.266829 0.683427 0.854050
O O9 0.422602 0.266358 0.399944
O O10 0.408559 0.393734 0.392994
O O11 0.107506 0.381538 0.178344
O O12 0.500000 0.500000 0.000000
O O13 0.112342 0.283590 0.889957
O O14 0.823005 0.227087 0.444481
O O15 0.723453 0.187551 0.915717
#
# Coordination Sequence:
#
# PCOD9078209 Si02
#       7
#     2   2   2   2   2   2   2
#     4  10  18  35  59  91 126 152 193 244 321 360
#     4  12  27  43  61  84 126 172 203 244 305 363
#     4  10  20  34  58  92 125 155 188 256 309 355
#     4  10  23  36  61  91 117 151 201 259 294 352
#     4  12  24  40  65  91 124 152 214 255 295 352
#     4  10  23  40  58  81 122 160 199 234 310 358
#     4  10  20  36  61  82 119 151 199 235 302 357
#
# _framework density 25.180372999999999
#
# number of rings (size 3 to 8) (size 9 to 14) (size 15 to 20)
#    0.857    0.571    1.429    4.714    4.000    0.571 
#    0.000    0.000    0.000    5.143    0.000    0.000 
#    0.000    0.000    0.000    0.000    0.000    0.000 
#
# Total GULP energy -78360.843353 kJ/mol
# GULP energy per Si atom -5597.203097 kJ/mol
# Density = 2.512306 g / cm^3
# Si number density = 25.180373 Si / 1000 Ang^3
#
#
#
# Elastic Constant Matrix: (Units=GPa)
#
#
# Indices 1 2 3 4 5 6 
#
# 1 106.3443 36.0892 45.3463 -10.4188 3.1778 -40.6384
# 2 36.0892 70.0048 11.8730 -9.5795 9.0347 -38.7715
# 3 45.3463 11.8730 182.9327 -17.6905 3.2226 -29.8147
# 4 -10.4188 -9.5795 -17.6905 26.9644 -12.2068 5.9525
# 5 3.1778 9.0347 3.2226 -12.2068 41.4121 -3.4394
# 6 -40.6384 -38.7715 -29.8147 5.9525 -3.4394 56.8700
#
#
#
# Elastic Compliance Matrix: (Units=1/GPa)
#
#
# Indices 1 2 3 4 5 6 
#
# 1 0.014029 -0.002975 -0.002005 0.001940 0.000865 0.006795
# 2 -0.002975 0.024920 0.002096 0.004431 -0.002792 0.015330
# 3 -0.002005 0.002096 0.006710 0.003951 0.000600 0.003137
# 4 0.001940 0.004431 0.003951 0.047240 0.012693 0.002301
# 5 0.000865 -0.002792 0.000600 0.012693 0.028336 -0.000586
# 6 0.006795 0.015330 0.003137 0.002301 -0.000586 0.034259
#
#
# Mechanical properties :
#
#
# Convention : Reuss Voigt Hill
#
# Bulk Modulus (GPa) = 25.06800 60.65541 42.86170
# Shear Modulus (GPa) = 28.64384 42.78086 35.71235
#
# Velocity S-wave (km/s) = 3.37641 4.12634 3.77007
# Velocity P-wave (km/s) = 5.01769 6.84418 6.00084
#
# Compressibility (1/GPa) = 0.03989150
#
# Stress axis : x y z
#
# Youngs Moduli (GPa) = 71.28320 40.12887 149.02645
#
# Poissons Ratio (x) = 0.11939 0.29874
# Poissons Ratio (y) = 0.21207 -0.31239
# Poissons Ratio (z) = 0.14290 -0.08412
#
# Static dielectric constant tensor:
#      x y z
#    x 2.013290 0.036140 -0.015610 
#    y 0.036140 2.066760 0.041140 
#    z -0.015610 0.041140 1.982780 
# 
# From -- ./inp_files/47501.got.cif
#   From: 2010.05.17/outbox.cif.g08.bks.cpg/sg2_24_cif.got.tgz:47501.got - 2010.06.03 11:33:40.
