data_PCOD9078342
_publ_section_title
;
Structure prediction by ZEFSAII (Michael W. Deem and Ramdas Pophale) SiO2 
 PCOD9078342
Probable space group: P -1
;
_chemical_formula_sum "Si O2"
_cell_formula_units_Z 16
_cell_length_a 14.592968
_cell_length_b 7.947946
_cell_length_c 19.070585
_cell_angle_alpha 84.942105
_cell_angle_beta 29.194030
_cell_angle_gamma 66.359406
_cell_volume 800.783253
_symmetry_space_group_name_H-M "P -1"
_symmetry_group_IT_number 2
_symmetry_cell_setting 'triclinic'
loop_
_space_group_symop_operation_xyz
x,y,z
-x,-y,-z
loop_
_atom_site_type_symbol
_atom_site_label
_atom_site_fract_x
_atom_site_fract_y
_atom_site_fract_z
Si Si1 0.493335 0.434306 0.223315
Si Si2 0.459892 0.728056 0.025386
Si Si3 0.032634 0.403729 0.092806
Si Si4 0.063594 0.075539 0.623623
Si Si5 0.965639 0.722918 0.509476
Si Si6 0.459002 0.925095 0.874380
Si Si7 0.856605 0.415906 0.875200
Si Si8 0.619644 0.599760 0.249564
O O1 0.514739 0.222816 0.202156
O O2 0.583065 0.447218 0.237563
O O3 0.202590 0.659252 0.394342
O O4 0.669294 0.416108 0.047925
O O5 0.164610 0.921970 0.232924
O O6 0.500000 0.500000 0.000000
O O7 0.501447 0.797157 0.922165
O O8 0.669880 0.647590 0.945387
O O9 0.976606 0.578461 0.182244
O O10 0.793554 0.485796 0.205970
O O11 0.230964 0.366314 0.905697
O O12 0.185950 0.167890 0.039454
O O13 0.026793 0.223793 0.577551
O O14 0.010874 0.207174 0.726209
O O15 0.342736 0.835006 0.442758
O O16 0.685050 0.924763 0.717553
O O17 0.000000 0.500000 0.500000
#
# Coordination Sequence:
#
# PCOD9078342 Si02
#       8
#     2   2   2   2   2   2   2   2
#     4  10  19  36  61  84 118 155 186 229 294 350
#     4  10  18  35  61  89 118 151 183 227 300 363
#     4  10  23  40  57  84 117 152 203 242 272 333
#     4  11  19  36  61  86 114 156 186 233 290 349
#     4  10  19  32  59  93 119 140 190 241 284 344
#     4  11  20  37  61  90 119 149 185 244 289 334
#     4  10  19  36  61  84 118 156 183 229 299 350
#     4  10  23  40  58  83 114 158 204 233 274 343
#
# _framework density 19.980439000000001
#
# number of rings (size 3 to 8) (size 9 to 14) (size 15 to 20)
#    0.000    1.750    5.000    2.250    0.000    3.000 
#    0.000    3.125    0.000    0.000    0.000    0.000 
#    0.000    0.000    0.000    0.000    0.000    0.000 
#
# Total GULP energy -89290.768923 kJ/mol
# GULP energy per Si atom -5580.673058 kJ/mol
# Density = 1.993496 g / cm^3
# Si number density = 19.980439 Si / 1000 Ang^3
#
#
#
# Elastic Constant Matrix: (Units=GPa)
#
#
# Indices 1 2 3 4 5 6 
#
# 1 123.7606 8.8876 23.9677 -4.7128 -0.6819 4.0075
# 2 8.8876 22.2000 1.0311 -3.5907 2.8154 -3.9492
# 3 23.9677 1.0311 76.4847 -1.4659 2.3941 5.0659
# 4 -4.7128 -3.5907 -1.4659 23.8601 -1.7855 2.3656
# 5 -0.6819 2.8154 2.3941 -1.7855 24.4733 -0.8802
# 6 4.0075 -3.9492 5.0659 2.3656 -0.8802 17.5854
#
#
#
# Elastic Compliance Matrix: (Units=1/GPa)
#
#
# Indices 1 2 3 4 5 6 
#
# 1 0.008989 -0.003787 -0.002619 0.001342 0.000958 -0.002277
# 2 -0.003787 0.050040 0.000036 0.005302 -0.005079 0.011123
# 3 -0.002619 0.000036 0.014196 0.000605 -0.001553 -0.003644
# 4 0.001342 0.005302 0.000605 0.043689 0.002374 -0.005048
# 5 0.000958 -0.005079 -0.001553 0.002374 0.041828 0.000863
# 6 -0.002277 0.011123 -0.003644 -0.005048 0.000863 0.061654
#
#
# Mechanical properties :
#
#
# Convention : Reuss Voigt Hill
#
# Bulk Modulus (GPa) = 16.53299 32.24643 24.38971
# Shear Modulus (GPa) = 19.73955 25.75437 22.74696
#
# Velocity S-wave (km/s) = 3.14657 3.59413 3.37777
# Velocity P-wave (km/s) = 4.63613 5.77908 5.23887
#
# Compressibility (1/GPa) = 0.06048513
#
# Stress axis : x y z
#
# Youngs Moduli (GPa) = 111.24150 19.98419 70.44029
#
# Poissons Ratio (x) = 0.07567 0.18451
# Poissons Ratio (y) = 0.42124 -0.00253
# Poissons Ratio (z) = 0.29139 -0.00072
#
# Static dielectric constant tensor:
#      x y z
#    x 1.731080 0.032810 0.001570 
#    y 0.032810 1.719620 0.010470 
#    z 0.001570 0.010470 1.746920 
# 
# From -- ./inp_files/214520.got.cif
#   From: 2010.05.17/outbox.cif.g08.bks.cpg/sg2_108_cif.got.tgz:214520.got - 2010.06.03 11:33:40.
