data_PCOD9078945
_publ_section_title
;
Structure prediction by ZEFSAII (Michael W. Deem and Ramdas Pophale) SiO2 
 PCOD9078945
Probable space group: P -1
;
_chemical_formula_sum "Si O2"
_cell_formula_units_Z 16
_cell_length_a 9.877500
_cell_length_b 14.239208
_cell_length_c 9.512772
_cell_angle_alpha 126.538374
_cell_angle_beta 74.925647
_cell_angle_gamma 134.056122
_cell_volume 744.595507
_symmetry_space_group_name_H-M "P -1"
_symmetry_group_IT_number 2
_symmetry_cell_setting 'triclinic'
loop_
_space_group_symop_operation_xyz
x,y,z
-x,-y,-z
loop_
_atom_site_type_symbol
_atom_site_label
_atom_site_fract_x
_atom_site_fract_y
_atom_site_fract_z
Si Si1 0.165663 0.248662 0.068494
Si Si2 0.796291 0.889400 0.811394
Si Si3 0.645024 0.975017 0.164678
Si Si4 0.459782 0.302593 0.860611
Si Si5 0.909174 0.559266 0.882204
Si Si6 0.377244 0.168082 0.479420
Si Si7 0.246164 0.841373 0.237104
Si Si8 0.773026 0.262505 0.535773
O O1 0.187231 0.217082 0.193761
O O2 0.089662 0.332676 0.130644
O O3 0.371715 0.351747 0.025753
O O4 0.012586 0.065695 0.881351
O O5 0.668647 0.801514 0.629462
O O6 0.704941 0.938090 0.978580
O O7 0.612198 0.859189 0.190943
O O8 0.435198 0.915980 0.160513
O O9 0.793966 0.162695 0.341072
O O10 0.693107 0.433045 0.898264
O O11 0.365529 0.249207 0.684335
O O12 0.937008 0.453681 0.697378
O O13 0.064441 0.674147 0.063815
O O14 0.591514 0.233297 0.498443
O O15 0.232140 0.973141 0.357888
O O16 0.277436 0.819374 0.369473
#
# Coordination Sequence:
#
# PCOD9078945 Si02
#       8
#     2   2   2   2   2   2   2   2
#     4  10  22  41  57  85 115 157 198 241 277 340
#     4  10  22  39  62  82 118 153 202 237 278 345
#     4  10  19  37  61  89 112 157 187 236 291 340
#     4  10  20  37  65  84 116 149 198 243 286 329
#     4  11  21  35  59  93 119 150 186 242 297 339
#     4  10  18  36  60  91 108 151 194 241 287 334
#     4  11  18  34  60  91 122 141 190 240 292 347
#     4  10  20  34  59  89 123 144 186 245 288 345
#
# _framework density 21.488178000000001
#
# number of rings (size 3 to 8) (size 9 to 14) (size 15 to 20)
#    0.000    1.750    5.000    1.500    0.000    2.500 
#    0.000    3.125    2.750    0.000    0.000    0.000 
#    0.000    0.000    0.000    0.000    0.000    0.000 
#
# Total GULP energy -89315.610819 kJ/mol
# GULP energy per Si atom -5582.225676 kJ/mol
# Density = 2.143927 g / cm^3
# Si number density = 21.488178 Si / 1000 Ang^3
#
#
#
# Elastic Constant Matrix: (Units=GPa)
#
#
# Indices 1 2 3 4 5 6 
#
# 1 50.3568 22.8214 19.0326 -6.4878 14.7558 -7.4057
# 2 22.8214 48.7610 29.9672 -0.5504 -1.9373 3.5177
# 3 19.0326 29.9672 93.5428 11.5964 26.3792 5.0039
# 4 -6.4878 -0.5504 11.5964 25.2525 -8.4809 1.6459
# 5 14.7558 -1.9373 26.3792 -8.4809 35.9244 -0.6585
# 6 -7.4057 3.5177 5.0039 1.6459 -0.6585 32.3548
#
#
#
# Elastic Compliance Matrix: (Units=1/GPa)
#
#
# Indices 1 2 3 4 5 6 
#
# 1 0.033669 -0.019476 0.003872 -0.000031 -0.017568 0.008869
# 2 -0.019476 0.043043 -0.019042 0.014355 0.027576 -0.006362
# 3 0.003872 -0.019042 0.026017 -0.020233 -0.026509 -0.000577
# 4 -0.000031 0.014355 -0.020233 0.059194 0.029603 -0.000847
# 5 -0.017568 0.027576 -0.026509 0.029603 0.062936 -0.003144
# 6 0.008869 -0.006362 -0.000577 -0.000847 -0.003144 0.033697
#
#
# Mechanical properties :
#
#
# Convention : Reuss Voigt Hill
#
# Bulk Modulus (GPa) = 29.90595 37.36702 33.63648
# Shear Modulus (GPa) = 14.74952 26.76231 20.75591
#
# Velocity S-wave (km/s) = 2.62277 3.53291 3.11130
# Velocity P-wave (km/s) = 4.80827 5.83689 5.34737
#
# Compressibility (1/GPa) = 0.03343816
#
# Stress axis : x y z
#
# Youngs Moduli (GPa) = 29.70052 23.23269 38.43572
#
# Poissons Ratio (x) = 0.45249 -0.14884
# Poissons Ratio (y) = 0.57845 0.73189
# Poissons Ratio (z) = -0.11501 0.44240
#
# Static dielectric constant tensor:
#      x y z
#    x 1.815390 0.001270 -0.030260 
#    y 0.001270 1.821080 0.017810 
#    z -0.030260 0.017810 1.779850 
# 
# From -- ./inp_files/205764.got.cif
#   From: 2010.05.17/outbox.cif.g08.bks.cpg/sg2_103_cif.got.tgz:205764.got - 2010.06.03 11:33:40.
