data_PCOD9078734
_publ_section_title
;
Structure prediction by ZEFSAII (Michael W. Deem and Ramdas Pophale) SiO2 
 PCOD9078734
Probable space group: P -1
;
_chemical_formula_sum "Si O2"
_cell_formula_units_Z 16
_cell_length_a 12.739585
_cell_length_b 18.935213
_cell_length_c 8.597173
_cell_angle_alpha 47.479822
_cell_angle_beta 40.246172
_cell_angle_gamma 38.994881
_cell_volume 825.515879
_symmetry_space_group_name_H-M "P -1"
_symmetry_group_IT_number 2
_symmetry_cell_setting 'triclinic'
loop_
_space_group_symop_operation_xyz
x,y,z
-x,-y,-z
loop_
_atom_site_type_symbol
_atom_site_label
_atom_site_fract_x
_atom_site_fract_y
_atom_site_fract_z
Si Si1 0.681151 0.732444 0.827480
Si Si2 0.264337 0.893576 0.957626
Si Si3 0.632051 0.091597 0.499048
Si Si4 0.265658 0.119850 0.683646
Si Si5 0.001890 0.086283 0.493072
Si Si6 0.997768 0.736263 0.961644
Si Si7 0.978020 0.483050 0.731059
Si Si8 0.665679 0.725156 0.221596
O O1 0.738702 0.817767 0.564066
O O2 0.843287 0.604135 0.784518
O O3 0.475508 0.778227 0.911957
O O4 0.643074 0.737141 0.046104
O O5 0.122163 0.892544 0.243662
O O6 0.234010 0.901474 0.794798
O O7 0.273563 0.003870 0.825503
O O8 0.458256 0.092977 0.601065
O O9 0.527945 0.200712 0.568889
O O10 0.774284 0.979378 0.605593
O O11 0.076460 0.208810 0.866391
O O12 0.918972 0.204127 0.319225
O O13 0.000000 0.000000 0.500000
O O14 0.796627 0.774265 0.045740
O O15 0.104326 0.599455 0.044127
O O16 0.000000 0.500000 0.500000
O O17 0.190795 0.405713 0.686365
#
# Coordination Sequence:
#
# PCOD9078734 Si02
#       8
#     2   2   2   2   2   2   2   2
#     4  11  19  35  59  87 113 144 188 243 278 331
#     4  11  23  36  56  87 117 154 187 226 288 345
#     4  10  21  38  55  82 117 151 185 237 285 334
#     4  10  20  36  58  87 115 142 191 237 288 332
#     4  12  23  37  55  81 122 154 188 228 280 347
#     4   9  21  35  54  83 113 147 187 225 290 324
#     4  10  18  36  57  85 113 145 185 240 285 332
#     4   9  21  33  57  86 111 141 193 234 285 324
#
# _framework density 19.381819
#
# number of rings (size 3 to 8) (size 9 to 14) (size 15 to 20)
#    0.750    1.000    2.500    3.750    3.500    1.000 
#    0.000    0.625    0.000    0.000    0.000    7.000 
#    0.000    0.000    0.000    0.000    0.000    0.000 
#
# Total GULP energy -89128.311961 kJ/mol
# GULP energy per Si atom -5570.519498 kJ/mol
# Density = 1.933771 g / cm^3
# Si number density = 19.381819 Si / 1000 Ang^3
#
#
#
# Elastic Constant Matrix: (Units=GPa)
#
#
# Indices 1 2 3 4 5 6 
#
# 1 35.9498 4.0919 17.1670 -5.4062 22.0198 -4.9729
# 2 4.0919 96.9949 43.3389 -7.0436 1.2582 -0.6853
# 3 17.1670 43.3389 105.2961 -6.3311 21.5510 2.7786
# 4 -5.4062 -7.0436 -6.3311 34.9217 -0.2165 8.2386
# 5 22.0198 1.2582 21.5510 -0.2165 28.1359 0.7553
# 6 -4.9729 -0.6853 2.7786 8.2386 0.7553 26.4134
#
#
#
# Elastic Compliance Matrix: (Units=1/GPa)
#
#
# Indices 1 2 3 4 5 6 
#
# 1 0.058475 -0.001694 0.000781 0.006134 -0.046516 0.010300
# 2 -0.001694 0.013172 -0.006195 0.001277 0.005489 0.000119
# 3 0.000781 -0.006195 0.014387 0.001828 -0.011293 -0.001775
# 4 0.006134 0.001277 0.001828 0.032237 -0.005771 -0.008894
# 5 -0.046516 0.005489 -0.011293 -0.005771 0.080519 -0.007930
# 6 0.010300 0.000119 -0.001775 -0.008894 -0.007930 0.042989
#
#
# Mechanical properties :
#
#
# Convention : Reuss Voigt Hill
#
# Bulk Modulus (GPa) = 13.92399 40.82625 27.37512
# Shear Modulus (GPa) = 17.86133 29.47042 23.66588
#
# Velocity S-wave (km/s) = 3.03900 3.90361 3.49812
# Velocity P-wave (km/s) = 4.41743 6.43642 5.52002
#
# Compressibility (1/GPa) = 0.07181851
#
# Stress axis : x y z
#
# Youngs Moduli (GPa) = 17.10130 75.92082 69.50503
#
# Poissons Ratio (x) = 0.12864 -0.05430
# Poissons Ratio (y) = 0.02898 0.43057
# Poissons Ratio (z) = -0.01336 0.47031
#
# Static dielectric constant tensor:
#      x y z
#    x 1.706090 -0.000490 -0.007800 
#    y -0.000490 1.666830 0.014730 
#    z -0.007800 0.014730 1.719840 
# 
# From -- ./inp_files/318261.got.cif
#   From: 2010.05.17/outbox.cif.g08.bks.cpg/sg2_160_cif.got.tgz:318261.got - 2010.06.03 11:33:40.
