data_PCOD9078842
_publ_section_title
;
Structure prediction by ZEFSAII (Michael W. Deem and Ramdas Pophale) SiO2 
 PCOD9078842
Probable space group: P -1
;
_chemical_formula_sum "Si O2"
_cell_formula_units_Z 16
_cell_length_a 11.144176
_cell_length_b 22.922397
_cell_length_c 19.703881
_cell_angle_alpha 19.867865
_cell_angle_beta 143.227755
_cell_angle_gamma 150.356682
_cell_volume 842.042594
_symmetry_space_group_name_H-M "P -1"
_symmetry_group_IT_number 2
_symmetry_cell_setting 'triclinic'
loop_
_space_group_symop_operation_xyz
x,y,z
-x,-y,-z
loop_
_atom_site_type_symbol
_atom_site_label
_atom_site_fract_x
_atom_site_fract_y
_atom_site_fract_z
Si Si1 0.738060 0.055781 0.134281
Si Si2 0.819245 0.845321 0.282049
Si Si3 0.248616 0.713292 0.464438
Si Si4 0.771819 0.866049 0.495117
Si Si5 0.848084 0.951642 0.914920
Si Si6 0.458456 0.521932 0.266495
Si Si7 0.284606 0.574887 0.271306
Si Si8 0.239925 0.673874 0.345563
O O1 0.850825 0.977635 0.217760
O O2 0.772156 0.004387 0.282730
O O3 0.443173 0.897035 0.162304
O O4 0.827318 0.293318 0.911423
O O5 0.535727 0.701990 0.288687
O O6 0.869326 0.668022 0.513022
O O7 0.979472 0.993692 0.130783
O O8 0.516536 0.763399 0.532233
O O9 0.199151 0.716677 0.357342
O O10 0.020240 0.484112 0.633651
O O11 0.238289 0.893571 0.296019
O O12 0.750904 0.675244 0.654877
O O13 0.000000 0.000000 0.500000
O O14 0.623628 0.714125 0.081291
O O15 0.000000 0.000000 0.000000
O O16 0.363583 0.585663 0.216908
O O17 0.626589 0.448156 0.453877
#
# Coordination Sequence:
#
# PCOD9078842 Si02
#       8
#     2   2   2   2   2   2   2   2
#     4  10  21  38  58  87 125 164 205 238 309 363
#     4  11  23  34  54  90 138 158 191 239 305 383
#     4   9  18  31  51  83 118 149 188 239 311 347
#     4  10  22  40  64  87 117 157 215 270 290 339
#     4  12  21  33  54  91 127 158 190 243 302 379
#     4  10  18  36  59  86 123 153 195 251 306 353
#     4  11  20  36  56  87 124 166 195 237 302 383
#     4   9  16  30  54  82 117 151 183 245 300 366
#
# _framework density 19.001415999999999
#
# number of rings (size 3 to 8) (size 9 to 14) (size 15 to 20)
#    0.000    2.000    5.000    1.875    1.750    0.000 
#    4.500    2.500    0.000    1.500    0.000    0.000 
#    0.000    0.000    0.000    0.000    0.000    0.000 
#
# Total GULP energy -89330.465304 kJ/mol
# GULP energy per Si atom -5583.154081 kJ/mol
# Density = 1.895817 g / cm^3
# Si number density = 19.001416 Si / 1000 Ang^3
#
#
#
# Elastic Constant Matrix: (Units=GPa)
#
#
# Indices 1 2 3 4 5 6 
#
# 1 85.9335 25.7283 35.7317 -1.7680 0.3402 -11.6703
# 2 25.7283 97.3090 25.4909 -13.6150 3.3870 -6.6800
# 3 35.7317 25.4909 109.0388 -13.3323 2.8376 -8.5089
# 4 -1.7680 -13.6150 -13.3323 10.3603 -4.0052 1.2735
# 5 0.3402 3.3870 2.8376 -4.0052 38.0257 -5.4358
# 6 -11.6703 -6.6800 -8.5089 1.2735 -5.4358 13.4727
#
#
#
# Elastic Compliance Matrix: (Units=1/GPa)
#
#
# Indices 1 2 3 4 5 6 
#
# 1 0.015846 -0.003528 -0.004668 -0.008791 0.001066 0.010290
# 2 -0.003528 0.013796 0.000317 0.018014 0.001064 0.002711
# 3 -0.004668 0.000317 0.012824 0.016203 0.001217 0.003172
# 4 -0.008791 0.018014 0.016203 0.144148 0.012895 0.003127
# 5 0.001066 0.001064 0.001217 0.012895 0.029294 0.012819
# 6 0.010290 0.002711 0.003172 0.003127 0.012819 0.091362
#
#
# Mechanical properties :
#
#
# Convention : Reuss Voigt Hill
#
# Bulk Modulus (GPa) = 37.44008 51.79811 44.61909
# Shear Modulus (GPa) = 15.06349 26.06043 20.56196
#
# Velocity S-wave (km/s) = 2.81865 3.70739 3.29314
# Velocity P-wave (km/s) = 5.50814 6.75616 6.16382
#
# Compressibility (1/GPa) = 0.02670935
#
# Stress axis : x y z
#
# Youngs Moduli (GPa) = 63.10589 72.48665 77.98165
#
# Poissons Ratio (x) = 0.25571 0.36400
# Poissons Ratio (y) = 0.22262 -0.02475
# Poissons Ratio (z) = 0.29456 -0.02301
#
# Static dielectric constant tensor:
#      x y z
#    x 1.703340 0.001820 0.000760 
#    y 0.001820 1.629010 0.003930 
#    z 0.000760 0.003930 1.732860 
# 
# From -- ./inp_files/596368.got.cif
#   From: 2010.05.17/outbox.cif.g08.bks.cpg/sg2_299_cif.got.tgz:596368.got - 2010.06.03 11:33:40.
