data_PCOD9078916
_publ_section_title
;
Structure prediction by ZEFSAII (Michael W. Deem and Ramdas Pophale) SiO2 
 PCOD9078916
Probable space group: P -1
;
_chemical_formula_sum "Si O2"
_cell_formula_units_Z 14
_cell_length_a 8.712533
_cell_length_b 11.804707
_cell_length_c 11.387759
_cell_angle_alpha 86.932741
_cell_angle_beta 123.564032
_cell_angle_gamma 131.071773
_cell_volume 640.102100
_symmetry_space_group_name_H-M "P -1"
_symmetry_group_IT_number 2
_symmetry_cell_setting 'triclinic'
loop_
_space_group_symop_operation_xyz
x,y,z
-x,-y,-z
loop_
_atom_site_type_symbol
_atom_site_label
_atom_site_fract_x
_atom_site_fract_y
_atom_site_fract_z
Si Si1 0.055802 0.026310 0.824317
Si Si2 0.821331 0.665496 0.083048
Si Si3 0.929692 0.457870 0.765869
Si Si4 0.581927 0.228049 0.182279
Si Si5 0.428572 0.639350 0.604801
Si Si6 0.762179 0.097976 0.190918
Si Si7 0.254848 0.415361 0.214602
O O1 0.075635 0.170405 0.824010
O O2 0.184717 0.011352 0.772194
O O3 0.256825 0.083607 0.016213
O O4 0.737337 0.838487 0.711647
O O5 0.025229 0.654283 0.194519
O O6 0.500000 0.500000 0.000000
O O7 0.810975 0.663977 0.937111
O O8 0.756316 0.408138 0.578974
O O9 0.777977 0.463826 0.801185
O O10 0.244745 0.650272 0.865313
O O11 0.665779 0.353447 0.312034
O O12 0.687968 0.150154 0.260765
O O13 0.461703 0.518235 0.632265
O O14 0.030618 0.268839 0.224015
O O15 0.500000 0.000000 0.000000
#
# Coordination Sequence:
#
# PCOD9078916 Si02
#       7
#     2   2   2   2   2   2   2
#     4  10  20  36  58  83 114 149 196 234 288 333
#     4  12  23  39  59  83 118 159 197 231 281 357
#     4  11  23  38  56  90 121 153 185 238 294 345
#     4  10  18  36  60  88 113 149 198 235 282 342
#     4  11  21  36  63  88 116 146 194 249 289 328
#     4   8  18  31  58  90 109 136 193 251 275 319
#     4  10  21  38  60  86 114 154 195 237 283 345
#
# _framework density 21.871511000000002
#
# number of rings (size 3 to 8) (size 9 to 14) (size 15 to 20)
#    0.000    1.714    2.857    1.714    4.000    0.571 
#    0.000    0.000    0.000    1.714    0.000    0.000 
#    0.000    0.000    0.000    0.000    0.000    0.000 
#
# Total GULP energy -78040.842815 kJ/mol
# GULP energy per Si atom -5574.345915 kJ/mol
# Density = 2.182173 g / cm^3
# Si number density = 21.871511 Si / 1000 Ang^3
#
#
#
# Elastic Constant Matrix: (Units=GPa)
#
#
# Indices 1 2 3 4 5 6 
#
# 1 150.1492 43.5871 16.9145 -6.9564 20.8490 -52.8808
# 2 43.5871 60.5981 10.3669 1.8614 16.1558 -32.5120
# 3 16.9145 10.3669 66.3661 -5.8687 22.8297 -1.3475
# 4 -6.9564 1.8614 -5.8687 25.1115 -7.5239 15.0466
# 5 20.8490 16.1558 22.8297 -7.5239 23.8199 -10.6812
# 6 -52.8808 -32.5120 -1.3475 15.0466 -10.6812 48.8155
#
#
#
# Elastic Compliance Matrix: (Units=1/GPa)
#
#
# Indices 1 2 3 4 5 6 
#
# 1 0.012328 0.001641 -0.001848 -0.008249 -0.005702 0.015692
# 2 0.001641 0.039248 -0.000878 -0.028284 -0.021878 0.031825
# 3 -0.001848 -0.000878 0.023740 0.002888 -0.023166 -0.007891
# 4 -0.008249 -0.028284 0.002888 0.075435 0.027296 -0.044973
# 5 -0.005702 -0.021878 -0.023166 0.027296 0.087898 -0.010568
# 6 0.015692 0.031825 -0.007891 -0.044973 -0.010568 0.070012
#
#
# Mechanical properties :
#
#
# Convention : Reuss Voigt Hill
#
# Bulk Modulus (GPa) = 13.67115 46.53895 30.10505
# Shear Modulus (GPa) = 14.91591 33.29902 24.10747
#
# Velocity S-wave (km/s) = 2.61431 3.90613 3.32359
# Velocity P-wave (km/s) = 3.92136 6.45511 5.34067
#
# Compressibility (1/GPa) = 0.07314674
#
# Stress axis : x y z
#
# Youngs Moduli (GPa) = 81.11864 25.47894 42.12219
#
# Poissons Ratio (x) = -0.04182 0.07784
# Poissons Ratio (y) = -0.13314 0.03699
# Poissons Ratio (z) = 0.14989 0.02238
#
# Static dielectric constant tensor:
#      x y z
#    x 1.943760 -0.076580 -0.001440 
#    y -0.076580 1.870940 -0.013490 
#    z -0.001440 -0.013490 1.782880 
# 
# From -- ./inp_files/181901.got.cif
#   From: 2010.05.17/outbox.cif.g08.bks.cpg/sg2_91_cif.got.tgz:181901.got - 2010.06.03 11:33:40.
