data_PCOD9078192
_publ_section_title
;
Structure prediction by ZEFSAII (Michael W. Deem and Ramdas Pophale) SiO2 
 PCOD9078192
Probable space group: P -1
;
_chemical_formula_sum "Si O2"
_cell_formula_units_Z 16
_cell_length_a 19.864031
_cell_length_b 11.993154
_cell_length_c 16.412366
_cell_angle_alpha 43.903646
_cell_angle_beta 159.952201
_cell_angle_gamma 144.605852
_cell_volume 755.865338
_symmetry_space_group_name_H-M "P -1"
_symmetry_group_IT_number 2
_symmetry_cell_setting 'triclinic'
loop_
_space_group_symop_operation_xyz
x,y,z
-x,-y,-z
loop_
_atom_site_type_symbol
_atom_site_label
_atom_site_fract_x
_atom_site_fract_y
_atom_site_fract_z
Si Si1 0.562433 0.795877 0.919000
Si Si2 0.836055 0.692366 0.070224
Si Si3 0.335075 0.553305 0.518241
Si Si4 0.993414 0.959281 0.807692
Si Si5 0.987694 0.675701 0.082220
Si Si6 0.204925 0.658554 0.712431
Si Si7 0.545982 0.613216 0.407744
Si Si8 0.800346 0.604723 0.378376
O O1 0.419085 0.821624 0.812680
O O2 0.369526 0.623170 0.728178
O O3 0.689553 0.708611 0.156383
O O4 0.774645 0.980726 0.013465
O O5 0.012599 0.738763 0.171610
O O6 0.725570 0.472016 0.092113
O O7 0.957873 0.842727 0.203765
O O8 0.618023 0.699714 0.786348
O O9 0.339433 0.452917 0.493603
O O10 0.213143 0.405738 0.534351
O O11 0.194915 0.654114 0.300347
O O12 0.750041 0.839325 0.541768
O O13 0.975523 0.826336 0.932238
O O14 0.721018 0.466222 0.884311
O O15 0.000000 0.500000 0.500000
O O16 0.068449 0.706437 0.595238
O O17 0.500000 0.500000 0.500000
#
# Coordination Sequence:
#
# PCOD9078192 Si02
#       8
#     2   2   2   2   2   2   2   2
#     4  10  19  35  56  89 125 150 191 243 298 349
#     4  11  20  37  61  93 120 144 199 255 297 343
#     4  11  20  39  64  87 115 160 200 241 291 356
#     4  11  21  39  60  88 123 156 192 249 303 342
#     4  10  23  40  62  86 117 160 201 240 296 357
#     4  10  19  32  58  89 120 156 191 238 296 358
#     4   9  23  43  60  82 117 167 203 236 290 356
#     4  10  18  35  59  88 118 156 195 235 296 356
#
# _framework density 21.167791000000001
#
# number of rings (size 3 to 8) (size 9 to 14) (size 15 to 20)
#    0.000    1.750    3.750    1.875    0.000    2.500 
#    0.000   15.625    0.000    1.500    0.000    0.000 
#    0.000    0.000    0.000    0.000    0.000    0.000 
#
# Total GULP energy -89323.348277 kJ/mol
# GULP energy per Si atom -5582.709267 kJ/mol
# Density = 2.111961 g / cm^3
# Si number density = 21.167791 Si / 1000 Ang^3
#
#
#
# Elastic Constant Matrix: (Units=GPa)
#
#
# Indices 1 2 3 4 5 6 
#
# 1 156.3712 25.8884 21.8501 6.1106 18.1394 -0.9324
# 2 25.8884 20.5578 16.5300 5.1915 8.3612 -2.1171
# 3 21.8501 16.5300 67.9714 -6.2181 23.2631 -14.1271
# 4 6.1106 5.1915 -6.2181 31.4219 4.7527 3.4373
# 5 18.1394 8.3612 23.2631 4.7527 26.9776 -4.2714
# 6 -0.9324 -2.1171 -14.1271 3.4373 -4.2714 29.3716
#
#
#
# Elastic Compliance Matrix: (Units=1/GPa)
#
#
# Indices 1 2 3 4 5 6 
#
# 1 0.008299 -0.010036 0.000918 0.000825 -0.003506 -0.000625
# 2 -0.010036 0.078935 -0.017445 -0.014334 -0.000369 -0.001396
# 3 0.000918 -0.017445 0.028174 0.010415 -0.020044 0.008189
# 4 0.000825 -0.014334 0.010415 0.038180 -0.012173 -0.002236
# 5 -0.003506 -0.000369 -0.020044 -0.012173 0.059004 0.000227
# 6 -0.000625 -0.001396 0.008189 -0.002236 0.000227 0.038160
#
#
# Mechanical properties :
#
#
# Convention : Reuss Voigt Hill
#
# Bulk Modulus (GPa) = 16.05594 41.49303 28.77449
# Shear Modulus (GPa) = 15.40182 29.59634 22.49908
#
# Velocity S-wave (km/s) = 2.70034 3.74328 3.26374
# Velocity P-wave (km/s) = 4.16221 6.19091 5.27501
#
# Compressibility (1/GPa) = 0.06228223
#
# Stress axis : x y z
#
# Youngs Moduli (GPa) = 120.49688 12.66868 35.49368
#
# Poissons Ratio (x) = 0.12714 -0.03259
# Poissons Ratio (y) = 1.20930 0.61919
# Poissons Ratio (z) = -0.11065 0.22101
#
# Static dielectric constant tensor:
#      x y z
#    x 1.788290 0.001360 0.009630 
#    y 0.001360 1.773710 0.006030 
#    z 0.009630 0.006030 1.795970 
# 
# From -- ./inp_files/577800.got.cif
#   From: 2010.05.17/outbox.cif.g08.bks.cpg/sg2_289_cif.got.tgz:577800.got - 2010.06.03 11:33:40.
