data_PCOD9078864
_publ_section_title
;
Structure prediction by ZEFSAII (Michael W. Deem and Ramdas Pophale) SiO2 
 PCOD9078864
Probable space group: P -1
;
_chemical_formula_sum "Si O2"
_cell_formula_units_Z 16
_cell_length_a 15.317173
_cell_length_b 8.747758
_cell_length_c 16.552833
_cell_angle_alpha 116.341215
_cell_angle_beta 154.937122
_cell_angle_gamma 50.942506
_cell_volume 672.947246
_symmetry_space_group_name_H-M "P -1"
_symmetry_group_IT_number 2
_symmetry_cell_setting 'triclinic'
loop_
_space_group_symop_operation_xyz
x,y,z
-x,-y,-z
loop_
_atom_site_type_symbol
_atom_site_label
_atom_site_fract_x
_atom_site_fract_y
_atom_site_fract_z
Si Si1 0.256564 0.587631 0.068697
Si Si2 0.090570 0.439839 0.743094
Si Si3 0.944503 0.142616 0.408564
Si Si4 0.923708 0.317513 0.716407
Si Si5 0.418543 0.884896 0.025922
Si Si6 0.367327 0.366288 0.688461
Si Si7 0.826677 0.677068 0.828070
Si Si8 0.412947 0.824977 0.633001
O O1 0.196940 0.518834 0.917928
O O2 0.990213 0.735910 0.930598
O O3 0.413314 0.679183 0.200498
O O4 0.424878 0.377515 0.217410
O O5 0.943681 0.364727 0.651639
O O6 0.323636 0.238498 0.841613
O O7 0.865040 0.630109 0.543291
O O8 0.792097 0.385879 0.361168
O O9 0.769285 0.133272 0.193403
O O10 0.000000 0.000000 0.500000
O O11 0.221999 0.032575 0.574810
O O12 0.792169 0.538995 0.704135
O O13 0.763240 0.227052 0.573538
O O14 0.227474 0.136496 0.947616
O O15 0.497150 0.763168 0.147353
O O16 0.574443 0.846955 0.706860
O O17 0.000000 0.500000 0.000000
#
# Coordination Sequence:
#
# PCOD9078864 Si02
#       8
#     2   2   2   2   2   2   2   2
#     4  10  20  37  59  87 118 151 197 243 295 342
#     4  11  21  36  58  85 119 158 198 237 293 351
#     4  11  20  36  61  89 117 156 192 242 292 346
#     4  10  20  36  61  88 115 156 197 249 288 352
#     4  11  23  36  56  91 124 158 192 239 301 352
#     4  12  22  38  59  87 128 157 190 240 300 359
#     4   9  20  34  59  90 114 148 199 257 287 335
#     4  10  18  36  59  92 112 148 202 247 293 335
#
# _framework density 23.776007
#
# number of rings (size 3 to 8) (size 9 to 14) (size 15 to 20)
#    0.000    1.500    3.750    2.250    0.000    3.000 
#    0.000    0.000    0.000    6.000    3.250    0.000 
#    0.000    0.000    0.000    0.000    0.000    0.000 
#
# Total GULP energy -89435.741774 kJ/mol
# GULP energy per Si atom -5589.733861 kJ/mol
# Density = 2.372189 g / cm^3
# Si number density = 23.776007 Si / 1000 Ang^3
#
#
#
# Elastic Constant Matrix: (Units=GPa)
#
#
# Indices 1 2 3 4 5 6 
#
# 1 149.9816 29.0021 54.3641 -19.0847 16.3651 -32.8051
# 2 29.0021 36.0117 18.8949 -9.8203 -3.1334 -15.8962
# 3 54.3641 18.8949 117.9769 -4.7999 -3.2322 -9.7667
# 4 -19.0847 -9.8203 -4.7999 29.5884 3.5653 0.5219
# 5 16.3651 -3.1334 -3.2322 3.5653 48.4340 -13.3799
# 6 -32.8051 -15.8962 -9.7667 0.5219 -13.3799 32.3215
#
#
#
# Elastic Compliance Matrix: (Units=1/GPa)
#
#
# Indices 1 2 3 4 5 6 
#
# 1 0.011368 -0.001884 -0.004064 0.006191 -0.002400 0.008290
# 2 -0.001884 0.045189 -0.003786 0.011725 0.008680 0.022572
# 3 -0.004064 -0.003786 0.010727 -0.002272 0.001426 -0.002118
# 4 0.006191 0.011725 -0.002272 0.041351 -0.001777 0.009959
# 5 -0.002400 0.008680 0.001426 -0.001777 0.025833 0.012987
# 6 0.008290 0.022572 -0.002118 0.009959 0.012987 0.055029
#
#
# Mechanical properties :
#
#
# Convention : Reuss Voigt Hill
#
# Bulk Modulus (GPa) = 20.91381 56.49916 38.70649
# Shear Modulus (GPa) = 22.23186 35.51605 28.87395
#
# Velocity S-wave (km/s) = 3.06118 3.86913 3.48863
# Velocity P-wave (km/s) = 4.61625 6.61626 5.70459
#
# Compressibility (1/GPa) = 0.04781529
#
# Stress axis : x y z
#
# Youngs Moduli (GPa) = 87.96837 22.12944 93.22645
#
# Poissons Ratio (x) = 0.04169 0.37889
# Poissons Ratio (y) = 0.16573 0.35293
# Poissons Ratio (z) = 0.35752 0.08378
#
# Static dielectric constant tensor:
#      x y z
#    x 1.942290 -0.073980 -0.012680 
#    y -0.073980 2.050260 0.089960 
#    z -0.012680 0.089960 2.025030 
# 
# From -- ./inp_files/214264.got.cif
#   From: 2010.05.17/outbox.cif.g08.bks.cpg/sg2_108_cif.got.tgz:214264.got - 2010.06.03 11:33:40.
