data_PCOD9078529
_publ_section_title
;
Structure prediction by ZEFSAII (Michael W. Deem and Ramdas Pophale) SiO2 
 PCOD9078529
Probable space group: P -1
;
_chemical_formula_sum "Si O2"
_cell_formula_units_Z 12
_cell_length_a 13.671424
_cell_length_b 13.942774
_cell_length_c 22.092537
_cell_angle_alpha 158.508300
_cell_angle_beta 19.228237
_cell_angle_gamma 147.054759
_cell_volume 480.295718
_symmetry_space_group_name_H-M "P -1"
_symmetry_group_IT_number 2
_symmetry_cell_setting 'triclinic'
loop_
_space_group_symop_operation_xyz
x,y,z
-x,-y,-z
loop_
_atom_site_type_symbol
_atom_site_label
_atom_site_fract_x
_atom_site_fract_y
_atom_site_fract_z
Si Si1 0.624757 0.176902 0.220407
Si Si2 0.608716 0.896552 0.187549
Si Si3 0.979348 0.274559 0.597795
Si Si4 0.824691 0.743735 0.662611
Si Si5 0.984572 0.832919 0.133273
Si Si6 0.493321 0.342820 0.622723
O O1 0.500000 0.500000 0.500000
O O2 0.313117 0.120822 0.343462
O O3 0.732298 0.004510 0.117856
O O4 0.876577 0.146044 0.001607
O O5 0.262512 0.893781 0.367698
O O6 0.584772 0.098322 0.376389
O O7 0.801509 0.580441 0.907649
O O8 0.059686 0.335263 0.518660
O O9 0.750726 0.477309 0.573468
O O10 0.051191 0.880121 0.643491
O O11 0.500000 0.000000 0.000000
O O12 0.681945 0.741387 0.268184
O O13 0.248848 0.590640 0.872716
#
# Coordination Sequence:
#
# PCOD9078529 Si02
#       6
#     2   2   2   2   2   2
#     4  12  23  40  63  98 126 166 212 266 317 379
#     4  11  24  41  66  95 129 168 215 261 320 377
#     4  11  23  42  66  92 131 171 211 263 317 382
#     4  10  18  35  64  90 118 170 211 250 316 376
#     4  10  20  36  62  93 126 161 215 259 316 379
#     4  10  19  36  65  89 124 171 209 258 313 386
#
# _framework density 24.984607
#
# number of rings (size 3 to 8) (size 9 to 14) (size 15 to 20)
#    0.000    1.333    6.667    0.500    0.000    2.667 
#    3.000    0.833    0.000    2.000    0.000    0.000 
#    0.000    0.000    0.000    0.000    0.000    0.000 
#
# Total GULP energy -67166.841639 kJ/mol
# GULP energy per Si atom -5597.236803 kJ/mol
# Density = 2.492774 g / cm^3
# Si number density = 24.984607 Si / 1000 Ang^3
#
#
#
# Elastic Constant Matrix: (Units=GPa)
#
#
# Indices 1 2 3 4 5 6 
#
# 1 53.4176 21.4546 44.7092 -10.3667 -38.2629 11.7939
# 2 21.4546 154.1195 48.8196 -21.4779 -7.6232 19.7595
# 3 44.7092 48.8196 70.9389 13.0756 22.5593 3.9066
# 4 -10.3667 -21.4779 13.0756 42.6834 -3.7423 12.0113
# 5 -38.2629 -7.6232 22.5593 -3.7423 31.3515 18.6701
# 6 11.7939 19.7595 3.9066 12.0113 18.6701 39.9195
#
#
#
# Elastic Compliance Matrix: (Units=1/GPa)
#
#
# Indices 1 2 3 4 5 6 
#
# 1 0.001654 -0.005912 0.008015 -0.008937 -0.012251 0.010072
# 2 -0.005912 0.007433 -0.000184 0.001992 -0.004907 -0.000219
# 3 0.008015 -0.000184 0.004922 0.004250 0.012622 -0.009940
# 4 -0.008937 0.001992 0.004250 0.019753 -0.011533 0.000689
# 5 -0.012251 -0.004907 0.012622 -0.011533 0.000499 0.008050
# 6 0.010072 -0.000219 -0.009940 0.000689 0.008050 0.019184
#
#
# Mechanical properties :
#
#
# Convention : Reuss Voigt Hill
#
# Bulk Modulus (GPa) = 56.03298 56.49363 56.26331
# Shear Modulus (GPa) = 90.00015 33.69041 61.84528
#
# Velocity S-wave (km/s) = 6.00836 3.67610 4.98067
# Velocity P-wave (km/s) = 8.40295 6.37799 7.45950
#
# Compressibility (1/GPa) = 0.01784663
#
# Stress axis : x y z
#
# Youngs Moduli (GPa) = 604.75372 134.54374 203.16179
#
# Poissons Ratio (x) = 0.79536 -1.62824
# Poissons Ratio (y) = 3.57502 0.03734
# Poissons Ratio (z) = -4.84681 0.02473
#
# Static dielectric constant tensor:
#      x y z
#    x 1.970210 0.036760 -0.074790 
#    y 0.036760 2.028290 0.024520 
#    z -0.074790 0.024520 2.129420 
# 
# From -- ./inp_files/612050.got.cif
#   From: 2010.05.17/outbox.cif.g08.bks.cpg/sg2_307_cif.got.tgz:612050.got - 2010.06.03 11:33:40.
