data_PCOD9078884
_publ_section_title
;
Structure prediction by ZEFSAII (Michael W. Deem and Ramdas Pophale) SiO2 
 PCOD9078884
Probable space group: P -1
;
_chemical_formula_sum "Si O2"
_cell_formula_units_Z 16
_cell_length_a 12.123722
_cell_length_b 10.872953
_cell_length_c 15.894717
_cell_angle_alpha 133.022788
_cell_angle_beta 142.732235
_cell_angle_gamma 73.671245
_cell_volume 747.949308
_symmetry_space_group_name_H-M "P -1"
_symmetry_group_IT_number 2
_symmetry_cell_setting 'triclinic'
loop_
_space_group_symop_operation_xyz
x,y,z
-x,-y,-z
loop_
_atom_site_type_symbol
_atom_site_label
_atom_site_fract_x
_atom_site_fract_y
_atom_site_fract_z
Si Si1 0.758715 0.189129 0.143333
Si Si2 0.840138 0.730991 0.137833
Si Si3 0.714197 0.965693 0.276092
Si Si4 0.392241 0.259075 0.166570
Si Si5 0.743977 0.464469 0.734800
Si Si6 0.120851 0.633252 0.514441
Si Si7 0.737542 0.319894 0.854494
Si Si8 0.354984 0.940830 0.546487
O O1 0.858328 0.267828 0.334400
O O2 0.911426 0.393246 0.274398
O O3 0.502395 0.115365 0.952437
O O4 0.742733 0.986996 0.009945
O O5 0.823814 0.854414 0.260305
O O6 0.097056 0.836746 0.313517
O O7 0.705895 0.735259 0.980153
O O8 0.736901 0.494397 0.986839
O O9 0.881927 0.214412 0.480589
O O10 0.619476 0.931157 0.295817
O O11 0.358785 0.406028 0.271925
O O12 0.652252 0.348919 0.356090
O O13 0.712713 0.369913 0.766322
O O14 0.638673 0.254741 0.518578
O O15 0.013227 0.622208 0.957558
O O16 0.540320 0.094313 0.662950
#
# Coordination Sequence:
#
# PCOD9078884 Si02
#       8
#     2   2   2   2   2   2   2   2
#     4  10  20  35  59  84 106 146 185 227 277 325
#     4  10  20  35  55  84 115 145 181 226 276 322
#     4  11  21  38  54  81 123 146 175 229 273 332
#     4  10  18  36  60  83 110 137 184 241 270 315
#     4   9  20  37  57  78 111 145 186 235 267 311
#     4  10  20  36  59  83 108 140 189 230 275 325
#     4   9  20  37  55  79 109 147 192 230 261 321
#     4  11  23  35  56  82 115 155 182 213 278 337
#
# _framework density 21.391824
#
# number of rings (size 3 to 8) (size 9 to 14) (size 15 to 20)
#    0.000    2.000    2.500    2.250    0.000    6.500 
#    0.000    2.500    0.000    4.500    0.000    0.000 
#    0.000    0.000    0.000    0.000    0.000    0.000 
#
# Total GULP energy -89347.463204 kJ/mol
# GULP energy per Si atom -5584.216450 kJ/mol
# Density = 2.134314 g / cm^3
# Si number density = 21.391824 Si / 1000 Ang^3
#
#
#
# Elastic Constant Matrix: (Units=GPa)
#
#
# Indices 1 2 3 4 5 6 
#
# 1 88.7213 36.7091 32.5780 27.0248 -1.4172 -23.4091
# 2 36.7091 87.0262 42.9190 23.8285 10.2448 -32.4084
# 3 32.5780 42.9190 94.2472 38.9885 16.0562 -13.3210
# 4 27.0248 23.8285 38.9885 33.0150 6.9058 -9.0832
# 5 -1.4172 10.2448 16.0562 6.9058 29.3868 8.1778
# 6 -23.4091 -32.4084 -13.3210 -9.0832 8.1778 40.8881
#
#
#
# Elastic Compliance Matrix: (Units=1/GPa)
#
#
# Indices 1 2 3 4 5 6 
#
# 1 0.017154 -0.002943 0.000371 -0.011837 0.003227 0.004334
# 2 -0.002943 0.022773 -0.004478 -0.002221 -0.009661 0.016345
# 3 0.000371 -0.004478 0.023048 -0.023059 -0.005644 0.000177
# 4 -0.011837 -0.002221 -0.023059 0.069600 -0.003589 0.000130
# 5 0.003227 -0.009661 -0.005644 -0.003589 0.046413 -0.017729
# 6 0.004334 0.016345 0.000177 0.000130 -0.017729 0.043526
#
#
# Mechanical properties :
#
#
# Convention : Reuss Voigt Hill
#
# Bulk Modulus (GPa) = 20.46159 54.93410 37.69784
# Shear Modulus (GPa) = 19.77018 31.17722 25.47370
#
# Velocity S-wave (km/s) = 3.04335 3.82178 3.45456
# Velocity P-wave (km/s) = 4.68351 6.72387 5.79420
#
# Compressibility (1/GPa) = 0.04887205
#
# Stress axis : x y z
#
# Youngs Moduli (GPa) = 58.29681 43.91131 43.38849
#
# Poissons Ratio (x) = 0.12925 -0.01608
# Poissons Ratio (y) = 0.17159 0.19431
# Poissons Ratio (z) = -0.02161 0.19666
#
# Static dielectric constant tensor:
#      x y z
#    x 1.810220 0.011270 -0.074110 
#    y 0.011270 1.764300 -0.010530 
#    z -0.074110 -0.010530 1.798580 
# 
# From -- ./inp_files/428364.got.cif
#   From: 2010.05.17/outbox.cif.g08.bks.cpg/sg2_215_cif.got.tgz:428364.got - 2010.06.03 11:33:40.
