data_PCOD9078216
_publ_section_title
;
Structure prediction by ZEFSAII (Michael W. Deem and Ramdas Pophale) SiO2 
 PCOD9078216
Probable space group: P -1
;
_chemical_formula_sum "Si O2"
_cell_formula_units_Z 16
_cell_length_a 12.547919
_cell_length_b 8.735395
_cell_length_c 18.856648
_cell_angle_alpha 44.896938
_cell_angle_beta 26.993597
_cell_angle_gamma 42.012042
_cell_volume 620.547088
_symmetry_space_group_name_H-M "P -1"
_symmetry_group_IT_number 2
_symmetry_cell_setting 'triclinic'
loop_
_space_group_symop_operation_xyz
x,y,z
-x,-y,-z
loop_
_atom_site_type_symbol
_atom_site_label
_atom_site_fract_x
_atom_site_fract_y
_atom_site_fract_z
Si Si1 0.393510 0.232473 0.938604
Si Si2 0.639898 0.106847 0.325495
Si Si3 0.796542 0.297733 0.766098
Si Si4 0.125586 0.761909 0.734860
Si Si5 0.338270 0.876598 0.320624
Si Si6 0.082693 0.681545 0.634676
Si Si7 0.413260 0.226968 0.271554
Si Si8 0.843340 0.282080 0.899957
O O1 0.577522 0.354265 0.819296
O O2 0.431482 0.191332 0.846640
O O3 0.102194 0.334221 0.092379
O O4 0.500000 0.000000 0.000000
O O5 0.896936 0.930021 0.197080
O O6 0.500000 0.000000 0.500000
O O7 0.719374 0.282377 0.270276
O O8 0.461907 0.181071 0.339867
O O9 0.835936 0.543063 0.664883
O O10 0.704279 0.287820 0.904905
O O11 0.999068 0.046301 0.714299
O O12 0.225995 0.677412 0.625121
O O13 0.260830 0.669657 0.465988
O O14 0.377937 0.017939 0.318013
O O15 0.121966 0.060734 0.340854
O O16 0.935353 0.501364 0.781891
O O17 0.658957 0.256638 0.078400
#
# Coordination Sequence:
#
# PCOD9078216 Si02
#       8
#     2   2   2   2   2   2   2   2
#     4  10  18  35  59  93 128 163 204 261 320 378
#     4  11  26  47  61  90 135 179 214 267 322 385
#     4  10  20  35  65 101 125 158 210 271 317 376
#     4  10  21  41  66  89 132 171 210 263 325 381
#     4  11  22  36  61  97 134 163 203 268 330 373
#     4  11  22  40  62  98 133 165 208 268 328 382
#     4  12  23  41  69  97 128 170 222 265 317 385
#     4  11  24  42  70  96 127 172 224 263 319 386
#
# _framework density 25.783698999999999
#
# number of rings (size 3 to 8) (size 9 to 14) (size 15 to 20)
#    0.000    1.250    3.750    4.500    1.750    1.000 
#    0.000    8.750    0.000    0.000    0.000    0.000 
#    0.000    0.000    0.000    0.000    0.000    0.000 
#
# Total GULP energy -89429.062181 kJ/mol
# GULP energy per Si atom -5589.316386 kJ/mol
# Density = 2.572501 g / cm^3
# Si number density = 25.783699 Si / 1000 Ang^3
#
#
#
# Elastic Constant Matrix: (Units=GPa)
#
#
# Indices 1 2 3 4 5 6 
#
# 1 169.1363 21.4729 21.3393 -11.1327 19.6712 25.1621
# 2 21.4729 71.1001 34.7231 7.1637 3.8008 11.3568
# 3 21.3393 34.7231 114.5893 -8.7735 17.0059 11.0365
# 4 -11.1327 7.1637 -8.7735 32.9242 6.1706 -7.5696
# 5 19.6712 3.8008 17.0059 6.1706 37.3625 -6.0112
# 6 25.1621 11.3568 11.0365 -7.5696 -6.0112 23.3079
#
#
#
# Elastic Compliance Matrix: (Units=1/GPa)
#
#
# Indices 1 2 3 4 5 6 
#
# 1 0.008340 -0.001305 0.000951 0.002358 -0.006652 -0.009768
# 2 -0.001305 0.019174 -0.005683 -0.008126 0.001458 -0.007506
# 3 0.000951 -0.005683 0.012089 0.005136 -0.006933 -0.004102
# 4 0.002358 -0.008126 0.005136 0.037861 -0.007502 0.009343
# 5 -0.006652 0.001458 -0.006933 -0.007502 0.037236 0.016921
# 6 -0.009768 -0.007506 -0.004102 0.009343 0.016921 0.066447
#
#
# Mechanical properties :
#
#
# Convention : Reuss Voigt Hill
#
# Bulk Modulus (GPa) = 36.32486 56.65517 46.49001
# Shear Modulus (GPa) = 24.70399 37.20493 30.95446
#
# Velocity S-wave (km/s) = 3.09872 3.80276 3.46865
# Velocity P-wave (km/s) = 5.18860 6.42668 5.84054
#
# Compressibility (1/GPa) = 0.02752936
#
# Stress axis : x y z
#
# Youngs Moduli (GPa) = 119.90237 52.15439 82.72029
#
# Poissons Ratio (x) = 0.06806 -0.07866
# Poissons Ratio (y) = 0.15647 0.47007
# Poissons Ratio (z) = -0.11401 0.29637
#
# Static dielectric constant tensor:
#      x y z
#    x 2.050040 0.016470 -0.071520 
#    y 0.016470 2.129560 -0.021200 
#    z -0.071520 -0.021200 2.104900 
# 
# From -- ./inp_files/402714.got.cif
#   From: 2010.05.17/outbox.cif.g08.bks.cpg/sg2_202_cif.got.tgz:402714.got - 2010.06.03 11:33:40.
