data_PCOD9078263
_publ_section_title
;
Structure prediction by ZEFSAII (Michael W. Deem and Ramdas Pophale) SiO2 
 PCOD9078263
Probable space group: P -1
;
_chemical_formula_sum "Si O2"
_cell_formula_units_Z 16
_cell_length_a 9.605358
_cell_length_b 15.269283
_cell_length_c 15.984200
_cell_angle_alpha 33.685046
_cell_angle_beta 36.288343
_cell_angle_gamma 41.378498
_cell_volume 746.551177
_symmetry_space_group_name_H-M "P -1"
_symmetry_group_IT_number 2
_symmetry_cell_setting 'triclinic'
loop_
_space_group_symop_operation_xyz
x,y,z
-x,-y,-z
loop_
_atom_site_type_symbol
_atom_site_label
_atom_site_fract_x
_atom_site_fract_y
_atom_site_fract_z
Si Si1 0.709631 0.919229 0.131442
Si Si2 0.046964 0.673624 0.871611
Si Si3 0.639537 0.760826 0.123547
Si Si4 0.163195 0.746871 0.146140
Si Si5 0.370304 0.741657 0.516070
Si Si6 0.381661 0.462947 0.001659
Si Si7 0.774087 0.403634 0.597928
Si Si8 0.922470 0.410382 0.340443
O O1 0.640557 0.892330 0.090542
O O2 0.499681 0.885082 0.320555
O O3 0.954723 0.786843 0.145737
O O4 0.775026 0.087371 0.985242
O O5 0.170045 0.755874 0.674058
O O6 0.241268 0.621888 0.893058
O O7 0.000000 0.500000 0.000000
O O8 0.800858 0.775001 0.952573
O O9 0.389525 0.723218 0.245528
O O10 0.781227 0.590223 0.235097
O O11 0.090354 0.658271 0.333120
O O12 0.410462 0.637200 0.077889
O O13 0.580162 0.577250 0.563548
O O14 0.241816 0.704853 0.522218
O O15 0.177337 0.370745 0.201212
O O16 0.500000 0.500000 0.000000
O O17 0.939195 0.408209 0.433691
#
# Coordination Sequence:
#
# PCOD9078263 Si02
#       8
#     2   2   2   2   2   2   2   2
#     4  11  24  42  57  80 124 162 190 229 303 349
#     4  11  18  33  60  93 117 147 193 245 286 337
#     4  10  18  35  60  87 119 154 186 236 297 342
#     4  11  25  41  57  85 121 157 191 241 287 353
#     4  11  19  36  63  89 115 154 194 242 286 340
#     4  11  22  37  59  88 120 149 189 241 296 340
#     4  11  19  35  63  91 114 143 205 246 273 337
#     4  10  19  34  61  92 118 141 194 253 289 322
#
# _framework density 21.431887
#
# number of rings (size 3 to 8) (size 9 to 14) (size 15 to 20)
#    0.000    1.250    7.500    2.250    0.000    2.000 
#    0.000    1.875    0.000    3.750    0.000    0.000 
#    0.000    0.000    0.000    0.000    0.000    0.000 
#
# Total GULP energy -89464.833136 kJ/mol
# GULP energy per Si atom -5591.552071 kJ/mol
# Density = 2.138311 g / cm^3
# Si number density = 21.431887 Si / 1000 Ang^3
#
#
#
# Elastic Constant Matrix: (Units=GPa)
#
#
# Indices 1 2 3 4 5 6 
#
# 1 77.2087 3.0685 4.9920 -8.0906 6.4430 4.6783
# 2 3.0685 28.5966 21.0111 12.3526 3.1401 10.8393
# 3 4.9920 21.0111 117.4302 18.5059 7.7425 7.5259
# 4 -8.0906 12.3526 18.5059 33.3498 11.6159 -0.8798
# 5 6.4430 3.1401 7.7425 11.6159 38.4595 2.9040
# 6 4.6783 10.8393 7.5259 -0.8798 2.9040 22.6765
#
#
#
# Elastic Compliance Matrix: (Units=1/GPa)
#
#
# Indices 1 2 3 4 5 6 
#
# 1 0.014134 -0.003099 -0.000761 0.006324 -0.003838 -0.000445
# 2 -0.003099 0.058498 -0.005497 -0.022013 0.005542 -0.027062
# 3 -0.000761 -0.005497 0.010181 -0.003713 -0.000299 -0.000700
# 4 0.006324 -0.022013 -0.003713 0.046887 -0.013735 0.014028
# 5 -0.003838 0.005542 -0.000299 -0.013735 0.030872 -0.006244
# 6 -0.000445 -0.027062 -0.000700 0.014028 -0.006244 0.058702
#
#
# Mechanical properties :
#
#
# Convention : Reuss Voigt Hill
#
# Bulk Modulus (GPa) = 15.60079 31.26431 23.43255
# Shear Modulus (GPa) = 19.27847 31.84141 25.55994
#
# Velocity S-wave (km/s) = 3.00246 3.85866 3.45717
# Velocity P-wave (km/s) = 4.39485 5.87127 5.18587
#
# Compressibility (1/GPa) = 0.06409931
#
# Stress axis : x y z
#
# Youngs Moduli (GPa) = 70.74995 17.09447 98.21958
#
# Poissons Ratio (x) = 0.05297 0.07479
# Poissons Ratio (y) = 0.21925 0.53991
# Poissons Ratio (z) = 0.05387 0.09397
#
# Static dielectric constant tensor:
#      x y z
#    x 1.791950 -0.006490 0.001910 
#    y -0.006490 1.771750 -0.008380 
#    z 0.001910 -0.008380 1.806160 
# 
# From -- ./inp_files/207818.got.cif
#   From: 2010.05.17/outbox.cif.g08.bks.cpg/sg2_104_cif.got.tgz:207818.got - 2010.06.03 11:33:40.
