data_PCOD9078740
_publ_section_title
;
Structure prediction by ZEFSAII (Michael W. Deem and Ramdas Pophale) SiO2 
 PCOD9078740
Probable space group: P -1
;
_chemical_formula_sum "Si O2"
_cell_formula_units_Z 16
_cell_length_a 9.384255
_cell_length_b 8.981827
_cell_length_c 11.067698
_cell_angle_alpha 94.877327
_cell_angle_beta 121.880724
_cell_angle_gamma 106.961073
_cell_volume 724.117786
_symmetry_space_group_name_H-M "P -1"
_symmetry_group_IT_number 2
_symmetry_cell_setting 'triclinic'
loop_
_space_group_symop_operation_xyz
x,y,z
-x,-y,-z
loop_
_atom_site_type_symbol
_atom_site_label
_atom_site_fract_x
_atom_site_fract_y
_atom_site_fract_z
Si Si1 0.071144 0.258215 0.591897
Si Si2 0.605971 0.388190 0.562535
Si Si3 0.756717 0.008343 0.295509
Si Si4 0.393720 0.603917 0.703449
Si Si5 0.689888 0.528507 0.951055
Si Si6 0.465620 0.242050 0.984635
Si Si7 0.081662 0.671598 0.217465
Si Si8 0.461389 0.902329 0.352124
O O1 0.167325 0.131260 0.645642
O O2 0.217742 0.437238 0.635171
O O3 0.974102 0.272271 0.675606
O O4 0.921158 0.178360 0.413255
O O5 0.500000 0.500000 0.500000
O O6 0.573810 0.559687 0.793162
O O7 0.613580 0.324906 0.425302
O O8 0.492762 0.250379 0.596745
O O9 0.664030 0.941135 0.119676
O O10 0.588850 0.988321 0.306249
O O11 0.421677 0.724291 0.838062
O O12 0.653768 0.647746 0.042548
O O13 0.905487 0.589730 0.050420
O O14 0.600431 0.342959 0.944728
O O15 0.812117 0.444197 0.708301
O O16 0.241858 0.823058 0.234197
O O17 0.500000 0.000000 0.500000
#
# Coordination Sequence:
#
# PCOD9078740 Si02
#       8
#     2   2   2   2   2   2   2   2
#     4  11  18  30  59  88 112 151 199 253 292 339
#     4  10  23  36  57  90 127 159 194 247 312 350
#     4  11  18  31  56  92 110 152 209 245 283 355
#     4  10  18  36  57  86 126 147 191 257 314 339
#     4   9  15  32  55  82 116 150 197 239 301 344
#     4   9  16  29  58  79 121 149 199 247 304 335
#     4  10  19  36  56  90 112 158 204 238 298 354
#     4  10  22  38  57  83 129 159 199 245 297 362
#
# _framework density 22.095852000000001
#
# number of rings (size 3 to 8) (size 9 to 14) (size 15 to 20)
#    1.500    0.500    5.000    0.750    0.000    0.500 
#    0.000    2.500    0.000    3.750    0.000    0.000 
#    0.000    0.000    0.000    0.000    0.000    0.000 
#
# Total GULP energy -89109.424389 kJ/mol
# GULP energy per Si atom -5569.339024 kJ/mol
# Density = 2.204556 g / cm^3
# Si number density = 22.095852 Si / 1000 Ang^3
#
#
#
# Elastic Constant Matrix: (Units=GPa)
#
#
# Indices 1 2 3 4 5 6 
#
# 1 109.0697 19.7383 33.2556 12.3744 19.9392 0.7669
# 2 19.7383 44.1152 29.0032 3.4949 8.4069 -0.8869
# 3 33.2556 29.0032 146.6694 20.1862 25.3367 14.3709
# 4 12.3744 3.4949 20.1862 34.8051 -1.1317 -2.3071
# 5 19.9392 8.4069 25.3367 -1.1317 43.9549 7.4964
# 6 0.7669 -0.8869 14.3709 -2.3071 7.4964 19.8000
#
#
#
# Elastic Compliance Matrix: (Units=1/GPa)
#
#
# Indices 1 2 3 4 5 6 
#
# 1 0.011157 -0.003372 -0.000808 -0.003215 -0.004244 0.001236
# 2 -0.003372 0.027985 -0.005316 0.001821 -0.001755 0.006119
# 3 -0.000808 -0.005316 0.010085 -0.005595 -0.003398 -0.006892
# 4 -0.003215 0.001821 -0.005595 0.033509 0.004067 0.006632
# 5 -0.004244 -0.001755 -0.003398 0.004067 0.028392 -0.007723
# 6 0.001236 0.006119 -0.006892 0.006632 -0.007723 0.059430
#
#
# Mechanical properties :
#
#
# Convention : Reuss Voigt Hill
#
# Bulk Modulus (GPa) = 33.07590 51.53872 42.30731
# Shear Modulus (GPa) = 25.04631 34.23580 29.64105
#
# Velocity S-wave (km/s) = 3.37045 3.94054 3.66659
# Velocity P-wave (km/s) = 5.49075 6.63924 6.09212
#
# Compressibility (1/GPa) = 0.03023350
#
# Stress axis : x y z
#
# Youngs Moduli (GPa) = 89.62888 35.73323 99.15676
#
# Poissons Ratio (x) = 0.12050 0.08015
# Poissons Ratio (y) = 0.30225 0.52715
# Poissons Ratio (z) = 0.07245 0.18997
#
# Static dielectric constant tensor:
#      x y z
#    x 1.861440 -0.037380 -0.043510 
#    y -0.037380 1.805270 0.038960 
#    z -0.043510 0.038960 1.906180 
# 
# From -- ./inp_files/388259.got.cif
#   From: 2010.05.17/outbox.cif.g08.bks.cpg/sg2_195_cif.got.tgz:388259.got - 2010.06.03 11:33:40.
