data_PCOD9078787
_publ_section_title
;
Structure prediction by ZEFSAII (Michael W. Deem and Ramdas Pophale) SiO2 
 PCOD9078787
Probable space group: P -1
;
_chemical_formula_sum "Si O2"
_cell_formula_units_Z 14
_cell_length_a 18.848548
_cell_length_b 7.639446
_cell_length_c 17.108380
_cell_angle_alpha 51.670103
_cell_angle_beta 153.618777
_cell_angle_gamma 142.461925
_cell_volume 628.855134
_symmetry_space_group_name_H-M "P -1"
_symmetry_group_IT_number 2
_symmetry_cell_setting 'triclinic'
loop_
_space_group_symop_operation_xyz
x,y,z
-x,-y,-z
loop_
_atom_site_type_symbol
_atom_site_label
_atom_site_fract_x
_atom_site_fract_y
_atom_site_fract_z
Si Si1 0.376879 0.203211 0.729012
Si Si2 0.318077 0.040673 0.396300
Si Si3 0.569790 0.246585 0.312979
Si Si4 0.302577 0.326901 0.460119
Si Si5 0.910010 0.204274 0.040606
Si Si6 0.137802 0.332484 0.914144
Si Si7 0.023807 0.534474 0.606395
O O1 0.404837 0.469578 0.722901
O O2 0.277126 0.155350 0.558829
O O3 0.220243 0.898984 0.709305
O O4 0.623035 0.354484 0.915824
O O5 0.318465 0.189954 0.435736
O O6 0.470880 0.320935 0.411175
O O7 0.421185 0.903096 0.560000
O O8 0.061942 0.775818 0.198982
O O9 0.787929 0.387045 0.444250
O O10 0.332115 0.978307 0.115103
O O11 0.101019 0.304162 0.258816
O O12 0.873568 0.947548 0.022075
O O13 0.000000 0.500000 0.000000
O O14 0.091670 0.385470 0.766541
O O15 0.000000 0.500000 0.500000
#
# Coordination Sequence:
#
# PCOD9078787 Si02
#       7
#     2   2   2   2   2   2   2
#     4  11  22  38  58  88 119 156 186 247 296 339
#     4   9  18  37  57  85 117 160 193 241 273 350
#     4  10  21  37  59  89 119 148 194 243 298 335
#     4  10  20  35  61  84 121 156 201 227 289 346
#     4  10  18  36  58  87 117 155 187 240 287 341
#     4   9  21  37  58  86 120 150 195 238 292 343
#     4  11  22  43  65  82 112 157 202 240 284 351
#
# _framework density 22.262678999999999
#
# number of rings (size 3 to 8) (size 9 to 14) (size 15 to 20)
#    0.000    2.000    1.429    3.429    0.000    1.143 
#    0.000   13.571    0.000    0.000    0.000    0.000 
#    0.000    0.000    0.000    0.000    0.000    0.000 
#
# Total GULP energy -78168.809469 kJ/mol
# GULP energy per Si atom -5583.486391 kJ/mol
# Density = 2.221201 g / cm^3
# Si number density = 22.262679 Si / 1000 Ang^3
#
#
#
# Elastic Constant Matrix: (Units=GPa)
#
#
# Indices 1 2 3 4 5 6 
#
# 1 38.9706 23.7857 14.1670 4.3262 3.6751 4.2375
# 2 23.7857 162.2413 41.8687 1.9031 15.3442 27.5346
# 3 14.1670 41.8687 138.1281 15.9381 17.7807 10.1708
# 4 4.3262 1.9031 15.9381 33.9128 12.1391 6.9198
# 5 3.6751 15.3442 17.7807 12.1391 25.4185 0.3033
# 6 4.2375 27.5346 10.1708 6.9198 0.3033 25.5528
#
#
#
# Elastic Compliance Matrix: (Units=1/GPa)
#
#
# Indices 1 2 3 4 5 6 
#
# 1 0.028863 -0.004064 -0.001548 -0.003275 0.000914 0.001085
# 2 -0.004064 0.009399 -0.001445 0.005017 -0.006350 -0.010162
# 3 -0.001548 -0.001445 0.008666 -0.002193 -0.003906 -0.000995
# 4 -0.003275 0.005017 -0.002193 0.040994 -0.020421 -0.014849
# 5 0.000914 -0.006350 -0.003906 -0.020421 0.055371 0.013118
# 6 0.001085 -0.010162 -0.000995 -0.014849 0.013118 0.054166
#
#
# Mechanical properties :
#
#
# Convention : Reuss Voigt Hill
#
# Bulk Modulus (GPa) = 30.47655 55.44252 42.95954
# Shear Modulus (GPa) = 22.47085 34.27804 28.37444
#
# Velocity S-wave (km/s) = 3.18047 3.92817 3.57393
# Velocity P-wave (km/s) = 5.21598 6.74773 6.03069
#
# Compressibility (1/GPa) = 0.03281211
#
# Stress axis : x y z
#
# Youngs Moduli (GPa) = 34.64635 106.39755 115.39807
#
# Poissons Ratio (x) = 0.43243 0.17865
# Poissons Ratio (y) = 0.14081 0.16679
# Poissons Ratio (z) = 0.05364 0.15378
#
# Static dielectric constant tensor:
#      x y z
#    x 1.826590 -0.036250 0.005430 
#    y -0.036250 1.869790 0.061400 
#    z 0.005430 0.061400 1.876120 
# 
# From -- ./inp_files/170851.got.cif
#   From: 2010.05.17/outbox.cif.g08.bks.cpg/sg2_86_cif.got.tgz:170851.got - 2010.06.03 11:33:40.
