data_PCOD9078649
_publ_section_title
;
Structure prediction by ZEFSAII (Michael W. Deem and Ramdas Pophale) SiO2 
 PCOD9078649
Probable space group: P -1
;
_chemical_formula_sum "Si O2"
_cell_formula_units_Z 15
_cell_length_a 7.295247
_cell_length_b 9.470716
_cell_length_c 22.590093
_cell_angle_alpha 25.784506
_cell_angle_beta 52.833960
_cell_angle_gamma 59.949072
_cell_volume 536.802637
_symmetry_space_group_name_H-M "P -1"
_symmetry_group_IT_number 2
_symmetry_cell_setting 'triclinic'
loop_
_space_group_symop_operation_xyz
x,y,z
-x,-y,-z
loop_
_atom_site_type_symbol
_atom_site_label
_atom_site_fract_x
_atom_site_fract_y
_atom_site_fract_z
Si Si1 0.785197 0.329117 0.814406
Si Si2 0.063402 0.793926 0.655821
Si Si3 0.500000 0.000000 0.500000
Si Si4 0.396865 0.009682 0.655364
Si Si5 0.898617 0.768768 0.823919
Si Si6 0.373168 0.747686 0.370348
Si Si7 0.579522 0.815983 0.964937
Si Si8 0.753152 0.793364 0.187962
O O1 0.745056 0.133625 0.835946
O O2 0.932144 0.679014 0.665520
O O3 0.972636 0.126666 0.888405
O O4 0.543201 0.333564 0.894875
O O5 0.223087 0.125623 0.509710
O O6 0.292255 0.581357 0.688298
O O7 0.930736 0.653576 0.793313
O O8 0.506386 0.044856 0.407551
O O9 0.311235 0.370424 0.538167
O O10 0.593297 0.039773 0.656556
O O11 0.153402 0.780864 0.796994
O O12 0.793242 0.102491 0.699971
O O13 0.712206 0.618051 0.965853
O O14 0.629171 0.775648 0.281622
O O15 0.373939 0.961254 0.916670
#
# Coordination Sequence:
#
# PCOD9078649 Si02
#       8
#     2   2   1   2   2   2   2   2
#     4   9  19  35  56  81 102 138 177 224 254 318
#     4   9  20  36  53  74 116 132 177 210 272 305
#     4  10  18  36  54  78 106 146 162 216 268 308
#     4  10  19  34  55  73 106 139 176 220 255 308
#     4  10  21  34  49  81 104 138 170 222 257 317
#     4  10  19  34  55  75 101 140 183 211 258 306
#     4  10  19  34  60  77 104 135 185 215 265 303
#     4   9  18  35  55  77 103 142 171 219 258 318
#
# _framework density 27.94323
#
# number of rings (size 3 to 8) (size 9 to 14) (size 15 to 20)
#    0.800    1.600    1.333    1.600    0.000    0.533 
#    4.800    2.667    0.000    1.600    0.000    0.000 
#    0.000    0.000    0.000    0.000    0.000    0.000 
#
# Total GULP energy -83567.150773 kJ/mol
# GULP energy per Si atom -5571.143385 kJ/mol
# Density = 2.787963 g / cm^3
# Si number density = 27.943230 Si / 1000 Ang^3
#
#
#
# Elastic Constant Matrix: (Units=GPa)
#
#
# Indices 1 2 3 4 5 6 
#
# 1 134.6516 25.8827 33.7308 5.0401 -7.1279 24.5033
# 2 25.8827 120.3126 32.6487 28.2185 -7.0452 18.8877
# 3 33.7308 32.6487 76.8496 17.5547 -8.9719 2.4297
# 4 5.0401 28.2185 17.5547 45.3230 -1.2907 -1.0974
# 5 -7.1279 -7.0452 -8.9719 -1.2907 39.6860 3.8967
# 6 24.5033 18.8877 2.4297 -1.0974 3.8967 49.1057
#
#
#
# Elastic Compliance Matrix: (Units=1/GPa)
#
#
# Indices 1 2 3 4 5 6 
#
# 1 0.009281 -0.000346 -0.003779 0.000575 0.001201 -0.004394
# 2 -0.000346 0.011355 -0.003007 -0.005928 0.001503 -0.004298
# 3 -0.003779 -0.003007 0.017126 -0.004228 0.002334 0.001915
# 4 0.000575 -0.005928 -0.004228 0.027362 -0.001302 0.002917
# 5 0.001201 0.001503 0.002334 -0.001302 0.026502 -0.003425
# 6 -0.004394 -0.004298 0.001915 0.002917 -0.003425 0.024452
#
#
# Mechanical properties :
#
#
# Convention : Reuss Voigt Hill
#
# Bulk Modulus (GPa) = 42.55404 57.37092 49.96248
# Shear Modulus (GPa) = 36.18594 42.79306 39.48950
#
# Velocity S-wave (km/s) = 3.60249 3.91759 3.76334
# Velocity P-wave (km/s) = 5.70664 6.40618 6.06650
#
# Compressibility (1/GPa) = 0.02349953
#
# Stress axis : x y z
#
# Youngs Moduli (GPa) = 107.74312 88.06568 58.38997
#
# Poissons Ratio (x) = 0.03046 0.22065
# Poissons Ratio (y) = 0.03727 0.17557
# Poissons Ratio (z) = 0.40715 0.26479
#
# Static dielectric constant tensor:
#      x y z
#    x 2.430130 0.125950 -0.322470 
#    y 0.125950 2.498250 -0.372850 
#    z -0.322470 -0.372850 2.721520 
# 
# From -- ./inp_files/491280.got.cif
#   From: 2010.05.17/outbox.cif.g08.bks.cpg/sg2_246_cif.got.tgz:491280.got - 2010.06.03 11:33:40.
