data_PCOD9078372
_publ_section_title
;
Structure prediction by ZEFSAII (Michael W. Deem and Ramdas Pophale) SiO2 
 PCOD9078372
Probable space group: P -1
;
_chemical_formula_sum "Si O2"
_cell_formula_units_Z 14
_cell_length_a 20.247755
_cell_length_b 7.563691
_cell_length_c 8.972907
_cell_angle_alpha 131.145367
_cell_angle_beta 147.598001
_cell_angle_gamma 49.057627
_cell_volume 537.297308
_symmetry_space_group_name_H-M "P -1"
_symmetry_group_IT_number 2
_symmetry_cell_setting 'triclinic'
loop_
_space_group_symop_operation_xyz
x,y,z
-x,-y,-z
loop_
_atom_site_type_symbol
_atom_site_label
_atom_site_fract_x
_atom_site_fract_y
_atom_site_fract_z
Si Si1 0.861563 0.482187 0.165725
Si Si2 0.725389 0.966472 0.304691
Si Si3 0.060573 0.792399 0.120730
Si Si4 0.521411 0.431374 0.177489
Si Si5 0.753306 0.281809 0.114464
Si Si6 0.809449 0.695070 0.622003
Si Si7 0.644402 0.833307 0.671881
O O1 0.880169 0.430503 0.998698
O O2 0.817862 0.284195 0.076209
O O3 0.000000 0.500000 0.500000
O O4 0.755647 0.730207 0.128884
O O5 0.588146 0.147537 0.146203
O O6 0.762672 0.863439 0.483364
O O7 0.827803 0.117716 0.540152
O O8 0.942994 0.739062 0.953910
O O9 0.000000 0.000000 0.000000
O O10 0.614497 0.575064 0.515328
O O11 0.500000 0.500000 0.000000
O O12 0.385510 0.527759 0.048754
O O13 0.828602 0.422060 0.445231
O O14 0.727340 0.029262 0.979206
O O15 0.702837 0.761386 0.579391
O O16 0.500000 0.000000 0.500000
#
# Coordination Sequence:
#
# PCOD9078372 Si02
#       7
#     2   2   2   2   2   2   2
#     4  11  19  36  65 102 125 157 200 269 322 366
#     4  10  23  38  63  97 126 163 213 263 312 375
#     4  10  18  35  61  94 130 157 197 257 319 373
#     4  11  23  45  62  83 130 177 211 259 315 366
#     4  10  20  37  64  87 121 165 213 250 313 371
#     4  10  19  36  66  93 122 161 206 260 321 363
#     4  10  22  39  63  87 122 175 208 253 310 374
#
# _framework density 26.056336000000002
#
# number of rings (size 3 to 8) (size 9 to 14) (size 15 to 20)
#    0.000    1.714    5.714    1.714    0.000    2.286 
#    7.714    4.286    0.000    2.571    0.000    0.000 
#    0.000    0.000    0.000    0.000    0.000    0.000 
#
# Total GULP energy -78275.404365 kJ/mol
# GULP energy per Si atom -5591.100312 kJ/mol
# Density = 2.599703 g / cm^3
# Si number density = 26.056336 Si / 1000 Ang^3
#
#
#
# Elastic Constant Matrix: (Units=GPa)
#
#
# Indices 1 2 3 4 5 6 
#
# 1 117.6955 16.2793 26.6229 -1.2231 30.3532 -12.8219
# 2 16.2793 107.0859 0.5900 12.0480 -7.5418 -1.1300
# 3 26.6229 0.5900 131.3560 25.3917 24.2662 -1.1696
# 4 -1.2231 12.0480 25.3917 38.5404 -5.0115 -9.2624
# 5 30.3532 -7.5418 24.2662 -5.0115 43.7717 5.7608
# 6 -12.8219 -1.1300 -1.1696 -9.2624 5.7608 52.9006
#
#
#
# Elastic Compliance Matrix: (Units=1/GPa)
#
#
# Indices 1 2 3 4 5 6 
#
# 1 0.011668 -0.002505 -0.001151 0.001796 -0.008200 0.003956
# 2 -0.002505 0.010319 0.000613 -0.003647 0.002933 -0.001331
# 3 -0.001151 0.000613 0.010445 -0.008049 -0.005700 -0.000823
# 4 0.001796 -0.003647 -0.008049 0.034547 0.005807 0.005596
# 5 -0.008200 0.002933 -0.005700 0.005807 0.033478 -0.004680
# 6 0.003956 -0.001331 -0.000823 0.005596 -0.004680 0.021305
#
#
# Mechanical properties :
#
#
# Convention : Reuss Voigt Hill
#
# Bulk Modulus (GPa) = 37.95806 49.23575 43.59691
# Shear Modulus (GPa) = 36.59551 47.88553 42.24052
#
# Velocity S-wave (km/s) = 3.75170 4.29157 4.03068
# Velocity P-wave (km/s) = 5.77636 6.59497 6.19919
#
# Compressibility (1/GPa) = 0.02634487
#
# Stress axis : x y z
#
# Youngs Moduli (GPa) = 85.70706 96.91192 95.74078
#
# Poissons Ratio (x) = 0.24278 0.11017
# Poissons Ratio (y) = 0.21471 -0.05867
# Poissons Ratio (z) = 0.09863 -0.05939
#
# Static dielectric constant tensor:
#      x y z
#    x 2.041880 0.006380 -0.056470 
#    y 0.006380 2.205070 -0.040320 
#    z -0.056470 -0.040320 2.174890 
# 
# From -- ./inp_files/350007.got.cif
#   From: 2010.05.17/outbox.cif.g08.bks.cpg/sg2_176_cif.got.tgz:350007.got - 2010.06.03 11:33:40.
