data_PCOD9078427
_publ_section_title
;
Structure prediction by ZEFSAII (Michael W. Deem and Ramdas Pophale) SiO2 
 PCOD9078427
Probable space group: P -1
;
_chemical_formula_sum "Si O2"
_cell_formula_units_Z 16
_cell_length_a 19.724786
_cell_length_b 21.684101
_cell_length_c 8.356657
_cell_angle_alpha 35.812872
_cell_angle_beta 132.630249
_cell_angle_gamma 160.379317
_cell_volume 630.428279
_symmetry_space_group_name_H-M "P -1"
_symmetry_group_IT_number 2
_symmetry_cell_setting 'triclinic'
loop_
_space_group_symop_operation_xyz
x,y,z
-x,-y,-z
loop_
_atom_site_type_symbol
_atom_site_label
_atom_site_fract_x
_atom_site_fract_y
_atom_site_fract_z
Si Si1 0.994334 0.878551 0.660507
Si Si2 0.423209 0.858478 0.334923
Si Si3 0.705092 0.729186 0.967278
Si Si4 0.204610 0.716606 0.735640
Si Si5 0.329457 0.092929 0.441559
Si Si6 0.986762 0.289603 0.723152
Si Si7 0.329340 0.540120 0.495540
Si Si8 0.815343 0.523923 0.910632
O O1 0.800045 0.596511 0.872821
O O2 0.102972 0.029657 0.350116
O O3 0.000000 0.000000 0.500000
O O4 0.094609 0.894780 0.910578
O O5 0.551788 0.881070 0.500476
O O6 0.163186 0.553036 0.541871
O O7 0.560934 0.060348 0.268548
O O8 0.500000 0.000000 0.000000
O O9 0.645952 0.768245 0.897562
O O10 0.500000 0.500000 0.000000
O O11 0.744570 0.656223 0.252422
O O12 0.186012 0.810520 0.423216
O O13 0.188506 0.606632 0.809986
O O14 0.000000 0.500000 0.000000
O O15 0.455176 0.233398 0.519998
O O16 0.069811 0.799833 0.669205
O O17 0.136910 0.392540 0.607204
O O18 0.351064 0.619638 0.195793
#
# Coordination Sequence:
#
# PCOD9078427 Si02
#       8
#     2   2   2   2   2   2   2   2
#     4  11  24  43  62  94 137 173 210 269 339 385
#     4  11  19  35  62  94 127 165 211 269 318 380
#     4   9  19  37  63  90 122 165 219 260 306 388
#     4  12  20  37  62  98 128 162 225 269 312 390
#     4   9  18  31  54  90 121 151 207 261 307 364
#     4  11  22  38  64  94 134 172 204 271 335 376
#     4  10  18  35  62  91 120 164 218 260 310 381
#     4  11  22  38  63  93 124 168 218 264 318 390
#
# _framework density 25.379572
#
# number of rings (size 3 to 8) (size 9 to 14) (size 15 to 20)
#    0.000    1.500    5.000    0.750    0.000    2.500 
#    2.250    4.375    0.000    7.500    0.000    0.000 
#    0.000    0.000    0.000    0.000    0.000    0.000 
#
# Total GULP energy -89153.272675 kJ/mol
# GULP energy per Si atom -5572.079542 kJ/mol
# Density = 2.532181 g / cm^3
# Si number density = 25.379572 Si / 1000 Ang^3
#
#
#
# Elastic Constant Matrix: (Units=GPa)
#
#
# Indices 1 2 3 4 5 6 
#
# 1 88.4864 18.8694 41.3085 -1.9211 32.3917 -22.0693
# 2 18.8694 106.1063 38.2387 9.5097 8.6344 -15.1371
# 3 41.3085 38.2387 164.6407 5.7513 35.1143 -2.4214
# 4 -1.9211 9.5097 5.7513 39.3252 5.2653 1.5599
# 5 32.3917 8.6344 35.1143 5.2653 49.6038 -12.1340
# 6 -22.0693 -15.1371 -2.4214 1.5599 -12.1340 30.6090
#
#
#
# Elastic Compliance Matrix: (Units=1/GPa)
#
#
# Indices 1 2 3 4 5 6 
#
# 1 0.017778 -0.000436 -0.002676 0.002012 -0.007582 0.009282
# 2 -0.000436 0.011477 -0.002808 -0.002907 0.002078 0.006111
# 3 -0.002676 -0.002808 0.008351 0.000152 -0.004810 -0.004572
# 4 0.002012 -0.002907 0.000152 0.026942 -0.004546 -0.003150
# 5 -0.007582 0.002078 -0.004810 -0.004546 0.030469 0.007491
# 6 0.009282 0.006111 -0.004572 -0.003150 0.007491 0.045153
#
#
# Mechanical properties :
#
#
# Convention : Reuss Voigt Hill
#
# Bulk Modulus (GPa) = 38.81222 61.78518 50.29870
# Shear Modulus (GPa) = 31.13367 41.29538 36.21453
#
# Velocity S-wave (km/s) = 3.50626 4.03812 3.78155
# Velocity P-wave (km/s) = 5.63185 6.79259 6.23927
#
# Compressibility (1/GPa) = 0.02576508
#
# Stress axis : x y z
#
# Youngs Moduli (GPa) = 56.25076 87.12862 119.75129
#
# Poissons Ratio (x) = 0.03802 0.32043
# Poissons Ratio (y) = 0.02454 0.33627
# Poissons Ratio (z) = 0.15052 0.24466
#
# Static dielectric constant tensor:
#      x y z
#    x 2.092700 -0.055160 -0.027600 
#    y -0.055160 2.034480 -0.028370 
#    z -0.027600 -0.028370 2.148660 
# 
# From -- ./inp_files/343889.got.cif
#   From: 2010.05.17/outbox.cif.g08.bks.cpg/sg2_172_cif.got.tgz:343889.got - 2010.06.03 11:33:40.
