data_PCOD9078011
_publ_section_title
;
Structure prediction by ZEFSAII (Michael W. Deem and Ramdas Pophale) SiO2 
 PCOD9078011
Probable space group: P -1
;
_chemical_formula_sum "Si O2"
_cell_formula_units_Z 16
_cell_length_a 11.033581
_cell_length_b 15.666636
_cell_length_c 5.453861
_cell_angle_alpha 102.965523
_cell_angle_beta 86.639359
_cell_angle_gamma 47.137125
_cell_volume 643.281057
_symmetry_space_group_name_H-M "P -1"
_symmetry_group_IT_number 2
_symmetry_cell_setting 'triclinic'
loop_
_space_group_symop_operation_xyz
x,y,z
-x,-y,-z
loop_
_atom_site_type_symbol
_atom_site_label
_atom_site_fract_x
_atom_site_fract_y
_atom_site_fract_z
Si Si1 0.207239 0.134774 0.537297
Si Si2 0.789076 0.566943 0.786794
Si Si3 0.632477 0.472055 0.273922
Si Si4 0.906735 0.107450 0.273263
Si Si5 0.457307 0.657502 0.026607
Si Si6 0.985329 0.245241 0.139634
Si Si7 0.738078 0.079951 0.627024
Si Si8 0.191373 0.334768 0.650973
O O1 0.280727 0.194689 0.581873
O O2 0.115788 0.187465 0.313259
O O3 0.326002 0.986288 0.424137
O O4 0.083580 0.188635 0.831055
O O5 0.771142 0.635367 0.589824
O O6 0.981827 0.429358 0.712938
O O7 0.633722 0.577058 0.800407
O O8 0.767483 0.634180 0.084032
O O9 0.500000 0.500000 0.500000
O O10 0.535124 0.603391 0.251841
O O11 0.831944 0.394580 0.246179
O O12 0.642521 0.383008 0.025222
O O13 0.877371 0.214727 0.220395
O O14 0.751990 0.130571 0.413614
O O15 0.059141 0.043540 0.413209
O O16 0.000000 0.000000 0.000000
O O17 0.350477 0.802729 0.110469
#
# Coordination Sequence:
#
# PCOD9078011 Si02
#       8
#     2   2   2   2   2   2   2   2
#     4  11  23  41  67  98 125 168 221 269 314 370
#     4  10  23  43  68  91 124 165 212 274 327 373
#     4  11  26  39  61  93 135 173 210 258 315 400
#     4  10  18  35  57  85 126 176 213 249 299 371
#     4  11  25  42  62  95 134 174 210 258 332 388
#     4  11  23  37  65  93 131 169 213 262 311 379
#     4  10  22  37  60  91 133 172 212 257 314 385
#     4  10  22  43  69  92 119 161 224 277 317 373
#
# _framework density 24.872485000000001
#
# number of rings (size 3 to 8) (size 9 to 14) (size 15 to 20)
#    0.000    1.500    1.250    3.000   10.500    1.000 
#    0.000    1.250    0.000    0.000    0.000    0.000 
#    0.000    0.000    0.000    0.000    0.000    0.000 
#
# Total GULP energy -89236.146484 kJ/mol
# GULP energy per Si atom -5577.259155 kJ/mol
# Density = 2.481587 g / cm^3
# Si number density = 24.872485 Si / 1000 Ang^3
#
#
#
# Elastic Constant Matrix: (Units=GPa)
#
#
# Indices 1 2 3 4 5 6 
#
# 1 75.5913 36.1434 13.9597 -4.4535 7.7378 8.5521
# 2 36.1434 130.2017 26.6419 -8.7417 1.5590 9.7670
# 3 13.9597 26.6419 110.9007 -21.7962 8.4156 -6.1336
# 4 -4.4535 -8.7417 -21.7962 36.1650 7.9627 2.8351
# 5 7.7378 1.5590 8.4156 7.9627 31.2933 -0.4142
# 6 8.5521 9.7670 -6.1336 2.8351 -0.4142 39.0189
#
#
#
# Elastic Compliance Matrix: (Units=1/GPa)
#
#
# Indices 1 2 3 4 5 6 
#
# 1 0.016074 -0.003968 -0.000555 0.001813 -0.004126 -0.002793
# 2 -0.003968 0.009312 -0.001767 0.000660 0.000801 -0.001778
# 3 -0.000555 -0.001767 0.011389 0.007256 -0.004660 0.001778
# 4 0.001813 0.000660 0.007256 0.035078 -0.011386 -0.002092
# 5 -0.004126 0.000801 -0.004660 -0.011386 0.037102 0.001192
# 6 -0.002793 -0.001778 0.001778 -0.002092 0.001192 0.027130
#
#
# Mechanical properties :
#
#
# Convention : Reuss Voigt Hill
#
# Bulk Modulus (GPa) = 41.33055 52.24263 46.78659
# Shear Modulus (GPa) = 31.90224 37.29205 34.59714
#
# Velocity S-wave (km/s) = 3.58527 3.87632 3.73363
# Velocity P-wave (km/s) = 5.81308 6.40970 6.11867
#
# Compressibility (1/GPa) = 0.02419518
#
# Stress axis : x y z
#
# Youngs Moduli (GPa) = 62.21294 107.39389 87.80144
#
# Poissons Ratio (x) = 0.42612 0.04874
# Poissons Ratio (y) = 0.24685 0.15513
# Poissons Ratio (z) = 0.03454 0.18974
#
# Static dielectric constant tensor:
#      x y z
#    x 2.103840 -0.058110 0.046790 
#    y -0.058110 2.036940 0.110920 
#    z 0.046790 0.110920 1.991290 
# 
# From -- ./inp_files/71686.got.cif
#   From: 2010.05.17/outbox.cif.g08.bks.cpg/sg2_36_cif.got.tgz:71686.got - 2010.06.03 11:33:40.
