data_PCOD9078007
_publ_section_title
;
Structure prediction by ZEFSAII (Michael W. Deem and Ramdas Pophale) SiO2 
 PCOD9078007
Probable space group: P -1
;
_chemical_formula_sum "Si O2"
_cell_formula_units_Z 16
_cell_length_a 19.655803
_cell_length_b 15.401496
_cell_length_c 10.047797
_cell_angle_alpha 74.306912
_cell_angle_beta 84.826031
_cell_angle_gamma 19.911107
_cell_volume 863.326114
_symmetry_space_group_name_H-M "P -1"
_symmetry_group_IT_number 2
_symmetry_cell_setting 'triclinic'
loop_
_space_group_symop_operation_xyz
x,y,z
-x,-y,-z
loop_
_atom_site_type_symbol
_atom_site_label
_atom_site_fract_x
_atom_site_fract_y
_atom_site_fract_z
Si Si1 0.094862 0.364405 0.891916
Si Si2 0.312060 0.340000 0.506763
Si Si3 0.012955 0.888470 0.732785
Si Si4 0.633528 0.242328 0.630296
Si Si5 0.786280 0.345458 0.487977
Si Si6 0.735772 0.675771 0.766358
Si Si7 0.638524 0.686323 0.044926
Si Si8 0.019498 0.648548 0.664167
O O1 0.011226 0.553834 0.739218
O O2 0.982368 0.413407 0.843059
O O3 0.370589 0.018616 0.988000
O O4 0.000000 0.500000 0.000000
O O5 0.305788 0.451708 0.504087
O O6 0.281974 0.361540 0.347205
O O7 0.104394 0.557311 0.537898
O O8 0.545098 0.995456 0.653201
O O9 0.043245 0.841499 0.584822
O O10 0.836496 0.035977 0.761664
O O11 0.912208 0.116160 0.660624
O O12 0.254645 0.548983 0.886581
O O13 0.500000 0.500000 0.500000
O O14 0.430443 0.432807 0.634025
O O15 0.780030 0.999185 0.599011
O O16 0.678169 0.691731 0.901072
O O17 0.782625 0.556783 0.188951
#
# Coordination Sequence:
#
# PCOD9078007 Si02
#       8
#     2   2   2   2   2   2   2   2
#     4  12  23  35  60  86 111 152 192 232 290 335
#     4  11  22  41  58  82 120 153 188 238 283 341
#     4   9  20  33  58  86 114 140 192 239 278 329
#     4   9  18  31  52  88 114 136 183 238 282 327
#     4  10  18  35  57  85 112 151 182 235 288 330
#     4  11  25  40  56  84 119 154 190 233 288 338
#     4  11  21  39  56  86 118 143 189 243 278 338
#     4  11  20  36  60  85 114 147 190 238 282 340
#
# _framework density 18.532972999999998
#
# number of rings (size 3 to 8) (size 9 to 14) (size 15 to 20)
#    0.000    1.500    5.000    1.875    1.750    0.500 
#    2.250    0.625    0.000    0.750    0.000    0.000 
#    0.000    0.000    0.000    0.000    0.000    0.000 
#
# Total GULP energy -89161.254965 kJ/mol
# GULP energy per Si atom -5572.578435 kJ/mol
# Density = 1.849079 g / cm^3
# Si number density = 18.532973 Si / 1000 Ang^3
#
#
#
# Elastic Constant Matrix: (Units=GPa)
#
#
# Indices 1 2 3 4 5 6 
#
# 1 95.9132 35.3213 35.0911 -2.8660 -18.5287 -2.3568
# 2 35.3213 98.0392 38.9249 -15.3367 -8.2059 -1.8258
# 3 35.0911 38.9249 60.0409 1.1442 -8.9385 3.2509
# 4 -2.8660 -15.3367 1.1442 26.6872 2.4319 -1.8629
# 5 -18.5287 -8.2059 -8.9385 2.4319 18.9355 -3.5000
# 6 -2.3568 -1.8258 3.2509 -1.8629 -3.5000 38.4520
#
#
#
# Elastic Compliance Matrix: (Units=1/GPa)
#
#
# Indices 1 2 3 4 5 6 
#
# 1 0.015918 -0.002270 -0.006147 -0.000269 0.012184 0.002483
# 2 -0.002270 0.016364 -0.009658 0.009760 -0.000596 0.001873
# 3 -0.006147 -0.009658 0.027297 -0.007890 0.003099 -0.003243
# 4 -0.000269 0.009760 -0.007890 0.044031 -0.004895 0.002802
# 5 0.012184 -0.000596 0.003099 -0.004895 0.067746 0.006386
# 6 0.002483 0.001873 -0.003243 0.002802 0.006386 0.027239
#
#
# Mechanical properties :
#
#
# Convention : Reuss Voigt Hill
#
# Bulk Modulus (GPa) = 42.68431 52.51864 47.60148
# Shear Modulus (GPa) = 20.61385 26.45868 23.53626
#
# Velocity S-wave (km/s) = 3.33870 3.78253 3.56753
# Velocity P-wave (km/s) = 6.15988 6.89030 6.53530
#
# Compressibility (1/GPa) = 0.02342781
#
# Stress axis : x y z
#
# Youngs Moduli (GPa) = 62.82284 61.10837 36.63441
#
# Poissons Ratio (x) = 0.13873 0.22519
# Poissons Ratio (y) = 0.14263 0.35383
# Poissons Ratio (z) = 0.38616 0.59021
#
# Static dielectric constant tensor:
#      x y z
#    x 1.693160 -0.016320 -0.005610 
#    y -0.016320 1.678340 -0.047490 
#    z -0.005610 -0.047490 1.639160 
# 
# From -- ./inp_files/347225.got.cif
#   From: 2010.05.17/outbox.cif.g08.bks.cpg/sg2_174_cif.got.tgz:347225.got - 2010.06.03 11:33:40.
