data_PCOD9078336
_publ_section_title
;
Structure prediction by ZEFSAII (Michael W. Deem and Ramdas Pophale) SiO2 
 PCOD9078336
Probable space group: P -1
;
_chemical_formula_sum "Si O2"
_cell_formula_units_Z 14
_cell_length_a 13.618284
_cell_length_b 12.249806
_cell_length_c 17.053323
_cell_angle_alpha 151.557918
_cell_angle_beta 154.330326
_cell_angle_gamma 40.393763
_cell_volume 580.303320
_symmetry_space_group_name_H-M "P -1"
_symmetry_group_IT_number 2
_symmetry_cell_setting 'triclinic'
loop_
_space_group_symop_operation_xyz
x,y,z
-x,-y,-z
loop_
_atom_site_type_symbol
_atom_site_label
_atom_site_fract_x
_atom_site_fract_y
_atom_site_fract_z
Si Si1 0.698863 0.796221 0.859258
Si Si2 0.376965 0.543171 0.826313
Si Si3 0.275363 0.704618 0.600003
Si Si4 0.432074 0.617820 0.296193
Si Si5 0.963745 0.197892 0.360466
Si Si6 0.563682 0.012292 0.342839
Si Si7 0.927499 0.364826 0.751944
O O1 0.492318 0.843646 0.797701
O O2 0.622901 0.865891 0.763505
O O3 0.740107 0.537179 0.738515
O O4 0.940771 0.947311 0.147575
O O5 0.513997 0.418922 0.780464
O O6 0.204902 0.674313 0.733735
O O7 0.210399 0.347033 0.629150
O O8 0.502753 0.745399 0.101276
O O9 0.383836 0.505925 0.599758
O O10 0.152561 0.829928 0.656847
O O11 0.084929 0.644744 0.357522
O O12 0.445318 0.875998 0.506023
O O13 0.176463 0.470846 0.029119
O O14 0.809012 0.127369 0.555962
#
# Coordination Sequence:
#
# PCOD9078336 Si02
#       7
#     2   2   2   2   2   2   2
#     4  10  18  35  61  88 119 146 196 243 288 355
#     4   9  21  39  58  89 117 154 208 232 277 364
#     4  10  19  37  61  86 117 150 193 244 295 337
#     4  11  21  38  62  87 119 157 190 239 297 340
#     4   9  19  38  60  85 116 158 195 242 290 338
#     4  10  19  38  61  84 124 152 189 248 290 339
#     4  11  21  36  59  94 116 146 198 238 296 353
#
# _framework density 24.125312000000001
#
# number of rings (size 3 to 8) (size 9 to 14) (size 15 to 20)
#    0.000    2.000    2.857    1.714    0.000    1.714 
#    5.143    4.286    0.000    0.000    0.000    0.000 
#    0.000    0.000    0.000    0.000    0.000    0.000 
#
# Total GULP energy -78130.163150 kJ/mol
# GULP energy per Si atom -5580.725939 kJ/mol
# Density = 2.407040 g / cm^3
# Si number density = 24.125312 Si / 1000 Ang^3
#
#
#
# Elastic Constant Matrix: (Units=GPa)
#
#
# Indices 1 2 3 4 5 6 
#
# 1 40.7865 16.0038 71.2868 -3.0754 -40.7141 -36.3703
# 2 16.0038 60.3897 30.4003 -17.1894 -21.9165 -3.8723
# 3 71.2868 30.4003 167.8268 24.2007 -32.6808 -20.4546
# 4 -3.0754 -17.1894 24.2007 36.8930 2.7660 -13.3394
# 5 -40.7141 -21.9165 -32.6808 2.7660 36.0534 -6.6966
# 6 -36.3703 -3.8723 -20.4546 -13.3394 -6.6966 19.7378
#
#
#
# Elastic Compliance Matrix: (Units=1/GPa)
#
#
# Indices 1 2 3 4 5 6 
#
# 1 -0.004235 -0.007640 -0.000422 -0.010289 -0.012936 -0.021082
# 2 -0.007640 0.022636 -0.002786 0.009590 0.000799 -0.005773
# 3 -0.000422 -0.002786 0.010309 -0.005653 0.009218 0.008666
# 4 -0.010289 0.009590 -0.005653 0.033670 -0.014441 -0.005081
# 5 -0.012936 0.000799 0.009218 -0.014441 0.019894 -0.017137
# 6 -0.021082 -0.005773 0.008666 -0.005081 -0.017137 0.010416
#
#
# Mechanical properties :
#
#
# Convention : Reuss Voigt Hill
#
# Bulk Modulus (GPa) = 142.59478 56.04275 99.31876
# Shear Modulus (GPa) = 42.83624 28.62433 35.73028
#
# Velocity S-wave (km/s) = 4.21833 3.44828 3.85259
# Velocity P-wave (km/s) = 9.10823 6.25575 7.81327
#
# Compressibility (1/GPa) = 0.00701288
#
# Stress axis : x y z
#
# Youngs Moduli (GPa) = -236.13148 44.17833 97.00540
#
# Poissons Ratio (x) = 0.33754 0.04093
# Poissons Ratio (y) = -1.80415 0.27024
# Poissons Ratio (z) = -0.09964 0.12307
#
# Static dielectric constant tensor:
#      x y z
#    x 1.969050 -0.003030 -0.074900 
#    y -0.003030 1.908540 0.011400 
#    z -0.074900 0.011400 1.938720 
# 
# From -- ./inp_files/569978.got.cif
#   From: 2010.05.17/outbox.cif.g08.bks.cpg/sg2_285_cif.got.tgz:569978.got - 2010.06.03 11:33:40.
