data_PCOD9078204
_publ_section_title
;
Structure prediction by ZEFSAII (Michael W. Deem and Ramdas Pophale) SiO2 
 PCOD9078204
Probable space group: P -1
;
_chemical_formula_sum "Si O2"
_cell_formula_units_Z 15
_cell_length_a 12.564326
_cell_length_b 11.759641
_cell_length_c 11.977816
_cell_angle_alpha 125.613673
_cell_angle_beta 141.523036
_cell_angle_gamma 33.987057
_cell_volume 604.081686
_symmetry_space_group_name_H-M "P -1"
_symmetry_group_IT_number 2
_symmetry_cell_setting 'triclinic'
loop_
_space_group_symop_operation_xyz
x,y,z
-x,-y,-z
loop_
_atom_site_type_symbol
_atom_site_label
_atom_site_fract_x
_atom_site_fract_y
_atom_site_fract_z
Si Si1 0.082533 0.511873 0.809440
Si Si2 0.401733 0.516512 0.549831
Si Si3 0.140873 0.140009 0.804214
Si Si4 0.983654 0.152233 0.142426
Si Si5 0.684782 0.909455 0.306004
Si Si6 0.000000 0.500000 0.000000
Si Si7 0.514632 0.832838 0.506496
Si Si8 0.166739 0.808722 0.716385
O O1 0.129549 0.644732 0.896038
O O2 0.075091 0.487764 0.921937
O O3 0.806168 0.647011 0.603051
O O4 0.269934 0.283234 0.779459
O O5 0.500000 0.500000 0.500000
O O6 0.540046 0.291857 0.568136
O O7 0.386195 0.627769 0.706719
O O8 0.109904 0.670489 0.365176
O O9 0.349717 0.013861 0.805050
O O10 0.124191 0.267589 0.956495
O O11 0.118203 0.999215 0.754942
O O12 0.815846 0.223257 0.155728
O O13 0.278995 0.011000 0.336325
O O14 0.000000 0.000000 0.000000
O O15 0.925924 0.854183 0.516999
O O16 0.486991 0.066962 0.329224
#
# Coordination Sequence:
#
# PCOD9078204 Si02
#       8
#     2   2   2   2   2   1   2   2
#     4  11  22  43  66  94 128 170 219 269 322 389
#     4  11  19  34  63  97 127 159 216 272 311 386
#     4  10  18  35  59  89 129 166 201 260 327 379
#     4  11  25  43  66  88 134 180 212 267 334 386
#     4   9  19  36  63  94 124 161 210 270 321 376
#     4  10  20  38  66  86 128 168 202 268 334 370
#     4  11  21  40  67  97 122 167 226 264 320 391
#     4  10  19  36  60  92 127 169 211 261 327 378
#
# _framework density 24.831078999999999
#
# number of rings (size 3 to 8) (size 9 to 14) (size 15 to 20)
#    0.000    1.600    4.000    5.200    0.000    2.133 
#    2.400    3.333    8.800    0.000    0.000    0.000 
#    0.000    0.000    0.000    0.000    0.000    0.000 
#
# Total GULP energy -83528.015089 kJ/mol
# GULP energy per Si atom -5568.534339 kJ/mol
# Density = 2.477456 g / cm^3
# Si number density = 24.831079 Si / 1000 Ang^3
#
#
#
# Elastic Constant Matrix: (Units=GPa)
#
#
# Indices 1 2 3 4 5 6 
#
# 1 80.0499 55.5432 23.6968 23.4245 -26.5627 22.9813
# 2 55.5432 146.9052 32.2909 42.6536 -14.0531 35.8389
# 3 23.6968 32.2909 90.5910 16.3615 -17.5607 -2.8459
# 4 23.4245 42.6536 16.3615 52.7625 -12.9856 -2.3254
# 5 -26.5627 -14.0531 -17.5607 -12.9856 27.5980 -0.7306
# 6 22.9813 35.8389 -2.8459 -2.3254 -0.7306 62.5385
#
#
#
# Elastic Compliance Matrix: (Units=1/GPa)
#
#
# Indices 1 2 3 4 5 6 
#
# 1 0.025586 -0.005540 -0.000615 -0.001954 0.020333 -0.006090
# 2 -0.005540 0.012995 -0.002715 -0.008608 -0.004650 -0.005909
# 3 -0.000615 -0.002715 0.013543 0.000032 0.006724 0.002478
# 4 -0.001954 -0.008608 0.000032 0.028927 0.007548 0.006816
# 5 0.020333 -0.004650 0.006724 0.007548 0.061174 -0.003506
# 6 -0.006090 -0.005909 0.002478 0.006816 -0.003506 0.021940
#
#
# Mechanical properties :
#
#
# Convention : Reuss Voigt Hill
#
# Bulk Modulus (GPa) = 29.08463 60.06753 44.57608
# Shear Modulus (GPa) = 25.85781 42.31414 34.08597
#
# Velocity S-wave (km/s) = 3.23049 4.13253 3.70904
# Velocity P-wave (km/s) = 5.06490 6.85663 6.02771
#
# Compressibility (1/GPa) = 0.03438242
#
# Stress axis : x y z
#
# Youngs Moduli (GPa) = 39.08462 76.95416 73.84118
#
# Poissons Ratio (x) = 0.42636 0.04540
# Poissons Ratio (y) = 0.21655 0.20048
# Poissons Ratio (z) = 0.02403 0.20893
#
# Static dielectric constant tensor:
#      x y z
#    x 2.316770 -0.168470 0.124110 
#    y -0.168470 1.806890 -0.032070 
#    z 0.124110 -0.032070 2.069380 
# 
# From -- ./inp_files/451836.got.cif
#   From: 2010.05.17/outbox.cif.g08.bks.cpg/sg2_226_cif.got.tgz:451836.got - 2010.06.03 11:33:40.
