data_PCOD9078038
_publ_section_title
;
Structure prediction by ZEFSAII (Michael W. Deem and Ramdas Pophale) SiO2 
 PCOD9078038
Probable space group: P -1
;
_chemical_formula_sum "Si O2"
_cell_formula_units_Z 16
_cell_length_a 8.946902
_cell_length_b 13.948395
_cell_length_c 11.316600
_cell_angle_alpha 31.654101
_cell_angle_beta 104.420249
_cell_angle_gamma 91.807727
_cell_volume 671.031240
_symmetry_space_group_name_H-M "P -1"
_symmetry_group_IT_number 2
_symmetry_cell_setting 'triclinic'
loop_
_space_group_symop_operation_xyz
x,y,z
-x,-y,-z
loop_
_atom_site_type_symbol
_atom_site_label
_atom_site_fract_x
_atom_site_fract_y
_atom_site_fract_z
Si Si1 0.170150 0.742189 0.799824
Si Si2 0.698394 0.474499 0.481643
Si Si3 0.013588 0.644029 0.640949
Si Si4 0.742943 0.739178 0.039185
Si Si5 0.793294 0.885984 0.663471
Si Si6 0.953173 0.812509 0.205063
Si Si7 0.681412 0.671694 0.674873
Si Si8 0.489922 0.201679 0.722520
O O1 0.120392 0.709774 0.689031
O O2 0.996723 0.796317 0.783254
O O3 0.238473 0.916758 0.623111
O O4 0.311480 0.547218 0.076316
O O5 0.633880 0.622924 0.200985
O O6 0.892770 0.374463 0.610385
O O7 0.634678 0.292703 0.668405
O O8 0.654132 0.613075 0.441251
O O9 0.121185 0.439220 0.818252
O O10 0.938734 0.790653 0.364767
O O11 0.860383 0.636070 0.691774
O O12 0.805895 0.818068 0.085020
O O13 0.720691 0.904115 0.762120
O O14 0.697721 0.765218 0.703967
O O15 0.000000 0.000000 0.000000
O O16 0.549730 0.801108 0.420568
O O17 0.500000 0.000000 0.000000
#
# Coordination Sequence:
#
# PCOD9078038 Si02
#       8
#     2   2   2   2   2   2   2   2
#     4  10  19  34  57  90 130 163 202 247 319 377
#     4  10  25  43  64  93 126 166 214 267 314 374
#     4  10  18  35  57  92 128 159 195 263 321 379
#     4  11  19  38  61  94 132 155 199 259 324 382
#     4  10  20  33  58  96 127 163 199 252 311 394
#     4  11  23  35  64 101 130 162 199 261 339 382
#     4  11  20  38  62  84 126 165 209 256 308 364
#     4  11  26  47  67  86 122 175 227 266 300 371
#
# _framework density 23.843896999999998
#
# number of rings (size 3 to 8) (size 9 to 14) (size 15 to 20)
#    0.000    1.500    2.500    4.500    3.500    2.000 
#    0.000    0.625    0.000    1.500    0.000    0.000 
#    0.000    0.000    0.000    0.000    0.000    0.000 
#
# Total GULP energy -89292.921724 kJ/mol
# GULP energy per Si atom -5580.807608 kJ/mol
# Density = 2.378963 g / cm^3
# Si number density = 23.843897 Si / 1000 Ang^3
#
#
#
# Elastic Constant Matrix: (Units=GPa)
#
#
# Indices 1 2 3 4 5 6 
#
# 1 41.3381 19.0762 19.9632 -3.1529 -16.6276 0.5257
# 2 19.0762 51.3549 8.9628 7.7873 -5.6789 -5.6257
# 3 19.9632 8.9628 130.5030 0.4050 -32.2811 12.5993
# 4 -3.1529 7.7873 0.4050 41.6682 1.2261 -13.6058
# 5 -16.6276 -5.6789 -32.2811 1.2261 35.5601 -2.6324
# 6 0.5257 -5.6257 12.5993 -13.6058 -2.6324 32.4301
#
#
#
# Elastic Compliance Matrix: (Units=1/GPa)
#
#
# Indices 1 2 3 4 5 6 
#
# 1 0.036505 -0.012444 -0.001469 0.005041 0.013652 0.001043
# 2 -0.012444 0.024969 -0.000534 -0.004692 -0.001961 0.002613
# 3 -0.001469 -0.000534 0.010417 -0.001716 0.008436 -0.004151
# 4 0.005041 -0.004692 -0.001716 0.029200 -0.000067 0.012016
# 5 0.013652 -0.001961 0.008436 -0.000067 0.041817 -0.000473
# 6 0.001043 0.002613 -0.004151 0.012016 -0.000473 0.037888
#
#
# Mechanical properties :
#
#
# Convention : Reuss Voigt Hill
#
# Bulk Modulus (GPa) = 23.25761 35.46669 29.36215
# Shear Modulus (GPa) = 22.31916 33.61124 27.96520
#
# Velocity S-wave (km/s) = 3.06282 3.75859 3.42840
# Velocity P-wave (km/s) = 4.72050 5.80885 5.29273
#
# Compressibility (1/GPa) = 0.04299669
#
# Stress axis : x y z
#
# Youngs Moduli (GPa) = 27.39319 40.04974 95.99814
#
# Poissons Ratio (x) = 0.49839 0.14103
# Poissons Ratio (y) = 0.34089 0.05126
# Poissons Ratio (z) = 0.04024 0.02138
#
# Static dielectric constant tensor:
#      x y z
#    x 1.942690 -0.014730 0.004210 
#    y -0.014730 1.916070 0.007330 
#    z 0.004210 0.007330 2.056210 
# 
# From -- ./inp_files/398262.got.cif
#   From: 2010.05.17/outbox.cif.g08.bks.cpg/sg2_200_cif.got.tgz:398262.got - 2010.06.03 11:33:40.
