data_PCOD9078326
_publ_section_title
;
Structure prediction by ZEFSAII (Michael W. Deem and Ramdas Pophale) SiO2 
 PCOD9078326
Probable space group: P -1
;
_chemical_formula_sum "Si O2"
_cell_formula_units_Z 16
_cell_length_a 15.056245
_cell_length_b 9.477826
_cell_length_c 15.414644
_cell_angle_alpha 141.487182
_cell_angle_beta 150.493895
_cell_angle_gamma 49.399273
_cell_volume 671.328512
_symmetry_space_group_name_H-M "P -1"
_symmetry_group_IT_number 2
_symmetry_cell_setting 'triclinic'
loop_
_space_group_symop_operation_xyz
x,y,z
-x,-y,-z
loop_
_atom_site_type_symbol
_atom_site_label
_atom_site_fract_x
_atom_site_fract_y
_atom_site_fract_z
Si Si1 0.216776 0.980459 0.663426
Si Si2 0.686678 0.661383 0.231260
Si Si3 0.744368 0.914159 0.584415
Si Si4 0.796883 0.322578 0.039143
Si Si5 0.912185 0.466334 0.740427
Si Si6 0.836308 0.900311 0.967578
Si Si7 0.533560 0.333793 0.662659
Si Si8 0.744791 0.775423 0.012743
O O1 0.302111 0.143451 0.738649
O O2 0.293507 0.069127 0.863099
O O3 0.217619 0.723340 0.509897
O O4 0.000000 0.000000 0.500000
O O5 0.726707 0.780390 0.414338
O O6 0.820685 0.487249 0.221806
O O7 0.500000 0.500000 0.000000
O O8 0.668450 0.749311 0.518906
O O9 0.624114 0.127919 0.593761
O O10 0.950863 0.015599 0.816827
O O11 0.971861 0.375424 0.154040
O O12 0.750796 0.067797 0.909914
O O13 0.636948 0.376905 0.864532
O O14 0.064500 0.337500 0.860788
O O15 0.812516 0.635274 0.796346
O O16 0.767292 0.923000 0.016834
O O17 0.591861 0.565087 0.773674
#
# Coordination Sequence:
#
# PCOD9078326 Si02
#       8
#     2   2   2   2   2   2   2   2
#     4  10  18  35  61  86 118 156 209 248 292 348
#     4  12  22  39  66  91 117 163 209 248 299 373
#     4  11  22  36  63  95 111 163 207 251 290 368
#     4  11  22  42  58  92 129 161 191 265 307 357
#     4  10  20  37  61  87 121 164 204 245 299 361
#     4  12  24  35  65  93 127 153 209 255 308 348
#     4  10  21  41  64  85 126 157 208 246 299 364
#     4  10  19  37  58  90 118 163 202 256 289 361
#
# _framework density 23.833337
#
# number of rings (size 3 to 8) (size 9 to 14) (size 15 to 20)
#    0.000    1.250    7.500    2.250    1.750    0.500 
#    0.000    0.000    2.750    5.250    0.000    0.000 
#    0.000    0.000    0.000    0.000    0.000    0.000 
#
# Total GULP energy -89524.756898 kJ/mol
# GULP energy per Si atom -5595.297306 kJ/mol
# Density = 2.377909 g / cm^3
# Si number density = 23.833337 Si / 1000 Ang^3
#
#
#
# Elastic Constant Matrix: (Units=GPa)
#
#
# Indices 1 2 3 4 5 6 
#
# 1 104.8304 12.0298 36.6594 0.0029 -1.7633 19.1037
# 2 12.0298 49.3489 18.1255 1.9880 12.3466 15.9168
# 3 36.6594 18.1255 103.3454 35.6505 -6.5403 -5.1865
# 4 0.0029 1.9880 35.6505 20.5021 -2.8324 11.4031
# 5 -1.7633 12.3466 -6.5403 -2.8324 52.9022 20.1942
# 6 19.1037 15.9168 -5.1865 11.4031 20.1942 30.7115
#
#
#
# Elastic Compliance Matrix: (Units=1/GPa)
#
#
# Indices 1 2 3 4 5 6 
#
# 1 0.003236 -0.008249 0.010937 -0.029123 -0.005167 0.018320
# 2 -0.008249 0.017712 0.009572 -0.028020 -0.010372 0.014792
# 3 0.010937 0.009572 -0.012726 0.045603 0.014384 -0.040304
# 4 -0.029123 -0.028020 0.045603 -0.080133 -0.026488 0.087509
# 5 -0.005167 -0.010372 0.014384 -0.026488 0.018092 0.008957
# 6 0.018320 0.014792 -0.040304 0.087509 0.008957 -0.031689
#
#
# Mechanical properties :
#
#
# Convention : Reuss Voigt Hill
#
# Bulk Modulus (GPa) = 30.54172 43.46157 37.00164
# Shear Modulus (GPa) = -50.44720 33.53717 -8.45502
#
# Velocity S-wave (km/s) = -4.60571 3.75527 -1.88554
# Velocity P-wave (km/s) = 3.92950 6.08917 3.28915
#
# Compressibility (1/GPa) = 0.03274210
#
# Stress axis : x y z
#
# Youngs Moduli (GPa) = 308.98922 56.45905 -78.57841
#
# Poissons Ratio (x) = 0.46573 0.85944
# Poissons Ratio (y) = 2.54886 0.75212
# Poissons Ratio (z) = -3.37954 -0.54040
#
# Static dielectric constant tensor:
#      x y z
#    x 1.930880 -0.043830 0.015040 
#    y -0.043830 1.973550 -0.025400 
#    z 0.015040 -0.025400 1.927160 
# 
# From -- ./inp_files/529183.got.cif
#   From: 2010.05.17/outbox.cif.g08.bks.cpg/sg2_265_cif.got.tgz:529183.got - 2010.06.03 11:33:40.
