data_PCOD9078416
_publ_section_title
;
Structure prediction by ZEFSAII (Michael W. Deem and Ramdas Pophale) SiO2 
 PCOD9078416
Probable space group: P -1
;
_chemical_formula_sum "Si O2"
_cell_formula_units_Z 16
_cell_length_a 8.773142
_cell_length_b 19.858803
_cell_length_c 8.550055
_cell_angle_alpha 52.591436
_cell_angle_beta 128.526684
_cell_angle_gamma 142.468630
_cell_volume 689.492342
_symmetry_space_group_name_H-M "P -1"
_symmetry_group_IT_number 2
_symmetry_cell_setting 'triclinic'
loop_
_space_group_symop_operation_xyz
x,y,z
-x,-y,-z
loop_
_atom_site_type_symbol
_atom_site_label
_atom_site_fract_x
_atom_site_fract_y
_atom_site_fract_z
Si Si1 0.623425 0.479877 0.969051
Si Si2 0.892229 0.467201 0.651661
Si Si3 0.344539 0.260831 0.707642
Si Si4 0.562786 0.176885 0.191587
Si Si5 0.811804 0.001565 0.996505
Si Si6 0.174473 0.111755 0.559783
Si Si7 0.858368 0.624912 0.613201
Si Si8 0.288179 0.213957 0.167710
O O1 0.660112 0.538964 0.745345
O O2 0.500000 0.500000 0.000000
O O3 0.457591 0.344825 0.046717
O O4 0.916719 0.538237 0.121775
O O5 0.596190 0.349258 0.634497
O O6 0.902697 0.560319 0.614961
O O7 0.000000 0.500000 0.500000
O O8 0.458480 0.227561 0.951315
O O9 0.108072 0.155447 0.599396
O O10 0.249590 0.323803 0.614593
O O11 0.438308 0.059811 0.189579
O O12 0.427615 0.164253 0.285370
O O13 0.868505 0.270923 0.278151
O O14 0.697509 0.920767 0.193160
O O15 0.008849 0.127831 0.018865
O O16 0.000000 0.000000 0.000000
O O17 0.272070 0.204079 0.358267
O O18 0.000000 0.000000 0.500000
#
# Coordination Sequence:
#
# PCOD9078416 Si02
#       8
#     2   2   2   2   2   2   2   2
#     4  12  24  40  64  95 135 175 224 269 332 399
#     4  12  24  40  60  93 128 170 218 269 327 394
#     4  11  23  40  65  94 130 172 221 269 329 392
#     4  10  20  39  66  92 127 168 218 267 332 389
#     4   8  17  33  62  92 119 168 214 259 324 388
#     4   9  18  35  63  92 126 169 216 266 327 381
#     4  12  24  43  66  96 135 178 218 278 332 392
#     4  10  18  35  62  89 127 174 208 268 333 376
#
# _framework density 23.205479
#
# number of rings (size 3 to 8) (size 9 to 14) (size 15 to 20)
#    0.000    1.500    2.500    3.750    0.000    1.000 
#    0.000    0.000    2.750   28.500    0.000    0.000 
#    0.000    0.000    0.000    0.000    0.000    0.000 
#
# Total GULP energy -89087.946484 kJ/mol
# GULP energy per Si atom -5567.996655 kJ/mol
# Density = 2.315266 g / cm^3
# Si number density = 23.205479 Si / 1000 Ang^3
#
#
#
# Elastic Constant Matrix: (Units=GPa)
#
#
# Indices 1 2 3 4 5 6 
#
# 1 78.0779 17.6561 23.2804 5.6606 -6.9064 -8.8590
# 2 17.6561 123.5226 24.6537 31.2240 -2.9179 4.0537
# 3 23.2804 24.6537 86.4536 8.6571 -6.9299 3.9775
# 4 5.6606 31.2240 8.6571 38.7386 0.2434 -14.0597
# 5 -6.9064 -2.9179 -6.9299 0.2434 37.0826 -2.0302
# 6 -8.8590 4.0537 3.9775 -14.0597 -2.0302 31.7686
#
#
#
# Elastic Compliance Matrix: (Units=1/GPa)
#
#
# Indices 1 2 3 4 5 6 
#
# 1 0.015184 -0.002257 -0.003832 0.002752 0.002265 0.006365
# 2 -0.002257 0.011800 -0.001290 -0.011449 -0.000043 -0.007043
# 3 -0.003832 -0.001290 0.013541 -0.002792 0.001529 -0.003737
# 4 0.002752 -0.011449 -0.002792 0.043126 -0.000007 0.021664
# 5 0.002265 -0.000043 0.001529 -0.000007 0.027792 0.002219
# 6 0.006365 -0.007043 -0.003737 0.021664 0.002219 0.044348
#
#
# Mechanical properties :
#
#
# Convention : Reuss Voigt Hill
#
# Bulk Modulus (GPa) = 38.81023 46.58162 42.69593
# Shear Modulus (GPa) = 27.91146 36.34889 32.13018
#
# Velocity S-wave (km/s) = 3.47190 3.96206 3.72505
# Velocity P-wave (km/s) = 5.73001 6.40685 6.07786
#
# Compressibility (1/GPa) = 0.02576640
#
# Stress axis : x y z
#
# Youngs Moduli (GPa) = 65.86082 84.74672 73.85066
#
# Poissons Ratio (x) = 0.19124 0.28300
# Poissons Ratio (y) = 0.14862 0.09529
# Poissons Ratio (z) = 0.25238 0.10935
#
# Static dielectric constant tensor:
#      x y z
#    x 1.897550 0.010060 -0.023140 
#    y 0.010060 2.011870 -0.025220 
#    z -0.023140 -0.025220 1.936010 
# 
# From -- ./inp_files/223518.got.cif
#   From: 2010.05.17/outbox.cif.g08.bks.cpg/sg2_112_cif.got.tgz:223518.got - 2010.06.03 11:33:40.
