data_PCOD9078472
_publ_section_title
;
Structure prediction by ZEFSAII (Michael W. Deem and Ramdas Pophale) SiO2 
 PCOD9078472
Probable space group: P -1
;
_chemical_formula_sum "Si O2"
_cell_formula_units_Z 14
_cell_length_a 9.423946
_cell_length_b 9.470894
_cell_length_c 10.250396
_cell_angle_alpha 77.981241
_cell_angle_beta 138.049060
_cell_angle_gamma 107.974744
_cell_volume 581.416221
_symmetry_space_group_name_H-M "P -1"
_symmetry_group_IT_number 2
_symmetry_cell_setting 'triclinic'
loop_
_space_group_symop_operation_xyz
x,y,z
-x,-y,-z
loop_
_atom_site_type_symbol
_atom_site_label
_atom_site_fract_x
_atom_site_fract_y
_atom_site_fract_z
Si Si1 0.735993 0.300091 0.417315
Si Si2 0.985331 0.218211 0.365438
Si Si3 0.437491 0.490611 0.111695
Si Si4 0.003793 0.225519 0.859443
Si Si5 0.863468 0.341627 0.993518
Si Si6 0.651577 0.923032 0.930946
Si Si7 0.653476 0.890300 0.225465
O O1 0.882710 0.308601 0.386008
O O2 0.635901 0.443579 0.331300
O O3 0.523300 0.165145 0.274741
O O4 0.872116 0.261372 0.637987
O O5 0.985195 0.288921 0.210025
O O6 0.216767 0.196913 0.577113
O O7 0.824468 0.052982 0.290949
O O8 0.500000 0.500000 0.000000
O O9 0.224139 0.354649 0.997984
O O10 0.355936 0.623138 0.100989
O O11 0.101779 0.080604 0.934619
O O12 0.864093 0.235270 0.890264
O O13 0.000000 0.500000 0.000000
O O14 0.561918 0.067243 0.875381
O O15 0.618226 0.834466 0.063939
#
# Coordination Sequence:
#
# PCOD9078472 Si02
#       7
#     2   2   2   2   2   2   2
#     4  10  19  34  62  87 114 157 204 244 287 360
#     4  10  18  35  63  89 116 157 206 241 296 352
#     4  10  20  37  60  86 115 154 211 247 286 351
#     4  10  21  37  60  86 123 159 189 251 309 347
#     4  10  22  40  58  88 128 159 189 248 308 355
#     4   9  18  35  60  88 120 147 198 251 296 343
#     4   9  18  33  63  93 111 154 207 255 280 346
#
# _framework density 24.079136999999999
#
# number of rings (size 3 to 8) (size 9 to 14) (size 15 to 20)
#    0.000    2.286    2.857    0.000    0.000    1.143 
#    0.000    1.429   28.286    0.000    0.000    0.000 
#    0.000    0.000    0.000    0.000    0.000    0.000 
#
# Total GULP energy -78280.867770 kJ/mol
# GULP energy per Si atom -5591.490555 kJ/mol
# Density = 2.402433 g / cm^3
# Si number density = 24.079137 Si / 1000 Ang^3
#
#
#
# Elastic Constant Matrix: (Units=GPa)
#
#
# Indices 1 2 3 4 5 6 
#
# 1 165.2070 36.9394 66.6364 -18.8912 -12.0801 -27.8302
# 2 36.9394 81.2005 38.3184 -19.6872 2.9344 -31.9247
# 3 66.6364 38.3184 192.6929 -31.6176 15.2842 -18.6205
# 4 -18.8912 -19.6872 -31.6176 36.0088 -2.9996 7.7903
# 5 -12.0801 2.9344 15.2842 -2.9996 43.0401 -10.2300
# 6 -27.8302 -31.9247 -18.6205 7.7903 -10.2300 62.2672
#
#
#
# Elastic Compliance Matrix: (Units=1/GPa)
#
#
# Indices 1 2 3 4 5 6 
#
# 1 0.008233 -0.001373 -0.002433 0.001168 0.004006 0.002760
# 2 -0.001373 0.018125 -0.001437 0.006370 0.001149 0.007641
# 3 -0.002433 -0.001437 0.007166 0.004129 -0.003006 -0.000692
# 4 0.001168 0.006370 0.004129 0.035416 0.001078 0.000769
# 5 0.004006 0.001149 -0.003006 0.001078 0.026789 0.005747
# 6 0.002760 0.007641 -0.000692 0.000769 0.005747 0.021852
#
#
# Mechanical properties :
#
#
# Convention : Reuss Voigt Hill
#
# Bulk Modulus (GPa) = 43.40898 80.32097 61.86498
# Shear Modulus (GPa) = 36.83323 48.07697 42.45510
#
# Velocity S-wave (km/s) = 3.91535 4.47321 4.20354
# Velocity P-wave (km/s) = 6.20538 7.75300 7.02195
#
# Compressibility (1/GPa) = 0.02303671
#
# Stress axis : x y z
#
# Youngs Moduli (GPa) = 121.46182 55.17200 139.54867
#
# Poissons Ratio (x) = 0.07578 0.33957
# Poissons Ratio (y) = 0.16683 0.20052
# Poissons Ratio (z) = 0.29556 0.07928
#
# Static dielectric constant tensor:
#      x y z
#    x 1.932290 0.012860 0.022230 
#    y 0.012860 2.195870 0.040300 
#    z 0.022230 0.040300 1.834160 
# 
# From -- ./inp_files/178401.got.cif
#   From: 2010.05.17/outbox.cif.g08.bks.cpg/sg2_90_cif.got.tgz:178401.got - 2010.06.03 11:33:40.
