data_PCOD9078176
_publ_section_title
;
Structure prediction by ZEFSAII (Michael W. Deem and Ramdas Pophale) SiO2 
 PCOD9078176
Probable space group: P -1
;
_chemical_formula_sum "Si O2"
_cell_formula_units_Z 16
_cell_length_a 8.963925
_cell_length_b 14.236000
_cell_length_c 7.131368
_cell_angle_alpha 73.074638
_cell_angle_beta 53.940370
_cell_angle_gamma 51.773541
_cell_volume 574.086279
_symmetry_space_group_name_H-M "P -1"
_symmetry_group_IT_number 2
_symmetry_cell_setting 'triclinic'
loop_
_space_group_symop_operation_xyz
x,y,z
-x,-y,-z
loop_
_atom_site_type_symbol
_atom_site_label
_atom_site_fract_x
_atom_site_fract_y
_atom_site_fract_z
Si Si1 0.296025 0.194574 0.587326
Si Si2 0.103464 0.545049 0.238828
Si Si3 0.621205 0.496748 0.605851
Si Si4 0.968738 0.922442 0.784674
Si Si5 0.658300 0.242949 0.149947
Si Si6 0.626929 0.099875 0.677616
Si Si7 0.927119 0.748398 0.661575
Si Si8 0.409967 0.310236 0.931256
O O1 0.494096 0.201174 0.345916
O O2 0.437288 0.098377 0.703383
O O3 0.161161 0.191428 0.513867
O O4 0.105345 0.324503 0.743740
O O5 0.285641 0.550742 0.218087
O O6 0.232505 0.451275 0.027911
O O7 0.000000 0.500000 0.500000
O O8 0.500000 0.500000 0.500000
O O9 0.455005 0.635848 0.714391
O O10 0.874006 0.392803 0.403657
O O11 0.079564 0.856023 0.937799
O O12 0.142711 0.954940 0.576559
O O13 0.992540 0.820069 0.694956
O O14 0.718526 0.034443 0.848463
O O15 0.609542 0.272294 0.950494
O O16 0.528213 0.241288 0.693840
O O17 0.721574 0.749382 0.895315
#
# Coordination Sequence:
#
# PCOD9078176 Si02
#       8
#     2   2   2   2   2   2   2   2
#     4   9  17  33  53  76 105 141 168 207 259 326
#     4  10  15  30  54  82 101 131 173 207 257 325
#     4  10  15  25  51  86  99 123 164 222 255 304
#     4  10  21  37  53  74 102 149 179 210 256 320
#     4   9  16  31  55  77 103 136 174 210 259 310
#     4  10  23  37  50  73 112 142 176 209 267 307
#     4  10  18  32  59  80  98 133 185 216 252 307
#     4  10  19  34  55  83 103 132 174 228 251 303
#
# _framework density 27.870373000000001
#
# number of rings (size 3 to 8) (size 9 to 14) (size 15 to 20)
#    0.000    2.250    6.250    0.000    0.000    2.000 
#    0.000    1.250    0.000    3.750    0.000    0.000 
#    0.000    0.000    0.000    0.000    0.000    0.000 
#
# Total GULP energy -89078.360845 kJ/mol
# GULP energy per Si atom -5567.397553 kJ/mol
# Density = 2.780694 g / cm^3
# Si number density = 27.870373 Si / 1000 Ang^3
#
#
#
# Elastic Constant Matrix: (Units=GPa)
#
#
# Indices 1 2 3 4 5 6 
#
# 1 168.9420 46.6010 21.3242 -10.4402 4.6478 -48.3588
# 2 46.6010 82.1175 27.0295 1.9156 -14.4610 -43.5974
# 3 21.3242 27.0295 55.0048 2.3031 -6.7897 -6.2771
# 4 -10.4402 1.9156 2.3031 23.5625 1.2929 -9.0261
# 5 4.6478 -14.4610 -6.7897 1.2929 25.4819 7.2852
# 6 -48.3588 -43.5974 -6.2771 -9.0261 7.2852 69.6899
#
#
#
# Elastic Compliance Matrix: (Units=1/GPa)
#
#
# Indices 1 2 3 4 5 6 
#
# 1 0.009339 -0.002138 -0.002871 0.007391 -0.005903 0.006459
# 2 -0.002138 0.024172 -0.008733 0.002199 0.008157 0.012284
# 3 -0.002871 -0.008733 0.023571 -0.005563 0.003980 -0.006469
# 4 0.007391 0.002199 -0.005563 0.051712 -0.008078 0.013546
# 5 -0.005903 0.008157 0.003980 -0.008078 0.047756 -0.004673
# 6 0.006459 0.012284 -0.006469 0.013546 -0.004673 0.028176
#
#
# Mechanical properties :
#
#
# Convention : Reuss Voigt Hill
#
# Bulk Modulus (GPa) = 33.78529 55.10818 44.44674
# Shear Modulus (GPa) = 22.51477 37.82085 30.16781
#
# Velocity S-wave (km/s) = 2.84533 3.68778 3.29360
# Velocity P-wave (km/s) = 4.78990 6.16027 5.51779
#
# Compressibility (1/GPa) = 0.02959868
#
# Stress axis : x y z
#
# Youngs Moduli (GPa) = 107.07489 41.36963 42.42558
#
# Poissons Ratio (x) = 0.08843 0.12181
# Poissons Ratio (y) = 0.22888 0.37050
# Poissons Ratio (z) = 0.30744 0.36128
#
# Static dielectric constant tensor:
#      x y z
#    x 2.194270 0.049790 -0.009820 
#    y 0.049790 2.308810 -0.065040 
#    z -0.009820 -0.065040 2.284420 
# 
# From -- ./inp_files/212742.got.cif
#   From: 2010.05.17/outbox.cif.g08.bks.cpg/sg2_107_cif.got.tgz:212742.got - 2010.06.03 11:33:40.
