data_PCOD9078486
_publ_section_title
;
Structure prediction by ZEFSAII (Michael W. Deem and Ramdas Pophale) SiO2 
 PCOD9078486
Probable space group: P -1
;
_chemical_formula_sum "Si O2"
_cell_formula_units_Z 16
_cell_length_a 8.498851
_cell_length_b 18.790023
_cell_length_c 9.183475
_cell_angle_alpha 34.420143
_cell_angle_beta 128.042655
_cell_angle_gamma 126.374011
_cell_volume 640.933402
_symmetry_space_group_name_H-M "P -1"
_symmetry_group_IT_number 2
_symmetry_cell_setting 'triclinic'
loop_
_space_group_symop_operation_xyz
x,y,z
-x,-y,-z
loop_
_atom_site_type_symbol
_atom_site_label
_atom_site_fract_x
_atom_site_fract_y
_atom_site_fract_z
Si Si1 0.466280 0.584129 0.975073
Si Si2 0.137758 0.233194 0.160818
Si Si3 0.634946 0.823570 0.318404
Si Si4 0.876149 0.361260 0.989949
Si Si5 0.028849 0.947487 0.874557
Si Si6 0.765384 0.601795 0.624348
Si Si7 0.316098 0.892800 0.529518
Si Si8 0.731254 0.222738 0.602221
O O1 0.669164 0.687170 0.947390
O O2 0.277768 0.643060 0.705929
O O3 0.500000 0.500000 0.000000
O O4 0.411112 0.493395 0.230858
O O5 0.237387 0.207158 0.415467
O O6 0.972204 0.316686 0.972728
O O7 0.040844 0.105868 0.234093
O O8 0.683851 0.736351 0.358269
O O9 0.405543 0.793457 0.301917
O O10 0.742742 0.970907 0.112191
O O11 0.717541 0.236282 0.172604
O O12 0.043753 0.375758 0.191902
O O13 0.812647 0.500008 0.703009
O O14 0.049025 0.813940 0.190121
O O15 0.882108 0.040183 0.688558
O O16 0.365935 0.863497 0.442316
O O17 0.500000 0.000000 0.500000
#
# Coordination Sequence:
#
# PCOD9078486 Si02
#       8
#     2   2   2   2   2   2   2   2
#     4  11  18  38  65  90 114 157 216 250 294 367
#     4  10  21  36  63  90 119 158 204 256 296 357
#     4  10  20  39  64  90 114 167 205 255 296 373
#     4  10  20  34  60  94 111 154 205 259 294 344
#     4  12  24  41  57  92 131 156 203 253 320 363
#     4  10  18  35  63  91 115 145 217 254 292 347
#     4  12  24  39  61  91 125 164 207 252 298 367
#     4  11  24  38  61  93 122 165 195 257 317 359
#
# _framework density 24.963591000000001
#
# number of rings (size 3 to 8) (size 9 to 14) (size 15 to 20)
#    0.000    1.250    7.500    2.625    1.750    0.000 
#    0.000    0.625    0.000    0.750    0.000    0.000 
#    0.000    0.000    0.000    0.000    0.000    0.000 
#
# Total GULP energy -89242.963558 kJ/mol
# GULP energy per Si atom -5577.685222 kJ/mol
# Density = 2.490677 g / cm^3
# Si number density = 24.963591 Si / 1000 Ang^3
#
#
#
# Elastic Constant Matrix: (Units=GPa)
#
#
# Indices 1 2 3 4 5 6 
#
# 1 103.2705 23.1639 12.8364 -20.0550 19.8738 4.2320
# 2 23.1639 60.2434 41.7797 -24.3725 -0.0121 7.7748
# 3 12.8364 41.7797 67.0678 -21.6566 27.7462 -2.6423
# 4 -20.0550 -24.3725 -21.6566 31.4004 -5.8853 3.9646
# 5 19.8738 -0.0121 27.7462 -5.8853 32.9571 -24.2589
# 6 4.2320 7.7748 -2.6423 3.9646 -24.2589 25.4788
#
#
#
# Elastic Compliance Matrix: (Units=1/GPa)
#
#
# Indices 1 2 3 4 5 6 
#
# 1 0.003080 0.006383 -0.016788 -0.002136 0.030253 0.024936
# 2 0.006383 0.031795 -0.000589 0.028133 -0.031776 -0.045455
# 3 -0.016788 -0.000589 -0.010876 -0.014781 0.065810 0.066799
# 4 -0.002136 0.028133 -0.014781 0.046410 0.031848 0.013339
# 5 0.030253 -0.031776 0.065810 0.031848 -0.109688 -0.097895
# 6 0.024936 -0.045455 0.066799 0.013339 -0.097895 -0.039379
#
#
# Mechanical properties :
#
#
# Convention : Reuss Voigt Hill
#
# Bulk Modulus (GPa) = 497.85555 42.90464 270.38010
# Shear Modulus (GPa) = -89.28772 28.15403 -30.56685
#
# Velocity S-wave (km/s) = -5.98705 3.36192 -3.50302
# Velocity P-wave (km/s) = 12.33177 5.68280 9.60122
#
# Compressibility (1/GPa) = 0.00200861
#
# Stress axis : x y z
#
# Youngs Moduli (GPa) = 324.68621 31.45112 -91.94252
#
# Poissons Ratio (x) = -0.20074 -1.54357
# Poissons Ratio (y) = -2.07232 -0.05418
# Poissons Ratio (z) = 5.45096 0.01853
#
# Static dielectric constant tensor:
#      x y z
#    x 2.168340 -0.007000 -0.023200 
#    y -0.007000 1.959250 -0.046730 
#    z -0.023200 -0.046730 2.098510 
# 
# From -- ./inp_files/404598.got.cif
#   From: 2010.05.17/outbox.cif.g08.bks.cpg/sg2_203_cif.got.tgz:404598.got - 2010.06.03 11:33:40.
