data_PCOD9078380
_publ_section_title
;
Structure prediction by ZEFSAII (Michael W. Deem and Ramdas Pophale) SiO2 
 PCOD9078380
Probable space group: P -1
;
_chemical_formula_sum "Si O2"
_cell_formula_units_Z 14
_cell_length_a 9.077682
_cell_length_b 7.357560
_cell_length_c 14.490907
_cell_angle_alpha 72.923904
_cell_angle_beta 63.253148
_cell_angle_gamma 46.841091
_cell_volume 630.311815
_symmetry_space_group_name_H-M "P -1"
_symmetry_group_IT_number 2
_symmetry_cell_setting 'triclinic'
loop_
_space_group_symop_operation_xyz
x,y,z
-x,-y,-z
loop_
_atom_site_type_symbol
_atom_site_label
_atom_site_fract_x
_atom_site_fract_y
_atom_site_fract_z
Si Si1 0.688017 0.171799 0.902671
Si Si2 0.224773 0.448624 0.447653
Si Si3 0.680561 0.910594 0.773690
Si Si4 0.612214 0.971266 0.311186
Si Si5 0.095793 0.795405 0.584285
Si Si6 0.988258 0.847388 0.305036
Si Si7 0.561287 0.269023 0.121874
O O1 0.650053 0.031885 0.862213
O O2 0.494759 0.469302 0.904263
O O3 0.897340 0.125271 0.813163
O O4 0.697318 0.112962 0.016241
O O5 0.419101 0.168406 0.405025
O O6 0.255026 0.537733 0.522090
O O7 0.000000 0.500000 0.500000
O O8 0.180852 0.634787 0.350390
O O9 0.487881 0.097785 0.725730
O O10 0.655177 0.702880 0.825392
O O11 0.901455 0.816480 0.680013
O O12 0.656990 0.124602 0.211879
O O13 0.837621 0.784853 0.326646
O O14 0.158768 0.895711 0.632008
O O15 0.000000 0.000000 0.500000
#
# Coordination Sequence:
#
# PCOD9078380 Si02
#       7
#     2   2   2   2   2   2   2
#     4  10  18  35  62  78 113 152 183 230 283 333
#     4  11  19  37  56  75 112 147 182 233 271 330
#     4   9  18  35  55  82 112 147 188 230 275 338
#     4  10  21  35  56  84 111 144 189 227 282 330
#     4   9  19  34  56  78 108 149 186 222 282 329
#     4  10  21  36  55  83 111 144 184 237 278 328
#     4   9  19  34  59  84 107 151 190 222 286 337
#
# _framework density 22.211227000000001
#
# number of rings (size 3 to 8) (size 9 to 14) (size 15 to 20)
#    0.857    1.429    2.857    0.429    0.000    1.714 
#    0.000    1.429    0.000    1.714    0.000    0.000 
#    0.000    0.000    0.000    0.000    0.000    0.000 
#
# Total GULP energy -78018.466585 kJ/mol
# GULP energy per Si atom -5572.747613 kJ/mol
# Density = 2.216067 g / cm^3
# Si number density = 22.211227 Si / 1000 Ang^3
#
#
#
# Elastic Constant Matrix: (Units=GPa)
#
#
# Indices 1 2 3 4 5 6 
#
# 1 59.3314 6.5319 3.4314 13.2633 8.1365 -3.0899
# 2 6.5319 25.9559 10.7515 2.0484 11.5982 8.0084
# 3 3.4314 10.7515 122.1757 10.1948 13.7777 2.0361
# 4 13.2633 2.0484 10.1948 28.1572 13.3985 1.1632
# 5 8.1365 11.5982 13.7777 13.3985 31.0999 3.0062
# 6 -3.0899 8.0084 2.0361 1.1632 3.0062 26.9073
#
#
#
# Elastic Compliance Matrix: (Units=1/GPa)
#
#
# Indices 1 2 3 4 5 6 
#
# 1 0.019774 -0.006057 0.000645 -0.009514 0.000475 0.004383
# 2 -0.006057 0.054053 -0.002909 0.010226 -0.020266 -0.014741
# 3 0.000645 -0.002909 0.008839 -0.002343 -0.002049 0.000601
# 4 -0.009514 0.010226 -0.002343 0.050591 -0.021723 -0.003719
# 5 0.000475 -0.020266 -0.002049 -0.021723 0.049697 0.001628
# 6 0.004383 -0.014741 0.000601 -0.003719 0.001628 0.041989
#
#
# Mechanical properties :
#
#
# Convention : Reuss Voigt Hill
#
# Bulk Modulus (GPa) = 15.14602 27.65474 21.40038
# Shear Modulus (GPa) = 18.96863 29.68276 24.32570
#
# Velocity S-wave (km/s) = 2.92552 3.65963 3.31297
# Velocity P-wave (km/s) = 4.27147 5.50772 4.92851
#
# Compressibility (1/GPa) = 0.06602394
#
# Stress axis : x y z
#
# Youngs Moduli (GPa) = 50.57141 18.50045 113.13132
#
# Poissons Ratio (x) = 0.11206 -0.07296
# Poissons Ratio (y) = 0.30632 0.32908
# Poissons Ratio (z) = -0.03262 0.05382
#
# Static dielectric constant tensor:
#      x y z
#    x 1.827980 0.011360 0.024690 
#    y 0.011360 1.881060 -0.017160 
#    z 0.024690 -0.017160 1.850460 
# 
# From -- ./inp_files/200589.got.cif
#   From: 2010.05.17/outbox.cif.g08.bks.cpg/sg2_101_cif.got.tgz:200589.got - 2010.06.03 11:33:40.
