data_PCOD9078423
_publ_section_title
;
Structure prediction by ZEFSAII (Michael W. Deem and Ramdas Pophale) SiO2 
 PCOD9078423
Probable space group: P -1
;
_chemical_formula_sum "Si O2"
_cell_formula_units_Z 14
_cell_length_a 9.601244
_cell_length_b 15.177693
_cell_length_c 9.483458
_cell_angle_alpha 146.437089
_cell_angle_beta 58.502937
_cell_angle_gamma 128.922368
_cell_volume 594.410121
_symmetry_space_group_name_H-M "P -1"
_symmetry_group_IT_number 2
_symmetry_cell_setting 'triclinic'
loop_
_space_group_symop_operation_xyz
x,y,z
-x,-y,-z
loop_
_atom_site_type_symbol
_atom_site_label
_atom_site_fract_x
_atom_site_fract_y
_atom_site_fract_z
Si Si1 0.937663 0.659029 0.891841
Si Si2 0.541536 0.098349 0.315964
Si Si3 0.035817 0.039642 0.367985
Si Si4 0.819096 0.985518 0.154841
Si Si5 0.341648 0.329511 0.717674
Si Si6 0.683886 0.276650 0.173162
Si Si7 0.348824 0.422575 0.292184
O O1 0.823456 0.574897 0.702031
O O2 0.101262 0.626238 0.823315
O O3 0.045072 0.864679 0.072955
O O4 0.789373 0.637584 0.059779
O O5 0.440050 0.215015 0.581999
O O6 0.611787 0.187819 0.245969
O O7 0.713060 0.094702 0.298412
O O8 0.401193 0.895202 0.108099
O O9 0.879276 0.047418 0.366065
O O10 0.000000 0.000000 0.500000
O O11 0.218510 0.208695 0.495754
O O12 0.696987 0.779082 0.928191
O O13 0.000000 0.000000 0.000000
O O14 0.486782 0.500056 0.799340
O O15 0.622036 0.435732 0.411411
#
# Coordination Sequence:
#
# PCOD9078423 Si02
#       7
#     2   2   2   2   2   2   2
#     4  10  18  35  62  91 116 163 218 252 301 379
#     4  10  21  37  62  96 123 161 213 268 314 368
#     4   9  19  38  62  86 122 172 205 243 318 390
#     4  11  24  40  63  96 131 161 213 272 321 370
#     4  10  20  38  67  88 122 170 215 252 311 393
#     4  10  20  36  64  91 127 166 213 256 317 385
#     4  10  22  36  59  93 127 164 207 266 314 375
#
# _framework density 23.552761
#
# number of rings (size 3 to 8) (size 9 to 14) (size 15 to 20)
#    0.000    2.000    1.429    2.571    4.000    1.714 
#    0.000    6.429    0.000    2.571    0.000   12.000 
#    0.000    0.000    0.000    0.000    0.000    0.000 
#
# Total GULP energy -78129.837059 kJ/mol
# GULP energy per Si atom -5580.702647 kJ/mol
# Density = 2.349915 g / cm^3
# Si number density = 23.552761 Si / 1000 Ang^3
#
#
#
# Elastic Constant Matrix: (Units=GPa)
#
#
# Indices 1 2 3 4 5 6 
#
# 1 87.0777 27.5175 15.8510 -11.2241 -27.4128 6.6168
# 2 27.5175 90.7979 41.1653 3.1025 -11.0057 24.7188
# 3 15.8510 41.1653 85.6634 9.8310 -3.3454 10.1105
# 4 -11.2241 3.1025 9.8310 40.2198 10.3726 -3.8048
# 5 -27.4128 -11.0057 -3.3454 10.3726 38.5207 -1.3974
# 6 6.6168 24.7188 10.1105 -3.8048 -1.3974 30.9489
#
#
#
# Elastic Compliance Matrix: (Units=1/GPa)
#
#
# Indices 1 2 3 4 5 6 
#
# 1 0.016147 -0.003282 -0.001376 0.002619 0.009742 0.000380
# 2 -0.003282 0.018751 -0.006539 -0.002631 0.002715 -0.012339
# 3 -0.001376 -0.006539 0.015450 -0.003510 -0.000560 0.000013
# 4 0.002619 -0.002631 -0.003510 0.028965 -0.006777 0.005943
# 5 0.009742 0.002715 -0.000560 -0.006777 0.035325 -0.003306
# 6 0.000380 -0.012339 0.000013 0.005943 -0.003306 0.042663
#
#
# Mechanical properties :
#
#
# Convention : Reuss Voigt Hill
#
# Bulk Modulus (GPa) = 35.77235 48.06740 41.91988
# Shear Modulus (GPa) = 26.45321 33.87158 30.16239
#
# Velocity S-wave (km/s) = 3.35497 3.79636 3.58247
# Velocity P-wave (km/s) = 5.49809 6.29835 5.91177
#
# Compressibility (1/GPa) = 0.02795455
#
# Stress axis : x y z
#
# Youngs Moduli (GPa) = 61.92997 53.33043 64.72500
#
# Poissons Ratio (x) = 0.17504 0.08904
# Poissons Ratio (y) = 0.20326 0.42324
# Poissons Ratio (z) = 0.08519 0.34873
#
# Static dielectric constant tensor:
#      x y z
#    x 2.014460 -0.002500 0.048980 
#    y -0.002500 1.896170 -0.007700 
#    z 0.048980 -0.007700 1.936160 
# 
# From -- ./inp_files/403532.got.cif
#   From: 2010.05.17/outbox.cif.g08.bks.cpg/sg2_202_cif.got.tgz:403532.got - 2010.06.03 11:33:40.
