data_PCOD9078554
_publ_section_title
;
Structure prediction by ZEFSAII (Michael W. Deem and Ramdas Pophale) SiO2 
 PCOD9078554
Probable space group: P -1
;
_chemical_formula_sum "Si O2"
_cell_formula_units_Z 14
_cell_length_a 14.859079
_cell_length_b 9.702408
_cell_length_c 19.145688
_cell_angle_alpha 32.636604
_cell_angle_beta 151.096305
_cell_angle_gamma 140.395481
_cell_volume 713.622823
_symmetry_space_group_name_H-M "P -1"
_symmetry_group_IT_number 2
_symmetry_cell_setting 'triclinic'
loop_
_space_group_symop_operation_xyz
x,y,z
-x,-y,-z
loop_
_atom_site_type_symbol
_atom_site_label
_atom_site_fract_x
_atom_site_fract_y
_atom_site_fract_z
Si Si1 0.422041 0.085442 0.682245
Si Si2 0.443010 0.692771 0.087653
Si Si3 0.890486 0.587593 0.083247
Si Si4 0.324088 0.487608 0.554677
Si Si5 0.904632 0.374155 0.339198
Si Si6 0.717507 0.120615 0.749922
Si Si7 0.614511 0.677657 0.061082
O O1 0.366234 0.326818 0.583142
O O2 0.532701 0.129565 0.666452
O O3 0.233571 0.885152 0.628871
O O4 0.565624 0.955338 0.886245
O O5 0.523086 0.546934 0.268689
O O6 0.535637 0.616474 0.110267
O O7 0.221361 0.603265 0.966414
O O8 0.500000 0.000000 0.000000
O O9 0.884288 0.436480 0.216784
O O10 0.106520 0.701753 0.170294
O O11 0.779089 0.836064 0.909844
O O12 0.305751 0.767971 0.391044
O O13 0.123657 0.368833 0.501346
O O14 0.823736 0.607147 0.225392
O O15 0.500000 0.500000 0.000000
#
# Coordination Sequence:
#
# PCOD9078554 Si02
#       7
#     2   2   2   2   2   2   2
#     4  11  18  37  63  89 117 161 210 249 294 360
#     4  12  22  39  63  94 127 155 198 264 313 345
#     4  10  19  39  62  89 117 166 210 239 296 372
#     4  11  24  35  56  94 129 153 193 258 318 347
#     4  10  19  37  64  89 112 160 217 249 280 364
#     4  10  22  37  63  87 122 166 207 241 293 379
#     4  10  18  35  65  87 109 159 211 240 285 359
#
# _framework density 19.618207999999999
#
# number of rings (size 3 to 8) (size 9 to 14) (size 15 to 20)
#    0.000    1.429    5.714    1.714    0.000    2.286 
#    0.000    0.714    3.143    0.000    0.000    0.000 
#    0.000    0.000    0.000    0.000    0.000    0.000 
#
# Total GULP energy -78120.995104 kJ/mol
# GULP energy per Si atom -5580.071079 kJ/mol
# Density = 1.957356 g / cm^3
# Si number density = 19.618208 Si / 1000 Ang^3
#
#
#
# Elastic Constant Matrix: (Units=GPa)
#
#
# Indices 1 2 3 4 5 6 
#
# 1 76.1531 17.6229 1.5369 3.5026 3.4833 16.7685
# 2 17.6229 77.9783 20.4645 7.7643 -3.1684 19.0179
# 3 1.5369 20.4645 55.6150 3.9500 -10.6456 3.7792
# 4 3.5026 7.7643 3.9500 13.0746 -4.4348 6.2763
# 5 3.4833 -3.1684 -10.6456 -4.4348 27.6001 -3.4731
# 6 16.7685 19.0179 3.7792 6.2763 -3.4731 30.5704
#
#
#
# Elastic Compliance Matrix: (Units=1/GPa)
#
#
# Indices 1 2 3 4 5 6 
#
# 1 0.015374 -0.001735 0.000173 -0.000541 -0.003119 -0.007619
# 2 -0.001735 0.017111 -0.005704 -0.004626 -0.001797 -0.008243
# 3 0.000173 -0.005704 0.021508 -0.001518 0.007623 0.001973
# 4 -0.000541 -0.004626 -0.001518 0.090481 0.011744 -0.013880
# 5 -0.003119 -0.001797 0.007623 0.011744 0.041778 0.004222
# 6 -0.007619 -0.008243 0.001973 -0.013880 0.004222 0.045103
#
#
# Mechanical properties :
#
#
# Convention : Reuss Voigt Hill
#
# Bulk Modulus (GPa) = 25.34097 32.11054 28.72576
# Shear Modulus (GPa) = 19.30200 25.59051 22.44625
#
# Velocity S-wave (km/s) = 3.14009 3.61560 3.38620
# Velocity P-wave (km/s) = 5.10803 5.81665 5.47382
#
# Compressibility (1/GPa) = 0.03946179
#
# Stress axis : x y z
#
# Youngs Moduli (GPa) = 65.04287 58.44261 46.49479
#
# Poissons Ratio (x) = 0.10138 -0.00803
# Poissons Ratio (y) = 0.11282 0.26519
# Poissons Ratio (z) = -0.01123 0.33334
#
# Static dielectric constant tensor:
#      x y z
#    x 1.692120 0.009800 0.033220 
#    y 0.009800 1.728390 -0.022320 
#    z 0.033220 -0.022320 1.725980 
# 
# From -- ./inp_files/237510.got.cif
#   From: 2010.05.17/outbox.cif.g08.bks.cpg/sg2_119_cif.got.tgz:237510.got - 2010.06.03 11:33:40.
