data_PCOD9078878
_publ_section_title
;
Structure prediction by ZEFSAII (Michael W. Deem and Ramdas Pophale) SiO2 
 PCOD9078878
Probable space group: P -1
;
_chemical_formula_sum "Si O2"
_cell_formula_units_Z 16
_cell_length_a 12.145046
_cell_length_b 8.160329
_cell_length_c 11.513660
_cell_angle_alpha 36.535677
_cell_angle_beta 82.123530
_cell_angle_gamma 84.816791
_cell_volume 672.530935
_symmetry_space_group_name_H-M "P -1"
_symmetry_group_IT_number 2
_symmetry_cell_setting 'triclinic'
loop_
_space_group_symop_operation_xyz
x,y,z
-x,-y,-z
loop_
_atom_site_type_symbol
_atom_site_label
_atom_site_fract_x
_atom_site_fract_y
_atom_site_fract_z
Si Si1 0.522484 0.336203 0.904373
Si Si2 0.495757 0.074368 0.298316
Si Si3 0.075363 0.444663 0.722831
Si Si4 0.715299 0.667823 0.129591
Si Si5 0.112743 0.193201 0.521322
Si Si6 0.236023 0.737019 0.187566
Si Si7 0.309325 0.912661 0.579797
Si Si8 0.928119 0.120898 0.076349
O O1 0.518498 0.628326 0.806247
O O2 0.416465 0.301930 0.855007
O O3 0.638271 0.320788 0.831365
O O4 0.506366 0.116278 0.136482
O O5 0.609667 0.967854 0.398342
O O6 0.388464 0.906776 0.458282
O O7 0.207386 0.431009 0.719373
O O8 0.036807 0.184711 0.796543
O O9 0.009469 0.713834 0.548631
O O10 0.026214 0.343807 0.912221
O O11 0.721905 0.400456 0.199967
O O12 0.762345 0.969458 0.914967
O O13 0.172728 0.474020 0.402749
O O14 0.106687 0.941897 0.753636
O O15 0.201742 0.090826 0.473058
O O16 0.170581 0.788908 0.045763
#
# Coordination Sequence:
#
# PCOD9078878 Si02
#       8
#     2   2   2   2   2   2   2   2
#     4  10  18  36  60  82 110 152 187 226 283 338
#     4   9  19  35  58  81 111 149 191 227 276 339
#     4   9  20  38  56  83 119 146 185 234 282 328
#     4  10  22  38  53  80 127 146 170 242 292 319
#     4  11  20  36  66  83 105 154 200 225 270 340
#     4  10  20  37  59  88 115 144 190 235 278 335
#     4  10  20  37  56  83 114 145 188 237 276 332
#     4   9  19  37  61  85 110 148 191 237 273 328
#
# _framework density 23.790725999999999
#
# number of rings (size 3 to 8) (size 9 to 14) (size 15 to 20)
#    0.000    2.250    1.250    2.250    0.000    0.500 
#    6.750    1.250    0.000    0.000    0.000    0.000 
#    0.000    0.000    0.000    0.000    0.000    0.000 
#
# Total GULP energy -89207.858694 kJ/mol
# GULP energy per Si atom -5575.491168 kJ/mol
# Density = 2.373658 g / cm^3
# Si number density = 23.790726 Si / 1000 Ang^3
#
#
#
# Elastic Constant Matrix: (Units=GPa)
#
#
# Indices 1 2 3 4 5 6 
#
# 1 139.0652 15.5321 21.0175 4.5397 19.0483 -3.7583
# 2 15.5321 35.6496 11.4575 -13.8143 0.2367 -4.3383
# 3 21.0175 11.4575 91.7281 4.6833 -2.3629 4.8707
# 4 4.5397 -13.8143 4.6833 25.9526 -2.0446 -0.9517
# 5 19.0483 0.2367 -2.3629 -2.0446 30.2788 -14.8162
# 6 -3.7583 -4.3383 4.8707 -0.9517 -14.8162 20.6215
#
#
#
# Elastic Compliance Matrix: (Units=1/GPa)
#
#
# Indices 1 2 3 4 5 6 
#
# 1 0.009459 -0.007041 -0.000856 -0.006266 -0.009730 -0.006836
# 2 -0.007041 0.047817 -0.006740 0.030167 0.017460 0.024305
# 3 -0.000856 -0.006740 0.012528 -0.006069 -0.001845 -0.006139
# 4 -0.006266 0.030167 -0.006069 0.059037 0.018198 0.022438
# 5 -0.009730 0.017460 -0.001845 0.018198 0.064232 0.049325
# 6 -0.006836 0.024305 -0.006139 0.022438 0.049325 0.090285
#
#
# Mechanical properties :
#
#
# Convention : Reuss Voigt Hill
#
# Bulk Modulus (GPa) = 24.67352 40.27301 32.47327
# Shear Modulus (GPa) = 15.33069 29.93297 22.63183
#
# Velocity S-wave (km/s) = 2.54125 3.55093 3.08764
# Velocity P-wave (km/s) = 4.35938 5.81179 5.13717
#
# Compressibility (1/GPa) = 0.04052928
#
# Stress axis : x y z
#
# Youngs Moduli (GPa) = 105.71656 20.91315 79.82083
#
# Poissons Ratio (x) = 0.14726 0.06830
# Poissons Ratio (y) = 0.74440 0.53802
# Poissons Ratio (z) = 0.09046 0.14096
#
# Static dielectric constant tensor:
#      x y z
#    x 1.991170 0.018910 -0.029460 
#    y 0.018910 1.932330 -0.020680 
#    z -0.029460 -0.020680 1.965130 
# 
# From -- ./inp_files/416088.got.cif
#   From: 2010.05.17/outbox.cif.g08.bks.cpg/sg2_209_cif.got.tgz:416088.got - 2010.06.03 11:33:40.
