data_PCOD9078576
_publ_section_title
;
Structure prediction by ZEFSAII (Michael W. Deem and Ramdas Pophale) SiO2 
 PCOD9078576
Probable space group: P -1
;
_chemical_formula_sum "Si O2"
_cell_formula_units_Z 16
_cell_length_a 12.206271
_cell_length_b 8.501864
_cell_length_c 13.666499
_cell_angle_alpha 107.042600
_cell_angle_beta 111.709619
_cell_angle_gamma 131.092573
_cell_volume 638.604172
_symmetry_space_group_name_H-M "P -1"
_symmetry_group_IT_number 2
_symmetry_cell_setting 'triclinic'
loop_
_space_group_symop_operation_xyz
x,y,z
-x,-y,-z
loop_
_atom_site_type_symbol
_atom_site_label
_atom_site_fract_x
_atom_site_fract_y
_atom_site_fract_z
Si Si1 0.536574 0.258222 0.708766
Si Si2 0.517791 0.875025 0.107352
Si Si3 0.394135 0.723469 0.531824
Si Si4 0.050955 0.727549 0.616797
Si Si5 0.220871 0.991461 0.384206
Si Si6 0.977861 0.809231 0.853364
Si Si7 0.847607 0.807812 0.204139
Si Si8 0.873854 0.337212 0.036512
O O1 0.488399 0.197880 0.795840
O O2 0.329276 0.080137 0.541629
O O3 0.779740 0.637178 0.830820
O O4 0.538702 0.066076 0.645466
O O5 0.787723 0.167766 0.225595
O O6 0.363683 0.572816 0.932693
O O7 0.378460 0.879276 0.073598
O O8 0.562711 0.774917 0.576433
O O9 0.199412 0.488951 0.339067
O O10 0.214672 0.519529 0.522653
O O11 0.000000 0.500000 0.500000
O O12 0.177240 0.058208 0.716410
O O13 0.085294 0.998100 0.341046
O O14 0.036987 0.639636 0.217505
O O15 0.123318 0.848914 0.966112
O O16 0.120161 0.097591 0.881484
O O17 0.000000 0.500000 0.000000
#
# Coordination Sequence:
#
# PCOD9078576 Si02
#       8
#     2   2   2   2   2   2   2   2
#     4  11  18  35  64  95 130 158 206 256 315 370
#     4  11  23  40  63  92 129 168 201 262 313 367
#     4  10  18  35  65  94 123 159 217 256 299 361
#     4  11  23  41  66  87 124 174 219 244 299 381
#     4  10  20  38  65  96 127 159 202 268 319 362
#     4  10  19  35  61  94 126 160 202 258 311 374
#     4  10  25  42  63  95 131 160 203 263 327 358
#     4  11  19  35  62  95 124 163 207 252 314 373
#
# _framework density 25.054646000000002
#
# number of rings (size 3 to 8) (size 9 to 14) (size 15 to 20)
#    0.000    1.500    5.000    1.125    0.000    5.000 
#    0.000    4.375    2.750    0.000    0.000    0.000 
#    0.000    0.000    0.000    0.000    0.000    0.000 
#
# Total GULP energy -89131.815236 kJ/mol
# GULP energy per Si atom -5570.738452 kJ/mol
# Density = 2.499762 g / cm^3
# Si number density = 25.054646 Si / 1000 Ang^3
#
#
#
# Elastic Constant Matrix: (Units=GPa)
#
#
# Indices 1 2 3 4 5 6 
#
# 1 158.4099 11.8595 53.7452 -3.3027 31.1616 -28.7849
# 2 11.8595 40.1281 12.2785 -5.4784 4.5124 -6.5824
# 3 53.7452 12.2785 109.5375 4.0202 27.4142 -14.2189
# 4 -3.3027 -5.4784 4.0202 36.8009 -3.6707 9.9796
# 5 31.1616 4.5124 27.4142 -3.6707 55.6165 -5.6374
# 6 -28.7849 -6.5824 -14.2189 9.9796 -5.6374 30.2786
#
#
#
# Elastic Compliance Matrix: (Units=1/GPa)
#
#
# Indices 1 2 3 4 5 6 
#
# 1 0.009146 -0.000527 -0.002676 -0.001213 -0.003119 0.007143
# 2 -0.000527 0.026797 -0.002437 0.003368 -0.000147 0.003042
# 3 -0.002676 -0.002437 0.012282 -0.003169 -0.004268 0.002943
# 4 -0.001213 0.003368 -0.003169 0.031374 0.002851 -0.011719
# 5 -0.003119 -0.000147 -0.004268 0.002851 0.021841 -0.001874
# 6 0.007143 0.003042 0.002943 -0.011719 -0.001874 0.045375
#
#
# Mechanical properties :
#
#
# Convention : Reuss Voigt Hill
#
# Bulk Modulus (GPa) = 27.06801 51.53797 39.30299
# Shear Modulus (GPa) = 29.34065 39.88535 34.61300
#
# Velocity S-wave (km/s) = 3.42580 3.99423 3.72089
# Velocity P-wave (km/s) = 5.14540 6.47200 5.84645
#
# Compressibility (1/GPa) = 0.03694398
#
# Stress axis : x y z
#
# Youngs Moduli (GPa) = 109.33233 37.31743 81.41980
#
# Poissons Ratio (x) = 0.01968 0.21791
# Poissons Ratio (y) = 0.05767 0.19842
# Poissons Ratio (z) = 0.29261 0.09094
#
# Static dielectric constant tensor:
#      x y z
#    x 6.280210 3.738480 1.021140 
#    y 3.738480 5.173740 0.867890 
#    z 1.021140 0.867890 2.244560 
# 
# From -- ./inp_files/463579.got.cif
#   From: 2010.05.17/outbox.cif.g08.bks.cpg/sg2_232_cif.got.tgz:463579.got - 2010.06.03 11:33:40.
