data_PCOD9078711
_publ_section_title
;
Structure prediction by ZEFSAII (Michael W. Deem and Ramdas Pophale) SiO2 
 PCOD9078711
Probable space group: P -1
;
_chemical_formula_sum "Si O2"
_cell_formula_units_Z 14
_cell_length_a 14.444370
_cell_length_b 9.260368
_cell_length_c 11.554601
_cell_angle_alpha 55.248994
_cell_angle_beta 29.815937
_cell_angle_gamma 71.880836
_cell_volume 564.075026
_symmetry_space_group_name_H-M "P -1"
_symmetry_group_IT_number 2
_symmetry_cell_setting 'triclinic'
loop_
_space_group_symop_operation_xyz
x,y,z
-x,-y,-z
loop_
_atom_site_type_symbol
_atom_site_label
_atom_site_fract_x
_atom_site_fract_y
_atom_site_fract_z
Si Si1 0.581993 0.651316 0.734343
Si Si2 0.646855 0.828549 0.220424
Si Si3 0.772328 0.489670 0.236439
Si Si4 0.227531 0.709635 0.457293
Si Si5 0.843342 0.557674 0.790827
Si Si6 0.978039 0.225446 0.734865
Si Si7 0.488108 0.073150 0.148901
O O1 0.822759 0.711906 0.427069
O O2 0.571400 0.845244 0.709728
O O3 0.500000 0.500000 0.000000
O O4 0.404918 0.538744 0.883736
O O5 0.750156 0.685557 0.148575
O O6 0.400427 0.684730 0.574300
O O7 0.626646 0.961514 0.078739
O O8 0.805826 0.004155 0.048116
O O9 0.705893 0.420486 0.472594
O O10 0.000000 0.500000 0.000000
O O11 0.989300 0.627536 0.712804
O O12 0.294559 0.914464 0.359924
O O13 0.366081 0.753467 0.172290
O O14 0.926710 0.725988 0.522671
O O15 0.880669 0.375730 0.787135
#
# Coordination Sequence:
#
# PCOD9078711 Si02
#       7
#     2   2   2   2   2   2   2
#     4  10  20  33  57  93 123 156 192 235 297 362
#     4  10  20  39  62  85 112 163 198 234 293 354
#     4  10  24  41  59  83 122 161 199 239 296 361
#     4  10  20  36  61  88 122 149 192 256 301 333
#     4  10  18  36  56  90 125 149 188 251 296 342
#     4  10  19  33  63  86 118 160 195 232 297 358
#     4  10  19  37  62  90 118 153 198 247 294 349
#
# _framework density 24.819393999999999
#
# number of rings (size 3 to 8) (size 9 to 14) (size 15 to 20)
#    0.000    2.000    2.857    1.714    4.000    0.000 
#    0.000   20.000    0.000    1.714    0.000    0.000 
#    0.000    0.000    0.000    0.000    0.000    0.000 
#
# Total GULP energy -78135.428894 kJ/mol
# GULP energy per Si atom -5581.102064 kJ/mol
# Density = 2.476290 g / cm^3
# Si number density = 24.819394 Si / 1000 Ang^3
#
#
#
# Elastic Constant Matrix: (Units=GPa)
#
#
# Indices 1 2 3 4 5 6 
#
# 1 78.4253 6.0049 20.4529 -0.1028 -26.1207 -14.4459
# 2 6.0049 92.3269 49.5987 -6.8284 -3.5331 -19.3816
# 3 20.4529 49.5987 129.0566 -2.2360 -61.5902 -1.4454
# 4 -0.1028 -6.8284 -2.2360 37.1638 -4.7212 -6.2359
# 5 -26.1207 -3.5331 -61.5902 -4.7212 62.4770 -4.1590
# 6 -14.4459 -19.3816 -1.4454 -6.2359 -4.1590 27.0427
#
#
#
# Elastic Compliance Matrix: (Units=1/GPa)
#
#
# Indices 1 2 3 4 5 6 
#
# 1 0.018211 0.001206 0.002083 0.004019 0.010925 0.013311
# 2 0.001206 0.020038 -0.011870 0.004197 -0.008816 0.013983
# 3 0.002083 -0.011870 0.022786 0.001684 0.022636 -0.002307
# 4 0.004019 0.004197 0.001684 0.030908 0.006807 0.013419
# 5 0.010925 -0.008816 0.022636 0.006807 0.043502 0.008987
# 6 0.013311 0.013983 -0.002307 0.013419 0.008987 0.058464
#
#
# Mechanical properties :
#
#
# Convention : Reuss Voigt Hill
#
# Bulk Modulus (GPa) = 22.79278 50.21355 36.50317
# Shear Modulus (GPa) = 22.15366 40.25351 31.20359
#
# Velocity S-wave (km/s) = 2.99087 4.03160 3.54958
# Velocity P-wave (km/s) = 4.59679 6.47667 5.61595
#
# Compressibility (1/GPa) = 0.04387353
#
# Stress axis : x y z
#
# Youngs Moduli (GPa) = 54.91078 49.90589 43.88584
#
# Poissons Ratio (x) = -0.06020 -0.09141
# Poissons Ratio (y) = -0.06623 0.52093
# Poissons Ratio (z) = -0.11437 0.59238
#
# Static dielectric constant tensor:
#      x y z
#    x 2.059540 0.025860 0.018160 
#    y 0.025860 1.929980 0.001450 
#    z 0.018160 0.001450 2.094160 
# 
# From -- ./inp_files/532315.got.cif
#   From: 2010.05.17/outbox.cif.g08.bks.cpg/sg2_267_cif.got.tgz:532315.got - 2010.06.03 11:33:40.
