data_PCOD9078606
_publ_section_title
;
Structure prediction by ZEFSAII (Michael W. Deem and Ramdas Pophale) SiO2 
 PCOD9078606
Probable space group: P -1
;
_chemical_formula_sum "Si O2"
_cell_formula_units_Z 16
_cell_length_a 12.986984
_cell_length_b 9.465571
_cell_length_c 8.636026
_cell_angle_alpha 145.459470
_cell_angle_beta 80.710644
_cell_angle_gamma 104.169253
_cell_volume 582.050586
_symmetry_space_group_name_H-M "P -1"
_symmetry_group_IT_number 2
_symmetry_cell_setting 'triclinic'
loop_
_space_group_symop_operation_xyz
x,y,z
-x,-y,-z
loop_
_atom_site_type_symbol
_atom_site_label
_atom_site_fract_x
_atom_site_fract_y
_atom_site_fract_z
Si Si1 0.352613 0.168552 0.689150
Si Si2 0.988025 0.936035 0.190447
Si Si3 0.199176 0.753555 0.494515
Si Si4 0.153940 0.401232 0.888686
Si Si5 0.337344 0.235692 0.245488
Si Si6 0.501436 0.470834 0.173824
Si Si7 0.694223 0.320386 0.111083
Si Si8 0.128754 0.299901 0.282092
O O1 0.242694 0.223029 0.692554
O O2 0.444005 0.231478 0.591874
O O3 0.314852 0.917051 0.572696
O O4 0.410741 0.376054 0.985116
O O5 0.964306 0.761722 0.193193
O O6 0.891709 0.085369 0.353903
O O7 0.964395 0.769825 0.887093
O O8 0.088463 0.156306 0.322079
O O9 0.172805 0.600113 0.522709
O O10 0.180792 0.547056 0.175370
O O11 0.188952 0.607919 0.932038
O O12 0.443009 0.368371 0.252416
O O13 0.315724 0.447395 0.563344
O O14 0.234779 0.196631 0.121178
O O15 0.334149 0.957548 0.061218
O O16 0.603532 0.336078 0.019281
#
# Coordination Sequence:
#
# PCOD9078606 Si02
#       8
#     2   2   2   2   2   2   2   2
#     4   9  20  38  64  95 125 154 205 274 322 368
#     4   9  19  38  66  96 123 155 197 273 321 381
#     4  10  18  35  67  91 124 156 198 268 328 373
#     4   9  20  39  61  94 122 163 208 259 317 373
#     4  12  26  45  63  91 129 177 212 261 303 380
#     4  10  21  43  63  93 124 165 218 259 322 371
#     4  11  27  44  65  87 130 176 220 254 307 372
#     4  10  22  38  62  97 126 155 211 253 331 375
#
# _framework density 27.48902
#
# number of rings (size 3 to 8) (size 9 to 14) (size 15 to 20)
#    0.000    2.000    0.000    3.375    8.750    0.000 
#    4.500    3.750    0.000    0.000    0.000    0.000 
#    0.000    0.000    0.000    0.000    0.000    0.000 
#
# Total GULP energy -89339.621024 kJ/mol
# GULP energy per Si atom -5583.726314 kJ/mol
# Density = 2.742645 g / cm^3
# Si number density = 27.489020 Si / 1000 Ang^3
#
#
#
# Elastic Constant Matrix: (Units=GPa)
#
#
# Indices 1 2 3 4 5 6 
#
# 1 78.0961 46.3470 17.3038 16.6060 8.9792 31.4230
# 2 46.3470 260.8941 54.5896 53.3809 4.9215 81.6765
# 3 17.3038 54.5896 94.3067 21.2059 16.9740 9.8998
# 4 16.6060 53.3809 21.2059 35.9276 5.7617 19.7258
# 5 8.9792 4.9215 16.9740 5.7617 31.6481 6.2827
# 6 31.4230 81.6765 9.8998 19.7258 6.2827 73.0696
#
#
#
# Elastic Compliance Matrix: (Units=1/GPa)
#
#
# Indices 1 2 3 4 5 6 
#
# 1 0.016375 -0.000243 -0.001169 -0.003083 -0.002312 -0.005581
# 2 -0.000243 0.007918 -0.002844 -0.006710 0.002935 -0.006802
# 3 -0.001169 -0.002844 0.014339 -0.004559 -0.006792 0.003554
# 4 -0.003083 -0.006710 -0.004559 0.043546 -0.003159 -0.002040
# 5 -0.002312 0.002935 -0.006792 -0.003159 0.036744 -0.003673
# 6 -0.005581 -0.006802 0.003554 -0.002040 -0.003673 0.024074
#
#
# Mechanical properties :
#
#
# Convention : Reuss Voigt Hill
#
# Bulk Modulus (GPa) = 33.19987 74.41974 53.80981
# Shear Modulus (GPa) = 30.95041 49.13283 40.04162
#
# Velocity S-wave (km/s) = 3.35911 4.23231 3.82074
# Velocity P-wave (km/s) = 5.21043 7.14245 6.25152
#
# Compressibility (1/GPa) = 0.03012060
#
# Stress axis : x y z
#
# Youngs Moduli (GPa) = 61.06958 126.28966 69.73851
#
# Poissons Ratio (x) = 0.03065 0.08151
# Poissons Ratio (y) = 0.01482 0.19837
# Poissons Ratio (z) = 0.07138 0.35922
#
# Static dielectric constant tensor:
#      x y z
#    x 2.113350 -0.037970 0.049070 
#    y -0.037970 2.365280 -0.025050 
#    z 0.049070 -0.025050 2.202210 
# 
# From -- ./inp_files/38912.got.cif
#   From: 2010.05.17/outbox.cif.g08.bks.cpg/sg2_20_cif.got.tgz:38912.got - 2010.06.03 11:33:40.
