data_PCOD9078334
_publ_section_title
;
Structure prediction by ZEFSAII (Michael W. Deem and Ramdas Pophale) SiO2 
 PCOD9078334
Probable space group: P -1
;
_chemical_formula_sum "Si O2"
_cell_formula_units_Z 16
_cell_length_a 9.473544
_cell_length_b 14.809034
_cell_length_c 9.537993
_cell_angle_alpha 40.628371
_cell_angle_beta 112.048711
_cell_angle_gamma 102.743909
_cell_volume 802.997187
_symmetry_space_group_name_H-M "P -1"
_symmetry_group_IT_number 2
_symmetry_cell_setting 'triclinic'
loop_
_space_group_symop_operation_xyz
x,y,z
-x,-y,-z
loop_
_atom_site_type_symbol
_atom_site_label
_atom_site_fract_x
_atom_site_fract_y
_atom_site_fract_z
Si Si1 0.151402 0.582400 0.445729
Si Si2 0.022452 0.892283 0.007007
Si Si3 0.318625 0.130556 0.173213
Si Si4 0.302896 0.973379 0.878061
Si Si5 0.594832 0.797005 0.168912
Si Si6 0.536172 0.858034 0.496075
Si Si7 0.466051 0.551913 0.767777
Si Si8 0.657213 0.508614 0.633259
O O1 0.101150 0.744503 0.265553
O O2 0.298538 0.533854 0.658357
O O3 0.210564 0.568977 0.321398
O O4 0.000000 0.500000 0.500000
O O5 0.860393 0.869219 0.909434
O O6 0.129732 0.947233 0.862237
O O7 0.000000 0.000000 0.000000
O O8 0.368772 0.180879 0.282283
O O9 0.400950 0.974614 0.357698
O O10 0.375181 0.223176 0.959409
O O11 0.341870 0.060183 0.927814
O O12 0.358516 0.063267 0.664335
O O13 0.413874 0.828918 0.089087
O O14 0.678857 0.672171 0.434968
O O15 0.478781 0.719354 0.574572
O O16 0.604742 0.481206 0.803517
O O17 0.500000 0.500000 0.000000
O O18 0.500000 0.500000 0.500000
#
# Coordination Sequence:
#
# PCOD9078334 Si02
#       8
#     2   2   2   2   2   2   2   2
#     4  11  26  43  66  99 133 166 219 270 319 382
#     4  12  23  39  67  96 126 165 216 264 326 372
#     4  10  22  37  64  91 125 161 202 268 318 377
#     4  10  20  34  62  88 121 159 208 265 307 377
#     4  10  18  35  61  87 118 161 210 257 309 366
#     4  10  22  41  60  94 127 160 215 256 321 382
#     4  11  24  42  68  91 128 176 217 259 322 388
#     4  10  21  38  62  91 125 168 219 259 310 389
#
# _framework density 19.925350000000002
#
# number of rings (size 3 to 8) (size 9 to 14) (size 15 to 20)
#    0.000    1.500    2.500    3.000    7.000    0.500 
#    2.250    0.625    2.750    0.000    0.000    0.000 
#    0.000    0.000    0.000    0.000    0.000    0.000 
#
# Total GULP energy -89280.691889 kJ/mol
# GULP energy per Si atom -5580.043243 kJ/mol
# Density = 1.988000 g / cm^3
# Si number density = 19.925350 Si / 1000 Ang^3
#
#
#
# Elastic Constant Matrix: (Units=GPa)
#
#
# Indices 1 2 3 4 5 6 
#
# 1 128.4683 46.3078 40.3098 2.1691 1.8871 -3.6885
# 2 46.3078 87.8892 30.5427 2.2676 -1.4519 -10.6639
# 3 40.3098 30.5427 79.1972 14.4919 -8.7116 -8.0016
# 4 2.1691 2.2676 14.4919 44.3539 -3.7409 -0.9619
# 5 1.8871 -1.4519 -8.7116 -3.7409 27.5868 4.2420
# 6 -3.6885 -10.6639 -8.0016 -0.9619 4.2420 29.0995
#
#
#
# Elastic Compliance Matrix: (Units=1/GPa)
#
#
# Indices 1 2 3 4 5 6 
#
# 1 0.010661 -0.004327 -0.004252 0.000896 -0.002012 -0.001081
# 2 -0.004327 0.015349 -0.003461 0.000603 -0.000557 0.004226
# 3 -0.004252 -0.003461 0.017780 -0.004979 0.004705 0.002231
# 4 0.000896 0.000603 -0.004979 0.024236 0.001760 -0.000490
# 5 -0.002012 -0.000557 0.004705 0.001760 0.038815 -0.004766
# 6 -0.001081 0.004226 0.002231 -0.000490 -0.004766 0.037068
#
#
# Mechanical properties :
#
#
# Convention : Reuss Voigt Hill
#
# Bulk Modulus (GPa) = 50.73938 58.87503 54.80720
# Shear Modulus (GPa) = 28.64339 32.10102 30.37220
#
# Velocity S-wave (km/s) = 3.79560 4.01816 3.90846
# Velocity P-wave (km/s) = 6.68796 7.15118 6.92345
#
# Compressibility (1/GPa) = 0.01970856
#
# Stress axis : x y z
#
# Youngs Moduli (GPa) = 93.79634 65.15181 56.24307
#
# Poissons Ratio (x) = 0.28192 0.23915
# Poissons Ratio (y) = 0.40587 0.19469
# Poissons Ratio (z) = 0.39883 0.22552
#
# Static dielectric constant tensor:
#      x y z
#    x 1.727550 0.016110 -0.048200 
#    y 0.016110 1.808610 -0.088570 
#    z -0.048200 -0.088570 1.791190 
# 
# From -- ./inp_files/205382.got.cif
#   From: 2010.05.17/outbox.cif.g08.bks.cpg/sg2_103_cif.got.tgz:205382.got - 2010.06.03 11:33:40.
