data_PCOD9078673
_publ_section_title
;
Structure prediction by ZEFSAII (Michael W. Deem and Ramdas Pophale) SiO2 
 PCOD9078673
Probable space group: P -1
;
_chemical_formula_sum "Si O2"
_cell_formula_units_Z 16
_cell_length_a 8.984396
_cell_length_b 16.630783
_cell_length_c 9.054846
_cell_angle_alpha 94.863018
_cell_angle_beta 80.680382
_cell_angle_gamma 141.414217
_cell_volume 830.755343
_symmetry_space_group_name_H-M "P -1"
_symmetry_group_IT_number 2
_symmetry_cell_setting 'triclinic'
loop_
_space_group_symop_operation_xyz
x,y,z
-x,-y,-z
loop_
_atom_site_type_symbol
_atom_site_label
_atom_site_fract_x
_atom_site_fract_y
_atom_site_fract_z
Si Si1 0.249652 0.836241 0.855067
Si Si2 0.072286 0.450247 0.076848
Si Si3 0.636478 0.518664 0.203895
Si Si4 0.798698 0.098092 0.813702
Si Si5 0.762054 0.400058 0.626297
Si Si6 0.742779 0.737818 0.367726
Si Si7 0.105599 0.275235 0.356141
Si Si8 0.056266 0.684214 0.363464
O O1 0.146247 0.703069 0.878869
O O2 0.110588 0.821167 0.739866
O O3 0.535917 0.953005 0.802523
O O4 0.198149 0.867289 0.014957
O O5 0.181889 0.526299 0.224225
O O6 0.000000 0.500000 0.000000
O O7 0.264211 0.472226 0.965284
O O8 0.672946 0.625889 0.271640
O O9 0.357555 0.383906 0.247413
O O10 0.823415 0.553476 0.292392
O O11 0.840393 0.194720 0.719185
O O12 0.025375 0.135593 0.743218
O O13 0.507290 0.320210 0.589072
O O14 0.742331 0.298484 0.659096
O O15 0.000000 0.500000 0.500000
O O16 0.844061 0.763227 0.520204
O O17 0.044279 0.331455 0.464416
#
# Coordination Sequence:
#
# PCOD9078673 Si02
#       8
#     2   2   2   2   2   2   2   2
#     4  11  20  38  61  87 108 156 202 237 289 344
#     4  12  23  36  61  89 121 150 187 249 294 355
#     4  10  18  36  55  86 118 145 192 234 291 341
#     4   9  21  39  63  79 116 151 203 246 276 341
#     4  12  23  36  59  91 126 156 184 236 307 348
#     4  10  21  37  58  87 118 157 189 246 279 341
#     4  10  21  34  62  85 118 150 196 240 279 354
#     4  10  19  40  56  86 122 157 184 237 291 348
#
# _framework density 19.259581000000001
#
# number of rings (size 3 to 8) (size 9 to 14) (size 15 to 20)
#    0.000    1.750    3.750    4.500    1.750    3.000 
#    0.000    0.000    2.750    6.000    0.000    0.000 
#    0.000    0.000    0.000    0.000    0.000    0.000 
#
# Total GULP energy -89142.698171 kJ/mol
# GULP energy per Si atom -5571.418636 kJ/mol
# Density = 1.921575 g / cm^3
# Si number density = 19.259581 Si / 1000 Ang^3
#
#
#
# Elastic Constant Matrix: (Units=GPa)
#
#
# Indices 1 2 3 4 5 6 
#
# 1 106.6709 37.5014 42.5239 2.2263 -3.3593 26.8848
# 2 37.5014 75.9571 33.5148 -7.0615 1.5879 31.6339
# 3 42.5239 33.5148 105.2372 -0.5364 -2.6476 23.5308
# 4 2.2263 -7.0615 -0.5364 19.3905 12.1204 -5.7927
# 5 -3.3593 1.5879 -2.6476 12.1204 26.1270 -0.9353
# 6 26.8848 31.6339 23.5308 -5.7927 -0.9353 30.3271
#
#
#
# Elastic Compliance Matrix: (Units=1/GPa)
#
#
# Indices 1 2 3 4 5 6 
#
# 1 0.014078 -0.003085 -0.002662 -0.008878 0.005534 -0.008722
# 2 -0.003085 0.024971 -0.002271 0.007177 -0.006203 -0.020371
# 3 -0.002662 -0.002271 0.012602 -0.003374 0.002437 -0.005619
# 4 -0.008878 0.007177 -0.003374 0.086404 -0.041350 0.018232
# 5 0.005534 -0.006203 0.002437 -0.041350 0.058563 -0.006419
# 6 -0.008722 -0.020371 -0.005619 0.018232 -0.006419 0.069599
#
#
# Mechanical properties :
#
#
# Convention : Reuss Voigt Hill
#
# Bulk Modulus (GPa) = 28.07691 57.21617 42.64654
# Shear Modulus (GPa) = 16.99967 26.79061 21.89514
#
# Velocity S-wave (km/s) = 2.97418 3.73369 3.37537
# Velocity P-wave (km/s) = 5.13850 6.95411 6.11408
#
# Compressibility (1/GPa) = 0.03561645
#
# Stress axis : x y z
#
# Youngs Moduli (GPa) = 71.03186 40.04644 79.35533
#
# Poissons Ratio (x) = 0.12352 0.21125
# Poissons Ratio (y) = 0.21910 0.18018
# Poissons Ratio (z) = 0.18909 0.09093
#
# Static dielectric constant tensor:
#      x y z
#    x 1.745560 -0.016490 0.028770 
#    y -0.016490 1.677860 -0.015070 
#    z 0.028770 -0.015070 1.730120 
# 
# From -- ./inp_files/217857.got.cif
#   From: 2010.05.17/outbox.cif.g08.bks.cpg/sg2_109_cif.got.tgz:217857.got - 2010.06.03 11:33:40.
