data_PCOD9078758
_publ_section_title
;
Structure prediction by ZEFSAII (Michael W. Deem and Ramdas Pophale) SiO2 
 PCOD9078758
Probable space group: P -1
;
_chemical_formula_sum "Si O2"
_cell_formula_units_Z 16
_cell_length_a 11.075335
_cell_length_b 21.951703
_cell_length_c 12.195980
_cell_angle_alpha 36.359957
_cell_angle_beta 54.051429
_cell_angle_gamma 28.527638
_cell_volume 759.746760
_symmetry_space_group_name_H-M "P -1"
_symmetry_group_IT_number 2
_symmetry_cell_setting 'triclinic'
loop_
_space_group_symop_operation_xyz
x,y,z
-x,-y,-z
loop_
_atom_site_type_symbol
_atom_site_label
_atom_site_fract_x
_atom_site_fract_y
_atom_site_fract_z
Si Si1 0.059615 0.702222 0.982331
Si Si2 0.654446 0.604643 0.103607
Si Si3 0.689019 0.790061 0.685555
Si Si4 0.453457 0.011257 0.879364
Si Si5 0.489513 0.445917 0.942572
Si Si6 0.412256 0.387693 0.402725
Si Si7 0.603511 0.698187 0.226420
Si Si8 0.746706 0.688156 0.563387
O O1 0.253355 0.545999 0.007709
O O2 0.742440 0.884746 0.855529
O O3 0.217550 0.714949 0.915017
O O4 0.110113 0.606810 0.205018
O O5 0.492105 0.631553 0.062796
O O6 0.545499 0.664664 0.198482
O O7 0.978675 0.380098 0.248939
O O8 0.646366 0.728204 0.890283
O O9 0.628951 0.772920 0.624555
O O10 0.500000 0.000000 0.500000
O O11 0.227890 0.215857 0.648384
O O12 0.430070 0.904726 0.022170
O O13 0.500000 0.000000 0.000000
O O14 0.415233 0.608393 0.716776
O O15 0.432618 0.338048 0.586814
O O16 0.439186 0.275797 0.468369
O O17 0.932346 0.536662 0.273554
#
# Coordination Sequence:
#
# PCOD9078758 Si02
#       8
#     2   2   2   2   2   2   2   2
#     4   9  20  36  61  84 117 149 194 242 279 342
#     4  10  22  37  61  80 115 163 185 239 299 334
#     4  10  22  37  57  87 119 146 198 241 289 350
#     4  12  22  35  62  91 120 148 189 249 301 333
#     4   9  20  38  62  83 115 161 195 232 287 350
#     4  10  18  36  58  80 118 148 193 237 278 342
#     4  11  21  37  57  89 117 148 197 239 289 354
#     4  11  21  34  60  89 113 153 190 247 293 332
#
# _framework density 21.059649
#
# number of rings (size 3 to 8) (size 9 to 14) (size 15 to 20)
#    0.750    1.000    2.500    2.625    5.250    0.500 
#    0.000    1.875    0.000    0.750    0.000    0.000 
#    0.000    0.000    0.000    0.000    0.000    0.000 
#
# Total GULP energy -89186.542740 kJ/mol
# GULP energy per Si atom -5574.158921 kJ/mol
# Density = 2.101172 g / cm^3
# Si number density = 21.059649 Si / 1000 Ang^3
#
#
#
# Elastic Constant Matrix: (Units=GPa)
#
#
# Indices 1 2 3 4 5 6 
#
# 1 65.9116 17.7721 3.8808 8.6860 -0.6304 27.8993
# 2 17.7721 54.1413 19.7612 19.9240 -1.6574 21.2525
# 3 3.8808 19.7612 92.4131 1.5192 -12.9633 10.6194
# 4 8.6860 19.9240 1.5192 34.0562 9.4823 5.5348
# 5 -0.6304 -1.6574 -12.9633 9.4823 24.8282 5.5873
# 6 27.8993 21.2525 10.6194 5.5348 5.5873 33.4849
#
#
#
# Elastic Compliance Matrix: (Units=1/GPa)
#
#
# Indices 1 2 3 4 5 6 
#
# 1 0.025851 0.003645 0.002704 -0.007797 0.010972 -0.025252
# 2 0.003645 0.036434 -0.002683 -0.022412 0.015113 -0.024128
# 3 0.002704 -0.002683 0.013184 -0.001116 0.008544 -0.005972
# 4 -0.007797 -0.022412 -0.001116 0.048601 -0.024701 0.017163
# 5 0.010972 0.015113 0.008544 -0.024701 0.061681 -0.027653
# 6 -0.025252 -0.024128 -0.005972 0.017163 -0.027653 0.069888
#
#
# Mechanical properties :
#
#
# Convention : Reuss Voigt Hill
#
# Bulk Modulus (GPa) = 12.07713 32.81044 22.44378
# Shear Modulus (GPa) = 18.12189 29.87733 23.99961
#
# Velocity S-wave (km/s) = 2.93662 3.77065 3.37946
# Velocity P-wave (km/s) = 4.15277 5.87968 5.09000
#
# Compressibility (1/GPa) = 0.08280114
#
# Stress axis : x y z
#
# Youngs Moduli (GPa) = 38.68331 27.44674 75.84802
#
# Poissons Ratio (x) = -0.10004 -0.20509
# Poissons Ratio (y) = -0.14100 0.20350
# Poissons Ratio (z) = -0.10460 0.07364
#
# Static dielectric constant tensor:
#      x y z
#    x 1.798320 0.000240 -0.026550 
#    y 0.000240 1.780080 -0.010430 
#    z -0.026550 -0.010430 1.799760 
# 
# From -- ./inp_files/438631.got.cif
#   From: 2010.05.17/outbox.cif.g08.bks.cpg/sg2_220_cif.got.tgz:438631.got - 2010.06.03 11:33:40.
