data_PCOD9078364
_publ_section_title
;
Structure prediction by ZEFSAII (Michael W. Deem and Ramdas Pophale) SiO2 
 PCOD9078364
Probable space group: P -1
;
_chemical_formula_sum "Si O2"
_cell_formula_units_Z 12
_cell_length_a 18.172663
_cell_length_b 5.110454
_cell_length_c 9.220816
_cell_angle_alpha 52.983726
_cell_angle_beta 55.302601
_cell_angle_gamma 49.596674
_cell_volume 497.603271
_symmetry_space_group_name_H-M "P -1"
_symmetry_group_IT_number 2
_symmetry_cell_setting 'triclinic'
loop_
_space_group_symop_operation_xyz
x,y,z
-x,-y,-z
loop_
_atom_site_type_symbol
_atom_site_label
_atom_site_fract_x
_atom_site_fract_y
_atom_site_fract_z
Si Si1 0.625258 0.098691 0.449428
Si Si2 0.223610 0.048317 0.440357
Si Si3 0.185159 0.088682 0.871272
Si Si4 0.259368 0.231876 0.021713
Si Si5 0.522747 0.896225 0.179102
Si Si6 0.096666 0.699639 0.573350
O O1 0.553528 0.463296 0.317863
O O2 0.567196 0.913724 0.665135
O O3 0.681610 0.200594 0.482112
O O4 0.718962 0.866683 0.316273
O O5 0.171603 0.442331 0.449145
O O6 0.141163 0.909788 0.554343
O O7 0.258869 0.085320 0.230424
O O8 0.194856 0.129328 0.016503
O O9 0.089855 0.399280 0.789730
O O10 0.208809 0.676578 0.941299
O O11 0.377389 0.070306 0.903376
O O12 0.500000 0.000000 0.000000
O O13 0.000000 0.000000 0.500000
#
# Coordination Sequence:
#
# PCOD9078364 Si02
#       6
#     2   2   2   2   2   2
#     4   9  20  36  60  90 126 173 206 252 306 365
#     4  11  22  41  64  92 126 163 206 254 320 372
#     4  10  22  41  63  87 127 164 208 252 319 368
#     4  11  22  40  62  93 126 167 203 261 306 366
#     4  10  18  35  61  91 128 163 218 252 297 361
#     4  11  23  42  66  90 119 163 209 257 317 383
#
# _framework density 24.115596
#
# number of rings (size 3 to 8) (size 9 to 14) (size 15 to 20)
#    0.000    1.667    1.667    4.500    0.000    0.667 
#    0.000   13.333    0.000    0.000    0.000    0.000 
#    0.000    0.000    0.000    0.000    0.000    0.000 
#
# Total GULP energy -67039.361017 kJ/mol
# GULP energy per Si atom -5586.613418 kJ/mol
# Density = 2.406071 g / cm^3
# Si number density = 24.115596 Si / 1000 Ang^3
#
#
#
# Elastic Constant Matrix: (Units=GPa)
#
#
# Indices 1 2 3 4 5 6 
#
# 1 87.8173 30.7435 17.9925 -18.8285 36.5994 -2.2772
# 2 30.7435 63.8267 16.1183 -10.7414 15.5447 -3.7424
# 3 17.9925 16.1183 127.2800 -9.5876 42.5432 -3.7272
# 4 -18.8285 -10.7414 -9.5876 28.2658 -2.5704 15.1113
# 5 36.5994 15.5447 42.5432 -2.5704 40.3292 -6.0007
# 6 -2.2772 -3.7424 -3.7272 15.1113 -6.0007 31.6380
#
#
#
# Elastic Compliance Matrix: (Units=1/GPa)
#
#
# Indices 1 2 3 4 5 6 
#
# 1 0.035791 -0.005156 0.012366 0.033186 -0.044529 -0.020873
# 2 -0.005156 0.019367 -0.000920 0.003574 -0.001618 -0.000203
# 3 0.012366 -0.000920 0.016963 0.016735 -0.029298 -0.010771
# 4 0.033186 0.003574 0.016735 0.083919 -0.050477 -0.044873
# 5 -0.044529 -0.001618 -0.029298 -0.050477 0.098878 0.036015
# 6 -0.020873 -0.000203 -0.010771 -0.044873 0.036015 0.057076
#
#
# Mechanical properties :
#
#
# Convention : Reuss Voigt Hill
#
# Bulk Modulus (GPa) = 11.80636 45.40363 28.60499
# Shear Modulus (GPa) = 15.26026 34.31792 24.78909
#
# Velocity S-wave (km/s) = 2.51827 3.77644 3.20961
# Velocity P-wave (km/s) = 3.65540 6.15497 5.06190
#
# Compressibility (1/GPa) = 0.08470012
#
# Stress axis : x y z
#
# Youngs Moduli (GPa) = 27.94005 51.63441 58.95134
#
# Poissons Ratio (x) = 0.26625 -0.72897
# Poissons Ratio (y) = 0.14407 0.05422
# Poissons Ratio (z) = -0.34550 0.04749
#
# Static dielectric constant tensor:
#      x y z
#    x 1.918390 -0.052080 -0.044860 
#    y -0.052080 1.979030 0.002030 
#    z -0.044860 0.002030 1.965110 
# 
# From -- ./inp_files/34004.got.cif
#   From: 2010.05.17/outbox.cif.g08.bks.cpg/sg2_18_cif.got.tgz:34004.got - 2010.06.03 11:33:40.
