data_PCOD9078857
_publ_section_title
;
Structure prediction by ZEFSAII (Michael W. Deem and Ramdas Pophale) SiO2 
 PCOD9078857
Probable space group: P -1
;
_chemical_formula_sum "Si O2"
_cell_formula_units_Z 15
_cell_length_a 8.853857
_cell_length_b 7.472884
_cell_length_c 17.132691
_cell_angle_alpha 37.879830
_cell_angle_beta 95.602341
_cell_angle_gamma 111.985064
_cell_volume 605.177598
_symmetry_space_group_name_H-M "P -1"
_symmetry_group_IT_number 2
_symmetry_cell_setting 'triclinic'
loop_
_space_group_symop_operation_xyz
x,y,z
-x,-y,-z
loop_
_atom_site_type_symbol
_atom_site_label
_atom_site_fract_x
_atom_site_fract_y
_atom_site_fract_z
Si Si1 0.098949 0.857526 0.772813
Si Si2 0.844917 0.713687 0.041753
Si Si3 0.762476 0.209135 0.804504
Si Si4 0.726002 0.453913 0.893614
Si Si5 0.500000 0.000000 0.500000
Si Si6 0.482746 0.713478 0.729397
Si Si7 0.577140 0.806709 0.223491
Si Si8 0.892600 0.173828 0.401275
O O1 0.079648 0.498641 0.920548
O O2 0.119843 0.900613 0.666277
O O3 0.906782 0.779510 0.811376
O O4 0.271771 0.113453 0.736148
O O5 0.701476 0.457357 0.181402
O O6 0.745099 0.848191 0.936639
O O7 0.000000 0.000000 0.000000
O O8 0.746765 0.324969 0.852706
O O9 0.605705 0.225284 0.746727
O O10 0.960979 0.441098 0.710779
O O11 0.594595 0.595808 0.824824
O O12 0.650779 0.123679 0.057698
O O13 0.448978 0.927140 0.425966
O O14 0.708761 0.086591 0.458471
O O15 0.457847 0.538117 0.701586
O O16 0.000000 0.000000 0.500000
#
# Coordination Sequence:
#
# PCOD9078857 Si02
#       8
#     2   2   2   2   1   2   2   2
#     4  11  23  35  60  94 126 154 200 261 320 365
#     4  12  18  36  60  89 120 152 205 255 295 371
#     4  10  19  36  61  89 122 159 210 246 304 377
#     4  10  18  36  59  89 121 164 199 243 306 389
#     4  12  22  40  68  90 116 166 228 254 292 366
#     4  11  21  38  64  86 116 162 213 244 296 378
#     4  11  20  36  61  93 125 160 193 261 329 361
#     4  11  23  42  65  92 120 170 217 256 299 382
#
# _framework density 24.786110999999998
#
# number of rings (size 3 to 8) (size 9 to 14) (size 15 to 20)
#    0.000    1.067    6.667    3.600    0.000    0.533 
#    0.000    2.667    0.000    2.400    0.000    0.000 
#    0.000    0.000    0.000    0.000    0.000    0.000 
#
# Total GULP energy -83612.851113 kJ/mol
# GULP energy per Si atom -5574.190074 kJ/mol
# Density = 2.472970 g / cm^3
# Si number density = 24.786111 Si / 1000 Ang^3
#
#
#
# Elastic Constant Matrix: (Units=GPa)
#
#
# Indices 1 2 3 4 5 6 
#
# 1 168.5608 32.0554 48.2154 12.8885 -16.6957 37.8769
# 2 32.0554 82.2559 14.8708 0.3347 -5.7538 35.4696
# 3 48.2154 14.8708 106.4133 11.8834 -22.4551 13.8975
# 4 12.8885 0.3347 11.8834 19.3656 0.3603 1.3852
# 5 -16.6957 -5.7538 -22.4551 0.3603 48.9704 -6.7454
# 6 37.8769 35.4696 13.8975 1.3852 -6.7454 35.8958
#
#
#
# Elastic Compliance Matrix: (Units=1/GPa)
#
#
# Indices 1 2 3 4 5 6 
#
# 1 0.008831 0.000962 -0.002352 -0.003818 0.000826 -0.009056
# 2 0.000962 0.021345 -0.000788 0.001054 -0.000556 -0.021947
# 3 -0.002352 -0.000788 0.012295 -0.006026 0.004736 -0.000377
# 4 -0.003818 0.001054 -0.006026 0.057767 -0.004045 0.002331
# 5 0.000826 -0.000556 0.004736 -0.004045 0.023162 0.002353
# 6 -0.009056 -0.021947 -0.000377 0.002331 0.002353 0.059599
#
#
# Mechanical properties :
#
#
# Convention : Reuss Voigt Hill
#
# Bulk Modulus (GPa) = 26.23611 60.83479 43.53545
# Shear Modulus (GPa) = 24.99237 38.31893 31.65565
#
# Velocity S-wave (km/s) = 3.17885 3.93617 3.57760
# Velocity P-wave (km/s) = 4.90729 6.72719 5.88798
#
# Compressibility (1/GPa) = 0.03811540
#
# Stress axis : x y z
#
# Youngs Moduli (GPa) = 113.23472 46.84851 81.33535
#
# Poissons Ratio (x) = -0.04507 0.19134
# Poissons Ratio (y) = -0.10894 0.06406
# Poissons Ratio (z) = 0.26638 0.03690
#
# Static dielectric constant tensor:
#      x y z
#    x 1.987040 0.024600 -0.073660 
#    y 0.024600 2.076780 0.086880 
#    z -0.073660 0.086880 1.352610 
# 
# From -- ./inp_files/208849.got.cif
#   From: 2010.05.17/outbox.cif.g08.bks.cpg/sg2_105_cif.got.tgz:208849.got - 2010.06.03 11:33:40.
