data_PCOD9078108
_publ_section_title
;
Structure prediction by ZEFSAII (Michael W. Deem and Ramdas Pophale) SiO2 
 PCOD9078108
Probable space group: P -1
;
_chemical_formula_sum "Si O2"
_cell_formula_units_Z 14
_cell_length_a 20.103894
_cell_length_b 18.918519
_cell_length_c 11.708801
_cell_angle_alpha 156.914590
_cell_angle_beta 140.507148
_cell_angle_gamma 23.554381
_cell_volume 620.748843
_symmetry_space_group_name_H-M "P -1"
_symmetry_group_IT_number 2
_symmetry_cell_setting 'triclinic'
loop_
_space_group_symop_operation_xyz
x,y,z
-x,-y,-z
loop_
_atom_site_type_symbol
_atom_site_label
_atom_site_fract_x
_atom_site_fract_y
_atom_site_fract_z
Si Si1 0.292591 0.208687 0.197554
Si Si2 0.572891 0.571722 0.765625
Si Si3 0.949471 0.574219 0.410901
Si Si4 0.176947 0.122811 0.711844
Si Si5 0.552194 0.125589 0.459462
Si Si6 0.482231 0.815713 0.246586
Si Si7 0.106506 0.637056 0.160363
O O1 0.086427 0.509520 0.426044
O O2 0.394177 0.249135 0.360070
O O3 0.277784 0.093464 0.901361
O O4 0.423250 0.933331 0.059203
O O5 0.500000 0.500000 0.500000
O O6 0.782015 0.337005 0.664233
O O7 0.563137 0.582365 0.904899
O O8 0.733575 0.931516 0.652257
O O9 0.000000 0.500000 0.500000
O O10 0.960582 0.365397 0.049041
O O11 0.333725 0.879606 0.460428
O O12 0.062718 0.123159 0.618217
O O13 0.000000 0.500000 0.000000
O O14 0.453094 0.296880 0.704856
O O15 0.724899 0.738551 0.134068
O O16 0.500000 0.000000 0.500000
#
# Coordination Sequence:
#
# PCOD9078108 Si02
#       7
#     2   2   2   2   2   2   2
#     4  10  18  29  49  79 105 134 167 215 256 306
#     4  11  21  34  51  75 108 146 172 202 258 316
#     4  10  15  25  48  73 100 128 159 207 264 288
#     4   9  17  30  48  76 106 130 167 215 269 300
#     4   9  16  28  50  76  99 129 166 215 260 300
#     4  11  17  32  53  74 106 134 166 223 262 292
#     4   8  17  29  46  70 102 137 160 212 252 295
#
# _framework density 22.553404
#
# number of rings (size 3 to 8) (size 9 to 14) (size 15 to 20)
#    0.000    2.286    5.714    1.286    0.000    0.000 
#    0.000    2.857    0.000    1.714    0.000    0.000 
#    0.000    0.000    0.000    0.000    0.000    0.000 
#
# Total GULP energy -78052.154984 kJ/mol
# GULP energy per Si atom -5575.153927 kJ/mol
# Density = 2.250207 g / cm^3
# Si number density = 22.553404 Si / 1000 Ang^3
#
#
#
# Elastic Constant Matrix: (Units=GPa)
#
#
# Indices 1 2 3 4 5 6 
#
# 1 113.1933 44.8395 48.3674 -3.6709 -23.9578 -52.5803
# 2 44.8395 102.4651 28.0241 -15.8501 -1.1274 -40.0184
# 3 48.3674 28.0241 75.9565 -13.7913 -11.9660 -31.0190
# 4 -3.6709 -15.8501 -13.7913 34.9300 2.2426 2.7191
# 5 -23.9578 -1.1274 -11.9660 2.2426 29.8988 5.8753
# 6 -52.5803 -40.0184 -31.0190 2.7191 5.8753 57.1129
#
#
#
# Elastic Compliance Matrix: (Units=1/GPa)
#
#
# Indices 1 2 3 4 5 6 
#
# 1 0.020877 -0.002835 -0.005547 -0.003079 0.012053 0.013127
# 2 -0.002835 0.015040 0.000084 0.006171 -0.003718 0.008062
# 3 -0.005547 0.000084 0.020547 0.006996 0.002165 0.005555
# 4 -0.003079 0.006171 0.006996 0.033735 -0.002744 0.003965
# 5 0.012053 -0.003718 0.002165 -0.002744 0.042980 0.005376
# 6 0.013127 0.008062 0.005555 0.003965 0.005376 0.037519
#
#
# Mechanical properties :
#
#
# Convention : Reuss Voigt Hill
#
# Bulk Modulus (GPa) = 25.08441 59.34186 42.21313
# Shear Modulus (GPa) = 24.92727 35.74726 30.33727
#
# Velocity S-wave (km/s) = 3.32814 3.98553 3.67158
# Velocity P-wave (km/s) = 5.09069 6.89551 6.06066
#
# Compressibility (1/GPa) = 0.03986541
#
# Stress axis : x y z
#
# Youngs Moduli (GPa) = 47.89944 66.49137 48.66923
#
# Poissons Ratio (x) = 0.18853 0.26998
# Poissons Ratio (y) = 0.13582 -0.00407
# Poissons Ratio (z) = 0.26571 -0.00556
#
# Static dielectric constant tensor:
#      x y z
#    x 1.971070 0.037320 0.028540 
#    y 0.037320 1.864300 -0.011390 
#    z 0.028540 -0.011390 1.905980 
# 
# From -- ./inp_files/211355.got.cif
#   From: 2010.05.17/outbox.cif.g08.bks.cpg/sg2_106_cif.got.tgz:211355.got - 2010.06.03 11:33:40.
