data_PCOD9078213
_publ_section_title
;
Structure prediction by ZEFSAII (Michael W. Deem and Ramdas Pophale) SiO2 
 PCOD9078213
Probable space group: P -1
;
_chemical_formula_sum "Si O2"
_cell_formula_units_Z 15
_cell_length_a 6.746053
_cell_length_b 12.937636
_cell_length_c 7.514639
_cell_angle_alpha 83.385298
_cell_angle_beta 108.694718
_cell_angle_gamma 93.975138
_cell_volume 616.757506
_symmetry_space_group_name_H-M "P -1"
_symmetry_group_IT_number 2
_symmetry_cell_setting 'triclinic'
loop_
_space_group_symop_operation_xyz
x,y,z
-x,-y,-z
loop_
_atom_site_type_symbol
_atom_site_label
_atom_site_fract_x
_atom_site_fract_y
_atom_site_fract_z
Si Si1 0.239180 0.169480 0.764709
Si Si2 0.603333 0.111831 0.480443
Si Si3 0.979428 0.620210 0.923996
Si Si4 0.171814 0.751055 0.235574
Si Si5 0.753289 0.622452 0.502475
Si Si6 0.000000 0.000000 0.500000
Si Si7 0.560719 0.735341 0.879414
Si Si8 0.685014 0.401881 0.400752
O O1 0.248838 0.269950 0.621160
O O2 0.032915 0.180757 0.827869
O O3 0.425212 0.193328 0.955269
O O4 0.183776 0.066294 0.656582
O O5 0.641863 0.169813 0.667945
O O6 0.459755 0.181980 0.303625
O O7 0.500000 0.000000 0.500000
O O8 0.833204 0.094384 0.467088
O O9 0.161458 0.687321 0.063423
O O10 0.936548 0.626532 0.700375
O O11 0.767715 0.667088 0.939187
O O12 0.000000 0.500000 0.000000
O O13 0.173225 0.666053 0.413794
O O14 0.758760 0.521839 0.396829
O O15 0.538437 0.605039 0.556195
O O16 0.373799 0.652576 0.792079
#
# Coordination Sequence:
#
# PCOD9078213 Si02
#       8
#     2   2   2   2   2   1   2   2
#     4  10  22  40  57  87 124 162 204 264 314 365
#     4  10  22  43  69  90 124 169 210 271 323 362
#     4  10  18  35  59  92 124 161 203 249 300 386
#     4   9  19  38  56  85 125 152 201 261 304 370
#     4  10  20  33  60  85 120 164 203 247 309 364
#     4  10  24  42  66  92 124 160 224 264 312 380
#     4   9  21  39  61  86 132 161 203 263 313 373
#     4   9  18  35  57  84 117 159 206 245 298 387
#
# _framework density 24.320743
#
# number of rings (size 3 to 8) (size 9 to 14) (size 15 to 20)
#    0.000    2.400    1.333    0.000    5.600    1.600 
#    2.400    6.000    0.000    0.000    0.000    0.000 
#    0.000    0.000    0.000    0.000    0.000    0.000 
#
# Total GULP energy -83519.167472 kJ/mol
# GULP energy per Si atom -5567.944498 kJ/mol
# Density = 2.426539 g / cm^3
# Si number density = 24.320743 Si / 1000 Ang^3
#
#
#
# Elastic Constant Matrix: (Units=GPa)
#
#
# Indices 1 2 3 4 5 6 
#
# 1 71.5774 18.6297 15.6245 4.6366 17.1677 -10.1884
# 2 18.6297 176.4426 73.4553 60.4855 0.2181 3.6283
# 3 15.6245 73.4553 162.0128 54.7341 4.4310 10.8617
# 4 4.6366 60.4855 54.7341 58.9821 -5.0405 13.2623
# 5 17.1677 0.2181 4.4310 -5.0405 32.3524 5.6496
# 6 -10.1884 3.6283 10.8617 13.2623 5.6496 38.4009
#
#
#
# Elastic Compliance Matrix: (Units=1/GPa)
#
#
# Indices 1 2 3 4 5 6 
#
# 1 0.018356 -0.000912 -0.000694 -0.002572 -0.011388 0.007716
# 2 -0.000912 0.009315 -0.001222 -0.009021 -0.001258 0.002524
# 3 -0.000694 -0.001222 0.009431 -0.007680 -0.002153 0.000233
# 4 -0.002572 -0.009021 -0.007680 0.037119 0.010356 -0.012001
# 5 -0.011388 -0.001258 -0.002153 0.010356 0.040946 -0.011894
# 6 0.007716 0.002524 0.000233 -0.012001 -0.011894 0.033678
#
#
# Mechanical properties :
#
#
# Convention : Reuss Voigt Hill
#
# Bulk Modulus (GPa) = 31.80067 69.49467 50.64767
# Shear Modulus (GPa) = 30.30589 46.10195 38.20392
#
# Velocity S-wave (km/s) = 3.53383 4.35855 3.96768
# Velocity P-wave (km/s) = 5.45477 7.34613 6.46993
#
# Compressibility (1/GPa) = 0.03144588
#
# Stress axis : x y z
#
# Youngs Moduli (GPa) = 54.47827 107.35308 106.02774
#
# Poissons Ratio (x) = 0.09794 0.07354
# Poissons Ratio (y) = 0.04970 0.12961
# Poissons Ratio (z) = 0.03779 0.13123
#
# Static dielectric constant tensor:
#      x y z
#    x 2.154460 0.011480 -0.008160 
#    y 0.011480 1.886780 0.058560 
#    z -0.008160 0.058560 1.927890 
# 
# From -- ./inp_files/178263.got.cif
#   From: 2010.05.17/outbox.cif.g08.bks.cpg/sg2_90_cif.got.tgz:178263.got - 2010.06.03 11:33:40.
