data_PCOD9078245
_publ_section_title
;
Structure prediction by ZEFSAII (Michael W. Deem and Ramdas Pophale) SiO2 
 PCOD9078245
Probable space group: P -1
;
_chemical_formula_sum "Si O2"
_cell_formula_units_Z 14
_cell_length_a 7.501923
_cell_length_b 13.671542
_cell_length_c 8.996610
_cell_angle_alpha 78.095774
_cell_angle_beta 121.177770
_cell_angle_gamma 127.120441
_cell_volume 621.812321
_symmetry_space_group_name_H-M "P -1"
_symmetry_group_IT_number 2
_symmetry_cell_setting 'triclinic'
loop_
_space_group_symop_operation_xyz
x,y,z
-x,-y,-z
loop_
_atom_site_type_symbol
_atom_site_label
_atom_site_fract_x
_atom_site_fract_y
_atom_site_fract_z
Si Si1 0.631834 0.712077 0.469160
Si Si2 0.465122 0.842275 0.144862
Si Si3 0.974925 0.601081 0.887565
Si Si4 0.845073 0.558518 0.535181
Si Si5 0.754346 0.827528 0.801783
Si Si6 0.678081 0.989457 0.886160
Si Si7 0.469776 0.551419 0.820090
O O1 0.582788 0.783319 0.304123
O O2 0.779253 0.658384 0.485170
O O3 0.365306 0.584359 0.452657
O O4 0.770790 0.801340 0.644149
O O5 0.590856 0.902222 0.021296
O O6 0.170055 0.728962 0.015920
O O7 0.472046 0.948682 0.203335
O O8 0.044551 0.611612 0.740595
O O9 0.683619 0.559869 0.799440
O O10 0.000000 0.500000 0.000000
O O11 0.813987 0.531326 0.353627
O O12 0.567699 0.691486 0.833548
O O13 0.651595 0.910032 0.758723
O O14 0.023742 0.900831 0.983048
O O15 0.500000 0.500000 0.000000
#
# Coordination Sequence:
#
# PCOD9078245 Si02
#       7
#     2   2   2   2   2   2   2
#     4  10  18  35  60  85 116 151 191 237 293 348
#     4  11  22  37  62  87 115 156 196 238 290 347
#     4  12  20  37  63  89 117 151 186 245 299 343
#     4  10  18  37  57  90 118 150 187 236 297 362
#     4  10  21  40  60  80 120 155 194 244 280 341
#     4  10  23  40  57  83 116 159 202 234 280 341
#     4  11  22  37  62  90 116 154 193 238 295 353
#
# _framework density 22.514831000000001
#
# number of rings (size 3 to 8) (size 9 to 14) (size 15 to 20)
#    0.000    1.429    7.143    0.000    4.000    1.143 
#    0.000    2.143    0.000    0.000    0.000    0.000 
#    0.000    0.000    0.000    0.000    0.000    0.000 
#
# Total GULP energy -78107.900393 kJ/mol
# GULP energy per Si atom -5579.135742 kJ/mol
# Density = 2.246359 g / cm^3
# Si number density = 22.514831 Si / 1000 Ang^3
#
#
#
# Elastic Constant Matrix: (Units=GPa)
#
#
# Indices 1 2 3 4 5 6 
#
# 1 48.9203 26.1039 -2.9471 0.6488 -1.4409 -7.5480
# 2 26.1039 133.4826 54.0313 -2.9201 -7.6508 -33.6888
# 3 -2.9471 54.0313 105.9552 -13.6770 -0.2388 -4.3597
# 4 0.6488 -2.9201 -13.6770 46.8804 -12.3145 -3.5792
# 5 -1.4409 -7.6508 -0.2388 -12.3145 22.2707 2.7711
# 6 -7.5480 -33.6888 -4.3597 -3.5792 2.7711 22.4547
#
#
#
# Elastic Compliance Matrix: (Units=1/GPa)
#
#
# Indices 1 2 3 4 5 6 
#
# 1 0.024035 -0.006574 0.004015 0.000253 -0.000407 -0.000913
# 2 -0.006574 0.018324 -0.008352 0.001565 0.003728 0.023450
# 3 0.004015 -0.008352 0.013850 0.002886 0.000137 -0.008048
# 4 0.000253 0.001565 0.002886 0.026508 0.014568 0.005421
# 5 -0.000407 0.003728 0.000137 0.014568 0.054072 0.001132
# 6 -0.000913 0.023450 -0.008048 0.005421 0.001132 0.078570
#
#
# Mechanical properties :
#
#
# Convention : Reuss Voigt Hill
#
# Bulk Modulus (GPa) = 29.08010 49.19273 39.13641
# Shear Modulus (GPa) = 20.10914 32.39916 26.25415
#
# Velocity S-wave (km/s) = 2.99181 3.79755 3.41850
# Velocity P-wave (km/s) = 4.98784 6.41288 5.74472
#
# Compressibility (1/GPa) = 0.03438778
#
# Stress axis : x y z
#
# Youngs Moduli (GPa) = 41.60646 54.57313 72.20064
#
# Poissons Ratio (x) = 0.35875 -0.28987
# Poissons Ratio (y) = 0.27351 0.60300
# Poissons Ratio (z) = -0.16704 0.45578
#
# Static dielectric constant tensor:
#      x y z
#    x 2.016880 -0.011270 0.029590 
#    y -0.011270 1.804350 0.031200 
#    z 0.029590 0.031200 1.865430 
# 
# From -- ./inp_files/186948.got.cif
#   From: 2010.05.17/outbox.cif.g08.bks.cpg/sg2_94_cif.got.tgz:186948.got - 2010.06.03 11:33:40.
