data_PCOD9078407
_publ_section_title
;
Structure prediction by ZEFSAII (Michael W. Deem and Ramdas Pophale) SiO2 
 PCOD9078407
Probable space group: P -1
;
_chemical_formula_sum "Si O2"
_cell_formula_units_Z 14
_cell_length_a 13.874773
_cell_length_b 11.485493
_cell_length_c 7.632395
_cell_angle_alpha 139.507362
_cell_angle_beta 86.528246
_cell_angle_gamma 115.311369
_cell_volume 637.338356
_symmetry_space_group_name_H-M "P -1"
_symmetry_group_IT_number 2
_symmetry_cell_setting 'triclinic'
loop_
_space_group_symop_operation_xyz
x,y,z
-x,-y,-z
loop_
_atom_site_type_symbol
_atom_site_label
_atom_site_fract_x
_atom_site_fract_y
_atom_site_fract_z
Si Si1 0.312506 0.287295 0.392462
Si Si2 0.572463 0.425414 0.624859
Si Si3 0.200060 0.865714 0.097153
Si Si4 0.040079 0.846711 0.372867
Si Si5 0.695271 0.866015 0.267930
Si Si6 0.606699 0.123918 0.490176
Si Si7 0.205547 0.512668 0.845507
O O1 0.442648 0.354013 0.505304
O O2 0.335897 0.417379 0.358372
O O3 0.257122 0.377041 0.629946
O O4 0.224468 0.019260 0.106002
O O5 0.575786 0.222760 0.448851
O O6 0.622392 0.604217 0.980387
O O7 0.077741 0.780624 0.116501
O O8 0.296981 0.041075 0.432307
O O9 0.215764 0.670411 0.868931
O O10 0.931591 0.646493 0.262673
O O11 0.165049 0.999931 0.637940
O O12 0.000000 0.000000 0.500000
O O13 0.634084 0.946467 0.242003
O O14 0.500000 0.000000 0.500000
O O15 0.720178 0.329074 0.816607
#
# Coordination Sequence:
#
# PCOD9078407 Si02
#       7
#     2   2   2   2   2   2   2
#     4  11  23  37  57  84 114 155 189 228 284 346
#     4  11  23  39  56  81 121 152 185 233 286 332
#     4   9  20  35  58  87 110 142 190 233 279 331
#     4  10  18  35  62  89 112 143 189 241 281 326
#     4   9  21  37  57  85 113 144 189 237 279 327
#     4  11  22  36  61  87 112 146 191 236 283 333
#     4  11  20  37  62  85 114 148 188 237 283 329
#
# _framework density 21.966353000000002
#
# number of rings (size 3 to 8) (size 9 to 14) (size 15 to 20)
#    0.857    0.857    1.429    4.714    0.000    2.857 
#    0.000    4.286    0.000    1.714    0.000    0.000 
#    0.000    0.000    0.000    0.000    0.000    0.000 
#
# Total GULP energy -78096.414766 kJ/mol
# GULP energy per Si atom -5578.315340 kJ/mol
# Density = 2.191636 g / cm^3
# Si number density = 21.966353 Si / 1000 Ang^3
#
#
#
# Elastic Constant Matrix: (Units=GPa)
#
#
# Indices 1 2 3 4 5 6 
#
# 1 95.7455 29.6464 3.7978 7.8063 -21.3768 -10.2313
# 2 29.6464 126.6258 3.9197 24.9730 -8.9654 -9.0174
# 3 3.7978 3.9197 16.5898 14.9684 -5.1782 -2.0091
# 4 7.8063 24.9730 14.9684 25.8809 -7.0288 -8.0837
# 5 -21.3768 -8.9654 -5.1782 -7.0288 29.0140 16.3238
# 6 -10.2313 -9.0174 -2.0091 -8.0837 16.3238 36.1464
#
#
#
# Elastic Compliance Matrix: (Units=1/GPa)
#
#
# Indices 1 2 3 4 5 6 
#
# 1 0.013269 -0.002741 -0.000718 0.001370 0.009726 -0.001054
# 2 -0.002741 0.012017 0.016368 -0.020618 0.000606 -0.001753
# 3 -0.000718 0.016368 0.156605 -0.107473 0.017274 -0.019251
# 4 0.001370 -0.020618 -0.107473 0.124963 -0.005304 0.019612
# 5 0.009726 0.000606 0.017274 -0.005304 0.056454 -0.022817
# 6 -0.001054 -0.001753 -0.019251 0.019612 -0.022817 0.040550
#
#
# Mechanical properties :
#
#
# Convention : Reuss Voigt Hill
#
# Bulk Modulus (GPa) = 4.81445 34.85431 19.83438
# Shear Modulus (GPa) = 11.17881 31.64807 21.41344
#
# Velocity S-wave (km/s) = 2.25834 3.79984 3.12561
# Velocity P-wave (km/s) = 2.99944 5.92902 4.69840
#
# Compressibility (1/GPa) = 0.20770816
#
# Stress axis : x y z
#
# Youngs Moduli (GPa) = 75.36562 83.21765 6.38551
#
# Poissons Ratio (x) = 0.22810 0.00459
# Poissons Ratio (y) = 0.20657 -0.10452
# Poissons Ratio (z) = 0.05412 -1.36212
#
# Static dielectric constant tensor:
#      x y z
#    x 1.815460 -0.024950 -0.017590 
#    y -0.024950 1.903950 -0.009330 
#    z -0.017590 -0.009330 1.878850 
# 
# From -- ./inp_files/305991.got.cif
#   From: 2010.05.17/outbox.cif.g08.bks.cpg/sg2_153_cif.got.tgz:305991.got - 2010.06.03 11:33:40.
