data_PCOD9078855
_publ_section_title
;
Structure prediction by ZEFSAII (Michael W. Deem and Ramdas Pophale) SiO2 
 PCOD9078855
Probable space group: P -1
;
_chemical_formula_sum "Si O2"
_cell_formula_units_Z 12
_cell_length_a 11.635851
_cell_length_b 9.840758
_cell_length_c 11.027876
_cell_angle_alpha 39.878841
_cell_angle_beta 50.312367
_cell_angle_gamma 54.047986
_cell_volume 610.874653
_symmetry_space_group_name_H-M "P -1"
_symmetry_group_IT_number 2
_symmetry_cell_setting 'triclinic'
loop_
_space_group_symop_operation_xyz
x,y,z
-x,-y,-z
loop_
_atom_site_type_symbol
_atom_site_label
_atom_site_fract_x
_atom_site_fract_y
_atom_site_fract_z
Si Si1 0.996695 0.719224 0.425794
Si Si2 0.014986 0.745192 0.673184
Si Si3 0.538178 0.344729 0.196490
Si Si4 0.826279 0.430404 0.085548
Si Si5 0.920965 0.908092 0.001061
Si Si6 0.295075 0.142699 0.620374
O O1 0.829848 0.852337 0.407095
O O2 0.000000 0.500000 0.500000
O O3 0.017763 0.667101 0.587135
O O4 0.113826 0.873827 0.205106
O O5 0.153160 0.648282 0.735907
O O6 0.000000 0.000000 0.500000
O O7 0.871017 0.664346 0.884923
O O8 0.667734 0.419697 0.138279
O O9 0.393939 0.316593 0.394465
O O10 0.606350 0.099253 0.275732
O O11 0.500000 0.500000 0.000000
O O12 0.960019 0.269848 0.029990
O O13 0.786767 0.820053 0.219154
O O14 0.000000 0.000000 0.000000
#
# Coordination Sequence:
#
# PCOD9078855 Si02
#       6
#     2   2   2   2   2   2
#     4  11  21  36  68  96 117 158 208 256 308 356
#     4  11  21  37  61  90 123 157 199 255 311 357
#     4  11  22  37  57  88 126 169 199 242 306 368
#     4  11  22  38  60  90 121 159 203 254 301 363
#     4  10  18  36  59  88 123 146 201 260 295 343
#     4  10  22  36  57  92 128 149 203 258 296 360
#
# _framework density 19.643962999999999
#
# number of rings (size 3 to 8) (size 9 to 14) (size 15 to 20)
#    0.000    1.333    5.000    3.000    2.333    1.333 
#    0.000    0.000    0.000   10.000    0.000    0.000 
#    0.000    0.000    0.000    0.000    0.000    0.000 
#
# Total GULP energy -66914.073577 kJ/mol
# GULP energy per Si atom -5576.172798 kJ/mol
# Density = 1.959925 g / cm^3
# Si number density = 19.643963 Si / 1000 Ang^3
#
#
#
# Elastic Constant Matrix: (Units=GPa)
#
#
# Indices 1 2 3 4 5 6 
#
# 1 133.7243 21.5164 81.9541 9.0198 13.5631 3.2227
# 2 21.5164 56.2837 36.6873 -1.4768 4.1525 6.1857
# 3 81.9541 36.6873 195.1153 -8.1108 8.7416 -10.9604
# 4 9.0198 -1.4768 -8.1108 35.6206 3.9204 -4.0024
# 5 13.5631 4.1525 8.7416 3.9204 47.3265 3.3109
# 6 3.2227 6.1857 -10.9604 -4.0024 3.3109 23.5535
#
#
#
# Elastic Compliance Matrix: (Units=1/GPa)
#
#
# Indices 1 2 3 4 5 6 
#
# 1 0.011123 -0.000599 -0.004898 -0.004247 -0.001589 -0.004142
# 2 -0.000599 0.021619 -0.004259 -0.000745 -0.000341 -0.007656
# 3 -0.004898 -0.004259 0.008531 0.003797 -0.000566 0.006483
# 4 -0.004247 -0.000745 0.003797 0.031188 -0.002576 0.008205
# 5 -0.001589 -0.000341 -0.000566 -0.002576 0.022179 -0.003512
# 6 -0.004142 -0.007656 0.006483 0.008205 -0.003512 0.049939
#
#
# Mechanical properties :
#
#
# Convention : Reuss Voigt Hill
#
# Bulk Modulus (GPa) = 45.95184 73.93768 59.94476
# Shear Modulus (GPa) = 29.18087 37.63115 33.40601
#
# Velocity S-wave (km/s) = 3.85838 4.38157 4.12828
# Velocity P-wave (km/s) = 6.57971 7.95727 7.30105
#
# Compressibility (1/GPa) = 0.02176191
#
# Stress axis : x y z
#
# Youngs Moduli (GPa) = 89.90031 46.25456 117.22560
#
# Poissons Ratio (x) = 0.02770 0.57412
# Poissons Ratio (y) = 0.05384 0.49930
# Poissons Ratio (z) = 0.44029 0.19701
#
# Static dielectric constant tensor:
#      x y z
#    x 1.709480 0.007530 -0.025380 
#    y 0.007530 1.768280 -0.008510 
#    z -0.025380 -0.008510 1.811200 
# 
# From -- ./inp_files/427201.got.cif
#   From: 2010.05.17/outbox.cif.g08.bks.cpg/sg2_214_cif.got.tgz:427201.got - 2010.06.03 11:33:40.
