data_PCOD9078394
_publ_section_title
;
Structure prediction by ZEFSAII (Michael W. Deem and Ramdas Pophale) SiO2 
 PCOD9078394
Probable space group: P -1
;
_chemical_formula_sum "Si O2"
_cell_formula_units_Z 16
_cell_length_a 15.504129
_cell_length_b 13.455669
_cell_length_c 8.330556
_cell_angle_alpha 86.878689
_cell_angle_beta 118.372466
_cell_angle_gamma 142.294800
_cell_volume 749.952056
_symmetry_space_group_name_H-M "P -1"
_symmetry_group_IT_number 2
_symmetry_cell_setting 'triclinic'
loop_
_space_group_symop_operation_xyz
x,y,z
-x,-y,-z
loop_
_atom_site_type_symbol
_atom_site_label
_atom_site_fract_x
_atom_site_fract_y
_atom_site_fract_z
Si Si1 0.512699 0.781085 0.583005
Si Si2 0.409323 0.359001 0.788165
Si Si3 0.132415 0.572300 0.336958
Si Si4 0.740477 0.174373 0.858007
Si Si5 0.933507 0.961265 0.688810
Si Si6 0.632996 0.093936 0.263508
Si Si7 0.684287 0.727077 0.816640
Si Si8 0.290184 0.057088 0.601403
O O1 0.291816 0.628267 0.426571
O O2 0.547869 0.703835 0.695068
O O3 0.572150 0.826331 0.445209
O O4 0.667647 0.997755 0.778389
O O5 0.188358 0.196863 0.549808
O O6 0.554132 0.514763 0.754034
O O7 0.392667 0.225557 0.799695
O O8 0.500000 0.500000 0.000000
O O9 0.167387 0.694752 0.231779
O O10 0.204760 0.680534 0.561176
O O11 0.908723 0.336738 0.129298
O O12 0.537893 0.053297 0.735541
O O13 0.806398 0.830060 0.750309
O O14 0.906304 0.055293 0.618979
O O15 0.153132 0.121966 0.910229
O O16 0.730543 0.071798 0.342535
O O17 0.500000 0.000000 0.000000
#
# Coordination Sequence:
#
# PCOD9078394 Si02
#       8
#     2   2   2   2   2   2   2   2
#     4  10  18  35  62  84 118 145 194 241 287 333
#     4  10  22  37  57  80 122 153 187 235 287 346
#     4  10  20  37  60  87 114 149 192 242 283 340
#     4  10  20  37  59  90 112 148 195 237 288 336
#     4   8  20  37  57  82 113 140 201 238 273 338
#     4  11  21  38  61  82 126 153 186 233 281 353
#     4  10  19  37  60  86 107 152 191 244 280 326
#     4   9  19  39  55  84 113 156 188 228 294 338
#
# _framework density 21.334697999999999
#
# number of rings (size 3 to 8) (size 9 to 14) (size 15 to 20)
#    0.750    1.500    2.500    1.125    0.000    4.000 
#    6.750    0.000    2.750    0.000    0.000    0.000 
#    0.000    0.000    0.000    0.000    0.000    0.000 
#
# Total GULP energy -89215.989662 kJ/mol
# GULP energy per Si atom -5575.999354 kJ/mol
# Density = 2.128614 g / cm^3
# Si number density = 21.334698 Si / 1000 Ang^3
#
#
#
# Elastic Constant Matrix: (Units=GPa)
#
#
# Indices 1 2 3 4 5 6 
#
# 1 75.0173 10.0625 28.7190 5.2684 -0.4024 -15.4764
# 2 10.0625 25.9222 -0.3132 6.1850 2.9131 6.3382
# 3 28.7190 -0.3132 149.6448 18.0938 -9.7357 -2.4477
# 4 5.2684 6.1850 18.0938 36.4970 -2.0280 4.8075
# 5 -0.4024 2.9131 -9.7357 -2.0280 35.8744 3.9948
# 6 -15.4764 6.3382 -2.4477 4.8075 3.9948 15.8929
#
#
#
# Elastic Compliance Matrix: (Units=1/GPa)
#
#
# Indices 1 2 3 4 5 6 
#
# 1 0.023160 -0.015257 -0.003832 -0.002937 -0.003014 0.029693
# 2 -0.015257 0.053953 0.002928 -0.003822 -0.000105 -0.034741
# 3 -0.003832 0.002928 0.007907 -0.003331 0.002031 -0.003185
# 4 -0.002937 -0.003822 -0.003331 0.031859 0.002524 -0.012120
# 5 -0.003014 -0.000105 0.002031 0.002524 0.029749 -0.010821
# 6 0.029693 -0.034741 -0.003185 -0.012120 -0.010821 0.111587
#
#
# Mechanical properties :
#
#
# Convention : Reuss Voigt Hill
#
# Bulk Modulus (GPa) = 18.97633 36.39119 27.68376
# Shear Modulus (GPa) = 16.22836 31.79392 24.01114
#
# Velocity S-wave (km/s) = 2.76099 3.86456 3.35841
# Velocity P-wave (km/s) = 4.36784 6.08337 5.29553
#
# Compressibility (1/GPa) = 0.05269724
#
# Stress axis : x y z
#
# Youngs Moduli (GPa) = 43.17852 18.53457 126.47349
#
# Poissons Ratio (x) = 0.28279 0.48464
# Poissons Ratio (y) = 0.65879 -0.37032
# Poissons Ratio (z) = 0.16546 -0.05427
#
# Static dielectric constant tensor:
#      x y z
#    x 1.772180 0.053070 -0.034700 
#    y 0.053070 1.810560 -0.028340 
#    z -0.034700 -0.028340 1.811360 
# 
# From -- ./inp_files/335386.got.cif
#   From: 2010.05.17/outbox.cif.g08.bks.cpg/sg2_168_cif.got.tgz:335386.got - 2010.06.03 11:33:40.
