data_PCOD9078070
_publ_section_title
;
Structure prediction by ZEFSAII (Michael W. Deem and Ramdas Pophale) SiO2 
 PCOD9078070
Probable space group: P -1
;
_chemical_formula_sum "Si O2"
_cell_formula_units_Z 16
_cell_length_a 19.947101
_cell_length_b 16.858187
_cell_length_c 11.549407
_cell_angle_alpha 33.962188
_cell_angle_beta 146.990148
_cell_angle_gamma 154.985819
_cell_volume 852.977710
_symmetry_space_group_name_H-M "P -1"
_symmetry_group_IT_number 2
_symmetry_cell_setting 'triclinic'
loop_
_space_group_symop_operation_xyz
x,y,z
-x,-y,-z
loop_
_atom_site_type_symbol
_atom_site_label
_atom_site_fract_x
_atom_site_fract_y
_atom_site_fract_z
Si Si1 0.095318 0.256162 0.195232
Si Si2 0.992906 0.333436 0.729809
Si Si3 0.754546 0.904710 0.494205
Si Si4 0.273536 0.040007 0.855196
Si Si5 0.644565 0.655859 0.110398
Si Si6 0.630533 0.981998 0.746512
Si Si7 0.396015 0.459565 0.553565
Si Si8 0.015643 0.153545 0.763019
O O1 0.121556 0.120764 0.343298
O O2 0.248914 0.408864 0.321637
O O3 0.917639 0.104619 0.192013
O O4 0.097664 0.364157 0.957737
O O5 0.040838 0.289265 0.735271
O O6 0.000000 0.500000 0.500000
O O7 0.803206 0.151908 0.721196
O O8 0.576838 0.679359 0.528898
O O9 0.735742 0.000308 0.245438
O O10 0.846844 0.039741 0.577761
O O11 0.372795 0.271557 0.721106
O O12 0.359484 0.004989 0.114545
O O13 0.632821 0.560262 0.327950
O O14 0.823802 0.751751 0.199925
O O15 0.500000 0.500000 0.000000
O O16 0.613254 0.798765 0.917606
O O17 0.500000 0.000000 0.500000
O O18 0.000000 0.000000 0.000000
#
# Coordination Sequence:
#
# PCOD9078070 Si02
#       8
#     2   2   2   2   2   2   2   2
#     4  10  18  35  58  82 120 153 200 246 287 355
#     4  11  25  39  62  87 119 165 198 241 303 356
#     4  11  19  32  59  87 119 150 195 252 293 349
#     4   9  18  34  55  86 116 158 196 239 299 346
#     4  11  23  38  61  93 120 155 198 249 300 347
#     4  10  22  39  60  87 124 158 196 240 295 359
#     4  10  20  31  55  92 116 150 198 245 298 347
#     4  12  21  40  62  87 122 155 200 250 300 351
#
# _framework density 18.757818
#
# number of rings (size 3 to 8) (size 9 to 14) (size 15 to 20)
#    0.000    1.500    2.500    6.000    1.750    2.000 
#    0.000    0.000    2.750    3.750    0.000    0.000 
#    0.000    0.000    0.000    0.000    0.000    0.000 
#
# Total GULP energy -89112.087011 kJ/mol
# GULP energy per Si atom -5569.505438 kJ/mol
# Density = 1.871512 g / cm^3
# Si number density = 18.757818 Si / 1000 Ang^3
#
#
#
# Elastic Constant Matrix: (Units=GPa)
#
#
# Indices 1 2 3 4 5 6 
#
# 1 102.8570 39.1895 64.1485 4.2070 -33.8872 1.7460
# 2 39.1895 87.9412 47.5298 16.4942 -19.8113 1.3302
# 3 64.1485 47.5298 148.5742 15.3389 -30.4449 -5.7706
# 4 4.2070 16.4942 15.3389 33.1307 -4.9783 -4.3785
# 5 -33.8872 -19.8113 -30.4449 -4.9783 41.6979 -0.1191
# 6 1.7460 1.3302 -5.7706 -4.3785 -0.1191 28.3419
#
#
#
# Elastic Compliance Matrix: (Units=1/GPa)
#
#
# Indices 1 2 3 4 5 6 
#
# 1 0.016808 -0.003483 -0.004664 0.002927 0.008945 -0.001332
# 2 -0.003483 0.016023 -0.002620 -0.006272 0.002114 -0.002031
# 3 -0.004664 -0.002620 0.010367 -0.002274 0.002269 0.002179
# 4 0.002927 -0.006272 -0.002274 0.034945 0.001925 0.005058
# 5 0.008945 0.002114 0.002269 0.001925 0.034143 0.000252
# 6 -0.001332 -0.002031 0.002179 0.005058 0.000252 0.036687
#
#
# Mechanical properties :
#
#
# Convention : Reuss Voigt Hill
#
# Bulk Modulus (GPa) = 46.15976 71.23423 58.69700
# Shear Modulus (GPa) = 28.13289 33.20108 30.66699
#
# Velocity S-wave (km/s) = 3.87692 4.21168 4.04776
# Velocity P-wave (km/s) = 6.68598 7.85552 7.29423
#
# Compressibility (1/GPa) = 0.02166389
#
# Stress axis : x y z
#
# Youngs Moduli (GPa) = 59.49588 62.41010 96.46276
#
# Poissons Ratio (x) = 0.21740 0.44986
# Poissons Ratio (y) = 0.20724 0.25273
# Poissons Ratio (z) = 0.27746 0.16351
#
# Static dielectric constant tensor:
#      x y z
#    x 1.419750 -0.021680 -0.121650 
#    y -0.021680 1.656060 0.046220 
#    z -0.121650 0.046220 1.607160 
# 
# From -- ./inp_files/262277.got.cif
#   From: 2010.05.17/outbox.cif.g08.bks.cpg/sg2_132_cif.got.tgz:262277.got - 2010.06.03 11:33:40.
