data_PCOD9078553
_publ_section_title
;
Structure prediction by ZEFSAII (Michael W. Deem and Ramdas Pophale) SiO2 
 PCOD9078553
Probable space group: P -1
;
_chemical_formula_sum "Si O2"
_cell_formula_units_Z 14
_cell_length_a 11.940819
_cell_length_b 11.567076
_cell_length_c 11.971850
_cell_angle_alpha 39.581054
_cell_angle_beta 35.752735
_cell_angle_gamma 35.348777
_cell_volume 529.232680
_symmetry_space_group_name_H-M "P -1"
_symmetry_group_IT_number 2
_symmetry_cell_setting 'triclinic'
loop_
_space_group_symop_operation_xyz
x,y,z
-x,-y,-z
loop_
_atom_site_type_symbol
_atom_site_label
_atom_site_fract_x
_atom_site_fract_y
_atom_site_fract_z
Si Si1 0.775724 0.797553 0.215348
Si Si2 0.042140 0.355718 0.348858
Si Si3 0.636868 0.080885 0.904876
Si Si4 0.305721 0.622564 0.205392
Si Si5 0.248649 0.695352 0.543059
Si Si6 0.685738 0.166412 0.169764
Si Si7 0.691733 0.098091 0.464467
O O1 0.010457 0.586194 0.205440
O O2 0.694319 0.966258 0.255226
O O3 0.573317 0.749534 0.418303
O O4 0.765270 0.900182 0.028100
O O5 0.886353 0.356796 0.574270
O O6 0.933037 0.355574 0.318285
O O7 0.259296 0.129365 0.360774
O O8 0.558168 0.290002 0.896161
O O9 0.746118 0.148179 0.669370
O O10 0.500000 0.000000 0.000000
O O11 0.453523 0.383551 0.219819
O O12 0.211931 0.765331 0.064354
O O13 0.500000 0.500000 0.500000
O O14 0.190720 0.814567 0.617379
O O15 0.771522 0.096750 0.276659
#
# Coordination Sequence:
#
# PCOD9078553 Si02
#       7
#     2   2   2   2   2   2   2
#     4  11  22  40  60  85 124 155 197 244 290 354
#     4  11  23  38  61  90 119 154 199 245 296 351
#     4  10  18  35  65  86 113 156 193 243 299 341
#     4   9  20  38  61  86 118 156 201 243 291 354
#     4  11  20  40  66  87 118 156 196 244 300 351
#     4  10  21  39  62  85 117 164 200 239 296 346
#     4  12  22  36  63  88 119 159 196 242 298 351
#
# _framework density 26.453393999999999
#
# number of rings (size 3 to 8) (size 9 to 14) (size 15 to 20)
#    0.000    1.429    4.286    1.714    0.000    1.143 
#    0.000    0.714   25.143    0.000    0.000    0.000 
#    0.000    0.000    0.000    0.000    0.000    0.000 
#
# Total GULP energy -78229.459875 kJ/mol
# GULP energy per Si atom -5587.818562 kJ/mol
# Density = 2.639318 g / cm^3
# Si number density = 26.453394 Si / 1000 Ang^3
#
#
#
# Elastic Constant Matrix: (Units=GPa)
#
#
# Indices 1 2 3 4 5 6 
#
# 1 157.1306 45.3446 42.1244 -3.9734 34.5804 44.6512
# 2 45.3446 106.5769 22.2168 -21.6262 15.3610 2.1373
# 3 42.1244 22.2168 81.8299 -5.4932 40.9098 13.6688
# 4 -3.9734 -21.6262 -5.4932 43.7815 1.4721 2.5825
# 5 34.5804 15.3610 40.9098 1.4721 53.1948 -0.6575
# 6 44.6512 2.1373 13.6688 2.5825 -0.6575 53.9713
#
#
#
# Elastic Compliance Matrix: (Units=1/GPa)
#
#
# Indices 1 2 3 4 5 6 
#
# 1 0.011622 -0.003807 -0.000130 -0.000064 -0.006471 -0.009507
# 2 -0.003807 0.012363 -0.001445 0.005420 -0.000100 0.002765
# 3 -0.000130 -0.001445 0.022217 0.002967 -0.016738 -0.005808
# 4 -0.000064 0.005420 0.002967 0.026169 -0.004557 -0.002221
# 5 -0.006471 -0.000100 -0.016738 -0.004557 0.036160 0.010256
# 6 -0.009507 0.002765 -0.005808 -0.002221 0.010256 0.027986
#
#
# Mechanical properties :
#
#
# Convention : Reuss Voigt Hill
#
# Bulk Modulus (GPa) = 28.21864 62.76767 45.49316
# Shear Modulus (GPa) = 31.42814 45.91296 38.67055
#
# Velocity S-wave (km/s) = 3.45056 4.17059 3.82755
# Velocity P-wave (km/s) = 5.15418 6.85354 6.06369
#
# Compressibility (1/GPa) = 0.03543757
#
# Stress axis : x y z
#
# Youngs Moduli (GPa) = 86.04557 80.88921 45.01021
#
# Poissons Ratio (x) = 0.30795 0.00585
# Poissons Ratio (y) = 0.32758 0.06504
# Poissons Ratio (z) = 0.01118 0.11688
#
# Static dielectric constant tensor:
#      x y z
#    x 2.128970 0.013900 -0.070960 
#    y 0.013900 2.133200 -0.032620 
#    z -0.070960 -0.032620 2.024340 
# 
# From -- ./inp_files/259736.got.cif
#   From: 2010.05.17/outbox.cif.g08.bks.cpg/sg2_130_cif.got.tgz:259736.got - 2010.06.03 11:33:40.
