data_PCOD9078181
_publ_section_title
;
Structure prediction by ZEFSAII (Michael W. Deem and Ramdas Pophale) SiO2 
 PCOD9078181
Probable space group: P -1
;
_chemical_formula_sum "Si O2"
_cell_formula_units_Z 16
_cell_length_a 7.833973
_cell_length_b 7.121885
_cell_length_c 16.795121
_cell_angle_alpha 95.181898
_cell_angle_beta 53.187928
_cell_angle_gamma 69.567913
_cell_volume 644.559796
_symmetry_space_group_name_H-M "P -1"
_symmetry_group_IT_number 2
_symmetry_cell_setting 'triclinic'
loop_
_space_group_symop_operation_xyz
x,y,z
-x,-y,-z
loop_
_atom_site_type_symbol
_atom_site_label
_atom_site_fract_x
_atom_site_fract_y
_atom_site_fract_z
Si Si1 0.220676 0.381952 0.840666
Si Si2 0.098844 0.162021 0.003878
Si Si3 0.710560 0.397769 0.736465
Si Si4 0.601477 0.002085 0.650486
Si Si5 0.166826 0.649172 0.647788
Si Si6 0.771841 0.805135 0.437683
Si Si7 0.319505 0.623908 0.428140
Si Si8 0.640151 0.844236 0.816642
O O1 0.086440 0.299414 0.934167
O O2 0.477137 0.360288 0.803807
O O3 0.313732 0.202326 0.737280
O O4 0.057299 0.641367 0.883108
O O5 0.389554 0.019736 0.935699
O O6 0.000000 0.000000 0.000000
O O7 0.736676 0.461398 0.640307
O O8 0.654021 0.610639 0.810191
O O9 0.987069 0.192466 0.662381
O O10 0.707587 0.154263 0.594206
O O11 0.734444 0.806529 0.543587
O O12 0.619919 0.914627 0.731329
O O13 0.185187 0.417549 0.619166
O O14 0.185592 0.706407 0.552944
O O15 0.410907 0.576083 0.628134
O O16 0.903494 0.812808 0.765331
O O17 0.500000 0.000000 0.500000
#
# Coordination Sequence:
#
# PCOD9078181 Si02
#       8
#     2   2   2   2   2   2   2   2
#     4   9  20  34  56  91 110 144 198 242 281 352
#     4  10  18  35  59  87 115 143 189 247 300 336
#     4  10  20  35  57  83 116 153 195 235 281 347
#     4  10  20  34  54  80 113 149 191 229 281 334
#     4  10  21  36  51  82 119 152 192 235 284 339
#     4  11  21  36  53  83 117 160 190 231 280 342
#     4  10  20  35  52  78 118 155 184 238 276 340
#     4  10  20  34  59  84 109 153 193 238 288 344
#
# _framework density 24.823145
#
# number of rings (size 3 to 8) (size 9 to 14) (size 15 to 20)
#    0.000    2.000    2.500    1.500    0.000    7.500 
#    0.000    0.000    0.000    3.000    3.250   12.250 
#    0.000    0.000    0.000    0.000    0.000    0.000 
#
# Total GULP energy -89070.057965 kJ/mol
# GULP energy per Si atom -5566.878623 kJ/mol
# Density = 2.476665 g / cm^3
# Si number density = 24.823145 Si / 1000 Ang^3
#
#
#
# Elastic Constant Matrix: (Units=GPa)
#
#
# Indices 1 2 3 4 5 6 
#
# 1 30.9807 11.4111 17.1640 4.4923 -18.1428 -3.1873
# 2 11.4111 86.9014 22.9385 -4.6186 -12.9248 16.9450
# 3 17.1640 22.9385 116.4866 32.9638 -34.6995 -2.2032
# 4 4.4923 -4.6186 32.9638 56.5425 -6.9105 -0.6087
# 5 -18.1428 -12.9248 -34.6995 -6.9105 33.8511 -2.3252
# 6 -3.1873 16.9450 -2.2032 -0.6087 -2.3252 19.9846
#
#
#
# Elastic Compliance Matrix: (Units=1/GPa)
#
#
# Indices 1 2 3 4 5 6 
#
# 1 0.052773 -0.007219 0.003848 -0.003150 0.030091 0.018367
# 2 -0.007219 0.016546 -0.004277 0.003978 -0.002208 -0.015787
# 3 0.003848 -0.004277 0.015906 -0.007936 0.015634 0.007571
# 4 -0.003150 0.003978 -0.007936 0.022343 -0.004055 -0.004542
# 5 0.030091 -0.002208 0.015634 -0.004055 0.061080 0.015378
# 6 0.018367 -0.015787 0.007571 -0.004542 0.015378 0.068840
#
#
# Mechanical properties :
#
#
# Convention : Reuss Voigt Hill
#
# Bulk Modulus (GPa) = 14.30000 37.48843 25.89421
# Shear Modulus (GPa) = 18.10989 34.26600 26.18794
#
# Velocity S-wave (km/s) = 2.70396 3.71941 3.25157
# Velocity P-wave (km/s) = 3.93977 5.79486 4.95490
#
# Compressibility (1/GPa) = 0.06993008
#
# Stress axis : x y z
#
# Youngs Moduli (GPa) = 18.94891 60.43918 62.87015
#
# Poissons Ratio (x) = 0.43631 -0.24193
# Poissons Ratio (y) = 0.13679 0.26887
# Poissons Ratio (z) = -0.07292 0.25847
#
# Static dielectric constant tensor:
#      x y z
#    x 2.217200 0.004390 -0.015800 
#    y 0.004390 2.050500 0.019850 
#    z -0.015800 0.019850 2.064800 
# 
# From -- ./inp_files/587383.got.cif
#   From: 2010.05.17/outbox.cif.g08.bks.cpg/sg2_294_cif.got.tgz:587383.got - 2010.06.03 11:33:40.
