data_PCOD9078655
_publ_section_title
;
Structure prediction by ZEFSAII (Michael W. Deem and Ramdas Pophale) SiO2 
 PCOD9078655
Probable space group: P -1
;
_chemical_formula_sum "Si O2"
_cell_formula_units_Z 14
_cell_length_a 7.499748
_cell_length_b 12.084460
_cell_length_c 21.232514
_cell_angle_alpha 151.662175
_cell_angle_beta 143.888694
_cell_angle_gamma 37.530831
_cell_volume 514.700027
_symmetry_space_group_name_H-M "P -1"
_symmetry_group_IT_number 2
_symmetry_cell_setting 'triclinic'
loop_
_space_group_symop_operation_xyz
x,y,z
-x,-y,-z
loop_
_atom_site_type_symbol
_atom_site_label
_atom_site_fract_x
_atom_site_fract_y
_atom_site_fract_z
Si Si1 0.615613 0.681169 0.263572
Si Si2 0.224614 0.725718 0.677234
Si Si3 0.020868 0.834089 0.860411
Si Si4 0.502436 0.788362 0.517131
Si Si5 0.821885 0.586977 0.138909
Si Si6 0.064384 0.163952 0.918862
Si Si7 0.338255 0.853158 0.645097
O O1 0.709027 0.423799 0.196126
O O2 0.844320 0.613707 0.233582
O O3 0.254731 0.742761 0.167050
O O4 0.628813 0.950235 0.424348
O O5 0.469668 0.468552 0.635954
O O6 0.168026 0.740432 0.592899
O O7 0.876476 0.752530 0.618476
O O8 0.309497 0.966642 0.846479
O O9 0.698624 0.762058 0.725706
O O10 0.028700 0.005927 0.890107
O O11 0.000000 0.000000 0.000000
O O12 0.339485 0.802312 0.545855
O O13 0.763262 0.856630 0.231533
O O14 0.500000 0.500000 0.000000
O O15 0.082794 0.406521 0.079829
#
# Coordination Sequence:
#
# PCOD9078655 Si02
#       7
#     2   2   2   2   2   2   2
#     4   9  17  31  58  82 105 150 191 219 282 335
#     4  10  20  35  63  83 111 151 190 236 284 329
#     4  12  19  32  61  84 113 157 183 222 292 338
#     4   9  19  40  60  80 114 150 187 240 286 324
#     4   9  14  31  52  77 111 141 180 226 267 327
#     4  10  18  36  54  82 116 145 187 233 278 334
#     4  11  20  34  60  88 110 151 194 226 280 345
#
# _framework density 27.200309000000001
#
# number of rings (size 3 to 8) (size 9 to 14) (size 15 to 20)
#    0.000    2.000    7.143    1.286    0.000    0.571 
#    0.000    2.143   12.571    0.000    0.000    0.000 
#    0.000    0.000    0.000    0.000    0.000    0.000 
#
# Total GULP energy -78250.417278 kJ/mol
# GULP energy per Si atom -5589.315520 kJ/mol
# Density = 2.713840 g / cm^3
# Si number density = 27.200309 Si / 1000 Ang^3
#
#
#
# Elastic Constant Matrix: (Units=GPa)
#
#
# Indices 1 2 3 4 5 6 
#
# 1 97.4998 20.4563 27.2452 3.7528 -8.2178 2.0260
# 2 20.4563 117.6377 66.3201 36.1915 1.9403 -9.4128
# 3 27.2452 66.3201 163.6914 53.6980 -37.5050 -20.4262
# 4 3.7528 36.1915 53.6980 66.9375 -11.0088 -2.9582
# 5 -8.2178 1.9403 -37.5050 -11.0088 36.1929 8.6739
# 6 2.0260 -9.4128 -20.4262 -2.9582 8.6739 36.2478
#
#
#
# Elastic Compliance Matrix: (Units=1/GPa)
#
#
# Indices 1 2 3 4 5 6 
#
# 1 0.011239 -0.001916 -0.001483 0.001861 0.002246 -0.002347
# 2 -0.001916 0.013534 -0.005524 -0.004106 -0.008673 0.002249
# 3 -0.001483 -0.005524 0.013474 -0.005721 0.011455 0.003033
# 4 0.001861 -0.004106 -0.005721 0.021853 0.002108 -0.003115
# 5 0.002246 -0.008673 0.011455 0.002108 0.042537 -0.005930
# 6 -0.002347 0.002249 0.003033 -0.003115 -0.005930 0.031177
#
#
# Mechanical properties :
#
#
# Convention : Reuss Voigt Hill
#
# Bulk Modulus (GPa) = 49.01784 67.43023 58.22404
# Shear Modulus (GPa) = 31.55344 45.52947 38.54146
#
# Velocity S-wave (km/s) = 3.40963 4.09572 3.76832
# Velocity P-wave (km/s) = 5.79318 6.87100 6.35498
#
# Compressibility (1/GPa) = 0.02040073
#
# Stress axis : x y z
#
# Youngs Moduli (GPa) = 88.97344 73.88636 74.21794
#
# Poissons Ratio (x) = 0.14154 0.11010
# Poissons Ratio (y) = 0.17044 0.41000
# Poissons Ratio (z) = 0.13199 0.40817
#
# Static dielectric constant tensor:
#      x y z
#    x 2.135820 -0.022410 -0.021840 
#    y -0.022410 2.110030 -0.022620 
#    z -0.021840 -0.022620 2.295890 
# 
# From -- ./inp_files/607393.got.cif
#   From: 2010.05.17/outbox.cif.g08.bks.cpg/sg2_304_cif.got.tgz:607393.got - 2010.06.03 11:33:40.
