data_PCOD9078367
_publ_section_title
;
Structure prediction by ZEFSAII (Michael W. Deem and Ramdas Pophale) SiO2 
 PCOD9078367
Probable space group: P -1
;
_chemical_formula_sum "Si O2"
_cell_formula_units_Z 16
_cell_length_a 17.412380
_cell_length_b 11.434704
_cell_length_c 14.889904
_cell_angle_alpha 48.620403
_cell_angle_beta 148.908497
_cell_angle_gamma 150.761779
_cell_volume 702.769493
_symmetry_space_group_name_H-M "P -1"
_symmetry_group_IT_number 2
_symmetry_cell_setting 'triclinic'
loop_
_space_group_symop_operation_xyz
x,y,z
-x,-y,-z
loop_
_atom_site_type_symbol
_atom_site_label
_atom_site_fract_x
_atom_site_fract_y
_atom_site_fract_z
Si Si1 0.613291 0.725725 0.750426
Si Si2 0.749578 0.365001 0.856311
Si Si3 0.776777 0.813690 0.298649
Si Si4 0.229792 0.686004 0.434150
Si Si5 0.905331 0.181024 0.923910
Si Si6 0.901891 0.633315 0.385481
Si Si7 0.657916 0.932449 0.525069
Si Si8 0.578960 0.898323 0.921800
O O1 0.471726 0.451416 0.768424
O O2 0.408932 0.693891 0.581127
O O3 0.833021 0.963366 0.912160
O O4 0.703131 0.827448 0.689048
O O5 0.598801 0.313107 0.651914
O O6 0.000000 0.500000 0.000000
O O7 0.826535 0.557464 0.906620
O O8 0.584378 0.082799 0.864702
O O9 0.828452 0.727998 0.316974
O O10 0.712963 0.914459 0.126678
O O11 0.000000 0.000000 0.500000
O O12 0.140921 0.712752 0.246432
O O13 0.049039 0.452279 0.442494
O O14 0.353864 0.919165 0.503130
O O15 0.736547 0.030462 0.920262
O O16 0.130715 0.862496 0.437762
O O17 0.679693 0.386954 0.224937
#
# Coordination Sequence:
#
# PCOD9078367 Si02
#       8
#     2   2   2   2   2   2   2   2
#     4  10  20  38  63  88 121 166 211 243 299 371
#     4  10  20  33  61  95 122 159 199 253 307 373
#     4  11  26  42  66  88 119 169 221 257 291 367
#     4  10  18  35  61  92 125 155 208 238 312 371
#     4  10  19  33  61  92 118 156 199 258 294 369
#     4  11  23  40  64  90 129 166 202 260 312 369
#     4  11  21  38  63  97 126 161 200 259 326 358
#     4  11  21  39  63  92 124 163 216 246 308 369
#
# _framework density 22.767067000000001
#
# number of rings (size 3 to 8) (size 9 to 14) (size 15 to 20)
#    0.000    1.500    3.750    4.500    7.000    0.000 
#    0.000    4.375    0.000    0.000    0.000    0.000 
#    0.000    0.000    0.000    0.000    0.000    0.000 
#
# Total GULP energy -89275.297373 kJ/mol
# GULP energy per Si atom -5579.706086 kJ/mol
# Density = 2.271525 g / cm^3
# Si number density = 22.767067 Si / 1000 Ang^3
#
#
#
# Elastic Constant Matrix: (Units=GPa)
#
#
# Indices 1 2 3 4 5 6 
#
# 1 52.2961 46.8218 35.5073 3.5359 -10.6837 25.8675
# 2 46.8218 104.4759 50.6581 9.5786 -22.7751 12.7841
# 3 35.5073 50.6581 116.9472 9.7450 -30.8085 6.7368
# 4 3.5359 9.5786 9.7450 40.9851 -3.1971 -15.3154
# 5 -10.6837 -22.7751 -30.8085 -3.1971 29.5358 -3.0536
# 6 25.8675 12.7841 6.7368 -15.3154 -3.0536 42.1834
#
#
#
# Elastic Compliance Matrix: (Units=1/GPa)
#
#
# Indices 1 2 3 4 5 6 
#
# 1 0.055554 -0.017338 -0.008267 -0.011250 -0.006428 -0.032042
# 2 -0.017338 0.018902 -0.001261 0.000095 0.007588 0.005688
# 3 -0.008267 -0.001261 0.014403 -0.000040 0.011466 0.003967
# 4 -0.011250 0.000095 -0.000040 0.032482 0.001420 0.018772
# 5 -0.006428 0.007588 0.011466 0.001420 0.049904 0.003939
# 6 -0.032042 0.005688 0.003967 0.018772 0.003939 0.048098
#
#
# Mechanical properties :
#
#
# Convention : Reuss Voigt Hill
#
# Bulk Modulus (GPa) = 28.46736 59.96597 44.21666
# Shear Modulus (GPa) = 17.55717 31.92300 24.74009
#
# Velocity S-wave (km/s) = 2.78000 3.74860 3.30003
# Velocity P-wave (km/s) = 4.77864 6.71804 5.82956
#
# Compressibility (1/GPa) = 0.03512795
#
# Stress axis : x y z
#
# Youngs Moduli (GPa) = 18.00037 52.90425 69.43231
#
# Poissons Ratio (x) = 0.91724 0.57402
# Poissons Ratio (y) = 0.31208 0.08752
# Poissons Ratio (z) = 0.14881 0.06669
#
# Static dielectric constant tensor:
#      x y z
#    x 2.218280 -0.321850 -0.176900 
#    y -0.321850 2.193690 0.176830 
#    z -0.176900 0.176830 2.010030 
# 
# From -- ./inp_files/538424.got.cif
#   From: 2010.05.17/outbox.cif.g08.bks.cpg/sg2_270_cif.got.tgz:538424.got - 2010.06.03 11:33:40.
