data_PCOD9078636
_publ_section_title
;
Structure prediction by ZEFSAII (Michael W. Deem and Ramdas Pophale) SiO2 
 PCOD9078636
Probable space group: P -1
;
_chemical_formula_sum "Si O2"
_cell_formula_units_Z 12
_cell_length_a 17.123532
_cell_length_b 5.258593
_cell_length_c 8.162383
_cell_angle_alpha 90.435787
_cell_angle_beta 132.877335
_cell_angle_gamma 114.473472
_cell_volume 441.633012
_symmetry_space_group_name_H-M "P -1"
_symmetry_group_IT_number 2
_symmetry_cell_setting 'triclinic'
loop_
_space_group_symop_operation_xyz
x,y,z
-x,-y,-z
loop_
_atom_site_type_symbol
_atom_site_label
_atom_site_fract_x
_atom_site_fract_y
_atom_site_fract_z
Si Si1 0.872787 0.776637 0.426035
Si Si2 0.529335 0.461992 0.226601
Si Si3 0.785458 0.018727 0.549008
Si Si4 0.433383 0.985358 0.594946
Si Si5 0.923208 0.151477 0.064393
Si Si6 0.229058 0.561248 0.034606
O O1 0.773215 0.503028 0.162743
O O2 0.931403 0.693884 0.660370
O O3 0.823655 0.980021 0.424210
O O4 0.000000 0.000000 0.500000
O O5 0.482844 0.125070 0.209715
O O6 0.685438 0.658516 0.460461
O O7 0.494835 0.643725 0.300310
O O8 0.500000 0.500000 0.000000
O O9 0.685985 0.109150 0.448764
O O10 0.904776 0.169575 0.844604
O O11 0.360445 0.803713 0.324334
O O12 0.858936 0.307949 0.060068
O O13 0.840362 0.784870 0.989619
#
# Coordination Sequence:
#
# PCOD9078636 Si02
#       6
#     2   2   2   2   2   2
#     4  10  21  36  53  83 113 153 182 216 263 321
#     4  10  19  35  61  83 101 133 183 231 272 319
#     4   9  20  35  56  81 112 141 185 226 263 312
#     4   9  18  35  56  81 107 138 176 226 273 316
#     4  10  19  36  52  77 109 149 187 218 257 313
#     4  10  18  36  52  78 111 147 176 222 267 316
#
# _framework density 27.171880999999999
#
# number of rings (size 3 to 8) (size 9 to 14) (size 15 to 20)
#    1.000    1.333    1.667    1.500    0.000    0.000 
#   12.000    7.500    0.000    2.000    0.000    0.000 
#    0.000    0.000    0.000    0.000    0.000    0.000 
#
# Total GULP energy -67104.898874 kJ/mol
# GULP energy per Si atom -5592.074906 kJ/mol
# Density = 2.711004 g / cm^3
# Si number density = 27.171881 Si / 1000 Ang^3
#
#
#
# Elastic Constant Matrix: (Units=GPa)
#
#
# Indices 1 2 3 4 5 6 
#
# 1 116.4472 41.5273 40.1384 5.5375 -35.5267 -24.5208
# 2 41.5273 175.3620 50.0169 6.8923 -19.8494 -35.1304
# 3 40.1384 50.0169 196.6124 -4.1127 -32.6271 -14.5574
# 4 5.5375 6.8923 -4.1127 42.6120 1.3299 -3.6396
# 5 -35.5267 -19.8494 -32.6271 1.3299 57.2512 16.9392
# 6 -24.5208 -35.1304 -14.5574 -3.6396 16.9392 36.1516
#
#
#
# Elastic Compliance Matrix: (Units=1/GPa)
#
#
# Indices 1 2 3 4 5 6 
#
# 1 0.011813 -0.001070 -0.001002 -0.001282 0.005239 0.003986
# 2 -0.001070 0.007560 -0.001362 -0.000654 -0.000675 0.006323
# 3 -0.001002 -0.001362 0.006022 0.000795 0.002520 -0.000679
# 4 -0.001282 -0.000654 0.000795 0.024046 -0.001734 0.002048
# 5 0.005239 -0.000675 0.002520 -0.001734 0.024211 -0.007606
# 6 0.003986 0.006323 -0.000679 0.002048 -0.007606 0.040005
#
#
# Mechanical properties :
#
#
# Convention : Reuss Voigt Hill
#
# Bulk Modulus (GPa) = 53.97458 83.53185 68.75322
# Shear Modulus (GPa) = 39.46289 50.98556 45.22422
#
# Velocity S-wave (km/s) = 3.81510 4.33645 4.08410
# Velocity P-wave (km/s) = 6.27008 7.47542 6.89912
#
# Compressibility (1/GPa) = 0.01852724
#
# Stress axis : x y z
#
# Youngs Moduli (GPa) = 84.65217 132.26739 166.06295
#
# Poissons Ratio (x) = 0.14151 0.16635
# Poissons Ratio (y) = 0.09057 0.22624
# Poissons Ratio (z) = 0.08480 0.18020
#
# Static dielectric constant tensor:
#      x y z
#    x 2.213060 0.047250 -0.013690 
#    y 0.047250 2.177230 0.025740 
#    z -0.013690 0.025740 2.130950 
# 
# From -- ./inp_files/473306.got.cif
#   From: 2010.05.17/outbox.cif.g08.bks.cpg/sg2_237_cif.got.tgz:473306.got - 2010.06.03 11:33:40.
