data_PCOD9078252
_publ_section_title
;
Structure prediction by ZEFSAII (Michael W. Deem and Ramdas Pophale) SiO2 
 PCOD9078252
Probable space group: P -1
;
_chemical_formula_sum "Si O2"
_cell_formula_units_Z 14
_cell_length_a 9.899380
_cell_length_b 12.120330
_cell_length_c 9.025917
_cell_angle_alpha 41.597314
_cell_angle_beta 62.946609
_cell_angle_gamma 75.545207
_cell_volume 632.755042
_symmetry_space_group_name_H-M "P -1"
_symmetry_group_IT_number 2
_symmetry_cell_setting 'triclinic'
loop_
_space_group_symop_operation_xyz
x,y,z
-x,-y,-z
loop_
_atom_site_type_symbol
_atom_site_label
_atom_site_fract_x
_atom_site_fract_y
_atom_site_fract_z
Si Si1 0.042287 0.741188 0.194879
Si Si2 0.354792 0.196753 0.896375
Si Si3 0.093846 0.093256 0.642551
Si Si4 0.096510 0.759599 0.657738
Si Si5 0.873395 0.560374 0.213505
Si Si6 0.338050 0.039095 0.371804
Si Si7 0.360652 0.879402 0.017177
O O1 0.932783 0.776170 0.348652
O O2 0.980621 0.584721 0.280334
O O3 0.213978 0.757952 0.155264
O O4 0.048605 0.907523 0.919283
O O5 0.537079 0.203746 0.829269
O O6 0.293296 0.134705 0.150961
O O7 0.277616 0.360457 0.744628
O O8 0.314385 0.046568 0.948760
O O9 0.987385 0.122799 0.526310
O O10 0.266687 0.113247 0.475490
O O11 0.153169 0.623577 0.657197
O O12 0.241437 0.855472 0.578831
O O13 0.972573 0.668296 0.926858
O O14 0.520304 0.061050 0.235936
#
# Coordination Sequence:
#
# PCOD9078252 Si02
#       7
#     2   2   2   2   2   2   2
#     4  11  22  36  58  92 119 145 185 254 293 327
#     4   9  18  37  60  86 113 155 189 238 284 348
#     4  11  21  35  63  86 116 147 198 242 281 334
#     4  11  21  36  60  85 113 155 202 232 273 352
#     4  11  22  37  59  85 118 153 195 235 286 341
#     4  10  18  35  60  86 107 149 195 238 271 342
#     4   9  20  34  62  87 119 142 193 242 300 323
#
# _framework density 22.125468000000001
#
# number of rings (size 3 to 8) (size 9 to 14) (size 15 to 20)
#    0.857    0.857    2.857    3.857    0.000    1.143 
#    0.000    0.714    3.143    2.571    0.000    0.000 
#    0.000    0.000    0.000    0.000    0.000    0.000 
#
# Total GULP energy -78164.641624 kJ/mol
# GULP energy per Si atom -5583.188687 kJ/mol
# Density = 2.207511 g / cm^3
# Si number density = 22.125468 Si / 1000 Ang^3
#
#
#
# Elastic Constant Matrix: (Units=GPa)
#
#
# Indices 1 2 3 4 5 6 
#
# 1 112.8561 44.0359 11.4720 -1.6837 -5.8765 -3.8350
# 2 44.0359 119.0046 9.7566 20.9302 -13.6105 -6.7604
# 3 11.4720 9.7566 58.2466 24.6677 -8.1730 -5.5119
# 4 -1.6837 20.9302 24.6677 40.3455 -8.2060 -5.5531
# 5 -5.8765 -13.6105 -8.1730 -8.2060 27.2545 2.0228
# 6 -3.8350 -6.7604 -5.5119 -5.5531 2.0228 27.0815
#
#
#
# Elastic Compliance Matrix: (Units=1/GPa)
#
#
# Indices 1 2 3 4 5 6 
#
# 1 0.011165 -0.004660 -0.003485 0.005229 0.000555 0.000739
# 2 -0.004660 0.011581 0.002464 -0.006877 0.003368 0.001071
# 3 -0.003485 0.002464 0.024656 -0.015647 0.003035 0.001705
# 4 0.005229 -0.006877 -0.015647 0.039581 0.004651 0.003608
# 5 0.000555 0.003368 0.003035 0.004651 0.040844 -0.000560
# 6 0.000739 0.001071 0.001705 0.003608 -0.000560 0.038426
#
#
# Mechanical properties :
#
#
# Convention : Reuss Voigt Hill
#
# Bulk Modulus (GPa) = 27.74728 46.73736 37.24232
# Shear Modulus (GPa) = 26.36730 33.92584 30.14657
#
# Velocity S-wave (km/s) = 3.45587 3.92004 3.69525
# Velocity P-wave (km/s) = 5.33780 6.45434 5.92244
#
# Compressibility (1/GPa) = 0.03603957
#
# Stress axis : x y z
#
# Youngs Moduli (GPa) = 89.56178 86.34960 40.55859
#
# Poissons Ratio (x) = 0.40240 0.14136
# Poissons Ratio (y) = 0.41737 -0.09994
# Poissons Ratio (z) = 0.31214 -0.21278
#
# Static dielectric constant tensor:
#      x y z
#    x 1.846630 -0.015400 0.018430 
#    y -0.015400 1.801970 0.000420 
#    z 0.018430 0.000420 1.872300 
# 
# From -- ./inp_files/251598.got.cif
#   From: 2010.05.17/outbox.cif.g08.bks.cpg/sg2_126_cif.got.tgz:251598.got - 2010.06.03 11:33:40.
