data_PCOD9078395
_publ_section_title
;
Structure prediction by ZEFSAII (Michael W. Deem and Ramdas Pophale) SiO2 
 PCOD9078395
Probable space group: P -1
;
_chemical_formula_sum "Si O2"
_cell_formula_units_Z 12
_cell_length_a 8.096380
_cell_length_b 11.608223
_cell_length_c 23.135089
_cell_angle_alpha 34.560747
_cell_angle_beta 138.901814
_cell_angle_gamma 112.718763
_cell_volume 630.628412
_symmetry_space_group_name_H-M "P -1"
_symmetry_group_IT_number 2
_symmetry_cell_setting 'triclinic'
loop_
_space_group_symop_operation_xyz
x,y,z
-x,-y,-z
loop_
_atom_site_type_symbol
_atom_site_label
_atom_site_fract_x
_atom_site_fract_y
_atom_site_fract_z
Si Si1 0.667263 0.943982 0.398264
Si Si2 0.691454 0.376911 0.235348
Si Si3 0.351291 0.853263 0.026293
Si Si4 0.709105 0.766854 0.605869
Si Si5 0.674090 0.302320 0.795624
Si Si6 0.421038 0.728066 0.343447
O O1 0.535183 0.239329 0.238535
O O2 0.562862 0.883453 0.454939
O O3 0.583452 0.846344 0.363156
O O4 0.051493 0.777682 0.579628
O O5 0.452670 0.668677 0.074306
O O6 0.926489 0.330629 0.264977
O O7 0.475529 0.694233 0.185026
O O8 0.500000 0.000000 0.000000
O O9 0.965856 0.054431 0.845358
O O10 0.731213 0.515489 0.726661
O O11 0.500000 0.000000 0.500000
O O12 0.487796 0.358801 0.663168
O O13 0.000000 0.000000 0.000000
O O14 0.500000 0.500000 0.500000
#
# Coordination Sequence:
#
# PCOD9078395 Si02
#       6
#     2   2   2   2   2   2
#     4   9  19  35  61  84 120 151 195 239 296 349
#     4   9  19  37  57  87 117 155 195 238 300 351
#     4  11  22  38  61  84 121 159 197 244 297 349
#     4  10  18  35  62  85 114 152 202 236 292 358
#     4  10  21  35  59  88 116 155 199 238 296 356
#     4  11  20  39  60  88 120 155 196 245 294 350
#
# _framework density 19.028638000000001
#
# number of rings (size 3 to 8) (size 9 to 14) (size 15 to 20)
#    1.000    1.000    1.667    4.000    0.000    0.667 
#    0.000    5.000    0.000    6.000    0.000    0.000 
#    0.000    0.000    0.000    0.000    0.000    0.000 
#
# Total GULP energy -66822.754536 kJ/mol
# GULP energy per Si atom -5568.562878 kJ/mol
# Density = 1.898533 g / cm^3
# Si number density = 19.028638 Si / 1000 Ang^3
#
#
#
# Elastic Constant Matrix: (Units=GPa)
#
#
# Indices 1 2 3 4 5 6 
#
# 1 92.6648 39.4658 31.0356 -20.8835 -18.6243 -8.7361
# 2 39.4658 139.2775 44.1320 -28.4951 -18.1122 9.4129
# 3 31.0356 44.1320 52.2667 -19.2086 -13.5408 -4.9219
# 4 -20.8835 -28.4951 -19.2086 42.4085 2.2050 -4.6121
# 5 -18.6243 -18.1122 -13.5408 2.2050 34.9291 -9.6468
# 6 -8.7361 9.4129 -4.9219 -4.6121 -9.6468 34.7589
#
#
#
# Elastic Compliance Matrix: (Units=1/GPa)
#
#
# Indices 1 2 3 4 5 6 
#
# 1 0.016219 -0.001849 -0.003254 0.005624 0.008031 0.007092
# 2 -0.001849 0.010922 -0.007393 0.002620 0.000550 -0.003969
# 3 -0.003254 -0.007393 0.034340 0.009564 0.009921 0.010069
# 4 0.005624 0.002620 0.009564 0.032958 0.008405 0.008764
# 5 0.008031 0.000550 0.009921 0.008405 0.040857 0.015729
# 6 0.007092 -0.003969 0.010069 0.008764 0.015729 0.038581
#
#
# Mechanical properties :
#
#
# Convention : Reuss Voigt Hill
#
# Bulk Modulus (GPa) = 27.40486 57.05285 42.22886
# Shear Modulus (GPa) = 23.69309 33.72434 28.70872
#
# Velocity S-wave (km/s) = 3.53246 4.21443 3.88843
# Velocity P-wave (km/s) = 5.57413 7.33005 6.51155
#
# Compressibility (1/GPa) = 0.03648988
#
# Stress axis : x y z
#
# Youngs Moduli (GPa) = 61.65514 91.55788 29.12018
#
# Poissons Ratio (x) = 0.16928 0.09476
# Poissons Ratio (y) = 0.11399 0.21528
# Poissons Ratio (z) = 0.20064 0.67687
#
# Static dielectric constant tensor:
#      x y z
#    x 1.654590 -0.023930 0.004970 
#    y -0.023930 1.659150 0.000470 
#    z 0.004970 0.000470 1.690010 
# 
# From -- ./inp_files/265223.got.cif
#   From: 2010.05.17/outbox.cif.g08.bks.cpg/sg2_133_cif.got.tgz:265223.got - 2010.06.03 11:33:40.
