data_PCOD9078131
_publ_section_title
;
Structure prediction by ZEFSAII (Michael W. Deem and Ramdas Pophale) SiO2 
 PCOD9078131
Probable space group: P -1
;
_chemical_formula_sum "Si O2"
_cell_formula_units_Z 14
_cell_length_a 10.610356
_cell_length_b 9.362366
_cell_length_c 14.698763
_cell_angle_alpha 144.759689
_cell_angle_beta 68.119023
_cell_angle_gamma 97.606796
_cell_volume 740.380074
_symmetry_space_group_name_H-M "P -1"
_symmetry_group_IT_number 2
_symmetry_cell_setting 'triclinic'
loop_
_space_group_symop_operation_xyz
x,y,z
-x,-y,-z
loop_
_atom_site_type_symbol
_atom_site_label
_atom_site_fract_x
_atom_site_fract_y
_atom_site_fract_z
Si Si1 0.737942 0.983951 0.443526
Si Si2 0.910727 0.689393 0.750843
Si Si3 0.534896 0.766411 0.611554
Si Si4 0.396081 0.937365 0.921394
Si Si5 0.540928 0.660417 0.355849
Si Si6 0.954922 0.160773 0.372704
Si Si7 0.848587 0.777801 0.498525
O O1 0.601484 0.249483 0.619497
O O2 0.846025 0.011245 0.351320
O O3 0.667617 0.754796 0.331402
O O4 0.816597 0.931314 0.492452
O O5 0.879708 0.470641 0.578656
O O6 0.987194 0.847861 0.748866
O O7 0.028266 0.504384 0.690948
O O8 0.764927 0.871528 0.926081
O O9 0.500000 0.500000 0.500000
O O10 0.455402 0.949406 0.810129
O O11 0.492828 0.827527 0.549550
O O12 0.703120 0.734523 0.550160
O O13 0.404712 0.640128 0.787685
O O14 0.500000 0.000000 0.000000
O O15 0.087565 0.084163 0.368168
#
# Coordination Sequence:
#
# PCOD9078131 Si02
#       7
#     2   2   2   2   2   2   2
#     4  10  18  35  59  78 108 162 190 225 272 359
#     4   9  20  32  56  88 111 137 195 242 275 327
#     4   9  19  34  57  81 112 150 184 231 282 331
#     4  11  20  35  60  89 114 145 191 245 282 322
#     4   9  21  35  57  82 117 148 196 222 285 348
#     4   9  18  33  58  82 113 150 187 232 289 328
#     4   9  18  33  56  88 107 144 198 232 273 341
#
# _framework density 18.909206000000001
#
# number of rings (size 3 to 8) (size 9 to 14) (size 15 to 20)
#    0.857    1.714    0.000    2.143    4.000    0.000 
#    0.000    7.143    9.429   12.000    0.000    0.000 
#    0.000    0.000    0.000    0.000    0.000    0.000 
#
# Total GULP energy -77935.001545 kJ/mol
# GULP energy per Si atom -5566.785825 kJ/mol
# Density = 1.886617 g / cm^3
# Si number density = 18.909206 Si / 1000 Ang^3
#
#
#
# Elastic Constant Matrix: (Units=GPa)
#
#
# Indices 1 2 3 4 5 6 
#
# 1 73.7961 42.1308 29.7828 -5.1193 -20.9132 1.1663
# 2 42.1308 94.3424 31.6226 -12.0507 -15.4117 9.5833
# 3 29.7828 31.6226 90.9237 -15.7591 -26.9218 -3.7307
# 4 -5.1193 -12.0507 -15.7591 18.7063 -0.5903 -6.6348
# 5 -20.9132 -15.4117 -26.9218 -0.5903 28.8179 4.1069
# 6 1.1663 9.5833 -3.7307 -6.6348 4.1069 43.7863
#
#
#
# Elastic Compliance Matrix: (Units=1/GPa)
#
#
# Indices 1 2 3 4 5 6 
#
# 1 0.021173 -0.007305 -0.001307 0.000314 0.010242 0.000010
# 2 -0.007305 0.015771 -0.001495 0.006020 0.002242 -0.002682
# 3 -0.001307 -0.001495 0.020062 0.017211 0.016905 0.003094
# 4 0.000314 0.006020 0.017211 0.076024 0.019685 0.009814
# 5 0.010242 0.002242 0.016905 0.019685 0.059807 -0.001950
# 6 0.000010 -0.002682 0.003094 0.009814 -0.001950 0.025359
#
#
# Mechanical properties :
#
#
# Convention : Reuss Voigt Hill
#
# Bulk Modulus (GPa) = 27.18017 51.79274 39.48646
# Shear Modulus (GPa) = 19.94632 28.63049 24.28841
#
# Velocity S-wave (km/s) = 3.25136 3.89537 3.58785
# Velocity P-wave (km/s) = 5.33858 6.90518 6.17179
#
# Compressibility (1/GPa) = 0.03679153
#
# Stress axis : x y z
#
# Youngs Moduli (GPa) = 47.22970 63.40878 49.84578
#
# Poissons Ratio (x) = 0.46320 0.06516
# Poissons Ratio (y) = 0.34501 0.07452
# Poissons Ratio (z) = 0.06174 0.09479
#
# Static dielectric constant tensor:
#      x y z
#    x 1.695010 -0.012570 0.018020 
#    y -0.012570 1.682880 -0.000730 
#    z 0.018020 -0.000730 1.665170 
# 
# From -- ./inp_files/514723.got.cif
#   From: 2010.05.17/outbox.cif.g08.bks.cpg/sg2_258_cif.got.tgz:514723.got - 2010.06.03 11:33:40.
