data_PCOD9078005
_publ_section_title
;
Structure prediction by ZEFSAII (Michael W. Deem and Ramdas Pophale) SiO2 
 PCOD9078005
Probable space group: P -1
;
_chemical_formula_sum "Si O2"
_cell_formula_units_Z 16
_cell_length_a 11.192700
_cell_length_b 10.878388
_cell_length_c 8.942325
_cell_angle_alpha 105.287358
_cell_angle_beta 63.800555
_cell_angle_gamma 128.748393
_cell_volume 761.795258
_symmetry_space_group_name_H-M "P -1"
_symmetry_group_IT_number 2
_symmetry_cell_setting 'triclinic'
loop_
_space_group_symop_operation_xyz
x,y,z
-x,-y,-z
loop_
_atom_site_type_symbol
_atom_site_label
_atom_site_fract_x
_atom_site_fract_y
_atom_site_fract_z
Si Si1 0.932641 0.364936 0.304605
Si Si2 0.099463 0.954129 0.234581
Si Si3 0.470744 0.224624 0.142247
Si Si4 0.001872 0.184921 0.434330
Si Si5 0.384207 0.468577 0.332661
Si Si6 0.901850 0.647983 0.057298
Si Si7 0.712121 0.430678 0.843937
Si Si8 0.664959 0.379944 0.346118
O O1 0.923821 0.234544 0.370377
O O2 0.773631 0.361818 0.397132
O O3 0.112748 0.527564 0.294611
O O4 0.955903 0.350240 0.108092
O O5 0.083651 0.873415 0.376691
O O6 0.991138 0.819286 0.130323
O O7 0.294616 0.075797 0.140438
O O8 0.023648 0.052679 0.323141
O O9 0.453133 0.368277 0.225863
O O10 0.543526 0.225971 0.263174
O O11 0.610076 0.281983 0.959723
O O12 0.187215 0.337548 0.411279
O O13 0.403758 0.574918 0.217461
O O14 0.434199 0.572263 0.486805
O O15 0.795706 0.521382 0.205810
O O16 0.778364 0.585613 0.962800
#
# Coordination Sequence:
#
# PCOD9078005 Si02
#       8
#     2   2   2   2   2   2   2   2
#     4   9  20  37  57  84 108 142 192 230 263 323
#     4  10  19  37  57  80 113 145 182 224 281 322
#     4  10  21  34  55  83 116 142 178 228 278 331
#     4   9  19  35  56  83 109 142 186 232 264 329
#     4  10  18  35  57  85 108 141 185 233 275 314
#     4   9  19  34  57  83 105 146 182 224 273 323
#     4   8  19  35  56  82 111 136 184 235 266 323
#     4  11  20  36  59  82 111 146 187 227 273 321
#
# _framework density 21.003021
#
# number of rings (size 3 to 8) (size 9 to 14) (size 15 to 20)
#    0.750    1.750    1.250    1.125    0.000    2.500 
#    0.000    2.500    0.000    0.000    0.000    0.000 
#    0.000    0.000    0.000    0.000    0.000    0.000 
#
# Total GULP energy -89091.028134 kJ/mol
# GULP energy per Si atom -5568.189258 kJ/mol
# Density = 2.095522 g / cm^3
# Si number density = 21.003021 Si / 1000 Ang^3
#
#
#
# Elastic Constant Matrix: (Units=GPa)
#
#
# Indices 1 2 3 4 5 6 
#
# 1 83.6539 -0.9767 10.5841 -11.2391 10.3430 0.1252
# 2 -0.9767 44.0820 14.4506 7.4113 1.6417 10.4006
# 3 10.5841 14.4506 54.6058 2.6823 16.1491 0.3934
# 4 -11.2391 7.4113 2.6823 21.9925 2.4253 3.9506
# 5 10.3430 1.6417 16.1491 2.4253 21.5298 -4.5432
# 6 0.1252 10.4006 0.3934 3.9506 -4.5432 17.1414
#
#
#
# Elastic Compliance Matrix: (Units=1/GPa)
#
#
# Indices 1 2 3 4 5 6 
#
# 1 0.014305 0.000493 -0.000872 0.008995 -0.008249 -0.004643
# 2 0.000493 0.030171 -0.007811 -0.006034 0.000496 -0.016608
# 3 -0.000872 -0.007811 0.026100 0.001306 -0.018959 -0.001179
# 4 0.008995 -0.006034 0.001306 0.055799 -0.013863 -0.012969
# 5 -0.008249 0.000496 -0.018959 -0.013863 0.070831 0.022163
# 6 -0.004643 -0.016608 -0.001179 -0.012969 0.022163 0.077339
#
#
# Mechanical properties :
#
#
# Convention : Reuss Voigt Hill
#
# Bulk Modulus (GPa) = 18.45097 25.60641 22.02869
# Shear Modulus (GPa) = 16.18170 22.68499 19.43335
#
# Velocity S-wave (km/s) = 2.77870 3.29003 3.04512
# Velocity P-wave (km/s) = 4.37023 5.16242 4.78276
#
# Compressibility (1/GPa) = 0.05419768
#
# Stress axis : x y z
#
# Youngs Moduli (GPa) = 69.90367 33.14461 38.31377
#
# Poissons Ratio (x) = -0.01635 0.03342
# Poissons Ratio (y) = -0.03449 0.29925
# Poissons Ratio (z) = 0.06097 0.25888
#
# Static dielectric constant tensor:
#      x y z
#    x 1.812040 -0.024370 -0.027880 
#    y -0.024370 1.739030 0.016560 
#    z -0.027880 0.016560 1.837910 
# 
# From -- ./inp_files/253534.got.cif
#   From: 2010.05.17/outbox.cif.g08.bks.cpg/sg2_127_cif.got.tgz:253534.got - 2010.06.03 11:33:40.
