data_PCOD9078006
_publ_section_title
;
Structure prediction by ZEFSAII (Michael W. Deem and Ramdas Pophale) SiO2 
 PCOD9078006
Probable space group: P -1
;
_chemical_formula_sum "Si O2"
_cell_formula_units_Z 16
_cell_length_a 22.883026
_cell_length_b 25.561866
_cell_length_c 16.366848
_cell_angle_alpha 22.860775
_cell_angle_beta 165.294783
_cell_angle_gamma 162.048557
_cell_volume 748.910544
_symmetry_space_group_name_H-M "P -1"
_symmetry_group_IT_number 2
_symmetry_cell_setting 'triclinic'
loop_
_space_group_symop_operation_xyz
x,y,z
-x,-y,-z
loop_
_atom_site_type_symbol
_atom_site_label
_atom_site_fract_x
_atom_site_fract_y
_atom_site_fract_z
Si Si1 0.918068 0.155177 0.121361
Si Si2 0.678372 0.253928 0.366513
Si Si3 0.314465 0.548876 0.402079
Si Si4 0.058376 0.368015 0.862493
Si Si5 0.534143 0.823089 0.974893
Si Si6 0.478153 0.892867 0.201078
Si Si7 0.442635 0.625519 0.281837
Si Si8 0.119819 0.191836 0.670986
O O1 0.235334 0.212358 0.488802
O O2 0.751494 0.000686 0.056366
O O3 0.947231 0.303287 0.896270
O O4 0.736188 0.117318 0.009663
O O5 0.842406 0.243863 0.677350
O O6 0.869972 0.451395 0.315634
O O7 0.628276 0.166336 0.336982
O O8 0.362713 0.201875 0.039457
O O9 0.347918 0.702888 0.271426
O O10 0.268666 0.555422 0.232699
O O11 0.119985 0.352907 0.451175
O O12 0.639623 0.603550 0.772863
O O13 0.348114 0.687761 0.989901
O O14 0.731549 0.780334 0.257571
O O15 0.806846 0.011511 0.510090
O O16 0.500000 0.000000 0.000000
O O17 0.500000 0.500000 0.500000
#
# Coordination Sequence:
#
# PCOD9078006 Si02
#       8
#     2   2   2   2   2   2   2   2
#     4  11  23  34  54  87 116 150 191 243 285 343
#     4   8  18  35  67  85 110 141 191 254 290 340
#     4  10  21  38  62  84 114 158 191 239 292 345
#     4   9  17  39  63  88 108 141 201 246 291 332
#     4  10  18  35  57  85 111 142 195 242 289 334
#     4  12  25  40  52  81 130 162 190 227 287 359
#     4  11  18  35  59  83 108 140 200 248 286 332
#     4   9  19  39  57  85 109 155 192 231 293 343
#
# _framework density 21.364367000000001
#
# number of rings (size 3 to 8) (size 9 to 14) (size 15 to 20)
#    0.750    1.250    1.250    4.125    0.000    1.000 
#    4.500    0.625    0.000    2.250    0.000    0.000 
#    0.000    0.000    0.000    0.000    0.000    0.000 
#
# Total GULP energy -89253.771231 kJ/mol
# GULP energy per Si atom -5578.360702 kJ/mol
# Density = 2.131574 g / cm^3
# Si number density = 21.364367 Si / 1000 Ang^3
#
#
#
# Elastic Constant Matrix: (Units=GPa)
#
#
# Indices 1 2 3 4 5 6 
#
# 1 74.4742 22.6169 18.2243 5.0233 -9.0955 -5.4478
# 2 22.6169 94.0686 17.6311 12.8928 -1.0534 -24.4450
# 3 18.2243 17.6311 42.8927 5.3333 -18.7235 1.1947
# 4 5.0233 12.8928 5.3333 25.3899 -6.5822 -1.9776
# 5 -9.0955 -1.0534 -18.7235 -6.5822 26.2988 -0.4924
# 6 -5.4478 -24.4450 1.1947 -1.9776 -0.4924 40.1029
#
#
#
# Elastic Compliance Matrix: (Units=1/GPa)
#
#
# Indices 1 2 3 4 5 6 
#
# 1 0.015690 -0.002664 -0.004729 -0.000211 0.001913 0.000662
# 2 -0.002664 0.016129 -0.008258 -0.007227 -0.007790 0.009264
# 3 -0.004729 -0.008258 0.040532 0.003270 0.027590 -0.006384
# 4 -0.000211 -0.007227 0.003270 0.045711 0.013367 -0.002113
# 5 0.001913 -0.007790 0.027590 0.013367 0.061290 -0.003899
# 6 0.000662 0.009264 -0.006384 -0.002113 -0.003899 0.030711
#
#
# Mechanical properties :
#
#
# Convention : Reuss Voigt Hill
#
# Bulk Modulus (GPa) = 24.36025 36.48667 30.42346
# Shear Modulus (GPa) = 19.60418 28.55585 24.08001
#
# Velocity S-wave (km/s) = 3.03250 3.65994 3.36089
# Velocity P-wave (km/s) = 4.86707 5.91401 5.41590
#
# Compressibility (1/GPa) = 0.04105048
#
# Stress axis : x y z
#
# Youngs Moduli (GPa) = 63.73583 61.99846 24.67164
#
# Poissons Ratio (x) = 0.16515 0.11666
# Poissons Ratio (y) = 0.16978 0.20374
# Poissons Ratio (z) = 0.30138 0.51200
#
# Static dielectric constant tensor:
#      x y z
#    x 1.822190 -0.049030 -0.035970 
#    y -0.049030 1.881120 0.034140 
#    z -0.035970 0.034140 1.823190 
# 
# From -- ./inp_files/541762.got.cif
#   From: 2010.05.17/outbox.cif.g08.bks.cpg/sg2_271_cif.got.tgz:541762.got - 2010.06.03 11:33:40.
