data_PCOD9078674
_publ_section_title
;
Structure prediction by ZEFSAII (Michael W. Deem and Ramdas Pophale) SiO2 
 PCOD9078674
Probable space group: P -1
;
_chemical_formula_sum "Si O2"
_cell_formula_units_Z 16
_cell_length_a 5.447678
_cell_length_b 25.634599
_cell_length_c 5.976057
_cell_angle_alpha 123.396546
_cell_angle_beta 105.505220
_cell_angle_gamma 91.566495
_cell_volume 655.412286
_symmetry_space_group_name_H-M "P -1"
_symmetry_group_IT_number 2
_symmetry_cell_setting 'triclinic'
loop_
_space_group_symop_operation_xyz
x,y,z
-x,-y,-z
loop_
_atom_site_type_symbol
_atom_site_label
_atom_site_fract_x
_atom_site_fract_y
_atom_site_fract_z
Si Si1 0.660363 0.764964 0.094128
Si Si2 0.988804 0.592001 0.843537
Si Si3 0.762840 0.663891 0.580305
Si Si4 0.493750 0.446424 0.058882
Si Si5 0.666176 0.053967 0.324542
Si Si6 0.467026 0.826290 0.565160
Si Si7 0.907672 0.274048 0.565443
Si Si8 0.225525 0.097523 0.522551
O O1 0.432187 0.776909 0.230230
O O2 0.751762 0.836289 0.178713
O O3 0.890639 0.752031 0.284704
O O4 0.598988 0.700488 0.785803
O O5 0.903053 0.618646 0.654009
O O6 0.218651 0.554401 0.786784
O O7 0.091629 0.655640 0.171597
O O8 0.728103 0.552994 0.809704
O O9 0.600326 0.621007 0.250226
O O10 0.969917 0.717766 0.630214
O O11 0.500000 0.500000 0.000000
O O12 0.708718 0.121792 0.363686
O O13 0.482764 0.066845 0.517191
O O14 0.963511 0.048408 0.407840
O O15 0.500000 0.000000 0.000000
O O16 0.365511 0.777198 0.619357
O O17 0.737807 0.873764 0.659911
#
# Coordination Sequence:
#
# PCOD9078674 Si02
#       8
#     2   2   2   2   2   2   2   2
#     4   8  17  36  51  83 122 150 199 259 299 372
#     4  10  25  42  65  95 129 157 211 268 299 375
#     4  10  23  39  66  95 121 174 204 250 336 367
#     4  11  25  47  67  94 130 166 210 258 306 373
#     4   9  15  26  46  78 111 152 204 243 300 365
#     4   8  17  28  55  75 123 153 195 262 302 355
#     4  10  18  36  55  86 122 155 201 256 310 371
#     4   8  16  27  47  71 111 150 189 257 298 342
#
# _framework density 24.412118
#
# number of rings (size 3 to 8) (size 9 to 14) (size 15 to 20)
#    1.500    1.000    1.250    0.750    5.250    3.000 
#    4.500    0.000    0.000    0.000    0.000    4.375 
#    0.000    0.000    0.000    0.000    0.000    1.875 
#
# Total GULP energy -89123.725128 kJ/mol
# GULP energy per Si atom -5570.232820 kJ/mol
# Density = 2.435656 g / cm^3
# Si number density = 24.412118 Si / 1000 Ang^3
#
#
#
# Elastic Constant Matrix: (Units=GPa)
#
#
# Indices 1 2 3 4 5 6 
#
# 1 156.2473 56.2102 35.6784 1.8895 1.5135 14.2792
# 2 56.2102 79.1786 14.3258 8.8611 -2.7915 1.2015
# 3 35.6784 14.3258 71.4042 12.2167 0.7527 3.8995
# 4 1.8895 8.8611 12.2167 20.5842 -5.6766 3.0092
# 5 1.5135 -2.7915 0.7527 -5.6766 27.7859 5.5357
# 6 14.2792 1.2015 3.8995 3.0092 5.5357 31.0129
#
#
#
# Elastic Compliance Matrix: (Units=1/GPa)
#
#
# Indices 1 2 3 4 5 6 
#
# 1 0.010292 -0.007030 -0.004458 0.005660 0.000931 -0.004621
# 2 -0.007030 0.018307 0.001104 -0.008411 -0.000171 0.003235
# 3 -0.004458 0.001104 0.017967 -0.011704 -0.002800 0.001386
# 4 0.005660 -0.008411 -0.011704 0.063916 0.014120 -0.009531
# 5 0.000931 -0.000171 -0.002800 0.014120 0.040613 -0.008689
# 6 -0.004621 0.003235 0.001386 -0.009531 -0.008689 0.036549
#
#
# Mechanical properties :
#
#
# Convention : Reuss Voigt Hill
#
# Bulk Modulus (GPa) = 38.76308 57.69542 48.22925
# Shear Modulus (GPa) = 23.04020 29.25098 26.14559
#
# Velocity S-wave (km/s) = 3.07547 3.46528 3.27618
# Velocity P-wave (km/s) = 5.34083 6.30049 5.84040
#
# Compressibility (1/GPa) = 0.02579774
#
# Stress axis : x y z
#
# Youngs Moduli (GPa) = 97.16165 54.62364 55.65735
#
# Poissons Ratio (x) = 0.38403 0.24812
# Poissons Ratio (y) = 0.68309 -0.06145
# Poissons Ratio (z) = 0.43314 -0.06031
#
# Static dielectric constant tensor:
#      x y z
#    x 2.034400 -0.010450 0.037410 
#    y -0.010450 1.945200 -0.013750 
#    z 0.037410 -0.013750 1.951360 
# 
# From -- ./inp_files/14815.got.cif
#   From: 2010.05.17/outbox.cif.g08.bks.cpg/sg2_8_cif.got.tgz:14815.got - 2010.06.03 11:33:40.
