data_PCOD9078260
_publ_section_title
;
Structure prediction by ZEFSAII (Michael W. Deem and Ramdas Pophale) SiO2 
 PCOD9078260
Probable space group: P -1
;
_chemical_formula_sum "Si O2"
_cell_formula_units_Z 14
_cell_length_a 13.281268
_cell_length_b 15.684798
_cell_length_c 7.102695
_cell_angle_alpha 112.147400
_cell_angle_beta 82.864409
_cell_angle_gamma 152.504127
_cell_volume 550.995122
_symmetry_space_group_name_H-M "P -1"
_symmetry_group_IT_number 2
_symmetry_cell_setting 'triclinic'
loop_
_space_group_symop_operation_xyz
x,y,z
-x,-y,-z
loop_
_atom_site_type_symbol
_atom_site_label
_atom_site_fract_x
_atom_site_fract_y
_atom_site_fract_z
Si Si1 0.142917 0.258270 0.125666
Si Si2 0.370968 0.262935 0.165294
Si Si3 0.872982 0.980921 0.606925
Si Si4 0.698889 0.023680 0.628398
Si Si5 0.952042 0.626874 0.836203
Si Si6 0.696694 0.229238 0.251343
Si Si7 0.192339 0.512423 0.837911
O O1 0.348958 0.351938 0.196289
O O2 0.169076 0.388717 0.261536
O O3 0.884467 0.002690 0.066992
O O4 0.094506 0.208748 0.871586
O O5 0.327196 0.218716 0.360684
O O6 0.620025 0.417029 0.178062
O O7 0.736060 0.948696 0.499763
O O8 0.000000 0.000000 0.500000
O O9 0.900059 0.246501 0.647146
O O10 0.430032 0.842730 0.583867
O O11 0.818720 0.131969 0.903399
O O12 0.060012 0.635006 0.690790
O O13 0.803679 0.465447 0.918916
O O14 0.730360 0.340835 0.190765
O O15 0.500000 0.000000 0.000000
#
# Coordination Sequence:
#
# PCOD9078260 Si02
#       7
#     2   2   2   2   2   2   2
#     4   8  16  30  41  65  93 120 139 183 223 260
#     4   9  15  27  46  62  92 121 140 184 222 262
#     4   9  15  30  46  62  89 121 152 183 214 260
#     4   8  17  26  40  64  90 115 143 185 221 260
#     4   8  16  24  39  63  89 119 141 176 219 269
#     4  10  15  26  41  61  97 116 142 182 226 262
#     4  10  16  26  42  65  90 119 147 174 233 258
#
# _framework density 25.408574999999999
#
# number of rings (size 3 to 8) (size 9 to 14) (size 15 to 20)
#    1.714    1.429    1.429    1.286    0.000    0.571 
#    0.000    0.714    0.000    0.000    0.000    1.000 
#    0.000    2.286    0.000    0.000    0.000    0.000 
#
# Total GULP energy -78057.635959 kJ/mol
# GULP energy per Si atom -5575.545426 kJ/mol
# Density = 2.535074 g / cm^3
# Si number density = 25.408575 Si / 1000 Ang^3
#
#
#
# Elastic Constant Matrix: (Units=GPa)
#
#
# Indices 1 2 3 4 5 6 
#
# 1 214.2058 101.7718 33.0109 -5.6060 -35.0955 14.7248
# 2 101.7718 166.4379 28.0341 -6.6783 -18.8267 24.4180
# 3 33.0109 28.0341 48.7198 -2.4598 -6.3950 16.4701
# 4 -5.6060 -6.6783 -2.4598 28.5109 15.9951 -8.6882
# 5 -35.0955 -18.8267 -6.3950 15.9951 31.5194 -10.1610
# 6 14.7248 24.4180 16.4701 -8.6882 -10.1610 46.4935
#
#
#
# Elastic Compliance Matrix: (Units=1/GPa)
#
#
# Indices 1 2 3 4 5 6 
#
# 1 0.008201 -0.003941 -0.002908 -0.003950 0.008732 0.001673
# 2 -0.003941 0.009084 -0.001597 0.000626 -0.000559 -0.002962
# 3 -0.002908 -0.001597 0.025848 -0.000371 -0.001254 -0.007740
# 4 -0.003950 0.000626 -0.000371 0.052091 -0.029107 0.004426
# 5 0.008732 -0.000559 -0.001254 -0.029107 0.057258 0.005047
# 6 0.001673 -0.002962 -0.007740 0.004426 0.005047 0.027206
#
#
# Mechanical properties :
#
#
# Convention : Reuss Voigt Hill
#
# Bulk Modulus (GPa) = 38.10851 83.88858 60.99854
# Shear Modulus (GPa) = 24.35145 39.07455 31.71300
#
# Velocity S-wave (km/s) = 3.09915 3.92580 3.53671
# Velocity P-wave (km/s) = 5.27610 7.32371 6.38255
#
# Compressibility (1/GPa) = 0.02624086
#
# Stress axis : x y z
#
# Youngs Moduli (GPa) = 121.93211 110.08868 38.68782
#
# Poissons Ratio (x) = 0.43389 0.11250
# Poissons Ratio (y) = 0.48057 0.06178
# Poissons Ratio (z) = 0.35456 0.17580
#
# Static dielectric constant tensor:
#      x y z
#    x 2.042760 0.066170 0.030410 
#    y 0.066170 2.027680 0.095930 
#    z 0.030410 0.095930 2.136220 
# 
# From -- ./inp_files/430152.got.cif
#   From: 2010.05.17/outbox.cif.g08.bks.cpg/sg2_216_cif.got.tgz:430152.got - 2010.06.03 11:33:40.
