data_PCOD9078661
_publ_section_title
;
Structure prediction by ZEFSAII (Michael W. Deem and Ramdas Pophale) SiO2 
 PCOD9078661
Probable space group: P -1
;
_chemical_formula_sum "Si O2"
_cell_formula_units_Z 14
_cell_length_a 5.306239
_cell_length_b 9.102904
_cell_length_c 24.020040
_cell_angle_alpha 46.968743
_cell_angle_beta 56.537929
_cell_angle_gamma 82.084737
_cell_volume 651.145671
_symmetry_space_group_name_H-M "P -1"
_symmetry_group_IT_number 2
_symmetry_cell_setting 'triclinic'
loop_
_space_group_symop_operation_xyz
x,y,z
-x,-y,-z
loop_
_atom_site_type_symbol
_atom_site_label
_atom_site_fract_x
_atom_site_fract_y
_atom_site_fract_z
Si Si1 0.378899 0.754630 0.124550
Si Si2 0.935985 0.966144 0.293028
Si Si3 0.446330 0.610132 0.259704
Si Si4 0.133043 0.612848 0.787404
Si Si5 0.726350 0.320376 0.616391
Si Si6 0.863252 0.680585 0.908962
Si Si7 0.053958 0.073831 0.059315
O O1 0.213842 0.627674 0.234068
O O2 0.190769 0.586520 0.142419
O O3 0.314488 0.975091 0.075621
O O4 0.762923 0.813740 0.048731
O O5 0.603154 0.793891 0.350328
O O6 0.134085 0.856421 0.332735
O O7 0.863726 0.150388 0.289189
O O8 0.140668 0.109246 0.179051
O O9 0.581690 0.437806 0.263146
O O10 0.337036 0.576971 0.344756
O O11 0.725306 0.857017 0.156560
O O12 0.110759 0.617689 0.856161
O O13 0.000000 0.500000 0.500000
O O14 0.981428 0.756140 0.936908
O O15 0.500000 0.500000 0.000000
#
# Coordination Sequence:
#
# PCOD9078661 Si02
#       7
#     2   2   2   2   2   2   2
#     4  10  20  33  58  88 131 173 215 260 329 398
#     4  10  24  46  69 100 136 171 224 283 332 399
#     4  11  22  38  60  92 128 171 220 283 329 398
#     4   9  22  36  61  92 134 169 212 265 336 387
#     4  12  26  48  75  96 125 178 236 285 340 395
#     4  10  18  38  63  94 137 185 219 262 325 410
#     4  10  18  36  54  87 127 176 221 260 318 394
#
# _framework density 21.500567
#
# number of rings (size 3 to 8) (size 9 to 14) (size 15 to 20)
#    0.857    0.857    2.857    1.714    4.000    0.000 
#    2.571    2.857    0.000    0.000    0.000    0.000 
#    0.000    0.000    0.000    0.000    0.000    0.000 
#
# Total GULP energy -78048.946263 kJ/mol
# GULP energy per Si atom -5574.924733 kJ/mol
# Density = 2.145163 g / cm^3
# Si number density = 21.500567 Si / 1000 Ang^3
#
#
#
# Elastic Constant Matrix: (Units=GPa)
#
#
# Indices 1 2 3 4 5 6 
#
# 1 28.6167 9.2762 -4.1738 4.7414 2.5122 -3.5234
# 2 9.2762 153.5553 20.3562 29.0793 3.3542 -0.4454
# 3 -4.1738 20.3562 100.3634 21.3548 1.5372 6.1359
# 4 4.7414 29.0793 21.3548 29.3590 5.2877 4.3827
# 5 2.5122 3.3542 1.5372 5.2877 18.3744 -1.9649
# 6 -3.5234 -0.4454 6.1359 4.3827 -1.9649 33.0694
#
#
#
# Elastic Compliance Matrix: (Units=1/GPa)
#
#
# Indices 1 2 3 4 5 6 
#
# 1 0.037777 -0.001244 0.003164 -0.007326 -0.002641 0.004235
# 2 -0.001244 0.008123 -0.000043 -0.008194 0.001171 0.001140
# 3 0.003164 -0.000043 0.012126 -0.009416 0.001207 -0.000594
# 4 -0.007326 -0.008194 -0.009416 0.053576 -0.012882 -0.007010
# 5 -0.002641 0.001171 0.001207 -0.012882 0.058680 0.004704
# 6 0.004235 0.001140 -0.000594 -0.007010 0.004704 0.032025
#
#
# Mechanical properties :
#
#
# Convention : Reuss Voigt Hill
#
# Bulk Modulus (GPa) = 16.18722 37.05030 26.61876
# Shear Modulus (GPa) = 22.81588 33.29902 28.05745
#
# Velocity S-wave (km/s) = 3.26110 3.93969 3.61635
# Velocity P-wave (km/s) = 4.66099 6.16153 5.46303
#
# Compressibility (1/GPa) = 0.06177713
#
# Stress axis : x y z
#
# Youngs Moduli (GPa) = 26.47145 123.11242 82.47037
#
# Poissons Ratio (x) = 0.15317 -0.26091
# Poissons Ratio (y) = 0.03293 0.00358
# Poissons Ratio (z) = -0.08375 0.00535
#
# Static dielectric constant tensor:
#      x y z
#    x 1.916920 0.005430 0.038830 
#    y 0.005430 1.825710 0.026330 
#    z 0.038830 0.026330 1.781200 
# 
# From -- ./inp_files/140798.got.cif
#   From: 2010.05.17/outbox.cif.g08.bks.cpg/sg2_71_cif.got.tgz:140798.got - 2010.06.03 11:33:40.
