data_PCOD9078339
_publ_section_title
;
Structure prediction by ZEFSAII (Michael W. Deem and Ramdas Pophale) SiO2 
 PCOD9078339
Probable space group: P -1
;
_chemical_formula_sum "Si O2"
_cell_formula_units_Z 16
_cell_length_a 8.381656
_cell_length_b 17.379259
_cell_length_c 12.115470
_cell_angle_alpha 26.860629
_cell_angle_beta 130.053583
_cell_angle_gamma 130.867685
_cell_volume 593.698853
_symmetry_space_group_name_H-M "P -1"
_symmetry_group_IT_number 2
_symmetry_cell_setting 'triclinic'
loop_
_space_group_symop_operation_xyz
x,y,z
-x,-y,-z
loop_
_atom_site_type_symbol
_atom_site_label
_atom_site_fract_x
_atom_site_fract_y
_atom_site_fract_z
Si Si1 0.501102 0.076436 0.082464
Si Si2 0.545720 0.382879 0.568280
Si Si3 0.142354 0.877587 0.670318
Si Si4 0.074401 0.755967 0.574426
Si Si5 0.578791 0.779964 0.741280
Si Si6 0.837496 0.865980 0.960410
Si Si7 0.492644 0.668708 0.616568
Si Si8 0.997971 0.591827 0.526677
O O1 0.729935 0.184146 0.095341
O O2 0.323875 0.092821 0.072067
O O3 0.508201 0.874879 0.334709
O O4 0.466725 0.181756 0.824988
O O5 0.500000 0.500000 0.500000
O O6 0.449536 0.411897 0.368897
O O7 0.804317 0.435719 0.602046
O O8 0.024685 0.742876 0.699116
O O9 0.328269 0.016465 0.509747
O O10 0.000000 0.000000 0.500000
O O11 0.325475 0.749726 0.684882
O O12 0.959165 0.628841 0.590857
O O13 0.046415 0.947662 0.277711
O O14 0.703749 0.762186 0.931532
O O15 0.613935 0.674254 0.780909
O O16 0.974670 0.755404 0.229915
O O17 0.243141 0.584444 0.636949
#
# Coordination Sequence:
#
# PCOD9078339 Si02
#       8
#     2   2   2   2   2   2   2   2
#     4  11  21  41  67  92 126 167 208 259 312 374
#     4  12  26  41  59  91 138 171 197 256 327 373
#     4  10  19  33  59  95 126 156 204 267 313 359
#     4  10  18  35  61  88 120 159 213 252 304 365
#     4   9  18  36  63  88 116 158 207 266 300 359
#     4  11  17  35  67  95 118 159 214 252 312 362
#     4  10  23  43  67  90 119 165 223 257 303 367
#     4  11  23  37  63  94 124 166 208 260 303 376
#
# _framework density 26.94969
#
# number of rings (size 3 to 8) (size 9 to 14) (size 15 to 20)
#    0.000    1.500    6.250    1.875    0.000    4.000 
#    0.000    1.250    0.000    0.000    0.000    0.000 
#    0.000    0.000    0.000    0.000    0.000    0.000 
#
# Total GULP energy -89575.093563 kJ/mol
# GULP energy per Si atom -5598.443348 kJ/mol
# Density = 2.688835 g / cm^3
# Si number density = 26.949690 Si / 1000 Ang^3
#
#
#
# Elastic Constant Matrix: (Units=GPa)
#
#
# Indices 1 2 3 4 5 6 
#
# 1 65.1714 62.3226 -7.7681 13.2526 -1.7580 -38.8255
# 2 62.3226 161.4601 16.0762 30.4530 -7.1807 -24.2465
# 3 -7.7681 16.0762 61.9413 -11.0087 -5.7110 -9.4075
# 4 13.2526 30.4530 -11.0087 43.5951 -3.7365 -9.6282
# 5 -1.7580 -7.1807 -5.7110 -3.7365 23.9426 6.6260
# 6 -38.8255 -24.2465 -9.4075 -9.6282 6.6260 65.1131
#
#
#
# Elastic Compliance Matrix: (Units=1/GPa)
#
#
# Indices 1 2 3 4 5 6 
#
# 1 0.047643 -0.017567 0.015261 0.006924 -0.004110 0.025514
# 2 -0.017567 0.014295 -0.008406 -0.008329 0.001847 -0.007786
# 3 0.015261 -0.008406 0.023863 0.009843 0.002900 0.010578
# 4 0.006924 -0.008329 0.009843 0.030898 0.003332 0.006679
# 5 -0.004110 0.001847 0.002900 0.003332 0.044726 -0.005403
# 6 0.025514 -0.007786 0.010578 0.006679 -0.005403 0.030738
#
#
# Mechanical properties :
#
#
# Convention : Reuss Voigt Hill
#
# Bulk Modulus (GPa) = 15.53329 47.75937 31.64633
# Shear Modulus (GPa) = 21.27253 41.05964 31.16608
#
# Velocity S-wave (km/s) = 2.81257 3.90752 3.40436
# Velocity P-wave (km/s) = 4.04026 6.17402 5.21738
#
# Compressibility (1/GPa) = 0.06437788
#
# Stress axis : x y z
#
# Youngs Moduli (GPa) = 20.98954 69.95440 41.90567
#
# Poissons Ratio (x) = 1.22887 -0.63951
# Poissons Ratio (y) = 0.36872 0.35224
# Poissons Ratio (z) = -0.32032 0.58801
#
# Static dielectric constant tensor:
#      x y z
#    x 2.105270 -0.021560 -0.016570 
#    y -0.021560 2.162350 -0.001650 
#    z -0.016570 -0.001650 2.054830 
# 
# From -- ./inp_files/347458.got.cif
#   From: 2010.05.17/outbox.cif.g08.bks.cpg/sg2_174_cif.got.tgz:347458.got - 2010.06.03 11:33:40.
