data_PCOD9078803
_publ_section_title
;
Structure prediction by ZEFSAII (Michael W. Deem and Ramdas Pophale) SiO2 
 PCOD9078803
Probable space group: P -1
;
_chemical_formula_sum "Si O2"
_cell_formula_units_Z 16
_cell_length_a 5.140465
_cell_length_b 12.488606
_cell_length_c 18.939163
_cell_angle_alpha 38.061416
_cell_angle_beta 61.125378
_cell_angle_gamma 63.713948
_cell_volume 651.951318
_symmetry_space_group_name_H-M "P -1"
_symmetry_group_IT_number 2
_symmetry_cell_setting 'triclinic'
loop_
_space_group_symop_operation_xyz
x,y,z
-x,-y,-z
loop_
_atom_site_type_symbol
_atom_site_label
_atom_site_fract_x
_atom_site_fract_y
_atom_site_fract_z
Si Si1 0.379970 0.908404 0.246913
Si Si2 0.189772 0.443253 0.098990
Si Si3 0.691559 0.217792 0.404582
Si Si4 0.816378 0.000303 0.364379
Si Si5 0.179516 0.443132 0.268607
Si Si6 0.155008 0.185275 0.879515
Si Si7 0.409288 0.855408 0.815806
Si Si8 0.179410 0.243473 0.004671
O O1 0.575298 0.799065 0.219566
O O2 0.083808 0.890388 0.341229
O O3 0.602831 0.946099 0.260877
O O4 0.324398 0.091164 0.114380
O O5 0.256151 0.240703 0.174164
O O6 0.121720 0.441090 0.939898
O O7 0.205440 0.449447 0.177607
O O8 0.500000 0.500000 0.000000
O O9 0.461659 0.111793 0.531270
O O10 0.916787 0.313387 0.374447
O O11 0.471382 0.360936 0.314741
O O12 0.855210 0.083460 0.394143
O O13 0.694104 0.151910 0.246593
O O14 0.081486 0.646142 0.194844
O O15 0.280202 0.216415 0.925561
O O16 0.000000 0.000000 0.000000
O O17 0.170785 0.785210 0.934969
#
# Coordination Sequence:
#
# PCOD9078803 Si02
#       8
#     2   2   2   2   2   2   2   2
#     4  11  22  37  63  95 131 175 228 276 333 407
#     4   9  18  36  56  90 135 164 212 265 338 394
#     4  11  25  47  71 101 134 178 229 288 350 396
#     4  10  24  40  72  96 132 175 225 287 345 406
#     4  11  25  45  69 100 136 179 228 281 336 407
#     4  11  23  44  66  96 134 184 227 274 334 410
#     4  10  18  36  58  95 128 162 216 271 333 407
#     4   9  20  35  55  90 124 175 213 266 326 401
#
# _framework density 24.541709000000001
#
# number of rings (size 3 to 8) (size 9 to 14) (size 15 to 20)
#    0.000    1.750    2.500    1.125    1.750    4.500 
#    0.000    1.250    0.000    0.000    0.000    0.000 
#    0.000    0.000    0.000    0.000    0.000    0.000 
#
# Total GULP energy -89151.289574 kJ/mol
# GULP energy per Si atom -5571.955598 kJ/mol
# Density = 2.448585 g / cm^3
# Si number density = 24.541709 Si / 1000 Ang^3
#
#
#
# Elastic Constant Matrix: (Units=GPa)
#
#
# Indices 1 2 3 4 5 6 
#
# 1 69.2374 14.0411 13.6672 -4.7654 -12.1119 3.7074
# 2 14.0411 124.5591 38.8870 22.5897 -7.9082 -15.6952
# 3 13.6672 38.8870 91.1332 26.3528 -31.8650 -4.8327
# 4 -4.7654 22.5897 26.3528 45.9232 -5.2720 -1.4816
# 5 -12.1119 -7.9082 -31.8650 -5.2720 44.4487 -4.4178
# 6 3.7074 -15.6952 -4.8327 -1.4816 -4.4178 31.2921
#
#
#
# Elastic Compliance Matrix: (Units=1/GPa)
#
#
# Indices 1 2 3 4 5 6 
#
# 1 0.016163 -0.002141 -0.001772 0.004002 0.002964 -0.002655
# 2 -0.002141 0.010433 -0.003224 -0.003466 -0.000984 0.004685
# 3 -0.001772 -0.003224 0.019408 -0.008244 0.012169 0.002918
# 4 0.004002 -0.003466 -0.008244 0.028279 -0.002328 -0.002475
# 5 0.002964 -0.000984 0.012169 -0.002328 0.032121 0.005459
# 6 -0.002655 0.004685 0.002918 -0.002475 0.005459 0.035726
#
#
# Mechanical properties :
#
#
# Convention : Reuss Voigt Hill
#
# Bulk Modulus (GPa) = 31.51600 46.45780 38.98690
# Shear Modulus (GPa) = 29.94369 38.88842 34.41605
#
# Velocity S-wave (km/s) = 3.49680 3.98500 3.74886
# Velocity P-wave (km/s) = 5.40122 6.33600 5.88719
#
# Compressibility (1/GPa) = 0.03172992
#
# Stress axis : x y z
#
# Youngs Moduli (GPa) = 61.86946 95.85317 51.52497
#
# Poissons Ratio (x) = 0.20520 0.09131
# Poissons Ratio (y) = 0.13245 0.16611
# Poissons Ratio (z) = 0.10964 0.30903
#
# Static dielectric constant tensor:
#      x y z
#    x 1.970600 -0.034250 0.001850 
#    y -0.034250 2.059340 -0.145580 
#    z 0.001850 -0.145580 2.175010 
# 
# From -- ./inp_files/549410.got.cif
#   From: 2010.05.17/outbox.cif.g08.bks.cpg/sg2_275_cif.got.tgz:549410.got - 2010.06.03 11:33:40.
