data_PCOD9078659
_publ_section_title
;
Structure prediction by ZEFSAII (Michael W. Deem and Ramdas Pophale) SiO2 
 PCOD9078659
Probable space group: P -1
;
_chemical_formula_sum "Si O2"
_cell_formula_units_Z 16
_cell_length_a 11.921453
_cell_length_b 11.336863
_cell_length_c 17.240396
_cell_angle_alpha 40.299892
_cell_angle_beta 147.881187
_cell_angle_gamma 128.765304
_cell_volume 799.939943
_symmetry_space_group_name_H-M "P -1"
_symmetry_group_IT_number 2
_symmetry_cell_setting 'triclinic'
loop_
_space_group_symop_operation_xyz
x,y,z
-x,-y,-z
loop_
_atom_site_type_symbol
_atom_site_label
_atom_site_fract_x
_atom_site_fract_y
_atom_site_fract_z
Si Si1 0.160679 0.845470 0.728924
Si Si2 0.967315 0.700438 0.141310
Si Si3 0.794590 0.282218 0.458921
Si Si4 0.181080 0.474756 0.511772
Si Si5 0.701435 0.045036 0.867657
Si Si6 0.253592 0.010430 0.541608
Si Si7 0.583683 0.508294 0.956277
Si Si8 0.445635 0.119629 0.832178
O O1 0.179016 0.868010 0.635489
O O2 0.241546 0.029527 0.720908
O O3 0.335358 0.687754 0.929732
O O4 0.923438 0.825566 0.629945
O O5 0.078761 0.539122 0.338374
O O6 0.143174 0.808423 0.146472
O O7 0.792252 0.621676 0.022852
O O8 0.829088 0.848597 0.037583
O O9 0.785170 0.337692 0.515591
O O10 0.768461 0.080797 0.509698
O O11 0.603191 0.401334 0.248075
O O12 0.011022 0.359203 0.515683
O O13 0.385031 0.334438 0.698603
O O14 0.624010 0.088071 0.887248
O O15 0.491961 0.044389 0.690217
O O16 0.500000 0.500000 0.000000
O O17 0.500000 0.000000 0.000000
#
# Coordination Sequence:
#
# PCOD9078659 Si02
#       8
#     2   2   2   2   2   2   2   2
#     4  10  20  31  57  87 114 150 200 254 295 352
#     4  11  23  41  61  93 123 163 208 247 301 375
#     4  11  21  36  59  91 121 154 200 263 301 353
#     4  11  24  36  61  95 124 156 204 253 309 357
#     4  10  24  40  63  87 125 165 203 249 309 362
#     4  10  18  36  54  84 117 154 201 246 301 352
#     4  12  19  34  61  88 117 158 203 252 299 354
#     4  11  23  40  61  91 126 159 199 256 312 357
#
# _framework density 20.001501999999999
#
# number of rings (size 3 to 8) (size 9 to 14) (size 15 to 20)
#    0.000    1.250    5.000    1.500    7.000    0.500 
#    0.000    0.625    2.750    1.500    0.000    0.000 
#    0.000    0.000    0.000    0.000    0.000    0.000 
#
# Total GULP energy -89282.209886 kJ/mol
# GULP energy per Si atom -5580.138118 kJ/mol
# Density = 1.995598 g / cm^3
# Si number density = 20.001502 Si / 1000 Ang^3
#
#
#
# Elastic Constant Matrix: (Units=GPa)
#
#
# Indices 1 2 3 4 5 6 
#
# 1 72.6321 27.8865 25.3861 2.9393 24.5427 -8.7375
# 2 27.8865 58.5742 -8.8450 8.0484 15.2398 -6.7986
# 3 25.3861 -8.8450 60.3542 -0.5267 23.6113 -0.5104
# 4 2.9393 8.0484 -0.5267 31.3989 -2.1329 3.9201
# 5 24.5427 15.2398 23.6113 -2.1329 23.3404 4.1395
# 6 -8.7375 -6.7986 -0.5104 3.9201 4.1395 24.7546
#
#
#
# Elastic Compliance Matrix: (Units=1/GPa)
#
#
# Indices 1 2 3 4 5 6 
#
# 1 0.026700 -0.002563 0.000014 -0.005664 -0.029516 0.014554
# 2 -0.002563 0.049933 0.037985 -0.020730 -0.075460 0.029494
# 3 0.000014 0.037985 0.057330 -0.018565 -0.089754 0.029568
# 4 -0.005664 -0.020730 -0.018565 0.043354 0.046256 -0.022676
# 5 -0.029516 -0.075460 -0.089754 0.046256 0.232211 -0.079149
# 6 0.014554 0.029494 0.029568 -0.022676 -0.079149 0.071070
#
#
# Mechanical properties :
#
#
# Convention : Reuss Voigt Hill
#
# Bulk Modulus (GPa) = 4.88191 31.15729 18.01960
# Shear Modulus (GPa) = 10.46015 25.70763 18.08389
#
# Velocity S-wave (km/s) = 2.28933 3.58898 3.01013
# Velocity P-wave (km/s) = 3.07150 5.72587 4.59455
#
# Compressibility (1/GPa) = 0.20483790
#
# Stress axis : x y z
#
# Youngs Moduli (GPa) = 37.45253 20.02672 17.44277
#
# Poissons Ratio (x) = 0.05132 -0.00025
# Poissons Ratio (y) = 0.09598 -0.66257
# Poissons Ratio (z) = -0.00054 -0.76072
#
# Static dielectric constant tensor:
#      x y z
#    x 1.717500 -0.057200 0.028220 
#    y -0.057200 1.758810 -0.007330 
#    z 0.028220 -0.007330 1.720200 
# 
# From -- ./inp_files/262318.got.cif
#   From: 2010.05.17/outbox.cif.g08.bks.cpg/sg2_132_cif.got.tgz:262318.got - 2010.06.03 11:33:40.
