data_PCOD9078485
_publ_section_title
;
Structure prediction by ZEFSAII (Michael W. Deem and Ramdas Pophale) SiO2 
 PCOD9078485
Probable space group: P -1
;
_chemical_formula_sum "Si O2"
_cell_formula_units_Z 16
_cell_length_a 27.852110
_cell_length_b 20.091001
_cell_length_c 15.405534
_cell_angle_alpha 153.187486
_cell_angle_beta 163.566744
_cell_angle_gamma 17.050647
_cell_volume 683.168953
_symmetry_space_group_name_H-M "P -1"
_symmetry_group_IT_number 2
_symmetry_cell_setting 'triclinic'
loop_
_space_group_symop_operation_xyz
x,y,z
-x,-y,-z
loop_
_atom_site_type_symbol
_atom_site_label
_atom_site_fract_x
_atom_site_fract_y
_atom_site_fract_z
Si Si1 0.160137 0.999355 0.865827
Si Si2 0.533086 0.316353 0.440402
Si Si3 0.251726 0.262155 0.607179
Si Si4 0.000544 0.585321 0.193530
Si Si5 0.626209 0.246113 0.320837
Si Si6 0.255518 0.629219 0.571877
Si Si7 0.577892 0.138185 0.478542
Si Si8 0.879715 0.685926 0.754896
O O1 0.917701 0.088351 0.603642
O O2 0.000149 0.181727 0.718934
O O3 0.353625 0.731054 0.865802
O O4 0.262452 0.063718 0.174696
O O5 0.632139 0.213727 0.396283
O O6 0.548571 0.482279 0.676197
O O7 0.684094 0.120048 0.548423
O O8 0.207387 0.499562 0.095461
O O9 0.222386 0.298974 0.496635
O O10 0.000000 0.500000 0.500000
O O11 0.256327 0.084169 0.431198
O O12 0.500349 0.194195 0.991734
O O13 0.143471 0.639589 0.479535
O O14 0.146923 0.404108 0.314877
O O15 0.685460 0.787414 0.909148
O O16 0.000000 0.500000 0.000000
O O17 0.467602 0.364144 0.594564
#
# Coordination Sequence:
#
# PCOD9078485 Si02
#       8
#     2   2   2   2   2   2   2   2
#     4  10  19  35  67  89 115 151 206 240 294 352
#     4   9  18  38  66  84 115 156 210 245 284 349
#     4  12  25  39  57  87 130 161 190 243 316 352
#     4   9  16  35  64  89 116 149 205 247 288 343
#     4  10  19  37  62  91 118 154 201 246 295 357
#     4  10  18  35  63  91 110 151 203 252 283 339
#     4  10  20  38  59  89 121 155 197 250 290 352
#     4  10  19  39  59  90 123 156 192 250 302 353
#
# _framework density 23.420266999999999
#
# number of rings (size 3 to 8) (size 9 to 14) (size 15 to 20)
#    0.000    2.000    6.250    0.750    0.000    0.500 
#    2.250    5.000    0.000    0.000    0.000    0.000 
#    0.000    0.000    0.000    0.000    0.000    0.000 
#
# Total GULP energy -89377.283822 kJ/mol
# GULP energy per Si atom -5586.080239 kJ/mol
# Density = 2.336696 g / cm^3
# Si number density = 23.420267 Si / 1000 Ang^3
#
#
#
# Elastic Constant Matrix: (Units=GPa)
#
#
# Indices 1 2 3 4 5 6 
#
# 1 176.0638 67.7498 37.7781 19.8884 -11.2931 39.5824
# 2 67.7498 131.5022 37.8236 28.5625 -9.8208 20.0278
# 3 37.7781 37.8236 64.2100 22.8878 -8.3644 1.3174
# 4 19.8884 28.5625 22.8878 30.1911 -7.6309 3.9581
# 5 -11.2931 -9.8208 -8.3644 -7.6309 32.9286 5.6419
# 6 39.5824 20.0278 1.3174 3.9581 5.6419 33.0730
#
#
#
# Elastic Compliance Matrix: (Units=1/GPa)
#
#
# Indices 1 2 3 4 5 6 
#
# 1 0.010159 -0.002197 -0.004357 0.001196 0.003965 -0.011474
# 2 -0.002197 0.011678 -0.003040 -0.006535 0.001081 -0.003724
# 3 -0.004357 -0.003040 0.024742 -0.014242 -0.000771 0.007906
# 4 0.001196 -0.006535 -0.014242 0.051814 0.007605 -0.004405
# 5 0.003965 0.001081 -0.000771 0.007605 0.035738 -0.012376
# 6 -0.011474 -0.003724 0.007906 -0.004405 -0.012376 0.048547
#
#
# Mechanical properties :
#
#
# Convention : Reuss Voigt Hill
#
# Bulk Modulus (GPa) = 36.50836 73.16434 54.83635
# Shear Modulus (GPa) = 23.69717 34.46683 29.08200
#
# Velocity S-wave (km/s) = 3.18437 3.84039 3.52766
# Velocity P-wave (km/s) = 5.39838 7.13950 6.32909
#
# Compressibility (1/GPa) = 0.02739099
#
# Stress axis : x y z
#
# Youngs Moduli (GPa) = 98.43676 85.63283 40.41671
#
# Poissons Ratio (x) = 0.18810 0.17611
# Poissons Ratio (y) = 0.21623 0.12287
# Poissons Ratio (z) = 0.42892 0.26032
#
# Static dielectric constant tensor:
#      x y z
#    x 1.885770 -0.013550 0.013390 
#    y -0.013550 1.974370 -0.022600 
#    z 0.013390 -0.022600 1.937960 
# 
# From -- ./inp_files/544298.got.cif
#   From: 2010.05.17/outbox.cif.g08.bks.cpg/sg2_273_cif.got.tgz:544298.got - 2010.06.03 11:33:40.
