data_PCOD9078832
_publ_section_title
;
Structure prediction by ZEFSAII (Michael W. Deem and Ramdas Pophale) SiO2 
 PCOD9078832
Probable space group: P -1
;
_chemical_formula_sum "Si O2"
_cell_formula_units_Z 14
_cell_length_a 8.131338
_cell_length_b 15.800564
_cell_length_c 9.293801
_cell_angle_alpha 40.384373
_cell_angle_beta 133.364921
_cell_angle_gamma 118.369897
_cell_volume 559.527953
_symmetry_space_group_name_H-M "P -1"
_symmetry_group_IT_number 2
_symmetry_cell_setting 'triclinic'
loop_
_space_group_symop_operation_xyz
x,y,z
-x,-y,-z
loop_
_atom_site_type_symbol
_atom_site_label
_atom_site_fract_x
_atom_site_fract_y
_atom_site_fract_z
Si Si1 0.455469 0.924395 0.265375
Si Si2 0.830016 0.858151 0.346737
Si Si3 0.264292 0.680500 0.557203
Si Si4 0.826002 0.409090 0.820104
Si Si5 0.669021 0.179434 0.171160
Si Si6 0.777794 0.669223 0.288229
Si Si7 0.290712 0.472781 0.090296
O O1 0.640594 0.849552 0.367145
O O2 0.344261 0.824557 0.431445
O O3 0.584062 0.039713 0.263976
O O4 0.248382 0.999627 0.952984
O O5 0.801915 0.753262 0.340332
O O6 0.086691 0.842098 0.578479
O O7 0.462470 0.597255 0.698099
O O8 0.014906 0.682834 0.332996
O O9 0.249914 0.600754 0.799073
O O10 0.766145 0.519030 0.521822
O O11 0.754340 0.484068 0.829735
O O12 0.713935 0.273196 0.938478
O O13 0.097715 0.385315 0.029381
O O14 0.452332 0.263204 0.007480
#
# Coordination Sequence:
#
# PCOD9078832 Si02
#       7
#     2   2   2   2   2   2   2
#     4  10  22  38  59  85 114 147 188 235 280 332
#     4  10  21  39  59  83 111 150 195 231 275 330
#     4  10  19  37  56  84 119 146 185 233 282 336
#     4  10  18  36  59  85 112 143 193 237 274 331
#     4  11  21  35  59  87 113 147 190 233 278 332
#     4  10  22  37  59  85 113 150 188 232 281 330
#     4   9  19  34  63  86 107 151 189 230 285 330
#
# _framework density 25.021093
#
# number of rings (size 3 to 8) (size 9 to 14) (size 15 to 20)
#    0.000    2.000    0.000    5.143    0.000    2.286 
#    0.000    7.143    0.000    5.143    0.000    0.000 
#    0.000    0.000    0.000    0.000    0.000    0.000 
#
# Total GULP energy -78370.163779 kJ/mol
# GULP energy per Si atom -5597.868841 kJ/mol
# Density = 2.496414 g / cm^3
# Si number density = 25.021093 Si / 1000 Ang^3
#
#
#
# Elastic Constant Matrix: (Units=GPa)
#
#
# Indices 1 2 3 4 5 6 
#
# 1 82.0133 24.2314 49.3801 4.6799 31.5815 29.7466
# 2 24.2314 97.8968 60.4003 7.0599 -1.1672 38.2587
# 3 49.3801 60.4003 153.4565 6.5749 36.6035 30.4442
# 4 4.6799 7.0599 6.5749 49.3019 27.4512 -0.1561
# 5 31.5815 -1.1672 36.6035 27.4512 48.1590 -1.0564
# 6 29.7466 38.2587 30.4442 -0.1561 -1.0564 43.9847
#
#
#
# Elastic Compliance Matrix: (Units=1/GPa)
#
#
# Indices 1 2 3 4 5 6 
#
# 1 0.028948 -0.001386 0.001181 0.012541 -0.027498 -0.019805
# 2 -0.001386 0.020605 -0.007947 -0.008504 0.012050 -0.011225
# 3 0.001181 -0.007947 0.013380 0.008019 -0.015784 -0.003498
# 4 0.012541 -0.008504 0.008019 0.040133 -0.037564 -0.007395
# 5 -0.027498 0.012050 -0.015784 -0.037564 0.072951 0.020660
# 6 -0.019805 -0.011225 -0.003498 -0.007395 0.020660 0.048784
#
#
# Mechanical properties :
#
#
# Convention : Reuss Voigt Hill
#
# Bulk Modulus (GPa) = 21.44584 66.82113 44.13348
# Shear Modulus (GPa) = 19.48196 41.57945 30.53070
#
# Velocity S-wave (km/s) = 2.79341 4.08091 3.49692
# Velocity P-wave (km/s) = 4.35820 6.99779 5.82936
#
# Compressibility (1/GPa) = 0.04662909
#
# Stress axis : x y z
#
# Youngs Moduli (GPa) = 34.54448 48.53241 74.74117
#
# Poissons Ratio (x) = 0.06729 -0.08831
# Poissons Ratio (y) = 0.04789 0.59395
# Poissons Ratio (z) = -0.04081 0.38567
#
# Static dielectric constant tensor:
#      x y z
#    x 1.984520 -0.001450 -0.006990 
#    y -0.001450 2.001270 0.018450 
#    z -0.006990 0.018450 1.985960 
# 
# From -- ./inp_files/405327.got.cif
#   From: 2010.05.17/outbox.cif.g08.bks.cpg/sg2_203_cif.got.tgz:405327.got - 2010.06.03 11:33:40.
