data_PCOD9078534
_publ_section_title
;
Structure prediction by ZEFSAII (Michael W. Deem and Ramdas Pophale) SiO2 
 PCOD9078534
Probable space group: P -1
;
_chemical_formula_sum "Si O2"
_cell_formula_units_Z 14
_cell_length_a 9.202977
_cell_length_b 9.654347
_cell_length_c 20.938080
_cell_angle_alpha 47.563452
_cell_angle_beta 145.631205
_cell_angle_gamma 133.624115
_cell_volume 734.539060
_symmetry_space_group_name_H-M "P -1"
_symmetry_group_IT_number 2
_symmetry_cell_setting 'triclinic'
loop_
_space_group_symop_operation_xyz
x,y,z
-x,-y,-z
loop_
_atom_site_type_symbol
_atom_site_label
_atom_site_fract_x
_atom_site_fract_y
_atom_site_fract_z
Si Si1 0.776177 0.079814 0.925817
Si Si2 0.424599 0.806874 0.695133
Si Si3 0.972525 0.714548 0.916350
Si Si4 0.936446 0.639678 0.664945
Si Si5 0.166477 0.847669 0.805649
Si Si6 0.450722 0.774472 0.320146
Si Si7 0.952452 0.064263 0.563918
O O1 0.706060 0.222785 0.804101
O O2 0.483708 0.918536 0.882273
O O3 0.888389 0.169541 0.006475
O O4 0.000000 0.000000 0.000000
O O5 0.663626 0.715777 0.801099
O O6 0.192135 0.675697 0.699462
O O7 0.274775 0.838073 0.566009
O O8 0.543636 0.024847 0.703118
O O9 0.111578 0.807293 0.871923
O O10 0.000000 0.500000 0.000000
O O11 0.034427 0.665002 0.766630
O O12 0.706343 0.430753 0.638484
O O13 0.860195 0.843583 0.566984
O O14 0.032525 0.012599 0.679839
O O15 0.762884 0.806294 0.404467
#
# Coordination Sequence:
#
# PCOD9078534 Si02
#       7
#     2   2   2   2   2   2   2
#     4  11  20  40  65  87 118 161 210 249 294 358
#     4  11  21  39  59  91 123 159 206 245 298 362
#     4  12  25  40  60  86 127 166 199 248 303 362
#     4   9  18  36  63  93 116 154 199 251 302 354
#     4   9  21  40  59  87 121 159 196 248 309 353
#     4  10  18  35  64  92 120 150 202 259 298 344
#     4   8  20  36  61  91 122 154 198 259 296 356
#
# _framework density 19.059573
#
# number of rings (size 3 to 8) (size 9 to 14) (size 15 to 20)
#    0.857    1.143    2.857    3.000    0.000    4.000 
#    2.571    2.857    0.000    2.571    0.000    0.000 
#    0.000    0.000    0.000    0.000    0.000    0.000 
#
# Total GULP energy -77991.965471 kJ/mol
# GULP energy per Si atom -5570.854677 kJ/mol
# Density = 1.901619 g / cm^3
# Si number density = 19.059573 Si / 1000 Ang^3
#
#
#
# Elastic Constant Matrix: (Units=GPa)
#
#
# Indices 1 2 3 4 5 6 
#
# 1 83.6544 43.8171 55.7881 -5.3043 -13.6290 6.7192
# 2 43.8171 108.9869 40.2055 -4.2131 1.1146 27.1873
# 3 55.7881 40.2055 148.4774 8.4038 4.3146 2.3696
# 4 -5.3043 -4.2131 8.4038 10.8064 -10.0290 -7.1202
# 5 -13.6290 1.1146 4.3146 -10.0290 35.9921 3.9488
# 6 6.7192 27.1873 2.3696 -7.1202 3.9488 25.6222
#
#
#
# Elastic Compliance Matrix: (Units=1/GPa)
#
#
# Indices 1 2 3 4 5 6 
#
# 1 0.036663 -0.010857 -0.015955 0.068472 0.033316 0.017275
# 2 -0.010857 0.017484 0.001050 -0.020222 -0.008202 -0.020157
# 3 -0.015955 0.001050 0.015441 -0.041368 -0.018687 -0.006974
# 4 0.068472 -0.020222 -0.041368 0.297698 0.106384 0.073659
# 5 0.033316 -0.008202 -0.018687 0.106384 0.070296 0.020424
# 6 0.017275 -0.020157 -0.006974 0.073659 0.020424 0.073853
#
#
# Mechanical properties :
#
#
# Convention : Reuss Voigt Hill
#
# Bulk Modulus (GPa) = 55.36149 68.97113 62.16631
# Shear Modulus (GPa) = 8.78763 27.90468 18.34615
#
# Velocity S-wave (km/s) = 2.14956 3.83048 3.10590
# Velocity P-wave (km/s) = 5.93889 7.47189 6.74906
#
# Compressibility (1/GPa) = 0.01806310
#
# Stress axis : x y z
#
# Youngs Moduli (GPa) = 27.27547 57.19637 64.76126
#
# Poissons Ratio (x) = 0.62100 1.03326
# Poissons Ratio (y) = 0.29614 -0.06798
# Poissons Ratio (z) = 0.43518 -0.06004
#
# Static dielectric constant tensor:
#      x y z
#    x 1.635320 -0.010200 -0.027160 
#    y -0.010200 1.708900 0.014490 
#    z -0.027160 0.014490 1.707130 
# 
# From -- ./inp_files/517852.got.cif
#   From: 2010.05.17/outbox.cif.g08.bks.cpg/sg2_259_cif.got.tgz:517852.got - 2010.06.03 11:33:40.
