data_PCOD9078796
_publ_section_title
;
Structure prediction by ZEFSAII (Michael W. Deem and Ramdas Pophale) SiO2 
 PCOD9078796
Probable space group: P -1
;
_chemical_formula_sum "Si O2"
_cell_formula_units_Z 14
_cell_length_a 9.543827
_cell_length_b 16.565773
_cell_length_c 7.215205
_cell_angle_alpha 115.356588
_cell_angle_beta 68.147250
_cell_angle_gamma 57.508099
_cell_volume 532.894595
_symmetry_space_group_name_H-M "P -1"
_symmetry_group_IT_number 2
_symmetry_cell_setting 'triclinic'
loop_
_space_group_symop_operation_xyz
x,y,z
-x,-y,-z
loop_
_atom_site_type_symbol
_atom_site_label
_atom_site_fract_x
_atom_site_fract_y
_atom_site_fract_z
Si Si1 0.492449 0.874562 0.746946
Si Si2 0.948862 0.129098 0.098273
Si Si3 0.548603 0.742105 0.940464
Si Si4 0.937373 0.395192 0.321205
Si Si5 0.228341 0.662558 0.906107
Si Si6 0.062298 0.665019 0.342936
Si Si7 0.541375 0.683687 0.272295
O O1 0.408742 0.869310 0.977817
O O2 0.588696 0.746500 0.438954
O O3 0.741323 0.817997 0.609248
O O4 0.221103 0.043092 0.950296
O O5 0.888283 0.189237 0.977802
O O6 0.666511 0.280472 0.491181
O O7 0.000000 0.000000 0.000000
O O8 0.690304 0.586724 0.622009
O O9 0.797123 0.679729 0.834064
O O10 0.413189 0.776694 0.230329
O O11 0.967460 0.321434 0.052714
O O12 0.884474 0.357795 0.486937
O O13 0.500000 0.500000 0.500000
O O14 0.212659 0.661530 0.133000
O O15 0.186156 0.505500 0.082054
#
# Coordination Sequence:
#
# PCOD9078796 Si02
#       7
#     2   2   2   2   2   2   2
#     4  10  20  36  60  85 123 158 193 249 296 352
#     4  10  24  41  56  89 127 155 201 245 296 365
#     4   9  18  35  62  91 120 155 195 247 300 342
#     4   9  20  36  59  96 120 145 208 253 279 359
#     4  12  23  40  63  87 120 165 197 246 303 347
#     4  10  20  37  62  90 112 157 203 247 295 345
#     4  10  18  36  58  89 122 156 204 236 290 363
#
# _framework density 26.271609999999999
#
# number of rings (size 3 to 8) (size 9 to 14) (size 15 to 20)
#    0.000    2.000    1.429    3.000    2.000    1.714 
#    0.000    5.714    0.000    0.000    0.000    0.000 
#    0.000    0.000    0.000    0.000    0.000    0.000 
#
# Total GULP energy -78350.140614 kJ/mol
# GULP energy per Si atom -5596.438615 kJ/mol
# Density = 2.621182 g / cm^3
# Si number density = 26.271610 Si / 1000 Ang^3
#
#
#
# Elastic Constant Matrix: (Units=GPa)
#
#
# Indices 1 2 3 4 5 6 
#
# 1 75.1588 -8.4748 6.3177 7.6840 -1.0091 4.3322
# 2 -8.4748 164.5637 27.8671 -25.0213 1.7599 -3.9667
# 3 6.3177 27.8671 50.7245 -4.1858 -15.6044 -1.6972
# 4 7.6840 -25.0213 -4.1858 52.1138 -6.0954 2.1810
# 5 -1.0091 1.7599 -15.6044 -6.0954 36.1212 3.9445
# 6 4.3322 -3.9667 -1.6972 2.1810 3.9445 39.2145
#
#
#
# Elastic Compliance Matrix: (Units=1/GPa)
#
#
# Indices 1 2 3 4 5 6 
#
# 1 0.013891 0.000862 -0.002715 -0.001913 -0.001001 -0.001358
# 2 0.000862 0.007332 -0.004454 0.002801 -0.001837 0.000483
# 3 -0.002715 -0.004454 0.026272 0.001768 0.011822 -0.000301
# 4 -0.001913 0.002801 0.001768 0.021507 0.004319 -0.001060
# 5 -0.001001 -0.001837 0.011822 0.004319 0.033933 -0.003217
# 6 -0.001358 0.000483 -0.000301 -0.001060 -0.003217 0.026069
#
#
# Mechanical properties :
#
#
# Convention : Reuss Voigt Hill
#
# Bulk Modulus (GPa) = 28.66793 37.98524 33.32659
# Shear Modulus (GPa) = 32.62761 43.13903 37.88332
#
# Velocity S-wave (km/s) = 3.52793 4.05661 3.80147
# Velocity P-wave (km/s) = 5.24699 6.03585 5.65519
#
# Compressibility (1/GPa) = 0.03488218
#
# Stress axis : x y z
#
# Youngs Moduli (GPa) = 71.98922 136.38206 38.06370
#
# Poissons Ratio (x) = -0.11761 0.10335
# Poissons Ratio (y) = -0.06208 0.16952
# Poissons Ratio (z) = 0.19546 0.60739
#
# Static dielectric constant tensor:
#      x y z
#    x 2.102670 0.046310 -0.027330 
#    y 0.046310 2.037290 0.000160 
#    z -0.027330 0.000160 2.109460 
# 
# From -- ./inp_files/181499.got.cif
#   From: 2010.05.17/outbox.cif.g08.bks.cpg/sg2_91_cif.got.tgz:181499.got - 2010.06.03 11:33:40.
