data_PCOD9078381
_publ_section_title
;
Structure prediction by ZEFSAII (Michael W. Deem and Ramdas Pophale) SiO2 
 PCOD9078381
Probable space group: P -1
;
_chemical_formula_sum "Si O2"
_cell_formula_units_Z 14
_cell_length_a 12.527727
_cell_length_b 15.777820
_cell_length_c 9.556702
_cell_angle_alpha 30.532279
_cell_angle_beta 142.887979
_cell_angle_gamma 124.546883
_cell_volume 532.970260
_symmetry_space_group_name_H-M "P -1"
_symmetry_group_IT_number 2
_symmetry_cell_setting 'triclinic'
loop_
_space_group_symop_operation_xyz
x,y,z
-x,-y,-z
loop_
_atom_site_type_symbol
_atom_site_label
_atom_site_fract_x
_atom_site_fract_y
_atom_site_fract_z
Si Si1 0.624488 0.332961 0.031054
Si Si2 0.756966 0.019424 0.989844
Si Si3 0.941773 0.848269 0.825214
Si Si4 0.762229 0.589744 0.941936
Si Si5 0.824463 0.906660 0.922961
Si Si6 0.596265 0.664334 0.955804
Si Si7 0.481245 0.837844 0.085607
O O1 0.455595 0.427885 0.834019
O O2 0.719642 0.119780 0.474856
O O3 0.774640 0.425369 0.088376
O O4 0.543182 0.315451 0.819639
O O5 0.602911 0.208953 0.503638
O O6 0.873921 0.907464 0.136179
O O7 0.900294 0.072836 0.159685
O O8 0.636659 0.908716 0.081901
O O9 0.930607 0.667291 0.004478
O O10 0.960794 0.823997 0.049648
O O11 0.727722 0.000789 0.360045
O O12 0.724634 0.559952 0.107579
O O13 0.572250 0.750194 0.451784
O O14 0.682569 0.803046 0.909763
#
# Coordination Sequence:
#
# PCOD9078381 Si02
#       7
#     2   2   2   2   2   2   2
#     4  10  18  35  62  80 108 151 182 223 280 327
#     4  11  18  35  63  83 107 144 192 227 270 318
#     4  10  22  34  58  86 110 145 187 229 272 321
#     4  11  22  35  54  85 118 144 178 228 285 322
#     4   9  17  36  59  84 109 138 194 231 259 328
#     4  10  18  36  60  83 108 143 190 228 265 328
#     4  11  21  39  58  81 111 148 189 225 264 336
#
# _framework density 26.267883000000001
#
# number of rings (size 3 to 8) (size 9 to 14) (size 15 to 20)
#    0.000    1.714    5.714    2.571    0.000    0.571 
#    0.000    2.857    6.286    4.286    0.000    0.000 
#    0.000    0.000    0.000    0.000    0.000    0.000 
#
# Total GULP energy -78279.777209 kJ/mol
# GULP energy per Si atom -5591.412658 kJ/mol
# Density = 2.620810 g / cm^3
# Si number density = 26.267883 Si / 1000 Ang^3
#
#
#
# Elastic Constant Matrix: (Units=GPa)
#
#
# Indices 1 2 3 4 5 6 
#
# 1 76.1950 45.3556 19.1335 14.8653 -3.6400 -9.8743
# 2 45.3556 296.2520 28.4502 12.9449 6.2538 6.1700
# 3 19.1335 28.4502 54.9053 8.7258 8.1315 1.0033
# 4 14.8653 12.9449 8.7258 33.6536 -6.8172 0.2899
# 5 -3.6400 6.2538 8.1315 -6.8172 24.5086 11.4937
# 6 -9.8743 6.1700 1.0033 0.2899 11.4937 45.9354
#
#
#
# Elastic Compliance Matrix: (Units=1/GPa)
#
#
# Indices 1 2 3 4 5 6 
#
# 1 0.017021 -0.002065 -0.004246 -0.005414 0.001192 0.003765
# 2 -0.002065 0.003845 -0.001091 -0.000416 -0.000684 -0.000763
# 3 -0.004246 -0.001091 0.022609 -0.005606 -0.010013 0.001281
# 4 -0.005414 -0.000416 -0.005606 0.036485 0.013460 -0.004584
# 5 0.001192 -0.000684 -0.010013 0.013460 0.054374 -0.013123
# 6 0.003765 -0.000763 0.001281 -0.004584 -0.013123 0.025966
#
#
# Mechanical properties :
#
#
# Convention : Reuss Voigt Hill
#
# Bulk Modulus (GPa) = 34.88079 68.13679 51.50879
# Shear Modulus (GPa) = 27.07639 43.11371 35.09505
#
# Velocity S-wave (km/s) = 3.21406 4.05570 3.65916
# Velocity P-wave (km/s) = 5.20397 6.92294 6.12407
#
# Compressibility (1/GPa) = 0.02866908
#
# Stress axis : x y z
#
# Youngs Moduli (GPa) = 58.75139 260.08057 44.23010
#
# Poissons Ratio (x) = 0.53709 0.18782
# Poissons Ratio (y) = 0.12133 0.04828
# Poissons Ratio (z) = 0.24948 0.28387
#
# Static dielectric constant tensor:
#      x y z
#    x 2.096930 -0.001800 0.003020 
#    y -0.001800 2.085830 -0.030230 
#    z 0.003020 -0.030230 2.104140 
# 
# From -- ./inp_files/169644.got.cif
#   From: 2010.05.17/outbox.cif.g08.bks.cpg/sg2_85_cif.got.tgz:169644.got - 2010.06.03 11:33:40.
