data_PCOD9078398
_publ_section_title
;
Structure prediction by ZEFSAII (Michael W. Deem and Ramdas Pophale) SiO2 
 PCOD9078398
Probable space group: P -1
;
_chemical_formula_sum "Si O2"
_cell_formula_units_Z 16
_cell_length_a 9.785984
_cell_length_b 25.460271
_cell_length_c 14.034201
_cell_angle_alpha 22.724327
_cell_angle_beta 123.259338
_cell_angle_gamma 136.152192
_cell_volume 841.947721
_symmetry_space_group_name_H-M "P -1"
_symmetry_group_IT_number 2
_symmetry_cell_setting 'triclinic'
loop_
_space_group_symop_operation_xyz
x,y,z
-x,-y,-z
loop_
_atom_site_type_symbol
_atom_site_label
_atom_site_fract_x
_atom_site_fract_y
_atom_site_fract_z
Si Si1 0.503249 0.512008 0.708693
Si Si2 0.827694 0.880995 0.854613
Si Si3 0.224239 0.609287 0.959083
Si Si4 0.301367 0.515203 0.817221
Si Si5 0.666330 0.960076 0.488976
Si Si6 0.452745 0.325038 0.732645
Si Si7 0.167305 0.649222 0.092703
Si Si8 0.738432 0.812343 0.587173
O O1 0.675913 0.488239 0.838624
O O2 0.421913 0.537966 0.729007
O O3 0.595916 0.671613 0.401471
O O4 0.294174 0.317662 0.906351
O O5 0.737520 0.952908 0.633795
O O6 0.737553 0.841370 0.993877
O O7 0.086533 0.030270 0.683961
O O8 0.203390 0.640638 0.008761
O O9 0.405368 0.803125 0.653281
O O10 0.000000 0.500000 0.000000
O O11 0.487408 0.683785 0.672342
O O12 0.093640 0.494511 0.752227
O O13 0.223263 0.328182 0.147214
O O14 0.757959 0.904083 0.540410
O O15 0.751514 0.156125 0.174532
O O16 0.500000 0.500000 0.500000
O O17 0.676740 0.366229 0.764636
#
# Coordination Sequence:
#
# PCOD9078398 Si02
#       8
#     2   2   2   2   2   2   2   2
#     4  10  21  42  62  86 121 164 205 239 300 364
#     4  10  18  35  62  86 119 157 196 248 293 353
#     4  11  22  36  60  93 127 158 189 255 312 355
#     4  11  23  36  61  91 123 162 198 244 318 358
#     4  11  20  35  58  94 124 149 207 250 307 346
#     4  10  21  41  62  86 117 162 211 244 291 353
#     4  12  22  36  64  93 117 159 205 254 294 360
#     4  11  21  37  57  93 131 156 188 255 315 362
#
# _framework density 19.003554999999999
#
# number of rings (size 3 to 8) (size 9 to 14) (size 15 to 20)
#    0.000    1.250    7.500    2.250    1.750    0.500 
#    0.000    0.625    0.000    3.750    0.000    0.000 
#    0.000    0.000    0.000    0.000    0.000    0.000 
#
# Total GULP energy -89295.428003 kJ/mol
# GULP energy per Si atom -5580.964250 kJ/mol
# Density = 1.896030 g / cm^3
# Si number density = 19.003555 Si / 1000 Ang^3
#
#
#
# Elastic Constant Matrix: (Units=GPa)
#
#
# Indices 1 2 3 4 5 6 
#
# 1 93.5636 37.3969 28.1870 -3.5539 -14.3538 10.2405
# 2 37.3969 76.4911 39.8891 -0.6759 -9.6878 18.6915
# 3 28.1870 39.8891 73.6005 6.4324 -12.9523 11.3726
# 4 -3.5539 -0.6759 6.4324 15.2816 0.4973 -9.5071
# 5 -14.3538 -9.6878 -12.9523 0.4973 31.0537 1.2939
# 6 10.2405 18.6915 11.3726 -9.5071 1.2939 28.0560
#
#
#
# Elastic Compliance Matrix: (Units=1/GPa)
#
#
# Indices 1 2 3 4 5 6 
#
# 1 0.014218 -0.005358 -0.002338 0.004310 0.003831 0.000612
# 2 -0.005358 0.022805 -0.007806 -0.004228 0.001933 -0.011595
# 3 -0.002338 -0.007806 0.022663 -0.016193 0.006567 -0.008922
# 4 0.004310 -0.004228 -0.016193 0.099474 -0.009422 0.041950
# 5 0.003831 0.001933 0.006567 -0.009422 0.037895 -0.010288
# 6 0.000612 -0.011595 -0.008922 0.041950 -0.010288 0.061451
#
#
# Mechanical properties :
#
#
# Convention : Reuss Voigt Hill
#
# Bulk Modulus (GPa) = 34.86709 50.51127 42.68918
# Shear Modulus (GPa) = 16.71843 24.09041 20.40442
#
# Velocity S-wave (km/s) = 2.96928 3.56431 3.28032
# Velocity P-wave (km/s) = 5.49026 6.60126 6.07123
#
# Compressibility (1/GPa) = 0.02868034
#
# Stress axis : x y z
#
# Youngs Moduli (GPa) = 70.33099 43.85077 44.12556
#
# Poissons Ratio (x) = 0.23497 0.10318
# Poissons Ratio (y) = 0.37686 0.34445
# Poissons Ratio (z) = 0.16445 0.34230
#
# Static dielectric constant tensor:
#      x y z
#    x 1.717290 -0.142910 -0.061290 
#    y -0.142910 2.263740 0.148380 
#    z -0.061290 0.148380 1.712090 
# 
# From -- ./inp_files/217052.got.cif
#   From: 2010.05.17/outbox.cif.g08.bks.cpg/sg2_109_cif.got.tgz:217052.got - 2010.06.03 11:33:40.
