data_PCOD9078823
_publ_section_title
;
Structure prediction by ZEFSAII (Michael W. Deem and Ramdas Pophale) SiO2 
 PCOD9078823
Probable space group: P -1
;
_chemical_formula_sum "Si O2"
_cell_formula_units_Z 12
_cell_length_a 7.479796
_cell_length_b 8.973728
_cell_length_c 10.169484
_cell_angle_alpha 120.021513
_cell_angle_beta 64.179688
_cell_angle_gamma 128.044669
_cell_volume 457.270115
_symmetry_space_group_name_H-M "P -1"
_symmetry_group_IT_number 2
_symmetry_cell_setting 'triclinic'
loop_
_space_group_symop_operation_xyz
x,y,z
-x,-y,-z
loop_
_atom_site_type_symbol
_atom_site_label
_atom_site_fract_x
_atom_site_fract_y
_atom_site_fract_z
Si Si1 0.759493 0.287864 0.436240
Si Si2 0.766737 0.674785 0.993888
Si Si3 0.596852 0.621232 0.384482
Si Si4 0.280408 0.016240 0.348504
Si Si5 0.024796 0.079968 0.233735
Si Si6 0.976070 0.546767 0.229799
O O1 0.616981 0.366153 0.601888
O O2 0.551872 0.116774 0.337403
O O3 0.915438 0.461430 0.360523
O O4 0.897991 0.183079 0.391271
O O5 0.850980 0.789578 0.877811
O O6 0.927537 0.579584 0.924940
O O7 0.500000 0.500000 0.000000
O O8 0.834470 0.854464 0.153594
O O9 0.500000 0.500000 0.500000
O O10 0.772339 0.852229 0.471939
O O11 0.743104 0.530947 0.239150
O O12 0.219184 0.076807 0.257263
O O13 0.163350 0.780023 0.281170
#
# Coordination Sequence:
#
# PCOD9078823 Si02
#       6
#     2   2   2   2   2   2
#     4   8  19  36  57  81 118 145 180 239 279 327
#     4  10  22  39  59  79 123 151 186 241 279 332
#     4   8  17  36  60  80 117 151 179 232 294 331
#     4  10  20  34  64  85 113 148 191 232 283 341
#     4  10  21  40  58  89 110 151 195 229 284 336
#     4  10  18  36  59  83 112 158 182 228 290 334
#
# _framework density 26.242695999999999
#
# number of rings (size 3 to 8) (size 9 to 14) (size 15 to 20)
#    1.000    1.667    0.000    1.500    0.000    2.000 
#    0.000   20.000    0.000    0.000    0.000    0.000 
#    0.000    0.000    0.000    0.000    0.000    0.000 
#
# Total GULP energy -67141.067276 kJ/mol
# GULP energy per Si atom -5595.088940 kJ/mol
# Density = 2.618297 g / cm^3
# Si number density = 26.242696 Si / 1000 Ang^3
#
#
#
# Elastic Constant Matrix: (Units=GPa)
#
#
# Indices 1 2 3 4 5 6 
#
# 1 101.3804 58.7909 32.3682 7.9305 -25.8399 6.8024
# 2 58.7909 154.9196 41.8126 22.4336 -14.6635 -1.6080
# 3 32.3682 41.8126 127.9799 16.2547 -25.3843 -2.9586
# 4 7.9305 22.4336 16.2547 34.4528 -6.3926 7.9963
# 5 -25.8399 -14.6635 -25.3843 -6.3926 44.5130 7.4492
# 6 6.8024 -1.6080 -2.9586 7.9963 7.4492 55.0637
#
#
#
# Elastic Compliance Matrix: (Units=1/GPa)
#
#
# Indices 1 2 3 4 5 6 
#
# 1 0.015113 -0.005150 -0.001075 0.002557 0.007408 -0.003449
# 2 -0.005150 0.009371 -0.001429 -0.004979 -0.001732 0.001790
# 3 -0.001075 -0.001429 0.009701 -0.002776 0.003959 0.000480
# 4 0.002557 -0.004979 -0.002776 0.035270 0.004385 -0.006325
# 5 0.007408 -0.001732 0.003959 0.004385 0.029994 -0.005447
# 6 -0.003449 0.001790 0.000480 -0.006325 -0.005447 0.020320
#
#
# Mechanical properties :
#
#
# Convention : Reuss Voigt Hill
#
# Bulk Modulus (GPa) = 52.97278 72.24704 62.60991
# Shear Modulus (GPa) = 35.36835 43.55979 39.46407
#
# Velocity S-wave (km/s) = 3.67514 4.07859 3.88211
# Velocity P-wave (km/s) = 6.18372 7.05478 6.63356
#
# Compressibility (1/GPa) = 0.01887762
#
# Stress axis : x y z
#
# Youngs Moduli (GPa) = 66.16768 106.71647 103.07953
#
# Poissons Ratio (x) = 0.54960 0.11080
# Poissons Ratio (y) = 0.34077 0.14728
# Poissons Ratio (z) = 0.07112 0.15247
#
# Static dielectric constant tensor:
#      x y z
#    x 2.129840 0.013740 0.039400 
#    y 0.013740 2.071410 -0.052210 
#    z 0.039400 -0.052210 2.041890 
# 
# From -- ./inp_files/358177.got.cif
#   From: 2010.05.17/outbox.cif.g08.bks.cpg/sg2_180_cif.got.tgz:358177.got - 2010.06.03 11:33:40.
