data_PCOD9078442
_publ_section_title
;
Structure prediction by ZEFSAII (Michael W. Deem and Ramdas Pophale) SiO2 
 PCOD9078442
Probable space group: P -1
;
_chemical_formula_sum "Si O2"
_cell_formula_units_Z 13
_cell_length_a 7.119248
_cell_length_b 9.361016
_cell_length_c 11.868256
_cell_angle_alpha 63.629726
_cell_angle_beta 51.053733
_cell_angle_gamma 49.877218
_cell_volume 469.361337
_symmetry_space_group_name_H-M "P -1"
_symmetry_group_IT_number 2
_symmetry_cell_setting 'triclinic'
loop_
_space_group_symop_operation_xyz
x,y,z
-x,-y,-z
loop_
_atom_site_type_symbol
_atom_site_label
_atom_site_fract_x
_atom_site_fract_y
_atom_site_fract_z
Si Si1 0.005507 0.365540 0.795884
Si Si2 0.772541 0.043491 0.879818
Si Si3 0.305968 0.229521 0.142606
Si Si4 0.166685 0.155125 0.462062
Si Si5 0.629127 0.406539 0.702838
Si Si6 0.000000 0.000000 0.000000
Si Si7 0.512812 0.248445 0.477496
O O1 0.865830 0.548698 0.864287
O O2 0.786799 0.419585 0.751832
O O3 0.302884 0.317565 0.641937
O O4 0.023686 0.198319 0.918419
O O5 0.593924 0.233883 0.810041
O O6 0.755165 0.877476 0.893139
O O7 0.646197 0.128615 0.026612
O O8 0.080520 0.975267 0.832740
O O9 0.261719 0.163425 0.300190
O O10 0.335166 0.204529 0.470511
O O11 0.849232 0.316316 0.548870
O O12 0.211514 0.952531 0.534805
O O13 0.417977 0.607858 0.659196
#
# Coordination Sequence:
#
# PCOD9078442 Si02
#       7
#     2   2   2   2   2   1   2
#     4  10  19  37  63  87 125 158 207 250 310 355
#     4  10  25  40  60  88 128 156 213 251 311 360
#     4  11  21  42  62  87 123 174 190 260 316 360
#     4  10  19  34  64  87 123 160 206 243 312 359
#     4  10  19  39  58  93 119 160 204 257 291 373
#     4  10  22  40  58  90 116 158 208 260 284 376
#     4  10  18  35  62  94 120 162 202 251 297 380
#
# _framework density 27.697209000000001
#
# number of rings (size 3 to 8) (size 9 to 14) (size 15 to 20)
#    0.000    1.846    3.077    1.846    0.000    4.923 
#   11.077    0.769    0.000    0.000    0.000    0.000 
#    0.000    0.000    0.000    0.000    0.000    0.000 
#
# Total GULP energy -72626.280704 kJ/mol
# GULP energy per Si atom -5586.636977 kJ/mol
# Density = 2.763417 g / cm^3
# Si number density = 27.697209 Si / 1000 Ang^3
#
#
#
# Elastic Constant Matrix: (Units=GPa)
#
#
# Indices 1 2 3 4 5 6 
#
# 1 97.1177 41.9977 25.5594 7.0725 6.0848 25.0741
# 2 41.9977 230.9349 71.7334 -23.2315 12.8409 20.4059
# 3 25.5594 71.7334 135.5224 -4.1571 18.5634 8.0491
# 4 7.0725 -23.2315 -4.1571 72.1367 1.2552 10.2429
# 5 6.0848 12.8409 18.5634 1.2552 29.3320 -2.0879
# 6 25.0741 20.4059 8.0491 10.2429 -2.0879 38.3103
#
#
#
# Elastic Compliance Matrix: (Units=1/GPa)
#
#
# Indices 1 2 3 4 5 6 
#
# 1 0.013335 -0.001366 -0.001081 -0.000681 -0.002003 -0.007700
# 2 -0.001366 0.005836 -0.002494 0.002218 -0.000954 -0.002335
# 3 -0.001081 -0.002494 0.009566 -0.000031 -0.004753 -0.000225
# 4 -0.000681 0.002218 -0.000031 0.015375 -0.001819 -0.004939
# 5 -0.002003 -0.000954 -0.004753 -0.001819 0.038396 0.005397
# 6 -0.007700 -0.002335 -0.000225 -0.004939 0.005397 0.034048
#
#
# Mechanical properties :
#
#
# Convention : Reuss Voigt Hill
#
# Bulk Modulus (GPa) = 53.03626 82.46175 67.74900
# Shear Modulus (GPa) = 37.67253 49.57478 43.62365
#
# Velocity S-wave (km/s) = 3.69203 4.23529 3.97296
# Velocity P-wave (km/s) = 6.11269 7.33172 6.74978
#
# Compressibility (1/GPa) = 0.01885502
#
# Stress axis : x y z
#
# Youngs Moduli (GPa) = 74.98944 171.35482 104.53484
#
# Poissons Ratio (x) = 0.23409 0.11302
# Poissons Ratio (y) = 0.10244 0.26070
# Poissons Ratio (z) = 0.08107 0.42734
#
# Static dielectric constant tensor:
#      x y z
#    x 2.239780 0.029010 -0.072940 
#    y 0.029010 2.082300 -0.020110 
#    z -0.072940 -0.020110 2.269000 
# 
# From -- ./inp_files/163919.got.cif
#   From: 2010.05.17/outbox.cif.g08.bks.cpg/sg2_82_cif.got.tgz:163919.got - 2010.06.03 11:33:40.
