data_PCOD9078343
_publ_section_title
;
Structure prediction by ZEFSAII (Michael W. Deem and Ramdas Pophale) SiO2 
 PCOD9078343
Probable space group: P -1
;
_chemical_formula_sum "Si O2"
_cell_formula_units_Z 14
_cell_length_a 7.908732
_cell_length_b 9.531522
_cell_length_c 12.645795
_cell_angle_alpha 119.653965
_cell_angle_beta 114.564854
_cell_angle_gamma 107.692231
_cell_volume 575.929508
_symmetry_space_group_name_H-M "P -1"
_symmetry_group_IT_number 2
_symmetry_cell_setting 'triclinic'
loop_
_space_group_symop_operation_xyz
x,y,z
-x,-y,-z
loop_
_atom_site_type_symbol
_atom_site_label
_atom_site_fract_x
_atom_site_fract_y
_atom_site_fract_z
Si Si1 0.623838 0.531452 0.212779
Si Si2 0.818506 0.660830 0.848030
Si Si3 0.733157 0.244395 0.630165
Si Si4 0.778403 0.696904 0.621829
Si Si5 0.098415 0.783144 0.548797
Si Si6 0.557972 0.759952 0.113390
Si Si7 0.045929 0.870430 0.196284
O O1 0.429768 0.386077 0.199714
O O2 0.879702 0.736628 0.401914
O O3 0.512382 0.614921 0.145286
O O4 0.636467 0.381742 0.082772
O O5 0.733804 0.428663 0.733378
O O6 0.906500 0.765780 0.795515
O O7 0.017770 0.795690 0.041282
O O8 0.915643 0.252584 0.759363
O O9 0.803697 0.285428 0.539404
O O10 0.500000 0.000000 0.500000
O O11 0.500000 0.500000 0.500000
O O12 0.938499 0.677131 0.575252
O O13 0.770451 0.878081 0.648153
O O14 0.341024 0.016253 0.732419
O O15 0.798165 0.821157 0.144419
#
# Coordination Sequence:
#
# PCOD9078343 Si02
#       7
#     2   2   2   2   2   2   2
#     4  10  18  35  61  89 119 161 208 260 303 367
#     4  11  23  40  61  93 130 164 204 256 312 379
#     4  12  25  40  63  95 129 163 201 258 327 365
#     4  11  22  39  67  92 120 166 214 252 306 370
#     4  11  22  38  63  88 128 160 208 256 309 370
#     4   9  19  32  60  92 117 152 215 259 310 352
#     4  10  22  40  63  92 121 165 210 263 307 363
#
# _framework density 24.308529
#
# number of rings (size 3 to 8) (size 9 to 14) (size 15 to 20)
#    0.000    1.429    2.857    3.000    4.000    0.571 
#    2.571    0.000    0.000    1.714    0.000    0.000 
#    0.000    0.000    0.000    0.000    0.000    0.000 
#
# Total GULP energy -78063.878914 kJ/mol
# GULP energy per Si atom -5575.991351 kJ/mol
# Density = 2.425320 g / cm^3
# Si number density = 24.308529 Si / 1000 Ang^3
#
#
#
# Elastic Constant Matrix: (Units=GPa)
#
#
# Indices 1 2 3 4 5 6 
#
# 1 52.4398 13.5247 38.0885 -4.9855 -20.4597 24.7382
# 2 13.5247 71.3788 27.7920 -5.7433 -9.5047 19.2728
# 3 38.0885 27.7920 122.5038 -3.7869 -25.0413 12.9671
# 4 -4.9855 -5.7433 -3.7869 46.9079 19.2950 -7.6714
# 5 -20.4597 -9.5047 -25.0413 19.2950 38.1933 -6.2420
# 6 24.7382 19.2728 12.9671 -7.6714 -6.2420 33.8803
#
#
#
# Elastic Compliance Matrix: (Units=1/GPa)
#
#
# Indices 1 2 3 4 5 6 
#
# 1 0.044900 0.004855 -0.008177 -0.008131 0.018980 -0.030761
# 2 0.004855 0.018148 -0.003742 -0.000811 0.003105 -0.012048
# 3 -0.008177 -0.003742 0.011863 -0.001265 0.003753 0.003964
# 4 -0.008131 -0.000811 -0.001265 0.029596 -0.018681 0.010143
# 5 0.018980 0.003105 0.003753 -0.018681 0.046955 -0.012640
# 6 -0.030761 -0.012048 0.003964 0.010143 -0.012640 0.057280
#
#
# Mechanical properties :
#
#
# Convention : Reuss Voigt Hill
#
# Bulk Modulus (GPa) = 16.45204 45.01476 30.73340
# Shear Modulus (GPa) = 20.56507 34.92412 27.74459
#
# Velocity S-wave (km/s) = 2.91177 3.79450 3.38206
# Velocity P-wave (km/s) = 4.25291 6.14458 5.28409
#
# Compressibility (1/GPa) = 0.06078272
#
# Stress axis : x y z
#
# Youngs Moduli (GPa) = 22.27174 55.10268 84.29684
#
# Poissons Ratio (x) = -0.26753 0.68931
# Poissons Ratio (y) = -0.10813 0.31543
# Poissons Ratio (z) = 0.18212 0.20619
#
# Static dielectric constant tensor:
#      x y z
#    x 1.973820 0.022800 0.046620 
#    y 0.022800 1.972750 0.013390 
#    z 0.046620 0.013390 2.130850 
# 
# From -- ./inp_files/175267.got.cif
#   From: 2010.05.17/outbox.cif.g08.bks.cpg/sg2_88_cif.got.tgz:175267.got - 2010.06.03 11:33:40.
