data_PCOD9078481
_publ_section_title
;
Structure prediction by ZEFSAII (Michael W. Deem and Ramdas Pophale) SiO2 
 PCOD9078481
Probable space group: P -1
;
_chemical_formula_sum "Si O2"
_cell_formula_units_Z 12
_cell_length_a 8.255694
_cell_length_b 12.334549
_cell_length_c 13.861352
_cell_angle_alpha 30.596542
_cell_angle_beta 135.083896
_cell_angle_gamma 124.889338
_cell_volume 504.492877
_symmetry_space_group_name_H-M "P -1"
_symmetry_group_IT_number 2
_symmetry_cell_setting 'triclinic'
loop_
_space_group_symop_operation_xyz
x,y,z
-x,-y,-z
loop_
_atom_site_type_symbol
_atom_site_label
_atom_site_fract_x
_atom_site_fract_y
_atom_site_fract_z
Si Si1 0.751013 0.863536 0.700467
Si Si2 0.723059 0.022214 0.867078
Si Si3 0.351799 0.354922 0.365045
Si Si4 0.055163 0.237055 0.513322
Si Si5 0.690558 0.620690 0.045413
Si Si6 0.486667 0.706237 0.263343
O O1 0.729422 0.691572 0.739780
O O2 0.500000 0.000000 0.500000
O O3 0.809651 0.750140 0.913141
O O4 0.932297 0.024015 0.624546
O O5 0.594593 0.207552 0.601187
O O6 0.647355 0.103968 0.878681
O O7 0.626688 0.803140 0.958323
O O8 0.000000 0.000000 0.000000
O O9 0.174480 0.275790 0.430422
O O10 0.380038 0.603747 0.204731
O O11 0.253663 0.239564 0.674244
O O12 0.867915 0.435135 0.303972
O O13 0.500000 0.500000 0.000000
O O14 0.500000 0.500000 0.500000
#
# Coordination Sequence:
#
# PCOD9078481 Si02
#       6
#     2   2   2   2   2   2
#     4  12  23  40  62  95 126 159 205 255 307 362
#     4  10  18  35  63  90 118 158 207 249 300 362
#     4  10  20  40  64  89 128 162 201 254 309 364
#     4  10  21  41  64  91 124 164 202 251 310 357
#     4  12  23  38  63  94 123 161 207 253 305 362
#     4   8  18  37  64  87 120 167 201 248 311 357
#
# _framework density 23.786262000000001
#
# number of rings (size 3 to 8) (size 9 to 14) (size 15 to 20)
#    0.000    2.000    3.333    3.500    0.000    2.000 
#    0.000    2.500    0.000   22.000    0.000    0.000 
#    0.000    0.000    0.000    0.000    0.000    0.000 
#
# Total GULP energy -67127.498257 kJ/mol
# GULP energy per Si atom -5593.958188 kJ/mol
# Density = 2.373212 g / cm^3
# Si number density = 23.786262 Si / 1000 Ang^3
#
#
#
# Elastic Constant Matrix: (Units=GPa)
#
#
# Indices 1 2 3 4 5 6 
#
# 1 56.7168 75.1792 29.6508 -10.6574 8.5319 5.9297
# 2 75.1792 227.5157 37.6261 -34.8803 24.0714 -19.0057
# 3 29.6508 37.6261 83.2155 -12.3690 17.4355 -8.7940
# 4 -10.6574 -34.8803 -12.3690 11.7558 -14.7254 26.4590
# 5 8.5319 24.0714 17.4355 -14.7254 35.5893 11.9463
# 6 5.9297 -19.0057 -8.7940 26.4590 11.9463 32.7691
#
#
#
# Elastic Compliance Matrix: (Units=1/GPa)
#
#
# Indices 1 2 3 4 5 6 
#
# 1 0.037139 -0.013361 -0.009426 -0.019332 -0.003168 -0.000235
# 2 -0.013361 0.010247 0.002338 0.007441 -0.003185 0.004142
# 3 -0.009426 0.002338 0.016618 0.010121 -0.003483 0.000619
# 4 -0.019332 0.007441 0.010121 -0.022819 -0.027936 0.039139
# 5 -0.003168 -0.003185 -0.003483 -0.027936 0.016327 0.014396
# 6 -0.000235 0.004142 0.000619 0.039139 0.014396 -0.003723
#
#
# Mechanical properties :
#
#
# Convention : Reuss Voigt Hill
#
# Bulk Modulus (GPa) = 43.27905 72.48448 57.88176
# Shear Modulus (GPa) = 48.83342 31.02229 39.92786
#
# Velocity S-wave (km/s) = 4.53593 3.61530 4.10153
# Velocity P-wave (km/s) = 6.75776 6.92579 6.84229
#
# Compressibility (1/GPa) = 0.02310587
#
# Stress axis : x y z
#
# Youngs Moduli (GPa) = 26.92617 97.58656 60.17573
#
# Poissons Ratio (x) = 1.30388 0.56723
# Poissons Ratio (y) = 0.35977 -0.14072
# Poissons Ratio (z) = 0.25381 -0.22820
#
# Static dielectric constant tensor:
#      x y z
#    x 1.955560 0.030090 0.072480 
#    y 0.030090 1.955880 0.023310 
#    z 0.072480 0.023310 1.994130 
# 
# From -- ./inp_files/497358.got.cif
#   From: 2010.05.17/outbox.cif.g08.bks.cpg/sg2_249_cif.got.tgz:497358.got - 2010.06.03 11:33:40.
