data_PCOD9078152
_publ_section_title
;
Structure prediction by ZEFSAII (Michael W. Deem and Ramdas Pophale) SiO2 
 PCOD9078152
Probable space group: P -1
;
_chemical_formula_sum "Si O2"
_cell_formula_units_Z 16
_cell_length_a 7.292138
_cell_length_b 7.643930
_cell_length_c 21.966167
_cell_angle_alpha 133.626828
_cell_angle_beta 46.585165
_cell_angle_gamma 113.831532
_cell_volume 638.040858
_symmetry_space_group_name_H-M "P -1"
_symmetry_group_IT_number 2
_symmetry_cell_setting 'triclinic'
loop_
_space_group_symop_operation_xyz
x,y,z
-x,-y,-z
loop_
_atom_site_type_symbol
_atom_site_label
_atom_site_fract_x
_atom_site_fract_y
_atom_site_fract_z
Si Si1 0.077281 0.494718 0.308178
Si Si2 0.408636 0.435350 0.657024
Si Si3 0.294709 0.932615 0.306357
Si Si4 0.184752 0.973213 0.115076
Si Si5 0.277833 0.463670 0.493796
Si Si6 0.272190 0.979655 0.855471
Si Si7 0.337559 0.325071 0.032349
Si Si8 0.046932 0.212092 0.753799
O O1 0.822995 0.536374 0.333253
O O2 0.979181 0.476738 0.394964
O O3 0.232241 0.716422 0.312216
O O4 0.225968 0.237770 0.193040
O O5 0.659295 0.393731 0.547663
O O6 0.334386 0.233090 0.672429
O O7 0.394928 0.696825 0.756527
O O8 0.558370 0.883426 0.197280
O O9 0.084826 0.943784 0.302980
O O10 0.297338 0.182920 0.401529
O O11 0.445941 0.801034 0.002949
O O12 0.019157 0.873771 0.184557
O O13 0.008441 0.000629 0.103261
O O14 0.500000 0.500000 0.500000
O O15 0.271602 0.117512 0.951967
O O16 0.500000 0.500000 0.000000
O O17 0.098694 0.510339 0.152969
#
# Coordination Sequence:
#
# PCOD9078152 Si02
#       8
#     2   2   2   2   2   2   2   2
#     4   9  18  34  57  88 118 152 198 241 290 352
#     4   8  18  34  58  83 116 154 192 240 294 349
#     4  10  18  35  59  83 118 158 192 239 297 348
#     4  10  21  38  59  87 123 153 198 248 282 346
#     4   9  17  33  60  88 115 155 195 238 297 358
#     4  10  19  37  59  82 118 158 196 240 290 340
#     4  10  20  37  60  82 121 159 199 237 297 342
#     4  10  20  38  58  83 119 157 197 244 293 346
#
# _framework density 25.076765999999999
#
# number of rings (size 3 to 8) (size 9 to 14) (size 15 to 20)
#    0.000    2.500    2.500    1.125    0.000    2.500 
#    2.250    6.875    0.000    0.000    0.000    0.000 
#    0.000    0.000    0.000    0.000    0.000    0.000 
#
# Total GULP energy -89542.144778 kJ/mol
# GULP energy per Si atom -5596.384049 kJ/mol
# Density = 2.501969 g / cm^3
# Si number density = 25.076766 Si / 1000 Ang^3
#
#
#
# Elastic Constant Matrix: (Units=GPa)
#
#
# Indices 1 2 3 4 5 6 
#
# 1 81.5892 23.3260 29.2928 4.7840 22.1844 9.3391
# 2 23.3260 142.8144 66.3639 -21.1080 8.0922 12.8874
# 3 29.2928 66.3639 131.3506 -20.0659 17.8902 10.6957
# 4 4.7840 -21.1080 -20.0659 42.6363 3.3851 6.3841
# 5 22.1844 8.0922 17.8902 3.3851 31.5666 9.2780
# 6 9.3391 12.8874 10.6957 6.3841 9.2780 27.0012
#
#
#
# Elastic Compliance Matrix: (Units=1/GPa)
#
#
# Indices 1 2 3 4 5 6 
#
# 1 0.016168 -0.001607 -0.001898 -0.002723 -0.009538 -0.000152
# 2 -0.001607 0.009938 -0.003991 0.003697 0.001636 -0.004043
# 3 -0.001898 -0.003991 0.011364 0.004136 -0.004082 -0.001516
# 4 -0.002723 0.003697 0.004136 0.028986 -0.001945 -0.008646
# 5 -0.009538 0.001636 -0.004082 -0.001945 0.043531 -0.010363
# 6 -0.000152 -0.004043 -0.001516 -0.008646 -0.010363 0.045223
#
#
# Mechanical properties :
#
#
# Convention : Reuss Voigt Hill
#
# Bulk Modulus (GPa) = 44.48995 65.96883 55.22939
# Shear Modulus (GPa) = 28.13805 36.02557 32.08181
#
# Velocity S-wave (km/s) = 3.35338 3.79438 3.58067
# Velocity P-wave (km/s) = 5.72482 6.74983 6.25835
#
# Compressibility (1/GPa) = 0.02247699
#
# Stress axis : x y z
#
# Youngs Moduli (GPa) = 61.85065 100.62482 87.99389
#
# Poissons Ratio (x) = 0.16170 0.16704
# Poissons Ratio (y) = 0.09939 0.35122
# Poissons Ratio (z) = 0.11741 0.40164
#
# Static dielectric constant tensor:
#      x y z
#    x 1.978450 -0.003600 -0.018450 
#    y -0.003600 2.027930 -0.034780 
#    z -0.018450 -0.034780 1.935740 
# 
# From -- ./inp_files/606493.got.cif
#   From: 2010.05.17/outbox.cif.g08.bks.cpg/sg2_304_cif.got.tgz:606493.got - 2010.06.03 11:33:40.
