data_PCOD9078699
_publ_section_title
;
Structure prediction by ZEFSAII (Michael W. Deem and Ramdas Pophale) SiO2 
 PCOD9078699
Probable space group: P -1
;
_chemical_formula_sum "Si O2"
_cell_formula_units_Z 16
_cell_length_a 9.838400
_cell_length_b 8.541999
_cell_length_c 12.598192
_cell_angle_alpha 124.907689
_cell_angle_beta 85.268586
_cell_angle_gamma 124.345550
_cell_volume 670.178530
_symmetry_space_group_name_H-M "P -1"
_symmetry_group_IT_number 2
_symmetry_cell_setting 'triclinic'
loop_
_space_group_symop_operation_xyz
x,y,z
-x,-y,-z
loop_
_atom_site_type_symbol
_atom_site_label
_atom_site_fract_x
_atom_site_fract_y
_atom_site_fract_z
Si Si1 0.956691 0.750334 0.286011
Si Si2 0.901528 0.127521 0.448569
Si Si3 0.813201 0.459300 0.564191
Si Si4 0.045702 0.871491 0.097211
Si Si5 0.661701 0.512740 0.956671
Si Si6 0.873716 0.280625 0.177736
Si Si7 0.490431 0.188274 0.014981
Si Si8 0.364774 0.432479 0.247407
O O1 0.052506 0.794921 0.185682
O O2 0.838793 0.472773 0.229267
O O3 0.090023 0.882383 0.428108
O O4 0.865524 0.876204 0.322728
O O5 0.783913 0.205443 0.452120
O O6 0.089600 0.353107 0.468979
O O7 0.640289 0.421805 0.598681
O O8 0.967898 0.596723 0.699578
O O9 0.849688 0.775781 0.056744
O O10 0.187290 0.160146 0.181724
O O11 0.067422 0.746303 0.950671
O O12 0.646296 0.337198 0.977362
O O13 0.500000 0.500000 0.000000
O O14 0.641628 0.442953 0.808969
O O15 0.697397 0.007756 0.109979
O O16 0.480105 0.356941 0.164083
O O17 0.500000 0.000000 0.000000
#
# Coordination Sequence:
#
# PCOD9078699 Si02
#       8
#     2   2   2   2   2   2   2   2
#     4  10  19  33  50  83 116 147 170 235 284 328
#     4   9  20  33  52  82 118 136 192 233 285 313
#     4  10  18  36  56  84 112 145 183 242 277 317
#     4  11  19  32  57  86 119 138 183 229 287 339
#     4  10  21  33  52  81 119 151 181 216 276 352
#     4  10  21  33  59  83 117 142 185 225 291 332
#     4  10  22  37  49  82 125 155 177 214 281 357
#     4  10  20  34  56  81 114 148 181 228 280 321
#
# _framework density 23.874236
#
# number of rings (size 3 to 8) (size 9 to 14) (size 15 to 20)
#    0.000    2.000    2.500    1.500    3.500    1.000 
#    0.000    0.000    0.000    0.000    0.000   54.250 
#    0.000    0.000    0.000    0.000    0.000    0.000 
#
# Total GULP energy -89128.533991 kJ/mol
# GULP energy per Si atom -5570.533374 kJ/mol
# Density = 2.381990 g / cm^3
# Si number density = 23.874236 Si / 1000 Ang^3
#
#
#
# Elastic Constant Matrix: (Units=GPa)
#
#
# Indices 1 2 3 4 5 6 
#
# 1 52.4118 24.4188 10.1732 9.9596 -18.6497 -11.3813
# 2 24.4188 114.1585 14.5007 -13.8489 -7.4316 -9.9213
# 3 10.1732 14.5007 70.3933 -23.1361 -18.5277 -1.7227
# 4 9.9596 -13.8489 -23.1361 44.4833 -3.7259 -8.2401
# 5 -18.6497 -7.4316 -18.5277 -3.7259 29.1897 5.5243
# 6 -11.3813 -9.9213 -1.7227 -8.2401 5.5243 41.5488
#
#
#
# Elastic Compliance Matrix: (Units=1/GPa)
#
#
# Indices 1 2 3 4 5 6 
#
# 1 0.029411 -0.005745 -0.001482 -0.007308 0.014849 0.003200
# 2 -0.005745 0.010721 0.000184 0.005056 -0.000571 0.002073
# 3 -0.001482 0.000184 0.022967 0.013851 0.015196 0.001317
# 4 -0.007308 0.005056 0.013851 0.034646 0.008795 0.005482
# 5 0.014849 -0.000571 0.015196 0.008795 0.054548 -0.000947
# 6 0.003200 0.002073 0.001317 0.005482 -0.000947 0.026707
#
#
# Mechanical properties :
#
#
# Convention : Reuss Voigt Hill
#
# Bulk Modulus (GPa) = 20.40280 37.23876 28.82078
# Shear Modulus (GPa) = 23.87491 35.56910 29.72201
#
# Velocity S-wave (km/s) = 3.16575 3.86405 3.53220
# Velocity P-wave (km/s) = 4.68264 5.96151 5.36035
#
# Compressibility (1/GPa) = 0.04901289
#
# Stress axis : x y z
#
# Youngs Moduli (GPa) = 34.00075 93.27057 43.54167
#
# Poissons Ratio (x) = 0.53580 0.06454
# Poissons Ratio (y) = 0.19532 -0.00800
# Poissons Ratio (z) = 0.05040 -0.01714
#
# Static dielectric constant tensor:
#      x y z
#    x 2.061420 -0.057800 0.004310 
#    y -0.057800 1.976230 0.014490 
#    z 0.004310 0.014490 2.001270 
# 
# From -- ./inp_files/214461.got.cif
#   From: 2010.05.17/outbox.cif.g08.bks.cpg/sg2_108_cif.got.tgz:214461.got - 2010.06.03 11:33:40.
