data_PCOD9078076
_publ_section_title
;
Structure prediction by ZEFSAII (Michael W. Deem and Ramdas Pophale) SiO2 
 PCOD9078076
Probable space group: P -1
;
_chemical_formula_sum "Si O2"
_cell_formula_units_Z 16
_cell_length_a 14.281992
_cell_length_b 13.345997
_cell_length_c 5.437953
_cell_angle_alpha 82.146939
_cell_angle_beta 108.908091
_cell_angle_gamma 47.316095
_cell_volume 619.023433
_symmetry_space_group_name_H-M "P -1"
_symmetry_group_IT_number 2
_symmetry_cell_setting 'triclinic'
loop_
_space_group_symop_operation_xyz
x,y,z
-x,-y,-z
loop_
_atom_site_type_symbol
_atom_site_label
_atom_site_fract_x
_atom_site_fract_y
_atom_site_fract_z
Si Si1 0.055266 0.628162 0.089046
Si Si2 0.858626 0.281155 0.558097
Si Si3 0.646080 0.011120 0.072802
Si Si4 0.618497 0.835059 0.868544
Si Si5 0.145801 0.977845 0.676436
Si Si6 0.698386 0.224035 0.618681
Si Si7 0.420653 0.308740 0.486297
Si Si8 0.109045 0.527829 0.657938
O O1 0.029052 0.764052 0.110108
O O2 0.244610 0.480793 0.298752
O O3 0.014021 0.592646 0.302497
O O4 0.013653 0.611324 0.801876
O O5 0.718856 0.326582 0.537236
O O6 0.821262 0.411984 0.329449
O O7 0.962069 0.128873 0.520145
O O8 0.670384 0.909736 0.914013
O O9 0.525196 0.196586 0.845065
O O10 0.802777 0.944411 0.286066
O O11 0.554495 0.029139 0.206898
O O12 0.597743 0.786752 0.623095
O O13 0.751416 0.661696 0.167639
O O14 0.212081 0.896850 0.494395
O O15 0.221614 0.861990 0.019262
O O16 0.528053 0.307548 0.445888
#
# Coordination Sequence:
#
# PCOD9078076 Si02
#       8
#     2   2   2   2   2   2   2   2
#     4   9  20  34  57  79 112 151 180 230 272 330
#     4  10  23  39  60  79 116 156 189 224 283 326
#     4  10  19  34  58  84 110 150 182 233 290 324
#     4  10  18  35  58  83 113 145 185 232 286 337
#     4  11  24  39  56  86 116 144 195 234 271 337
#     4  11  24  36  61  84 114 149 188 235 281 328
#     4  10  19  37  54  86 120 138 191 233 282 333
#     4   9  20  36  56  81 112 146 192 223 278 330
#
# _framework density 25.847161
#
# number of rings (size 3 to 8) (size 9 to 14) (size 15 to 20)
#    0.750    1.250    2.500    1.125    3.500    0.500 
#    0.000    3.125    0.000    3.000    0.000    0.000 
#    0.000    0.000    0.000    0.000    0.000    0.000 
#
# Total GULP energy -89195.825027 kJ/mol
# GULP energy per Si atom -5574.739064 kJ/mol
# Density = 2.578833 g / cm^3
# Si number density = 25.847161 Si / 1000 Ang^3
#
#
#
# Elastic Constant Matrix: (Units=GPa)
#
#
# Indices 1 2 3 4 5 6 
#
# 1 79.6439 3.6857 15.3086 -10.0059 9.9150 -4.2786
# 2 3.6857 84.2156 20.7894 10.7134 -6.4907 -6.5798
# 3 15.3086 20.7894 90.2051 18.8508 -21.7664 -6.8307
# 4 -10.0059 10.7134 18.8508 55.0056 -2.1681 -0.7716
# 5 9.9150 -6.4907 -21.7664 -2.1681 18.1111 -1.4156
# 6 -4.2786 -6.5798 -6.8307 -0.7716 -1.4156 42.8140
#
#
#
# Elastic Compliance Matrix: (Units=1/GPa)
#
#
# Indices 1 2 3 4 5 6 
#
# 1 0.017372 -0.000861 -0.008653 0.005517 -0.019583 -0.000325
# 2 -0.000861 0.012921 -0.001516 -0.002004 0.003175 0.001727
# 3 -0.008653 -0.001516 0.021956 -0.007578 0.029928 0.003258
# 4 0.005517 -0.002004 -0.007578 0.021751 -0.010313 -0.000915
# 5 -0.019583 0.003175 0.029928 -0.010313 0.102315 0.006503
# 6 -0.000325 0.001727 0.003258 -0.000915 0.006503 0.024308
#
#
# Mechanical properties :
#
#
# Convention : Reuss Voigt Hill
#
# Bulk Modulus (GPa) = 33.12402 37.07020 35.09711
# Shear Modulus (GPa) = 21.48266 37.47153 29.47710
#
# Velocity S-wave (km/s) = 2.88608 3.81167 3.38070
# Velocity P-wave (km/s) = 4.89378 5.80904 5.37094
#
# Compressibility (1/GPa) = 0.03018957
#
# Stress axis : x y z
#
# Youngs Moduli (GPa) = 57.56231 77.39476 45.54658
#
# Poissons Ratio (x) = 0.06662 0.39410
# Poissons Ratio (y) = 0.04955 0.06905
# Poissons Ratio (z) = 0.49807 0.11734
#
# Static dielectric constant tensor:
#      x y z
#    x 2.097700 0.048890 -0.024880 
#    y 0.048890 2.131960 0.044580 
#    z -0.024880 0.044580 2.114540 
# 
# From -- ./inp_files/77779.got.cif
#   From: 2010.05.17/outbox.cif.g08.bks.cpg/sg2_39_cif.got.tgz:77779.got - 2010.06.03 11:33:40.
