data_PCOD9078178
_publ_section_title
;
Structure prediction by ZEFSAII (Michael W. Deem and Ramdas Pophale) SiO2 
 PCOD9078178
Probable space group: P -1
;
_chemical_formula_sum "Si O2"
_cell_formula_units_Z 16
_cell_length_a 9.479655
_cell_length_b 8.547650
_cell_length_c 9.003410
_cell_angle_alpha 85.478358
_cell_angle_beta 86.027874
_cell_angle_gamma 91.468913
_cell_volume 725.162947
_symmetry_space_group_name_H-M "P -1"
_symmetry_group_IT_number 2
_symmetry_cell_setting 'triclinic'
loop_
_space_group_symop_operation_xyz
x,y,z
-x,-y,-z
loop_
_atom_site_type_symbol
_atom_site_label
_atom_site_fract_x
_atom_site_fract_y
_atom_site_fract_z
Si Si1 0.419746 0.674132 0.657262
Si Si2 0.416432 0.372030 0.887306
Si Si3 0.160818 0.801552 0.855326
Si Si4 0.243007 0.726609 0.400113
Si Si5 0.731946 0.410712 0.913817
Si Si6 0.310566 0.103447 0.323452
Si Si7 0.658106 0.938027 0.018484
Si Si8 0.017427 0.172153 0.415101
O O1 0.439625 0.511554 0.757226
O O2 0.289302 0.754375 0.743068
O O3 0.361744 0.648138 0.498100
O O4 0.547121 0.802366 0.646728
O O5 0.570646 0.335504 0.946674
O O6 0.308814 0.426514 0.019706
O O7 0.356415 0.204988 0.852822
O O8 0.033583 0.829939 0.752192
O O9 0.149637 0.661565 0.985040
O O10 0.222478 0.944962 0.935968
O O11 0.232344 0.633527 0.253063
O O12 0.089990 0.723157 0.492393
O O13 0.291756 0.913903 0.370847
O O14 0.299656 0.109569 0.146376
O O15 0.184625 0.199474 0.399856
O O16 0.500000 0.000000 0.000000
O O17 0.000000 0.000000 0.500000
#
# Coordination Sequence:
#
# PCOD9078178 Si02
#       8
#     2   2   2   2   2   2   2   2
#     4  10  21  36  62  90 123 158 191 248 299 355
#     4  10  21  36  58  94 128 146 192 257 305 337
#     4  10  19  36  62  91 116 156 195 244 305 345
#     4  10  20  37  60  87 121 164 200 236 301 352
#     4  10  18  35  59  86 119 154 193 243 295 352
#     4  11  19  35  60  93 123 155 204 248 290 348
#     4  12  19  35  64  96 117 149 200 254 296 354
#     4   9  22  39  55  89 126 159 194 248 294 352
#
# _framework density 22.064005000000002
#
# number of rings (size 3 to 8) (size 9 to 14) (size 15 to 20)
#    0.000    1.750    3.750    1.875    0.000    1.000 
#    0.000    0.000    0.000   15.000    0.000    0.000 
#    0.000    0.000    0.000    0.000    0.000    0.000 
#
# Total GULP energy -89161.819748 kJ/mol
# GULP energy per Si atom -5572.613734 kJ/mol
# Density = 2.201379 g / cm^3
# Si number density = 22.064005 Si / 1000 Ang^3
#
#
#
# Elastic Constant Matrix: (Units=GPa)
#
#
# Indices 1 2 3 4 5 6 
#
# 1 51.4965 3.4959 29.4520 0.8519 -8.3417 -13.6345
# 2 3.4959 49.9843 10.1545 -14.8362 -8.4257 -9.4164
# 3 29.4520 10.1545 120.5564 1.9246 5.4502 -18.1831
# 4 0.8519 -14.8362 1.9246 27.2165 -10.1835 -3.3747
# 5 -8.3417 -8.4257 5.4502 -10.1835 29.0296 -3.3523
# 6 -13.6345 -9.4164 -18.1831 -3.3747 -3.3523 14.2359
#
#
#
# Elastic Compliance Matrix: (Units=1/GPa)
#
#
# Indices 1 2 3 4 5 6 
#
# 1 0.059563 0.049461 -0.005637 0.065342 0.068641 0.114217
# 2 0.049461 0.092803 -0.002933 0.103940 0.095736 0.152194
# 3 -0.005637 -0.002933 0.010890 -0.003607 -0.005264 0.004476
# 4 0.065342 0.103940 -0.003607 0.164619 0.130046 0.196372
# 5 0.068641 0.095736 -0.005264 0.130046 0.150343 0.188573
# 6 0.114217 0.152194 0.004476 0.196372 0.188573 0.376978
#
#
# Mechanical properties :
#
#
# Convention : Reuss Voigt Hill
#
# Bulk Modulus (GPa) = 4.08097 34.24910 19.16503
# Shear Modulus (GPa) = 5.84732 26.02538 15.93635
#
# Velocity S-wave (km/s) = 1.62970 3.43817 2.69044
# Velocity P-wave (km/s) = 2.32268 5.59622 4.28442
#
# Compressibility (1/GPa) = 0.24503996
#
# Stress axis : x y z
#
# Youngs Moduli (GPa) = 16.78881 10.77547 91.83057
#
# Poissons Ratio (x) = -0.53297 0.51764
# Poissons Ratio (y) = -0.83040 0.26932
# Poissons Ratio (z) = 0.09464 0.03160
#
# Static dielectric constant tensor:
#      x y z
#    x 1.810230 -0.016400 -0.033980 
#    y -0.016400 1.865080 -0.038550 
#    z -0.033980 -0.038550 1.885080 
# 
# From -- ./inp_files/158717.got.cif
#   From: 2010.05.17/outbox.cif.g08.bks.cpg/sg2_80_cif.got.tgz:158717.got - 2010.06.03 11:33:40.
