data_PCOD9078677
_publ_section_title
;
Structure prediction by ZEFSAII (Michael W. Deem and Ramdas Pophale) SiO2 
 PCOD9078677
Probable space group: P -1
;
_chemical_formula_sum "Si O2"
_cell_formula_units_Z 16
_cell_length_a 18.178169
_cell_length_b 12.525761
_cell_length_c 12.112522
_cell_angle_alpha 135.197048
_cell_angle_beta 29.862034
_cell_angle_gamma 114.368981
_cell_volume 789.820804
_symmetry_space_group_name_H-M "P -1"
_symmetry_group_IT_number 2
_symmetry_cell_setting 'triclinic'
loop_
_space_group_symop_operation_xyz
x,y,z
-x,-y,-z
loop_
_atom_site_type_symbol
_atom_site_label
_atom_site_fract_x
_atom_site_fract_y
_atom_site_fract_z
Si Si1 0.417468 0.098849 0.943468
Si Si2 0.668138 0.665365 0.356410
Si Si3 0.782159 0.021768 0.323364
Si Si4 0.713729 0.569110 0.481765
Si Si5 0.524776 0.582777 0.280384
Si Si6 0.990252 0.347344 0.125335
Si Si7 0.706241 0.409010 0.704068
Si Si8 0.670200 0.993364 0.224459
O O1 0.574531 0.108862 0.691452
O O2 0.525234 0.888874 0.695954
O O3 0.288380 0.114974 0.024412
O O4 0.328644 0.250026 0.265813
O O5 0.693804 0.602137 0.402204
O O6 0.596155 0.579024 0.305801
O O7 0.860037 0.613271 0.023728
O O8 0.801218 0.189372 0.417795
O O9 0.806203 0.930946 0.104413
O O10 0.903864 0.869320 0.144289
O O11 0.578708 0.515099 0.655656
O O12 0.910703 0.402916 0.147023
O O13 0.396003 0.797655 0.566793
O O14 0.684733 0.483398 0.909690
O O15 0.819105 0.449785 0.506026
O O16 0.500000 0.500000 0.000000
O O17 0.500000 0.000000 0.500000
#
# Coordination Sequence:
#
# PCOD9078677 Si02
#       8
#     2   2   2   2   2   2   2   2
#     4   9  19  36  62  89 112 159 205 245 291 351
#     4  10  24  42  59  89 123 159 200 253 301 338
#     4  10  18  36  55  91 124 156 185 245 309 359
#     4  12  21  41  66  86 119 162 212 242 281 362
#     4  11  22  38  64  93 116 157 205 247 296 354
#     4  11  24  37  60  88 124 161 193 245 309 354
#     4  12  20  37  64  92 119 152 204 245 299 366
#     4   9  18  33  57  87 132 150 183 246 309 355
#
# _framework density 20.257760000000001
#
# number of rings (size 3 to 8) (size 9 to 14) (size 15 to 20)
#    0.000    1.500    3.750    2.250    1.750    0.500 
#    2.250    0.000    0.000    0.750    0.000    0.000 
#    0.000    0.000    0.000    0.000    0.000    0.000 
#
# Total GULP energy -89340.323568 kJ/mol
# GULP energy per Si atom -5583.770223 kJ/mol
# Density = 2.021165 g / cm^3
# Si number density = 20.257760 Si / 1000 Ang^3
#
#
#
# Elastic Constant Matrix: (Units=GPa)
#
#
# Indices 1 2 3 4 5 6 
#
# 1 144.5429 31.1079 29.9369 27.7232 8.9782 -14.4823
# 2 31.1079 65.5038 15.5051 9.3214 2.8220 -1.6904
# 3 29.9369 15.5051 45.1015 4.0424 0.9805 -0.2856
# 4 27.7232 9.3214 4.0424 18.3040 -1.8172 0.1766
# 5 8.9782 2.8220 0.9805 -1.8172 28.0431 4.2136
# 6 -14.4823 -1.6904 -0.2856 0.1766 4.2136 30.5403
#
#
#
# Elastic Compliance Matrix: (Units=1/GPa)
#
#
# Indices 1 2 3 4 5 6 
#
# 1 0.013224 -0.001707 -0.006362 -0.018429 -0.006095 0.007065
# 2 -0.001707 0.018043 -0.004517 -0.005762 -0.001544 0.000393
# 3 -0.006362 -0.004517 0.027320 0.006178 0.002445 -0.003385
# 4 -0.018429 -0.005762 0.006178 0.085566 0.013516 -0.011360
# 5 -0.006095 -0.001544 0.002445 0.013516 0.039838 -0.008528
# 6 0.007065 0.000393 -0.003385 -0.011360 -0.008528 0.037326
#
#
# Mechanical properties :
#
#
# Convention : Reuss Voigt Hill
#
# Bulk Modulus (GPa) = 29.92722 45.36090 37.64406
# Shear Modulus (GPa) = 19.40781 27.28404 23.34592
#
# Velocity S-wave (km/s) = 3.09859 3.67392 3.39845
# Velocity P-wave (km/s) = 5.25423 6.35904 5.83285
#
# Compressibility (1/GPa) = 0.03341440
#
# Stress axis : x y z
#
# Youngs Moduli (GPa) = 75.61739 55.42356 36.60355
#
# Poissons Ratio (x) = 0.09461 0.23288
# Poissons Ratio (y) = 0.12908 0.16535
# Poissons Ratio (z) = 0.48109 0.25036
#
# Static dielectric constant tensor:
#      x y z
#    x 1.734700 -0.009030 -0.014360 
#    y -0.009030 1.711660 -0.000060 
#    z -0.014360 -0.000060 1.750050 
# 
# From -- ./inp_files/195797.got.cif
#   From: 2010.05.17/outbox.cif.g08.bks.cpg/sg2_98_cif.got.tgz:195797.got - 2010.06.03 11:33:40.
