data_PCOD9078797
_publ_section_title
;
Structure prediction by ZEFSAII (Michael W. Deem and Ramdas Pophale) SiO2 
 PCOD9078797
Probable space group: P -1
;
_chemical_formula_sum "Si O2"
_cell_formula_units_Z 16
_cell_length_a 9.401885
_cell_length_b 12.151717
_cell_length_c 15.624960
_cell_angle_alpha 60.204884
_cell_angle_beta 88.902240
_cell_angle_gamma 37.810438
_cell_volume 676.463120
_symmetry_space_group_name_H-M "P -1"
_symmetry_group_IT_number 2
_symmetry_cell_setting 'triclinic'
loop_
_space_group_symop_operation_xyz
x,y,z
-x,-y,-z
loop_
_atom_site_type_symbol
_atom_site_label
_atom_site_fract_x
_atom_site_fract_y
_atom_site_fract_z
Si Si1 0.427712 0.751491 0.116649
Si Si2 0.397144 0.724947 0.426935
Si Si3 0.115390 0.318800 0.299137
Si Si4 0.721449 0.991642 0.821156
Si Si5 0.439752 0.261956 0.413915
Si Si6 0.537437 0.616364 0.983078
Si Si7 0.247397 0.774519 0.662052
Si Si8 0.647003 0.792452 0.844946
O O1 0.209525 0.003471 0.088574
O O2 0.332148 0.805003 0.999127
O O3 0.543146 0.520482 0.236643
O O4 0.750277 0.579805 0.177655
O O5 0.500000 0.500000 0.500000
O O6 0.460337 0.757694 0.329983
O O7 0.586030 0.633593 0.540872
O O8 0.007605 0.035620 0.331336
O O9 0.152656 0.401706 0.333856
O O10 0.311059 0.202412 0.256593
O O11 0.271103 0.068357 0.436751
O O12 0.526107 0.016666 0.807742
O O13 0.071539 0.690414 0.889079
O O14 0.524291 0.286715 0.324468
O O15 0.500000 0.500000 0.000000
O O16 0.477572 0.791147 0.859115
O O17 0.000000 0.000000 0.500000
O O18 0.000000 0.500000 0.000000
#
# Coordination Sequence:
#
# PCOD9078797 Si02
#       8
#     2   2   2   2   2   2   2   2
#     4  12  22  41  66  90 127 170 209 263 322 379
#     4  11  20  37  63  94 134 170 210 258 319 385
#     4  11  20  39  61  89 126 166 210 261 313 375
#     4  11  22  41  67  94 125 167 216 255 323 392
#     4  10  21  35  61  91 124 169 212 256 313 374
#     4  11  25  45  67  93 126 165 214 271 322 373
#     4  10  18  36  58  89 123 169 206 246 319 368
#     4  10  20  42  65  87 124 169 209 261 318 375
#
# _framework density 23.652435000000001
#
# number of rings (size 3 to 8) (size 9 to 14) (size 15 to 20)
#    0.000    1.250    7.500    1.500    1.750    1.000 
#    0.000    4.375    0.000    0.000    0.000    0.000 
#    0.000    0.000    0.000    0.000    0.000    0.000 
#
# Total GULP energy -89287.795269 kJ/mol
# GULP energy per Si atom -5580.487204 kJ/mol
# Density = 2.359860 g / cm^3
# Si number density = 23.652435 Si / 1000 Ang^3
#
#
#
# Elastic Constant Matrix: (Units=GPa)
#
#
# Indices 1 2 3 4 5 6 
#
# 1 164.5779 33.2019 33.3432 7.6600 -40.8116 36.3627
# 2 33.2019 96.3966 17.9390 6.5294 -14.0206 22.6086
# 3 33.3432 17.9390 41.9451 7.9481 -33.5489 -3.5406
# 4 7.6600 6.5294 7.9481 26.5276 -2.7112 -3.8892
# 5 -40.8116 -14.0206 -33.5489 -2.7112 47.7495 4.1981
# 6 36.3627 22.6086 -3.5406 -3.8892 4.1981 35.0427
#
#
#
# Elastic Compliance Matrix: (Units=1/GPa)
#
#
# Indices 1 2 3 4 5 6 
#
# 1 0.012819 0.001904 -0.003118 -0.004596 0.010524 -0.016616
# 2 0.001904 0.014425 -0.005956 -0.003905 0.002567 -0.012625
# 3 -0.003118 -0.005956 0.061760 -0.011178 0.037679 0.007564
# 4 -0.004596 -0.003905 -0.011178 0.043977 -0.011524 0.012421
# 5 0.010524 0.002567 0.037679 -0.011524 0.058005 -0.016998
# 6 -0.016616 -0.012625 0.007564 0.012421 -0.016998 0.058103
#
#
# Mechanical properties :
#
#
# Convention : Reuss Voigt Hill
#
# Bulk Modulus (GPa) = 13.39334 52.43199 32.91267
# Shear Modulus (GPa) = 17.34205 36.42633 26.88419
#
# Velocity S-wave (km/s) = 2.71071 3.92863 3.37506
# Velocity P-wave (km/s) = 3.93346 6.54176 5.39753
#
# Compressibility (1/GPa) = 0.07466396
#
# Stress axis : x y z
#
# Youngs Moduli (GPa) = 78.01091 69.32292 16.19178
#
# Poissons Ratio (x) = -0.13201 0.05049
# Poissons Ratio (y) = -0.14856 0.09644
# Poissons Ratio (z) = 0.24327 0.41287
#
# Static dielectric constant tensor:
#      x y z
#    x 1.949300 -0.028210 0.003880 
#    y -0.028210 1.931750 0.050640 
#    z 0.003880 0.050640 1.879160 
# 
# From -- ./inp_files/437382.got.cif
#   From: 2010.05.17/outbox.cif.g08.bks.cpg/sg2_219_cif.got.tgz:437382.got - 2010.06.03 11:33:40.
