data_PCOD9078043
_publ_section_title
;
Structure prediction by ZEFSAII (Michael W. Deem and Ramdas Pophale) SiO2 
 PCOD9078043
Probable space group: P -1
;
_chemical_formula_sum "Si O2"
_cell_formula_units_Z 16
_cell_length_a 22.277566
_cell_length_b 8.120228
_cell_length_c 9.665794
_cell_angle_alpha 46.569999
_cell_angle_beta 106.538541
_cell_angle_gamma 69.786203
_cell_volume 765.639203
_symmetry_space_group_name_H-M "P -1"
_symmetry_group_IT_number 2
_symmetry_cell_setting 'triclinic'
loop_
_space_group_symop_operation_xyz
x,y,z
-x,-y,-z
loop_
_atom_site_type_symbol
_atom_site_label
_atom_site_fract_x
_atom_site_fract_y
_atom_site_fract_z
Si Si1 0.085842 0.787323 0.566331
Si Si2 0.105381 0.219382 0.811797
Si Si3 0.914234 0.120154 0.789172
Si Si4 0.374943 0.928537 0.797423
Si Si5 0.257851 0.028857 0.875662
Si Si6 0.618419 0.676664 0.236713
Si Si7 0.390484 0.788222 0.583202
Si Si8 0.689719 0.775416 0.975479
O O1 0.107820 0.464237 0.732285
O O2 0.052775 0.006374 0.275895
O O3 0.194884 0.584331 0.786790
O O4 0.000000 0.000000 0.500000
O O5 0.198832 0.967943 0.912428
O O6 0.000000 0.500000 0.500000
O O7 0.112262 0.022910 0.054274
O O8 0.824750 0.551021 0.466708
O O9 0.000000 0.000000 0.000000
O O10 0.344830 0.990334 0.582786
O O11 0.332617 0.833331 0.910327
O O12 0.343713 0.255138 0.660150
O O13 0.493968 0.582542 0.094050
O O14 0.311998 0.990689 0.065383
O O15 0.654093 0.318134 0.449821
O O16 0.648068 0.707272 0.092998
O O17 0.500000 0.000000 0.000000
O O18 0.376143 0.012029 0.325551
#
# Coordination Sequence:
#
# PCOD9078043 Si02
#       8
#     2   2   2   2   2   2   2   2
#     4  10  23  38  54  85 119 145 191 241 281 339
#     4  10  18  37  60  82 108 150 193 228 284 342
#     4  10  18  35  58  77 110 150 182 239 278 328
#     4   9  20  38  57  88 116 147 197 237 281 352
#     4   9  20  34  55  84 115 144 196 233 281 346
#     4   9  19  37  60  83 113 153 188 232 291 342
#     4  10  20  39  60  81 121 152 184 244 290 333
#     4   9  20  38  56  83 116 149 192 236 284 348
#
# _framework density 20.897572
#
# number of rings (size 3 to 8) (size 9 to 14) (size 15 to 20)
#    0.000    2.750    2.500    0.000    0.000   12.000 
#    2.250    9.375    0.000    0.000    0.000    0.000 
#    0.000    0.000    0.000    0.000    0.000    0.000 
#
# Total GULP energy -89103.392240 kJ/mol
# GULP energy per Si atom -5568.962015 kJ/mol
# Density = 2.085001 g / cm^3
# Si number density = 20.897572 Si / 1000 Ang^3
#
#
#
# Elastic Constant Matrix: (Units=GPa)
#
#
# Indices 1 2 3 4 5 6 
#
# 1 126.5614 30.0369 19.0645 3.0130 -23.3622 -27.2045
# 2 30.0369 82.0016 30.4042 15.2292 -12.8748 -20.9430
# 3 19.0645 30.4042 67.9349 28.1211 -19.0417 -1.3079
# 4 3.0130 15.2292 28.1211 20.0610 -10.2722 -5.6781
# 5 -23.3622 -12.8748 -19.0417 -10.2722 35.1431 7.1055
# 6 -27.2045 -20.9430 -1.3079 -5.6781 7.1055 25.1302
#
#
#
# Elastic Compliance Matrix: (Units=1/GPa)
#
#
# Indices 1 2 3 4 5 6 
#
# 1 0.013798 0.000536 -0.010502 0.020355 0.006044 0.017727
# 2 0.000536 0.019422 -0.010568 0.004711 -0.000394 0.017392
# 3 -0.010502 -0.010568 0.052580 -0.072103 0.003586 -0.034746
# 4 0.020355 0.004711 -0.072103 0.167191 0.013714 0.056107
# 5 0.006044 -0.000394 0.003586 0.013714 0.038564 -0.001404
# 6 0.017727 0.017392 -0.034746 0.056107 -0.001404 0.084743
#
#
# Mechanical properties :
#
#
# Convention : Reuss Voigt Hill
#
# Bulk Modulus (GPa) = 22.35627 48.38988 35.37307
# Shear Modulus (GPa) = 11.56667 29.19970 20.38318
#
# Velocity S-wave (km/s) = 2.35520 3.74207 3.12650
# Velocity P-wave (km/s) = 4.25643 6.47123 5.47695
#
# Compressibility (1/GPa) = 0.04473018
#
# Stress axis : x y z
#
# Youngs Moduli (GPa) = 72.47690 51.48745 19.01871
#
# Poissons Ratio (x) = -0.02760 0.19974
# Poissons Ratio (y) = -0.03885 0.20100
# Poissons Ratio (z) = 0.76117 0.54414
#
# Static dielectric constant tensor:
#      x y z
#    x 1.815080 -0.044940 0.017980 
#    y -0.044940 1.845480 -0.010570 
#    z 0.017980 -0.010570 1.743880 
# 
# From -- ./inp_files/352037.got.cif
#   From: 2010.05.17/outbox.cif.g08.bks.cpg/sg2_177_cif.got.tgz:352037.got - 2010.06.03 11:33:40.
