data_PCOD9078460
_publ_section_title
;
Structure prediction by ZEFSAII (Michael W. Deem and Ramdas Pophale) SiO2 
 PCOD9078460
Probable space group: P -1
;
_chemical_formula_sum "Si O2"
_cell_formula_units_Z 16
_cell_length_a 9.338323
_cell_length_b 21.977298
_cell_length_c 8.286121
_cell_angle_alpha 132.503419
_cell_angle_beta 48.791448
_cell_angle_gamma 150.041816
_cell_volume 613.486147
_symmetry_space_group_name_H-M "P -1"
_symmetry_group_IT_number 2
_symmetry_cell_setting 'triclinic'
loop_
_space_group_symop_operation_xyz
x,y,z
-x,-y,-z
loop_
_atom_site_type_symbol
_atom_site_label
_atom_site_fract_x
_atom_site_fract_y
_atom_site_fract_z
Si Si1 0.989159 0.022453 0.736202
Si Si2 0.082832 0.889280 0.550112
Si Si3 0.395843 0.632700 0.562922
Si Si4 0.631981 0.224970 0.329193
Si Si5 0.172424 0.870846 0.078561
Si Si6 0.189164 0.782774 0.497054
Si Si7 0.986532 0.575350 0.031510
Si Si8 0.380248 0.441563 0.305217
O O1 0.645816 0.889380 0.780473
O O2 0.137595 0.006333 0.718623
O O3 0.029490 0.133512 0.885657
O O4 0.000000 0.000000 0.500000
O O5 0.150251 0.884714 0.308031
O O6 0.242866 0.888366 0.565366
O O7 0.736009 0.752404 0.578264
O O8 0.351310 0.671056 0.502196
O O9 0.316389 0.510460 0.400029
O O10 0.186994 0.615045 0.805593
O O11 0.596139 0.185477 0.471518
O O12 0.871880 0.241938 0.105527
O O13 0.500000 0.000000 0.000000
O O14 0.121711 0.696388 0.249253
O O15 0.905949 0.698865 0.671326
O O16 0.645134 0.484902 0.092856
O O17 0.000000 0.500000 0.000000
O O18 0.500000 0.500000 0.500000
#
# Coordination Sequence:
#
# PCOD9078460 Si02
#       8
#     2   2   2   2   2   2   2   2
#     4   8  17  36  59  78 109 152 189 229 291 363
#     4  10  18  35  63  86 113 155 201 239 280 363
#     4  11  20  37  61  85 114 163 209 227 285 355
#     4  10  22  34  58  90 118 149 194 254 293 338
#     4   9  18  38  61  86 112 150 194 231 299 370
#     4  11  21  37  55  89 125 147 198 256 290 326
#     4  11  19  36  61  79 110 168 204 230 284 351
#     4  10  19  36  57  81 121 156 202 239 279 347
#
# _framework density 26.080459000000001
#
# number of rings (size 3 to 8) (size 9 to 14) (size 15 to 20)
#    0.000    2.000    5.000    0.750    0.000    0.500 
#    0.000   14.375    0.000    0.000    0.000    0.000 
#    0.000    0.000    0.000    0.000    0.000    0.000 
#
# Total GULP energy -89281.688355 kJ/mol
# GULP energy per Si atom -5580.105522 kJ/mol
# Density = 2.602110 g / cm^3
# Si number density = 26.080459 Si / 1000 Ang^3
#
#
#
# Elastic Constant Matrix: (Units=GPa)
#
#
# Indices 1 2 3 4 5 6 
#
# 1 181.9029 51.1390 24.8417 12.5379 -26.1525 -66.3432
# 2 51.1390 102.8521 44.7895 -11.1191 -13.2992 -34.7127
# 3 24.8417 44.7895 116.3636 -11.1675 -24.1330 -10.4621
# 4 12.5379 -11.1191 -11.1675 48.9899 -8.3636 -15.3328
# 5 -26.1525 -13.2992 -24.1330 -8.3636 34.1748 15.7168
# 6 -66.3432 -34.7127 -10.4621 -15.3328 15.7168 58.0172
#
#
#
# Elastic Compliance Matrix: (Units=1/GPa)
#
#
# Indices 1 2 3 4 5 6 
#
# 1 0.009792 -0.000938 -0.000216 0.000834 0.002519 0.010134
# 2 -0.000938 0.015849 -0.004698 0.005525 -0.000760 0.009228
# 3 -0.000216 -0.004698 0.012187 0.002415 0.008346 -0.002482
# 4 0.000834 0.005525 0.002415 0.026185 0.006352 0.009894
# 5 0.002519 -0.000760 0.008346 0.006352 0.040851 -0.005457
# 6 0.010134 0.009228 -0.002482 0.009894 -0.005457 0.037992
#
#
# Mechanical properties :
#
#
# Convention : Reuss Voigt Hill
#
# Bulk Modulus (GPa) = 38.27802 71.40655 54.84229
# Shear Modulus (GPa) = 30.62486 46.92629 38.77558
#
# Velocity S-wave (km/s) = 3.43044 4.24640 3.86005
# Velocity P-wave (km/s) = 5.51356 7.17505 6.39847
#
# Compressibility (1/GPa) = 0.02612465
#
# Stress axis : x y z
#
# Youngs Moduli (GPa) = 102.12869 63.09726 82.05201
#
# Poissons Ratio (x) = 0.05921 0.01768
# Poissons Ratio (y) = 0.09583 0.38544
# Poissons Ratio (z) = 0.02201 0.29640
#
# Static dielectric constant tensor:
#      x y z
#    x 2.194580 0.081930 -0.053120 
#    y 0.081930 2.280560 -0.024570 
#    z -0.053120 -0.024570 2.094460 
# 
# From -- ./inp_files/223771.got.cif
#   From: 2010.05.17/outbox.cif.g08.bks.cpg/sg2_112_cif.got.tgz:223771.got - 2010.06.03 11:33:40.
