data_PCOD9078354
_publ_section_title
;
Structure prediction by ZEFSAII (Michael W. Deem and Ramdas Pophale) SiO2 
 PCOD9078354
Probable space group: P -1
;
_chemical_formula_sum "Si O2"
_cell_formula_units_Z 16
_cell_length_a 22.506564
_cell_length_b 18.400335
_cell_length_c 9.432126
_cell_angle_alpha 148.592443
_cell_angle_beta 149.009373
_cell_angle_gamma 26.141072
_cell_volume 823.264778
_symmetry_space_group_name_H-M "P -1"
_symmetry_group_IT_number 2
_symmetry_cell_setting 'triclinic'
loop_
_space_group_symop_operation_xyz
x,y,z
-x,-y,-z
loop_
_atom_site_type_symbol
_atom_site_label
_atom_site_fract_x
_atom_site_fract_y
_atom_site_fract_z
Si Si1 0.528087 0.645183 0.766467
Si Si2 0.864831 0.009180 0.802097
Si Si3 0.046050 0.413867 0.107909
Si Si4 0.798137 0.415052 0.724698
Si Si5 0.668406 0.397980 0.144711
Si Si6 0.257123 0.485203 0.773645
Si Si7 0.788074 0.978360 0.301916
Si Si8 0.925638 0.166088 0.832404
O O1 0.500000 0.500000 0.500000
O O2 0.647049 0.563338 0.746074
O O3 0.377229 0.839878 0.751304
O O4 0.606640 0.654223 0.079582
O O5 0.824530 0.933564 0.469529
O O6 0.732260 0.212707 0.894293
O O7 0.000000 0.000000 0.000000
O O8 0.919850 0.917577 0.915184
O O9 0.130667 0.467283 0.459885
O O10 0.000000 0.500000 0.000000
O O11 0.900034 0.467992 0.977246
O O12 0.159949 0.200115 0.965276
O O13 0.755578 0.366435 0.413700
O O14 0.893673 0.249689 0.752209
O O15 0.690921 0.505051 0.257642
O O16 0.500000 0.500000 0.000000
O O17 0.187103 0.668760 0.019186
O O18 0.888970 0.030441 0.538798
#
# Coordination Sequence:
#
# PCOD9078354 Si02
#       8
#     2   2   2   2   2   2   2   2
#     4  11  21  43  69  97 127 168 214 276 329 377
#     4  10  18  35  61  90 123 163 208 258 320 381
#     4  12  26  43  63  94 138 179 212 262 325 392
#     4  11  23  40  66  98 132 164 219 275 324 376
#     4  12  22  35  64  96 125 162 217 271 321 369
#     4  11  22  42  65  89 134 174 210 256 332 389
#     4  11  21  40  69  93 131 172 211 268 331 380
#     4  10  21  38  68  96 120 165 225 270 318 372
#
# _framework density 19.434818
#
# number of rings (size 3 to 8) (size 9 to 14) (size 15 to 20)
#    0.000    1.000    6.250    3.750    0.000    4.500 
#    0.000    0.625    2.750    0.000    0.000    0.000 
#    0.000    0.000    0.000    0.000    0.000    0.000 
#
# Total GULP energy -89332.570917 kJ/mol
# GULP energy per Si atom -5583.285682 kJ/mol
# Density = 1.939058 g / cm^3
# Si number density = 19.434818 Si / 1000 Ang^3
#
#
#
# Elastic Constant Matrix: (Units=GPa)
#
#
# Indices 1 2 3 4 5 6 
#
# 1 101.8631 8.2817 37.6251 -3.7785 2.7735 -4.7303
# 2 8.2817 69.8715 17.6926 -0.1160 4.1602 -14.6774
# 3 37.6251 17.6926 84.0683 -15.8453 -3.0031 4.1240
# 4 -3.7785 -0.1160 -15.8453 30.4948 0.8830 -6.3330
# 5 2.7735 4.1602 -3.0031 0.8830 31.2935 -9.7565
# 6 -4.7303 -14.6774 4.1240 -6.3330 -9.7565 38.6976
#
#
#
# Elastic Compliance Matrix: (Units=1/GPa)
#
#
# Indices 1 2 3 4 5 6 
#
# 1 0.011996 0.000494 -0.005813 -0.001124 -0.001089 0.001815
# 2 0.000494 0.016742 -0.004218 -0.000679 -0.000598 0.006598
# 3 -0.005813 -0.004218 0.016986 0.007530 0.001729 -0.002452
# 4 -0.001124 -0.000679 0.007530 0.037629 0.001517 0.005343
# 5 -0.001089 -0.000598 0.001729 0.001517 0.034906 0.008505
# 6 0.001815 0.006598 -0.002452 0.005343 0.008505 0.031846
#
#
# Mechanical properties :
#
#
# Convention : Reuss Voigt Hill
#
# Bulk Modulus (GPa) = 37.52140 42.55572 40.03856
# Shear Modulus (GPa) = 28.08035 32.91073 30.49554
#
# Velocity S-wave (km/s) = 3.80524 4.11955 3.96551
# Velocity P-wave (km/s) = 6.21729 6.67621 6.45083
#
# Compressibility (1/GPa) = 0.02665145
#
# Stress axis : x y z
#
# Youngs Moduli (GPa) = 83.35981 59.73062 58.87364
#
# Poissons Ratio (x) = -0.02952 0.34221
# Poissons Ratio (y) = -0.04120 0.24830
# Poissons Ratio (z) = 0.48454 0.25192
#
# Static dielectric constant tensor:
#      x y z
#    x 1.692730 0.023430 -0.017800 
#    y 0.023430 1.885370 -0.009990 
#    z -0.017800 -0.009990 1.671600 
# 
# From -- ./inp_files/348997.got.cif
#   From: 2010.05.17/outbox.cif.g08.bks.cpg/sg2_175_cif.got.tgz:348997.got - 2010.06.03 11:33:40.
