data_PCOD9078805
_publ_section_title
;
Structure prediction by ZEFSAII (Michael W. Deem and Ramdas Pophale) SiO2 
 PCOD9078805
Probable space group: P -1
;
_chemical_formula_sum "Si O2"
_cell_formula_units_Z 15
_cell_length_a 9.840916
_cell_length_b 17.570726
_cell_length_c 8.961770
_cell_angle_alpha 36.612995
_cell_angle_beta 134.612571
_cell_angle_gamma 128.488585
_cell_volume 651.602846
_symmetry_space_group_name_H-M "P -1"
_symmetry_group_IT_number 2
_symmetry_cell_setting 'triclinic'
loop_
_space_group_symop_operation_xyz
x,y,z
-x,-y,-z
loop_
_atom_site_type_symbol
_atom_site_label
_atom_site_fract_x
_atom_site_fract_y
_atom_site_fract_z
Si Si1 0.717632 0.538834 0.048351
Si Si2 0.898712 0.038866 0.008984
Si Si3 0.500000 0.500000 0.500000
Si Si4 0.536457 0.327254 0.546886
Si Si5 0.945733 0.281410 0.851889
Si Si6 0.833108 0.390873 0.103012
Si Si7 0.091000 0.852787 0.638962
Si Si8 0.491759 0.945516 0.910717
O O1 0.663983 0.652317 0.716826
O O2 0.880412 0.602771 0.185631
O O3 0.500000 0.500000 0.000000
O O4 0.800917 0.428226 0.191231
O O5 0.669446 0.020944 0.841097
O O6 0.936016 0.938856 0.326112
O O7 0.975874 0.179606 0.908169
O O8 0.000000 0.000000 0.000000
O O9 0.593521 0.452644 0.492789
O O10 0.637308 0.416056 0.834093
O O11 0.493846 0.205460 0.815895
O O12 0.724820 0.310599 0.622698
O O13 0.943571 0.214215 0.120820
O O14 0.884205 0.254336 0.300030
O O15 0.000000 0.500000 0.000000
O O16 0.290859 0.947647 0.669252
O O17 0.500000 0.000000 0.000000
#
# Coordination Sequence:
#
# PCOD9078805 Si02
#       8
#     2   2   1   2   2   2   2   2
#     4  11  25  39  64  96 131 170 205 265 333 389
#     4  12  28  43  64 101 136 170 217 279 331 383
#     4  10  18  36  58  96 122 152 210 266 304 362
#     4  10  21  39  68  92 126 166 216 266 311 386
#     4  11  22  45  66  94 129 174 221 265 324 388
#     4  11  21  39  64  94 125 161 216 264 313 381
#     4  11  23  42  73  96 126 179 222 268 319 393
#     4  11  22  42  70  96 122 174 226 265 320 388
#
# _framework density 23.020157000000001
#
# number of rings (size 3 to 8) (size 9 to 14) (size 15 to 20)
#    0.000    1.067    6.667    1.200    3.733    3.200 
#    0.000    0.000    0.000    0.000    0.000    0.000 
#    0.000    0.000    0.000    0.000    0.000    0.000 
#
# Total GULP energy -83540.460599 kJ/mol
# GULP energy per Si atom -5569.364040 kJ/mol
# Density = 2.296776 g / cm^3
# Si number density = 23.020157 Si / 1000 Ang^3
#
#
#
# Elastic Constant Matrix: (Units=GPa)
#
#
# Indices 1 2 3 4 5 6 
#
# 1 116.6253 69.9446 -19.4832 4.3010 7.2721 -20.1551
# 2 69.9446 156.0830 2.0776 6.4203 20.7209 -17.6795
# 3 -19.4832 2.0776 48.6784 -3.2575 6.5903 -9.2629
# 4 4.3010 6.4203 -3.2575 18.7324 -3.1164 11.5170
# 5 7.2721 20.7209 6.5903 -3.1164 23.0497 -7.5687
# 6 -20.1551 -17.6795 -9.2629 11.5170 -7.5687 42.2435
#
#
#
# Elastic Compliance Matrix: (Units=1/GPa)
#
#
# Indices 1 2 3 4 5 6 
#
# 1 0.014607 -0.005622 0.007170 -0.004773 0.000222 0.007530
# 2 -0.005622 0.010200 -0.001805 -0.004386 -0.007107 0.001113
# 3 0.007170 -0.001805 0.025605 -0.002385 -0.005685 0.007912
# 4 -0.004773 -0.004386 -0.002385 0.070744 0.008330 -0.022431
# 5 0.000222 -0.007107 -0.005685 0.008330 0.053506 0.003201
# 6 0.007530 0.001113 0.007912 -0.022431 0.003201 0.036155
#
#
# Mechanical properties :
#
#
# Convention : Reuss Voigt Hill
#
# Bulk Modulus (GPa) = 20.04041 47.38495 33.71268
# Shear Modulus (GPa) = 21.93330 34.72829 28.33079
#
# Velocity S-wave (km/s) = 3.09007 3.88829 3.51193
# Velocity P-wave (km/s) = 4.63205 6.38648 5.57867
#
# Compressibility (1/GPa) = 0.04989918
#
# Stress axis : x y z
#
# Youngs Moduli (GPa) = 68.45983 98.03845 39.05454
#
# Poissons Ratio (x) = 0.55113 -0.28001
# Poissons Ratio (y) = 0.38485 0.07048
# Poissons Ratio (z) = -0.49083 0.17693
#
# Static dielectric constant tensor:
#      x y z
#    x 1.893090 0.010260 -0.062830 
#    y 0.010260 1.888380 -0.025590 
#    z -0.062830 -0.025590 1.925730 
# 
# From -- ./inp_files/199968.got.cif
#   From: 2010.05.17/outbox.cif.g08.bks.cpg/sg2_100_cif.got.tgz:199968.got - 2010.06.03 11:33:40.
