data_PCOD9078124
_publ_section_title
;
Structure prediction by ZEFSAII (Michael W. Deem and Ramdas Pophale) SiO2 
 PCOD9078124
Probable space group: P -1
;
_chemical_formula_sum "Si O2"
_cell_formula_units_Z 16
_cell_length_a 9.040590
_cell_length_b 11.165330
_cell_length_c 12.059694
_cell_angle_alpha 114.878816
_cell_angle_beta 85.096318
_cell_angle_gamma 136.889189
_cell_volume 704.850371
_symmetry_space_group_name_H-M "P -1"
_symmetry_group_IT_number 2
_symmetry_cell_setting 'triclinic'
loop_
_space_group_symop_operation_xyz
x,y,z
-x,-y,-z
loop_
_atom_site_type_symbol
_atom_site_label
_atom_site_fract_x
_atom_site_fract_y
_atom_site_fract_z
Si Si1 0.893593 0.614337 0.602225
Si Si2 0.193436 0.518602 0.766697
Si Si3 0.695689 0.104735 0.152291
Si Si4 0.577340 0.605322 0.703426
Si Si5 0.239965 0.763017 0.442241
Si Si6 0.655686 0.535111 0.914031
Si Si7 0.124816 0.974677 0.060307
Si Si8 0.271032 0.658314 0.052803
O O1 0.689971 0.583146 0.599595
O O2 0.773729 0.397325 0.571957
O O3 0.084564 0.791373 0.748951
O O4 0.064290 0.709120 0.523586
O O5 0.261196 0.711342 0.794590
O O6 0.319992 0.489070 0.679292
O O7 0.295698 0.587501 0.911005
O O8 0.915962 0.326569 0.694084
O O9 0.719588 0.024841 0.014342
O O10 0.441790 0.899107 0.133360
O O11 0.611461 0.554562 0.800578
O O12 0.733249 0.844300 0.790879
O O13 0.500000 0.000000 0.500000
O O14 0.500000 0.500000 0.000000
O O15 0.641763 0.369001 0.860939
O O16 0.912157 0.742872 0.021906
O O17 0.000000 0.000000 0.000000
O O18 0.000000 0.500000 0.000000
#
# Coordination Sequence:
#
# PCOD9078124 Si02
#       8
#     2   2   2   2   2   2   2   2
#     4  10  23  44  72  96 121 179 224 276 340 394
#     4  11  24  42  64  96 135 179 220 272 327 397
#     4  11  21  40  64  92 135 178 216 258 335 400
#     4  11  22  40  65  94 138 174 217 264 330 411
#     4  10  25  49  72  92 125 170 234 285 335 393
#     4  11  21  36  53  91 140 175 207 252 317 397
#     4  10  18  35  58  90 131 174 205 250 317 404
#     4  12  25  34  59 100 138 169 216 266 329 391
#
# _framework density 22.699854999999999
#
# number of rings (size 3 to 8) (size 9 to 14) (size 15 to 20)
#    0.000    1.250    5.000    1.875    5.250    0.500 
#    0.000    0.625    0.000    0.000    0.000    0.000 
#    0.000    0.000    0.000    0.000    0.000    0.000 
#
# Total GULP energy -89239.095990 kJ/mol
# GULP energy per Si atom -5577.443499 kJ/mol
# Density = 2.264819 g / cm^3
# Si number density = 22.699855 Si / 1000 Ang^3
#
#
#
# Elastic Constant Matrix: (Units=GPa)
#
#
# Indices 1 2 3 4 5 6 
#
# 1 142.4824 47.1548 29.8159 10.2297 -10.8754 17.3818
# 2 47.1548 130.0811 32.9046 28.5968 0.7119 17.6678
# 3 29.8159 32.9046 56.0576 13.6317 -1.4933 6.5311
# 4 10.2297 28.5968 13.6317 39.0213 16.0290 1.5162
# 5 -10.8754 0.7119 -1.4933 16.0290 39.1429 -1.2174
# 6 17.3818 17.6678 6.5311 1.5162 -1.2174 40.6817
#
#
#
# Elastic Compliance Matrix: (Units=1/GPa)
#
#
# Indices 1 2 3 4 5 6 
#
# 1 0.008843 -0.001960 -0.003010 -0.000825 0.002643 -0.002334
# 2 -0.001960 0.011272 -0.003384 -0.007260 0.001995 -0.003184
# 3 -0.003010 -0.003384 0.022957 -0.005722 0.002424 -0.000644
# 4 -0.000825 -0.007260 -0.005722 0.039874 -0.016568 0.002442
# 5 0.002643 0.001995 0.002424 -0.016568 0.033098 -0.000777
# 6 -0.002334 -0.003184 -0.000644 0.002442 -0.000777 0.026950
#
#
# Mechanical properties :
#
#
# Convention : Reuss Voigt Hill
#
# Bulk Modulus (GPa) = 37.93121 60.93018 49.43069
# Shear Modulus (GPa) = 29.67549 38.35222 34.01385
#
# Velocity S-wave (km/s) = 3.61958 4.11486 3.87514
# Velocity P-wave (km/s) = 5.84933 7.03392 6.46880
#
# Compressibility (1/GPa) = 0.02636351
#
# Stress axis : x y z
#
# Youngs Moduli (GPa) = 113.08836 88.71712 43.55996
#
# Poissons Ratio (x) = 0.17391 0.13110
# Poissons Ratio (y) = 0.22168 0.14741
# Poissons Ratio (z) = 0.34035 0.30022
#
# Static dielectric constant tensor:
#      x y z
#    x 1.807510 0.003110 -0.011950 
#    y 0.003110 1.932000 -0.084190 
#    z -0.011950 -0.084190 1.949930 
# 
# From -- ./inp_files/500706.got.cif
#   From: 2010.05.17/outbox.cif.g08.bks.cpg/sg2_251_cif.got.tgz:500706.got - 2010.06.03 11:33:40.
