data_PCOD9078995
_publ_section_title
;
Structure prediction by ZEFSAII (Michael W. Deem and Ramdas Pophale) SiO2 
 PCOD9078995
Probable space group: P -1
;
_chemical_formula_sum "Si O2"
_cell_formula_units_Z 15
_cell_length_a 7.817974
_cell_length_b 9.539107
_cell_length_c 8.983248
_cell_angle_alpha 84.001154
_cell_angle_beta 81.989457
_cell_angle_gamma 58.557823
_cell_volume 565.591362
_symmetry_space_group_name_H-M "P -1"
_symmetry_group_IT_number 2
_symmetry_cell_setting 'triclinic'
loop_
_space_group_symop_operation_xyz
x,y,z
-x,-y,-z
loop_
_atom_site_type_symbol
_atom_site_label
_atom_site_fract_x
_atom_site_fract_y
_atom_site_fract_z
Si Si1 0.515055 0.874607 0.361470
Si Si2 0.937550 0.327904 0.788878
Si Si3 0.357772 0.783288 0.098051
Si Si4 0.255879 0.455975 0.475016
Si Si5 0.500000 0.500000 0.000000
Si Si6 0.852832 0.998194 0.395784
Si Si7 0.704675 0.932726 0.078072
Si Si8 0.690823 0.355170 0.301709
O O1 0.431732 0.805416 0.246524
O O2 0.693594 0.714865 0.438482
O O3 0.333473 0.978146 0.483213
O O4 0.604652 0.969261 0.250165
O O5 0.728564 0.344614 0.875027
O O6 0.883561 0.472793 0.662615
O O7 0.112793 0.256333 0.900791
O O8 0.014622 0.165425 0.696516
O O9 0.520231 0.673170 0.966615
O O10 0.216344 0.959587 0.022238
O O11 0.474730 0.412086 0.395211
O O12 0.198565 0.590889 0.596923
O O13 0.353904 0.553080 0.856952
O O14 0.794985 0.161110 0.291745
O O15 0.000000 0.000000 0.500000
O O16 0.500000 0.000000 0.000000
#
# Coordination Sequence:
#
# PCOD9078995 Si02
#       8
#     2   2   2   2   1   2   2   2
#     4  10  21  42  63  90 134 170 203 255 329 382
#     4  12  21  39  66 100 117 162 228 266 308 371
#     4  11  21  39  65  95 128 165 214 262 313 380
#     4  10  18  36  61  86 127 162 204 262 309 367
#     4  12  20  34  62  96 128 166 206 262 322 370
#     4  11  20  35  66  98 123 160 215 272 310 365
#     4  10  25  42  61  88 134 175 201 256 332 384
#     4  10  19  33  54  94 128 155 200 261 319 358
#
# _framework density 26.520914000000001
#
# number of rings (size 3 to 8) (size 9 to 14) (size 15 to 20)
#    0.000    1.333    5.333    2.000    0.000    1.067 
#    0.000    0.000    2.933    1.600    0.000    0.000 
#    0.000    0.000    0.000    0.000    0.000    0.000 
#
# Total GULP energy -83608.649802 kJ/mol
# GULP energy per Si atom -5573.909987 kJ/mol
# Density = 2.646055 g / cm^3
# Si number density = 26.520914 Si / 1000 Ang^3
#
#
#
# Elastic Constant Matrix: (Units=GPa)
#
#
# Indices 1 2 3 4 5 6 
#
# 1 91.5508 24.2391 23.7933 -9.8403 3.9232 -22.8198
# 2 24.2391 132.7885 63.3383 -28.3199 1.9187 -2.9294
# 3 23.7933 63.3383 141.1321 -30.1054 10.4759 -4.8551
# 4 -9.8403 -28.3199 -30.1054 81.4357 -4.6128 8.6596
# 5 3.9232 1.9187 10.4759 -4.6128 35.2987 -3.1257
# 6 -22.8198 -2.9294 -4.8551 8.6596 -3.1257 43.0378
#
#
#
# Elastic Compliance Matrix: (Units=1/GPa)
#
#
# Indices 1 2 3 4 5 6 
#
# 1 0.013417 -0.001734 -0.001258 -0.000202 -0.000442 0.006862
# 2 -0.001734 0.010113 -0.003923 0.002020 0.000982 -0.001009
# 3 -0.001258 -0.003923 0.009631 0.001958 -0.002286 -0.000407
# 4 -0.000202 0.002020 0.001958 0.014000 0.000940 -0.002497
# 5 -0.000442 0.000982 -0.002286 0.000940 0.029260 0.001510
# 6 0.006862 -0.001009 -0.000407 -0.002497 0.001510 0.027372
#
#
# Mechanical properties :
#
#
# Convention : Reuss Voigt Hill
#
# Bulk Modulus (GPa) = 51.72960 65.35698 58.54329
# Shear Modulus (GPa) = 40.30081 48.89448 44.59764
#
# Velocity S-wave (km/s) = 3.90242 4.29840 4.10518
# Velocity P-wave (km/s) = 6.31290 7.02368 6.67775
#
# Compressibility (1/GPa) = 0.01933129
#
# Stress axis : x y z
#
# Youngs Moduli (GPa) = 74.53368 98.88403 103.82644
#
# Poissons Ratio (x) = 0.17151 0.13057
# Poissons Ratio (y) = 0.12927 0.40729
# Poissons Ratio (z) = 0.09374 0.38790
#
# Static dielectric constant tensor:
#      x y z
#    x 2.485960 0.034490 -0.031890 
#    y 0.034490 2.212830 0.030410 
#    z -0.031890 0.030410 2.131990 
# 
# From -- ./inp_files/177663.got.cif
#   From: 2010.05.17/outbox.cif.g08.bks.cpg/sg2_89_cif.got.tgz:177663.got - 2010.06.03 11:33:40.
