data_PCOD9078937
_publ_section_title
;
Structure prediction by ZEFSAII (Michael W. Deem and Ramdas Pophale) SiO2 
 PCOD9078937
Probable space group: P -1
;
_chemical_formula_sum "Si O2"
_cell_formula_units_Z 16
_cell_length_a 12.128543
_cell_length_b 9.803749
_cell_length_c 9.367822
_cell_angle_alpha 46.481609
_cell_angle_beta 51.121713
_cell_angle_gamma 57.745098
_cell_volume 618.563093
_symmetry_space_group_name_H-M "P -1"
_symmetry_group_IT_number 2
_symmetry_cell_setting 'triclinic'
loop_
_space_group_symop_operation_xyz
x,y,z
-x,-y,-z
loop_
_atom_site_type_symbol
_atom_site_label
_atom_site_fract_x
_atom_site_fract_y
_atom_site_fract_z
Si Si1 0.921130 0.339339 0.406996
Si Si2 0.455126 0.902151 0.320736
Si Si3 0.169493 0.264265 0.471927
Si Si4 0.596270 0.693726 0.072090
Si Si5 0.698073 0.025623 0.215841
Si Si6 0.204061 0.689719 0.763786
Si Si7 0.324156 0.604042 0.198039
Si Si8 0.958402 0.750330 0.122191
O O1 0.895462 0.258715 0.331849
O O2 0.794138 0.321580 0.635577
O O3 0.909671 0.566742 0.225593
O O4 0.075974 0.266864 0.404851
O O5 0.535156 0.785723 0.205116
O O6 0.572531 0.926104 0.326189
O O7 0.343437 0.776174 0.554399
O O8 0.388276 0.118108 0.167851
O O9 0.265042 0.069019 0.592128
O O10 0.269212 0.423353 0.301545
O O11 0.955183 0.701347 0.327520
O O12 0.737382 0.535356 0.096114
O O13 0.476005 0.590658 0.166795
O O14 0.840745 0.939674 0.069243
O O15 0.663789 0.245766 0.046025
O O16 0.891981 0.231826 0.079595
#
# Coordination Sequence:
#
# PCOD9078937 Si02
#       8
#     2   2   2   2   2   2   2   2
#     4  11  21  38  60  89 124 159 209 242 293 377
#     4  10  20  37  59  91 121 155 212 246 295 366
#     4   9  21  40  60  88 121 161 209 246 288 370
#     4  10  21  35  60  89 122 159 205 250 296 366
#     4   9  20  37  63  89 116 158 208 255 286 362
#     4  12  22  37  61  95 128 157 184 261 324 344
#     4  10  18  36  60  90 112 156 214 248 292 341
#     4   9  21  39  57  91 127 152 199 253 306 360
#
# _framework density 25.866399000000001
#
# number of rings (size 3 to 8) (size 9 to 14) (size 15 to 20)
#    0.750    1.250    1.250    3.750    0.000    0.500 
#    4.500    0.625    0.000    6.750    0.000    8.750 
#    3.750    0.000    0.000    0.000    0.000    0.000 
#
# Total GULP energy -89627.156761 kJ/mol
# GULP energy per Si atom -5601.697298 kJ/mol
# Density = 2.580753 g / cm^3
# Si number density = 25.866399 Si / 1000 Ang^3
#
#
#
# Elastic Constant Matrix: (Units=GPa)
#
#
# Indices 1 2 3 4 5 6 
#
# 1 161.2257 39.2688 51.7020 -8.5035 21.3653 -6.1161
# 2 39.2688 79.6705 27.0449 5.6622 7.6162 -10.8649
# 3 51.7020 27.0449 145.6796 5.1458 -5.6646 -0.9779
# 4 -8.5035 5.6622 5.1458 36.7289 -4.0894 -4.5944
# 5 21.3653 7.6162 -5.6646 -4.0894 29.0763 -3.2632
# 6 -6.1161 -10.8649 -0.9779 -4.5944 -3.2632 23.3975
#
#
#
# Elastic Compliance Matrix: (Units=1/GPa)
#
#
# Indices 1 2 3 4 5 6 
#
# 1 0.008736 -0.002870 -0.002873 0.002273 -0.005856 0.000461
# 2 -0.002870 0.015745 -0.001863 -0.002343 -0.002064 0.005735
# 3 -0.002873 -0.001863 0.008421 -0.001236 0.003958 -0.000955
# 4 0.002273 -0.002343 -0.001236 0.029389 0.003477 0.005710
# 5 -0.005856 -0.002064 0.003958 0.003477 0.040953 0.004070
# 6 0.000461 0.005735 -0.000955 0.005710 0.004070 0.047172
#
#
# Mechanical properties :
#
#
# Convention : Reuss Voigt Hill
#
# Bulk Modulus (GPa) = 56.52863 69.17857 62.85360
# Shear Modulus (GPa) = 29.15051 35.74454 32.44753
#
# Velocity S-wave (km/s) = 3.36067 3.72141 3.54563
# Velocity P-wave (km/s) = 6.07950 6.72814 6.41203
#
# Compressibility (1/GPa) = 0.01769015
#
# Stress axis : x y z
#
# Youngs Moduli (GPa) = 114.46927 63.51342 118.75097
#
# Poissons Ratio (x) = 0.18226 0.34112
# Poissons Ratio (y) = 0.32849 0.22129
# Poissons Ratio (z) = 0.32882 0.11836
#
# Static dielectric constant tensor:
#      x y z
#    x 2.006350 0.002590 -0.004120 
#    y 0.002590 2.080820 0.030880 
#    z -0.004120 0.030880 1.993420 
# 
# From -- ./inp_files/520045.got.cif
#   From: 2010.05.17/outbox.cif.g08.bks.cpg/sg2_261_cif.got.tgz:520045.got - 2010.06.03 11:33:40.
