data_PCOD9078066
_publ_section_title
;
Structure prediction by ZEFSAII (Michael W. Deem and Ramdas Pophale) SiO2 
 PCOD9078066
Probable space group: P -1
;
_chemical_formula_sum "Si O2"
_cell_formula_units_Z 16
_cell_length_a 13.141851
_cell_length_b 7.924883
_cell_length_c 11.006483
_cell_angle_alpha 102.385678
_cell_angle_beta 131.005519
_cell_angle_gamma 47.746787
_cell_volume 585.189703
_symmetry_space_group_name_H-M "P -1"
_symmetry_group_IT_number 2
_symmetry_cell_setting 'triclinic'
loop_
_space_group_symop_operation_xyz
x,y,z
-x,-y,-z
loop_
_atom_site_type_symbol
_atom_site_label
_atom_site_fract_x
_atom_site_fract_y
_atom_site_fract_z
Si Si1 0.738903 0.737893 0.069934
Si Si2 0.357744 0.733656 0.337417
Si Si3 0.589707 0.199609 0.168268
Si Si4 0.659190 0.973329 0.799638
Si Si5 0.879665 0.190473 0.318824
Si Si6 0.028064 0.836301 0.158497
Si Si7 0.183432 0.386281 0.343607
Si Si8 0.791402 0.896906 0.508051
O O1 0.627210 0.666913 0.009509
O O2 0.619924 0.919589 0.887954
O O3 0.964661 0.507542 0.182329
O O4 0.719076 0.920423 0.171928
O O5 0.500000 0.500000 0.500000
O O6 0.183464 0.764473 0.172969
O O7 0.445052 0.763933 0.300762
O O8 0.246974 0.973974 0.373504
O O9 0.664324 0.316134 0.199332
O O10 0.641587 0.133328 0.339771
O O11 0.682173 0.807081 0.689420
O O12 0.873377 0.857406 0.976212
O O13 0.992170 0.269189 0.401182
O O14 0.000000 0.000000 0.500000
O O15 0.920366 0.067408 0.199509
O O16 0.148440 0.615577 0.319134
O O17 0.248965 0.263053 0.509130
#
# Coordination Sequence:
#
# PCOD9078066 Si02
#       8
#     2   2   2   2   2   2   2   2
#     4  10  20  34  59  87 114 149 187 238 287 331
#     4  10  22  37  57  85 113 148 190 238 293 339
#     4  10  19  36  58  79 117 152 188 235 285 325
#     4  10  20  37  59  84 116 147 191 236 286 345
#     4   9  17  35  56  77 111 158 189 229 271 337
#     4  10  18  35  58  82 111 153 188 230 286 337
#     4  10  20  36  57  91 112 147 198 230 285 345
#     4   9  21  36  58  84 115 151 191 235 283 342
#
# _framework density 27.341559
#
# number of rings (size 3 to 8) (size 9 to 14) (size 15 to 20)
#    0.000    2.250    2.500    1.875    0.000    3.500 
#    0.000    3.125   11.000    0.000    0.000    0.000 
#    0.000    0.000    0.000    0.000    0.000    0.000 
#
# Total GULP energy -89356.048658 kJ/mol
# GULP energy per Si atom -5584.753041 kJ/mol
# Density = 2.727933 g / cm^3
# Si number density = 27.341559 Si / 1000 Ang^3
#
#
#
# Elastic Constant Matrix: (Units=GPa)
#
#
# Indices 1 2 3 4 5 6 
#
# 1 151.2549 5.5910 -2.5541 3.7428 13.0940 29.4624
# 2 5.5910 59.9145 5.6538 -2.9517 -11.9394 -8.6374
# 3 -2.5541 5.6538 81.0489 -11.6432 6.4868 -10.8123
# 4 3.7428 -2.9517 -11.6432 38.6231 4.2633 -14.7039
# 5 13.0940 -11.9394 6.4868 4.2633 53.9111 2.1422
# 6 29.4624 -8.6374 -10.8123 -14.7039 2.1422 30.8238
#
#
#
# Elastic Compliance Matrix: (Units=1/GPa)
#
#
# Indices 1 2 3 4 5 6 
#
# 1 0.009872 -0.003511 -0.002293 -0.007271 -0.001746 -0.014571
# 2 -0.003511 0.019784 0.000594 0.006013 0.004223 0.011683
# 3 -0.002293 0.000594 0.015591 0.010129 -0.002499 0.012832
# 4 -0.007271 0.006013 0.010129 0.042931 -0.002822 0.032863
# 5 -0.001746 0.004223 -0.002499 -0.002822 0.020464 -0.000793
# 6 -0.014571 0.011683 0.012832 0.032863 -0.000793 0.069877
#
#
# Mechanical properties :
#
#
# Convention : Reuss Voigt Hill
#
# Bulk Modulus (GPa) = 28.71358 34.39993 31.55676
# Shear Modulus (GPa) = 24.93168 43.57345 34.25256
#
# Velocity S-wave (km/s) = 3.02298 3.99641 3.54328
# Velocity P-wave (km/s) = 4.76541 5.82271 5.32039
#
# Compressibility (1/GPa) = 0.03482673
#
# Stress axis : x y z
#
# Youngs Moduli (GPa) = 101.30036 50.54539 64.13767
#
# Poissons Ratio (x) = 0.17749 0.14704
# Poissons Ratio (y) = 0.35571 -0.03807
# Poissons Ratio (z) = 0.23223 -0.03001
#
# Static dielectric constant tensor:
#      x y z
#    x 2.215260 0.082200 0.041380 
#    y 0.082200 2.153090 -0.040850 
#    z 0.041380 -0.040850 2.225760 
# 
# From -- ./inp_files/225298.got.cif
#   From: 2010.05.17/outbox.cif.g08.bks.cpg/sg2_113_cif.got.tgz:225298.got - 2010.06.03 11:33:40.
