data_PCOD9078708
_publ_section_title
;
Structure prediction by ZEFSAII (Michael W. Deem and Ramdas Pophale) SiO2 
 PCOD9078708
Probable space group: P -1
;
_chemical_formula_sum "Si O2"
_cell_formula_units_Z 14
_cell_length_a 17.278338
_cell_length_b 26.380979
_cell_length_c 9.749063
_cell_angle_alpha 26.718895
_cell_angle_beta 141.742342
_cell_angle_gamma 159.194796
_cell_volume 674.365809
_symmetry_space_group_name_H-M "P -1"
_symmetry_group_IT_number 2
_symmetry_cell_setting 'triclinic'
loop_
_space_group_symop_operation_xyz
x,y,z
-x,-y,-z
loop_
_atom_site_type_symbol
_atom_site_label
_atom_site_fract_x
_atom_site_fract_y
_atom_site_fract_z
Si Si1 0.830751 0.264337 0.023491
Si Si2 0.360225 0.544766 0.289948
Si Si3 0.066763 0.684045 0.650038
Si Si4 0.158850 0.198273 0.645674
Si Si5 0.348002 0.710131 0.644152
Si Si6 0.785228 0.012365 0.380577
Si Si7 0.639477 0.023138 0.905237
O O1 0.079401 0.492559 0.773050
O O2 0.845605 0.227894 0.286966
O O3 0.789856 0.131886 0.183582
O O4 0.632175 0.207771 0.899392
O O5 0.246873 0.372317 0.437777
O O6 0.603136 0.683655 0.343520
O O7 0.170224 0.426347 0.425901
O O8 0.397611 0.689912 0.909076
O O9 0.251057 0.866462 0.356101
O O10 0.000000 0.500000 0.000000
O O11 0.996544 0.104813 0.516367
O O12 0.000000 0.000000 0.000000
O O13 0.363518 0.856252 0.318920
O O14 0.525482 0.779456 0.624009
O O15 0.783661 0.042905 0.145448
#
# Coordination Sequence:
#
# PCOD9078708 Si02
#       7
#     2   2   2   2   2   2   2
#     4  10  20  37  58  84 122 157 195 235 288 353
#     4  10  21  37  62  90 109 154 208 242 287 344
#     4  11  20  40  60  89 124 158 195 235 298 369
#     4  11  21  39  62  85 114 155 208 253 277 341
#     4  10  18  36  56  89 120 146 195 241 296 348
#     4  11  22  36  58  93 117 157 200 248 297 344
#     4  11  23  35  57  91 129 153 189 244 308 361
#
# _framework density 20.760245999999999
#
# number of rings (size 3 to 8) (size 9 to 14) (size 15 to 20)
#    0.000    1.429    7.143    2.143    0.000    2.286 
#    2.571    0.714    0.000    0.857    0.000    0.000 
#    0.000    0.000    0.000    0.000    0.000    0.000 
#
# Total GULP energy -77978.448672 kJ/mol
# GULP energy per Si atom -5569.889191 kJ/mol
# Density = 2.071299 g / cm^3
# Si number density = 20.760246 Si / 1000 Ang^3
#
#
#
# Elastic Constant Matrix: (Units=GPa)
#
#
# Indices 1 2 3 4 5 6 
#
# 1 37.0893 27.9923 1.7037 1.6027 -6.0851 20.1502
# 2 27.9923 141.4114 47.0574 17.4667 -7.9440 40.7177
# 3 1.7037 47.0574 63.1216 14.7830 -6.1167 2.3429
# 4 1.6027 17.4667 14.7830 37.0343 3.2572 -0.8836
# 5 -6.0851 -7.9440 -6.1167 3.2572 17.4897 5.0710
# 6 20.1502 40.7177 2.3429 -0.8836 5.0710 35.5936
#
#
#
# Elastic Compliance Matrix: (Units=1/GPa)
#
#
# Indices 1 2 3 4 5 6 
#
# 1 0.050075 0.001847 0.003487 -0.008019 0.031220 -0.035337
# 2 0.001847 0.018367 -0.010047 -0.006478 0.013485 -0.023477
# 3 0.003487 -0.010047 0.024659 -0.005455 0.004213 0.007161
# 4 -0.008019 -0.006478 -0.005455 0.034602 -0.018674 0.015829
# 5 0.031220 0.013485 0.004213 -0.018674 0.092758 -0.047056
# 6 -0.035337 -0.023477 0.007161 0.015829 -0.047056 0.081583
#
#
# Mechanical properties :
#
#
# Convention : Reuss Voigt Hill
#
# Bulk Modulus (GPa) = 11.95132 43.90324 27.92728
# Shear Modulus (GPa) = 14.73350 29.01477 21.87414
#
# Velocity S-wave (km/s) = 2.66691 3.74252 3.24953
# Velocity P-wave (km/s) = 3.90545 6.31419 5.24983
#
# Compressibility (1/GPa) = 0.08367274
#
# Stress axis : x y z
#
# Youngs Moduli (GPa) = 19.97000 54.44502 40.55378
#
# Poissons Ratio (x) = -0.10054 -0.14140
# Poissons Ratio (y) = -0.03688 0.40746
# Poissons Ratio (z) = -0.06963 0.54703
#
# Static dielectric constant tensor:
#      x y z
#    x 1.766230 0.067770 -0.044160 
#    y 0.067770 2.057780 -0.157170 
#    z -0.044160 -0.157170 1.885340 
# 
# From -- ./inp_files/338830.got.cif
#   From: 2010.05.17/outbox.cif.g08.bks.cpg/sg2_170_cif.got.tgz:338830.got - 2010.06.03 11:33:40.
