data_PCOD9078239
_publ_section_title
;
Structure prediction by ZEFSAII (Michael W. Deem and Ramdas Pophale) SiO2 
 PCOD9078239
Probable space group: P -1
;
_chemical_formula_sum "Si O2"
_cell_formula_units_Z 12
_cell_length_a 8.271573
_cell_length_b 10.717787
_cell_length_c 12.328036
_cell_angle_alpha 56.576722
_cell_angle_beta 31.262876
_cell_angle_gamma 62.460753
_cell_volume 473.296351
_symmetry_space_group_name_H-M "P -1"
_symmetry_group_IT_number 2
_symmetry_cell_setting 'triclinic'
loop_
_space_group_symop_operation_xyz
x,y,z
-x,-y,-z
loop_
_atom_site_type_symbol
_atom_site_label
_atom_site_fract_x
_atom_site_fract_y
_atom_site_fract_z
Si Si1 0.523531 0.557324 0.817453
Si Si2 0.718303 0.849240 0.687091
Si Si3 0.505158 0.890152 0.442309
Si Si4 0.643276 0.153321 0.798953
Si Si5 0.020634 0.339802 0.672987
Si Si6 0.879229 0.700050 0.892270
O O1 0.541557 0.721600 0.778167
O O2 0.711281 0.569980 0.589351
O O3 0.764579 0.458718 0.800020
O O4 0.202705 0.470783 0.012509
O O5 0.746241 0.789072 0.820845
O O6 0.077614 0.867878 0.434497
O O7 0.547074 0.999814 0.681206
O O8 0.804799 0.787852 0.300083
O O9 0.219532 0.770713 0.677704
O O10 0.500000 0.000000 0.500000
O O11 0.833627 0.242416 0.739031
O O12 0.342968 0.254339 0.901815
O O13 0.500000 0.000000 0.000000
#
# Coordination Sequence:
#
# PCOD9078239 Si02
#       6
#     2   2   2   2   2   2
#     4   9  19  39  62  84 122 163 199 238 304 368
#     4  11  22  40  65  90 123 156 203 253 294 356
#     4  12  21  38  61  92 126 153 200 261 296 341
#     4  10  18  35  60  84 118 158 197 236 297 360
#     4   9  19  36  60  88 120 161 195 249 301 351
#     4  11  23  37  66  91 117 164 206 237 303 369
#
# _framework density 25.354092999999999
#
# number of rings (size 3 to 8) (size 9 to 14) (size 15 to 20)
#    0.000    1.667    5.000    2.000    0.000    0.667 
#    0.000    4.167    7.333    0.000    0.000    0.000 
#    0.000    0.000    0.000    0.000    0.000    0.000 
#
# Total GULP energy -67001.373177 kJ/mol
# GULP energy per Si atom -5583.447765 kJ/mol
# Density = 2.529639 g / cm^3
# Si number density = 25.354093 Si / 1000 Ang^3
#
#
#
# Elastic Constant Matrix: (Units=GPa)
#
#
# Indices 1 2 3 4 5 6 
#
# 1 54.5672 31.7121 10.4912 -8.9241 -19.9630 -5.5126
# 2 31.7121 144.0211 28.4435 -16.0024 -26.3737 -16.5736
# 3 10.4912 28.4435 127.4068 -34.5301 -13.3868 1.0657
# 4 -8.9241 -16.0024 -34.5301 50.5928 12.6362 -16.5434
# 5 -19.9630 -26.3737 -13.3868 12.6362 37.0884 -8.2341
# 6 -5.5126 -16.5736 1.0657 -16.5434 -8.2341 41.0319
#
#
#
# Elastic Compliance Matrix: (Units=1/GPa)
#
#
# Indices 1 2 3 4 5 6 
#
# 1 0.025251 -0.002346 0.000500 0.002942 0.012459 0.006118
# 2 -0.002346 0.009596 -0.000689 0.002616 0.005704 0.005778
# 3 0.000500 -0.000689 0.010069 0.007258 0.001554 0.002766
# 4 0.002942 0.002616 0.007258 0.030810 -0.001461 0.013392
# 5 0.012459 0.005704 0.001554 -0.001461 0.041370 0.011651
# 6 0.006118 0.005778 0.002766 0.013392 0.011651 0.035193
#
#
# Mechanical properties :
#
#
# Convention : Reuss Voigt Hill
#
# Bulk Modulus (GPa) = 25.09747 51.92097 38.50922
# Shear Modulus (GPa) = 29.30117 42.76583 36.03350
#
# Velocity S-wave (km/s) = 3.40321 4.11145 3.77398
# Velocity P-wave (km/s) = 5.03615 6.56213 5.84911
#
# Compressibility (1/GPa) = 0.03984466
#
# Stress axis : x y z
#
# Youngs Moduli (GPa) = 39.60279 104.20732 99.31489
#
# Poissons Ratio (x) = 0.24449 -0.04963
# Poissons Ratio (y) = 0.09291 0.06845
# Poissons Ratio (z) = -0.01979 0.07182
#
# Static dielectric constant tensor:
#      x y z
#    x 2.038130 -0.016990 0.047910 
#    y -0.016990 2.114410 0.068250 
#    z 0.047910 0.068250 2.076150 
# 
# From -- ./inp_files/176829.got.cif
#   From: 2010.05.17/outbox.cif.g08.bks.cpg/sg2_89_cif.got.tgz:176829.got - 2010.06.03 11:33:40.
