data_PCOD9078914
_publ_section_title
;
Structure prediction by ZEFSAII (Michael W. Deem and Ramdas Pophale) SiO2 
 PCOD9078914
Probable space group: P -1
;
_chemical_formula_sum "Si O2"
_cell_formula_units_Z 16
_cell_length_a 17.626014
_cell_length_b 8.098111
_cell_length_c 8.420765
_cell_angle_alpha 105.453928
_cell_angle_beta 138.450273
_cell_angle_gamma 68.759426
_cell_volume 743.044150
_symmetry_space_group_name_H-M "P -1"
_symmetry_group_IT_number 2
_symmetry_cell_setting 'triclinic'
loop_
_space_group_symop_operation_xyz
x,y,z
-x,-y,-z
loop_
_atom_site_type_symbol
_atom_site_label
_atom_site_fract_x
_atom_site_fract_y
_atom_site_fract_z
Si Si1 0.868412 0.506850 0.854029
Si Si2 0.328491 0.626565 0.599773
Si Si3 0.709193 0.940057 0.071849
Si Si4 0.289265 0.669512 0.881159
Si Si5 0.513112 0.666906 0.429482
Si Si6 0.867030 0.546743 0.242796
Si Si7 0.679870 0.867902 0.636861
Si Si8 0.469329 0.851708 0.732147
O O1 0.810530 0.353597 0.652998
O O2 0.782564 0.695583 0.711101
O O3 0.863637 0.510033 0.039014
O O4 0.000000 0.500000 0.000000
O O5 0.342655 0.552814 0.781426
O O6 0.386008 0.496969 0.514060
O O7 0.411687 0.761996 0.756745
O O8 0.800853 0.755224 0.219536
O O9 0.744091 0.128458 0.190321
O O10 0.703525 0.923815 0.866154
O O11 0.583377 0.930396 0.952562
O O12 0.194020 0.584170 0.789809
O O13 0.388031 0.661884 0.166085
O O14 0.553328 0.822664 0.442906
O O15 0.517259 0.707085 0.630511
O O16 0.000000 0.500000 0.500000
O O17 0.648297 0.019708 0.497002
#
# Coordination Sequence:
#
# PCOD9078914 Si02
#       8
#     2   2   2   2   2   2   2   2
#     4  10  22  44  64  88 119 159 211 259 305 365
#     4  11  24  34  58  96 126 160 203 252 307 372
#     4  10  21  39  66  93 124 163 206 252 302 375
#     4  12  22  40  61  92 132 161 206 250 309 371
#     4  10  18  36  60  87 126 164 197 248 304 368
#     4  11  25  44  68  88 117 169 213 257 309 359
#     4   9  18  36  65  89 121 158 200 252 302 365
#     4  11  18  38  62  94 124 161 202 245 315 365
#
# _framework density 21.533041000000001
#
# number of rings (size 3 to 8) (size 9 to 14) (size 15 to 20)
#    0.000    1.500    2.500    4.500    0.000    1.000 
#    6.750    0.625    0.000    0.000    0.000    0.000 
#    0.000    0.000    0.000    0.000    0.000    0.000 
#
# Total GULP energy -89160.788261 kJ/mol
# GULP energy per Si atom -5572.549266 kJ/mol
# Density = 2.148403 g / cm^3
# Si number density = 21.533041 Si / 1000 Ang^3
#
#
#
# Elastic Constant Matrix: (Units=GPa)
#
#
# Indices 1 2 3 4 5 6 
#
# 1 130.8220 52.3204 28.1698 0.5445 24.1693 21.3208
# 2 52.3204 80.1334 50.5831 -8.3054 16.6402 4.8337
# 3 28.1698 50.5831 84.5479 -1.2989 25.9083 3.3090
# 4 0.5445 -8.3054 -1.2989 32.6952 -3.2929 0.4834
# 5 24.1693 16.6402 25.9083 -3.2929 34.6594 2.9986
# 6 21.3208 4.8337 3.3090 0.4834 2.9986 24.9202
#
#
#
# Elastic Compliance Matrix: (Units=1/GPa)
#
#
# Indices 1 2 3 4 5 6 
#
# 1 0.013418 -0.009308 0.003573 -0.003019 -0.007046 -0.009242
# 2 -0.009308 0.027388 -0.014773 0.006942 0.004706 0.003912
# 3 0.003573 -0.014773 0.023535 -0.004187 -0.013247 -0.001641
# 4 -0.003019 0.006942 -0.004187 0.032724 0.004963 0.000561
# 5 -0.007046 0.004706 -0.013247 0.004963 0.041728 0.001757
# 6 -0.009242 0.003912 -0.001641 0.000561 0.001757 0.047272
#
#
# Mechanical properties :
#
#
# Convention : Reuss Voigt Hill
#
# Bulk Modulus (GPa) = 42.87414 61.96111 52.41762
# Shear Modulus (GPa) = 21.28952 29.41696 25.35324
#
# Velocity S-wave (km/s) = 3.14776 3.70013 3.43507
# Velocity P-wave (km/s) = 5.75893 6.86236 6.33472
#
# Compressibility (1/GPa) = 0.02332408
#
# Stress axis : x y z
#
# Youngs Moduli (GPa) = 74.52702 36.51206 42.49034
#
# Poissons Ratio (x) = 0.33987 -0.15181
# Poissons Ratio (y) = 0.69372 0.62770
# Poissons Ratio (z) = -0.26627 0.53939
#
# Static dielectric constant tensor:
#      x y z
#    x 1.769630 0.012550 -0.001240 
#    y 0.012550 1.960170 0.056580 
#    z -0.001240 0.056580 1.767030 
# 
# From -- ./inp_files/329232.got.cif
#   From: 2010.05.17/outbox.cif.g08.bks.cpg/sg2_165_cif.got.tgz:329232.got - 2010.06.03 11:33:40.
