data_PCOD9078838
_publ_section_title
;
Structure prediction by ZEFSAII (Michael W. Deem and Ramdas Pophale) SiO2 
 PCOD9078838
Probable space group: P -1
;
_chemical_formula_sum "Si O2"
_cell_formula_units_Z 16
_cell_length_a 18.869482
_cell_length_b 29.112905
_cell_length_c 23.433075
_cell_angle_alpha 10.361510
_cell_angle_beta 18.457795
_cell_angle_gamma 20.433975
_cell_volume 731.236253
_symmetry_space_group_name_H-M "P -1"
_symmetry_group_IT_number 2
_symmetry_cell_setting 'triclinic'
loop_
_space_group_symop_operation_xyz
x,y,z
-x,-y,-z
loop_
_atom_site_type_symbol
_atom_site_label
_atom_site_fract_x
_atom_site_fract_y
_atom_site_fract_z
Si Si1 0.055010 0.125004 0.147730
Si Si2 0.748549 0.420945 0.774718
Si Si3 0.458049 0.891312 0.477837
Si Si4 0.735178 0.032589 0.350892
Si Si5 0.803826 0.708913 0.276146
Si Si6 0.576682 0.189071 0.917892
Si Si7 0.153729 0.555307 0.762185
Si Si8 0.993325 0.527184 0.793038
O O1 0.805013 0.082413 0.369040
O O2 0.197741 0.855056 0.366111
O O3 0.166648 0.309167 0.791894
O O4 0.010359 0.251830 0.087788
O O5 0.580239 0.629456 0.680519
O O6 0.746867 0.462086 0.657582
O O7 0.000000 0.500000 0.500000
O O8 0.704311 0.151314 0.166426
O O9 0.454388 0.899823 0.539008
O O10 0.556465 0.110857 0.095257
O O11 0.788879 0.726825 0.686526
O O12 0.961391 0.172811 0.027132
O O13 0.614296 0.925856 0.175083
O O14 0.370656 0.364154 0.836608
O O15 0.793406 0.338919 0.557656
O O16 0.022067 0.516976 0.851054
O O17 0.000000 0.500000 0.000000
#
# Coordination Sequence:
#
# PCOD9078838 Si02
#       8
#     2   2   2   2   2   2   2   2
#     4  11  22  39  59  86 120 154 189 243 288 342
#     4   9  17  30  60  90 110 153 200 229 284 352
#     4  10  18  36  59  85 120 152 189 243 292 333
#     4   9  16  34  55  83 115 152 190 234 283 343
#     4   8  17  34  55  81 119 148 189 238 285 333
#     4  10  19  37  60  83 115 158 190 242 288 337
#     4  12  22  41  61  84 119 152 196 240 290 340
#     4  11  23  38  61  86 119 151 197 236 289 344
#
# _framework density 21.880754
#
# number of rings (size 3 to 8) (size 9 to 14) (size 15 to 20)
#    0.000    2.000    5.000    1.500    0.000    1.000 
#    0.000    5.000    0.000    0.000    0.000    0.000 
#    0.000    0.000    0.000    0.000    0.000    0.000 
#
# Total GULP energy -89265.463585 kJ/mol
# GULP energy per Si atom -5579.091474 kJ/mol
# Density = 2.183095 g / cm^3
# Si number density = 21.880754 Si / 1000 Ang^3
#
#
#
# Elastic Constant Matrix: (Units=GPa)
#
#
# Indices 1 2 3 4 5 6 
#
# 1 56.0864 13.9975 55.5939 3.5942 27.3573 38.8862
# 2 13.9975 72.3753 8.4402 15.8300 19.6056 14.2352
# 3 55.5939 8.4402 44.5025 9.8359 29.0783 10.0196
# 4 3.5942 15.8300 9.8359 29.2274 9.0696 5.3284
# 5 27.3573 19.6056 29.0783 9.0696 33.5616 5.3190
# 6 38.8862 14.2352 10.0196 5.3284 5.3190 34.8465
#
#
#
# Elastic Compliance Matrix: (Units=1/GPa)
#
#
# Indices 1 2 3 4 5 6 
#
# 1 -0.023134 0.002510 0.035203 -0.009510 -0.013419 0.018171
# 2 0.002510 0.020699 0.008499 -0.006978 -0.018050 -0.009878
# 3 0.035203 0.008499 0.008084 0.006959 -0.036105 -0.040633
# 4 -0.009510 -0.006978 0.006959 0.037272 -0.005315 0.006574
# 5 -0.013419 -0.018050 -0.036105 -0.005315 0.080631 0.021235
# 6 0.018171 -0.009878 -0.040633 0.006574 0.021235 0.019892
#
#
# Mechanical properties :
#
#
# Convention : Reuss Voigt Hill
#
# Bulk Modulus (GPa) = 10.19650 36.55859 23.37755
# Shear Modulus (GPa) = 59.72920 25.85593 42.79256
#
# Velocity S-wave (km/s) = 5.23038 3.44128 4.42715
# Velocity P-wave (km/s) = 6.41451 5.70388 6.06960
#
# Compressibility (1/GPa) = 0.09807283
#
# Stress axis : x y z
#
# Youngs Moduli (GPa) = -43.22555 48.31152 123.69679
#
# Poissons Ratio (x) = -0.12126 -4.35446
# Poissons Ratio (y) = 0.10849 -1.05134
# Poissons Ratio (z) = 1.52166 -0.41062
#
# Static dielectric constant tensor:
#      x y z
#    x 2.097790 -0.185850 0.039250 
#    y -0.185850 1.944120 -0.068910 
#    z 0.039250 -0.068910 1.887240 
# 
# From -- ./inp_files/213289.got.cif
#   From: 2010.05.17/outbox.cif.g08.bks.cpg/sg2_107_cif.got.tgz:213289.got - 2010.06.03 11:33:40.
