data_PCOD9078441
_publ_section_title
;
Structure prediction by ZEFSAII (Michael W. Deem and Ramdas Pophale) SiO2 
 PCOD9078441
Probable space group: P -1
;
_chemical_formula_sum "Si O2"
_cell_formula_units_Z 16
_cell_length_a 6.930745
_cell_length_b 24.505275
_cell_length_c 15.157194
_cell_angle_alpha 163.122381
_cell_angle_beta 57.509793
_cell_angle_gamma 121.109642
_cell_volume 630.374638
_symmetry_space_group_name_H-M "P -1"
_symmetry_group_IT_number 2
_symmetry_cell_setting 'triclinic'
loop_
_space_group_symop_operation_xyz
x,y,z
-x,-y,-z
loop_
_atom_site_type_symbol
_atom_site_label
_atom_site_fract_x
_atom_site_fract_y
_atom_site_fract_z
Si Si1 0.169415 0.144705 0.466567
Si Si2 0.876823 0.540909 0.687704
Si Si3 0.150809 0.235694 0.238673
Si Si4 0.753461 0.919699 0.460862
Si Si5 0.706909 0.903864 0.196741
Si Si6 0.589690 0.515614 0.857758
Si Si7 0.803744 0.418411 0.829821
Si Si8 0.808039 0.884895 0.771757
O O1 0.284554 0.056505 0.387955
O O2 0.313186 0.115200 0.294731
O O3 0.131056 0.363546 0.837128
O O4 0.921767 0.046662 0.366575
O O5 0.644147 0.442276 0.633737
O O6 0.000000 0.500000 0.500000
O O7 0.056509 0.445047 0.565237
O O8 0.781062 0.746372 0.004205
O O9 0.275969 0.190287 0.229447
O O10 0.290970 0.184063 0.037898
O O11 0.934676 0.087023 0.063832
O O12 0.544942 0.012153 0.603119
O O13 0.757365 0.696151 0.100597
O O14 0.000000 0.000000 0.500000
O O15 0.652117 0.393725 0.739635
O O16 0.351060 0.606718 0.084126
O O17 0.003210 0.274210 0.544629
#
# Coordination Sequence:
#
# PCOD9078441 Si02
#       8
#     2   2   2   2   2   2   2   2
#     4  10  22  39  64 103 134 169 220 277 339 409
#     4  10  20  38  67  94 130 184 233 267 324 406
#     4   9  19  36  65  96 129 180 226 270 330 399
#     4  11  24  41  65 100 135 172 225 288 332 402
#     4  10  22  42  70  96 133 184 222 272 345 397
#     4  10  20  36  61  95 134 175 220 274 344 389
#     4  10  20  35  63 101 137 169 213 283 338 403
#     4  10  18  35  62  93 134 172 217 274 335 396
#
# _framework density 25.381732
#
# number of rings (size 3 to 8) (size 9 to 14) (size 15 to 20)
#    0.000    2.000    1.250    2.625    0.000    3.000 
#    0.000    0.625    8.250   15.000    0.000    0.000 
#    0.000    0.000    0.000    0.000    0.000    0.000 
#
# Total GULP energy -89180.335512 kJ/mol
# GULP energy per Si atom -5573.770970 kJ/mol
# Density = 2.532396 g / cm^3
# Si number density = 25.381732 Si / 1000 Ang^3
#
#
#
# Elastic Constant Matrix: (Units=GPa)
#
#
# Indices 1 2 3 4 5 6 
#
# 1 87.7107 35.2077 45.6231 10.6828 -0.0973 -23.5120
# 2 35.2077 180.8818 24.4637 -12.7506 -1.1785 -33.2542
# 3 45.6231 24.4637 95.1974 3.7577 -16.4603 -1.2276
# 4 10.6828 -12.7506 3.7577 41.7159 -6.3431 0.5437
# 5 -0.0973 -1.1785 -16.4603 -6.3431 32.3949 -2.0111
# 6 -23.5120 -33.2542 -1.2276 0.5437 -2.0111 47.9681
#
#
#
# Elastic Compliance Matrix: (Units=1/GPa)
#
#
# Indices 1 2 3 4 5 6 
#
# 1 0.020055 -0.001460 -0.009872 -0.005653 -0.005595 0.008395
# 2 -0.001460 0.006877 -0.001036 0.002589 0.000476 0.004016
# 3 -0.009872 -0.001036 0.016845 0.002064 0.008599 -0.004789
# 4 -0.005653 0.002589 0.002064 0.027003 0.006354 -0.000963
# 5 -0.005595 0.000476 0.008599 0.006354 0.036437 -0.000737
# 6 0.008395 0.004016 -0.004789 -0.000963 -0.000737 0.027603
#
#
# Mechanical properties :
#
#
# Convention : Reuss Voigt Hill
#
# Bulk Modulus (GPa) = 52.51675 63.81989 58.16832
# Shear Modulus (GPa) = 30.13813 41.64879 35.89346
#
# Velocity S-wave (km/s) = 3.44960 4.05519 3.76459
# Velocity P-wave (km/s) = 6.04996 6.86475 6.47019
#
# Compressibility (1/GPa) = 0.01904155
#
# Stress axis : x y z
#
# Youngs Moduli (GPa) = 49.86357 145.42101 59.36362
#
# Poissons Ratio (x) = 0.21231 0.58604
# Poissons Ratio (y) = 0.07280 0.06148
# Poissons Ratio (z) = 0.49225 0.15060
#
# Static dielectric constant tensor:
#      x y z
#    x 2.089880 -0.055070 0.035840 
#    y -0.055070 2.243180 -0.141350 
#    z 0.035840 -0.141350 2.133410 
# 
# From -- ./inp_files/404018.got.cif
#   From: 2010.05.17/outbox.cif.g08.bks.cpg/sg2_203_cif.got.tgz:404018.got - 2010.06.03 11:33:40.
