data_PCOD9078311
_publ_section_title
;
Structure prediction by ZEFSAII (Michael W. Deem and Ramdas Pophale) SiO2 
 PCOD9078311
Probable space group: P -1
;
_chemical_formula_sum "Si O2"
_cell_formula_units_Z 12
_cell_length_a 8.599734
_cell_length_b 9.524410
_cell_length_c 8.016855
_cell_angle_alpha 93.281074
_cell_angle_beta 61.807540
_cell_angle_gamma 73.010437
_cell_volume 538.423932
_symmetry_space_group_name_H-M "P -1"
_symmetry_group_IT_number 2
_symmetry_cell_setting 'triclinic'
loop_
_space_group_symop_operation_xyz
x,y,z
-x,-y,-z
loop_
_atom_site_type_symbol
_atom_site_label
_atom_site_fract_x
_atom_site_fract_y
_atom_site_fract_z
Si Si1 0.301309 0.700146 0.766025
Si Si2 0.066228 0.334177 0.030865
Si Si3 0.783761 0.655874 0.697926
Si Si4 0.454976 0.097420 0.359618
Si Si5 0.349527 0.589312 0.353058
Si Si6 0.484879 0.194272 0.867726
O O1 0.376574 0.837232 0.738485
O O2 0.315544 0.643594 0.563617
O O3 0.447840 0.550429 0.770274
O O4 0.089149 0.737000 0.940996
O O5 0.071798 0.340020 0.231593
O O6 0.286466 0.253112 0.867175
O O7 0.000000 0.500000 0.000000
O O8 0.737819 0.753986 0.558373
O O9 0.794604 0.486924 0.645923
O O10 0.591408 0.743572 0.908229
O O11 0.500000 0.000000 0.500000
O O12 0.438099 0.981699 0.219292
O O13 0.370245 0.727312 0.252515
#
# Coordination Sequence:
#
# PCOD9078311 Si02
#       6
#     2   2   2   2   2   2
#     4  10  20  35  58  86 114 150 190 234 283 336
#     4  10  21  37  58  87 120 143 186 241 294 328
#     4   9  22  35  60  85 115 146 194 234 283 333
#     4  11  21  38  60  84 115 155 193 230 277 344
#     4  10  18  35  61  84 109 150 198 231 275 339
#     4  10  20  36  60  84 114 147 193 233 284 333
#
# _framework density 22.287269999999999
#
# number of rings (size 3 to 8) (size 9 to 14) (size 15 to 20)
#    1.000    1.000    3.333    1.000    0.000    1.333 
#    0.000    0.833    0.000    0.000    0.000    0.000 
#    0.000    0.000    0.000    0.000    0.000    0.000 
#
# Total GULP energy -66821.014847 kJ/mol
# GULP energy per Si atom -5568.417904 kJ/mol
# Density = 2.223654 g / cm^3
# Si number density = 22.287270 Si / 1000 Ang^3
#
#
#
# Elastic Constant Matrix: (Units=GPa)
#
#
# Indices 1 2 3 4 5 6 
#
# 1 62.7262 19.2243 -1.9878 -19.2463 5.1416 4.6200
# 2 19.2243 145.8853 10.5223 -8.9709 -1.0875 23.4671
# 3 -1.9878 10.5223 25.0557 9.0193 13.3928 -2.3024
# 4 -19.2463 -8.9709 9.0193 31.7413 1.3173 8.5351
# 5 5.1416 -1.0875 13.3928 1.3173 25.5446 0.3211
# 6 4.6200 23.4671 -2.3024 8.5351 0.3211 33.2711
#
#
#
# Elastic Compliance Matrix: (Units=1/GPa)
#
#
# Indices 1 2 3 4 5 6 
#
# 1 0.021646 -0.000752 -0.001909 0.015376 -0.004099 -0.006512
# 2 -0.000752 0.009853 -0.011219 0.007869 0.006169 -0.009700
# 3 -0.001909 -0.011219 0.079233 -0.031092 -0.040308 0.022026
# 4 0.015376 0.007869 -0.031092 0.058118 0.010857 -0.024851
# 5 -0.004099 0.006169 -0.040308 0.010857 0.060933 -0.009944
# 6 -0.006512 -0.009700 0.022026 -0.024851 -0.009944 0.045797
#
#
# Mechanical properties :
#
#
# Convention : Reuss Voigt Hill
#
# Bulk Modulus (GPa) = 12.05233 32.13163 22.09198
# Shear Modulus (GPa) = 15.10584 31.83864 23.47224
#
# Velocity S-wave (km/s) = 2.60624 3.78373 3.24878
# Velocity P-wave (km/s) = 3.80475 5.79112 4.89966
#
# Compressibility (1/GPa) = 0.08297151
#
# Stress axis : x y z
#
# Youngs Moduli (GPa) = 46.19839 101.49016 12.62102
#
# Poissons Ratio (x) = 0.07634 0.02409
# Poissons Ratio (y) = 0.03475 0.14159
# Poissons Ratio (z) = 0.08820 1.13860
#
# Static dielectric constant tensor:
#      x y z
#    x 1.862420 -0.009420 -0.001730 
#    y -0.009420 1.804910 -0.019770 
#    z -0.001730 -0.019770 1.905950 
# 
# From -- ./inp_files/145691.got.cif
#   From: 2010.05.17/outbox.cif.g08.bks.cpg/sg2_73_cif.got.tgz:145691.got - 2010.06.03 11:33:40.
