data_PCOD9078293
_publ_section_title
;
Structure prediction by ZEFSAII (Michael W. Deem and Ramdas Pophale) SiO2 
 PCOD9078293
Probable space group: P -1
;
_chemical_formula_sum "Si O2"
_cell_formula_units_Z 16
_cell_length_a 11.191011
_cell_length_b 11.435389
_cell_length_c 11.760510
_cell_angle_alpha 113.960801
_cell_angle_beta 90.024965
_cell_angle_gamma 40.942643
_cell_volume 774.417065
_symmetry_space_group_name_H-M "P -1"
_symmetry_group_IT_number 2
_symmetry_cell_setting 'triclinic'
loop_
_space_group_symop_operation_xyz
x,y,z
-x,-y,-z
loop_
_atom_site_type_symbol
_atom_site_label
_atom_site_fract_x
_atom_site_fract_y
_atom_site_fract_z
Si Si1 0.190003 0.429056 0.496092
Si Si2 0.659200 0.277889 0.047046
Si Si3 0.603167 0.244509 0.783616
Si Si4 0.919252 0.218496 0.491063
Si Si5 0.061433 0.107492 0.933777
Si Si6 0.396610 0.026731 0.621394
Si Si7 0.199931 0.446765 0.774637
Si Si8 0.859379 0.988481 0.365934
O O1 0.410049 0.160500 0.366203
O O2 0.182697 0.470242 0.646944
O O3 0.000000 0.500000 0.500000
O O4 0.175861 0.570414 0.479446
O O5 0.475627 0.544551 0.171243
O O6 0.731877 0.130477 0.096115
O O7 0.604530 0.246209 0.921739
O O8 0.868575 0.176882 0.976631
O O9 0.424250 0.307184 0.762066
O O10 0.840183 0.007319 0.647657
O O11 0.803448 0.188231 0.448438
O O12 0.949508 0.197960 0.618397
O O13 0.093295 0.091940 0.794104
O O14 0.981869 0.307261 0.071822
O O15 0.316571 0.955214 0.570398
O O16 0.500000 0.000000 0.500000
O O17 0.207505 0.291893 0.752159
#
# Coordination Sequence:
#
# PCOD9078293 Si02
#       8
#     2   2   2   2   2   2   2   2
#     4  11  22  40  67  92 121 161 213 254 297 376
#     4   9  19  34  60  88 130 159 194 252 297 372
#     4  10  18  35  60  93 121 162 203 242 306 365
#     4  11  22  38  61  92 127 167 202 250 319 355
#     4  10  20  38  59  93 125 163 204 246 310 362
#     4  10  22  43  60  86 116 161 210 256 306 363
#     4  10  21  36  69  89 119 169 205 250 301 372
#     4  11  24  40  59  91 130 161 201 267 305 364
#
# _framework density 20.660702000000001
#
# number of rings (size 3 to 8) (size 9 to 14) (size 15 to 20)
#    0.000    1.750    1.250    4.500    3.500    1.000 
#    4.500    0.000    0.000    2.250    0.000    0.000 
#    0.000    0.000    0.000    0.000    0.000    0.000 
#
# Total GULP energy -89342.870441 kJ/mol
# GULP energy per Si atom -5583.929403 kJ/mol
# Density = 2.061368 g / cm^3
# Si number density = 20.660702 Si / 1000 Ang^3
#
#
#
# Elastic Constant Matrix: (Units=GPa)
#
#
# Indices 1 2 3 4 5 6 
#
# 1 103.3396 25.6358 -2.9226 -10.2083 9.8684 13.6064
# 2 25.6358 131.9731 40.7150 -11.7847 13.3498 30.0683
# 3 -2.9226 40.7150 67.8703 -18.2027 14.1490 12.3951
# 4 -10.2083 -11.7847 -18.2027 17.8350 -7.5999 2.1924
# 5 9.8684 13.3498 14.1490 -7.5999 26.0515 -3.4065
# 6 13.6064 30.0683 12.3951 2.1924 -3.4065 35.9936
#
#
#
# Elastic Compliance Matrix: (Units=1/GPa)
#
#
# Indices 1 2 3 4 5 6 
#
# 1 0.012976 -0.001368 0.007260 0.012521 -0.005492 -0.007545
# 2 -0.001368 0.011537 -0.004205 0.002021 -0.003584 -0.008135
# 3 0.007260 -0.004205 0.029564 0.028855 -0.009817 -0.012100
# 4 0.012521 0.002021 0.028855 0.098615 0.004448 -0.021944
# 5 -0.005492 -0.003584 -0.009817 0.004448 0.050628 0.012971
# 6 -0.007545 -0.008135 -0.012100 -0.021944 0.012971 0.044161
#
#
# Mechanical properties :
#
#
# Convention : Reuss Voigt Hill
#
# Bulk Modulus (GPa) = 17.40576 47.78216 32.59396
# Shear Modulus (GPa) = 18.99288 31.95970 25.47629
#
# Velocity S-wave (km/s) = 3.03525 3.93731 3.51533
# Velocity P-wave (km/s) = 4.55263 6.62172 5.68215
#
# Compressibility (1/GPa) = 0.05745224
#
# Stress axis : x y z
#
# Youngs Moduli (GPa) = 77.06413 86.68031 33.82472
#
# Poissons Ratio (x) = 0.11857 -0.24557
# Poissons Ratio (y) = 0.10541 0.14222
# Poissons Ratio (z) = -0.55950 0.36447
#
# Static dielectric constant tensor:
#      x y z
#    x 1.774870 -0.001140 0.000160 
#    y -0.001140 1.753000 0.021330 
#    z 0.000160 0.021330 1.763530 
# 
# From -- ./inp_files/426340.got.cif
#   From: 2010.05.17/outbox.cif.g08.bks.cpg/sg2_214_cif.got.tgz:426340.got - 2010.06.03 11:33:40.
