data_PCOD9078895
_publ_section_title
;
Structure prediction by ZEFSAII (Michael W. Deem and Ramdas Pophale) SiO2 
 PCOD9078895
Probable space group: P -1
;
_chemical_formula_sum "Si O2"
_cell_formula_units_Z 14
_cell_length_a 5.288801
_cell_length_b 13.524606
_cell_length_c 11.748337
_cell_angle_alpha 40.901270
_cell_angle_beta 80.648500
_cell_angle_gamma 90.372367
_cell_volume 531.923623
_symmetry_space_group_name_H-M "P -1"
_symmetry_group_IT_number 2
_symmetry_cell_setting 'triclinic'
loop_
_space_group_symop_operation_xyz
x,y,z
-x,-y,-z
loop_
_atom_site_type_symbol
_atom_site_label
_atom_site_fract_x
_atom_site_fract_y
_atom_site_fract_z
Si Si1 0.567116 0.029759 0.626343
Si Si2 0.754880 0.751798 0.477660
Si Si3 0.274004 0.657136 0.424460
Si Si4 0.357066 0.532154 0.115533
Si Si5 0.263887 0.757024 0.755522
Si Si6 0.965887 0.339180 0.786675
Si Si7 0.818791 0.805294 0.919371
O O1 0.296795 0.081745 0.629392
O O2 0.751248 0.179858 0.425701
O O3 0.511689 0.882221 0.674909
O O4 0.689552 0.953731 0.787009
O O5 0.535724 0.706149 0.434574
O O6 0.665249 0.641672 0.689880
O O7 0.031218 0.724512 0.436783
O O8 0.262667 0.699331 0.255755
O O9 0.187607 0.471316 0.601110
O O10 0.127588 0.580651 0.165330
O O11 0.303255 0.588325 0.941962
O O12 0.605198 0.648292 0.048168
O O13 0.024739 0.794449 0.813075
O O14 0.067133 0.200432 0.957613
#
# Coordination Sequence:
#
# PCOD9078895 Si02
#       7
#     2   2   2   2   2   2   2
#     4  10  22  37  59  81 120 152 196 241 296 348
#     4  11  23  39  58  92 123 151 188 251 297 335
#     4  10  22  37  61  89 120 153 197 238 294 343
#     4   9  19  35  60  86 116 145 199 242 287 341
#     4   9  20  39  59  84 107 160 202 233 286 358
#     4   9  19  35  62  84 115 154 198 236 282 352
#     4  10  18  36  60  84 110 153 200 239 280 357
#
# _framework density 26.319568
#
# number of rings (size 3 to 8) (size 9 to 14) (size 15 to 20)
#    0.000    2.286    1.429    0.429    4.000    2.286 
#    0.000    2.143    0.000    0.000    0.000    0.000 
#    0.000    0.000    0.000    0.000    0.000    0.000 
#
# Total GULP energy -78267.211640 kJ/mol
# GULP energy per Si atom -5590.515117 kJ/mol
# Density = 2.625966 g / cm^3
# Si number density = 26.319568 Si / 1000 Ang^3
#
#
#
# Elastic Constant Matrix: (Units=GPa)
#
#
# Indices 1 2 3 4 5 6 
#
# 1 94.1491 20.2006 46.3491 -6.5582 16.7385 -2.6513
# 2 20.2006 61.3389 34.5844 -5.0755 17.6481 1.6334
# 3 46.3491 34.5844 161.6622 -6.6129 50.2877 -11.0121
# 4 -6.5582 -5.0755 -6.6129 42.2049 -3.2511 6.2859
# 5 16.7385 17.6481 50.2877 -3.2511 40.6931 -5.8950
# 6 -2.6513 1.6334 -11.0121 6.2859 -5.8950 41.2384
#
#
#
# Elastic Compliance Matrix: (Units=1/GPa)
#
#
# Indices 1 2 3 4 5 6 
#
# 1 0.012742 -0.002271 -0.002968 0.001224 -0.000512 -0.000143
# 2 -0.002271 0.019968 -0.002028 0.001685 -0.005449 -0.002514
# 3 -0.002968 -0.002028 0.011119 -0.000028 -0.011466 0.001224
# 4 0.001224 0.001685 -0.000028 0.024654 0.000231 -0.003721
# 5 -0.000512 -0.005449 -0.011466 0.000231 0.041778 0.003058
# 6 -0.000143 -0.002514 0.001224 -0.003721 0.003058 0.025671
#
#
# Mechanical properties :
#
#
# Convention : Reuss Voigt Hill
#
# Bulk Modulus (GPa) = 34.13373 57.71313 45.92343
# Shear Modulus (GPa) = 31.20483 39.22837 35.21660
#
# Velocity S-wave (km/s) = 3.44701 3.86484 3.66189
# Velocity P-wave (km/s) = 5.37025 6.47236 5.94689
#
# Compressibility (1/GPa) = 0.02929654
#
# Stress axis : x y z
#
# Youngs Moduli (GPa) = 78.48122 50.07917 89.93388
#
# Poissons Ratio (x) = 0.11371 0.26691
# Poissons Ratio (y) = 0.17820 0.18239
# Poissons Ratio (z) = 0.23292 0.10156
#
# Static dielectric constant tensor:
#      x y z
#    x 2.151190 -0.008850 0.045220 
#    y -0.008850 2.093690 0.025070 
#    z 0.045220 0.025070 2.138220 
# 
# From -- ./inp_files/92528.got.cif
#   From: 2010.05.17/outbox.cif.g08.bks.cpg/sg2_47_cif.got.tgz:92528.got - 2010.06.03 11:33:40.
