data_PCOD9078377
_publ_section_title
;
Structure prediction by ZEFSAII (Michael W. Deem and Ramdas Pophale) SiO2 
 PCOD9078377
Probable space group: P -1
;
_chemical_formula_sum "Si O2"
_cell_formula_units_Z 16
_cell_length_a 8.089994
_cell_length_b 8.355316
_cell_length_c 11.786884
_cell_angle_alpha 110.068038
_cell_angle_beta 81.013681
_cell_angle_gamma 67.025604
_cell_volume 649.062064
_symmetry_space_group_name_H-M "P -1"
_symmetry_group_IT_number 2
_symmetry_cell_setting 'triclinic'
loop_
_space_group_symop_operation_xyz
x,y,z
-x,-y,-z
loop_
_atom_site_type_symbol
_atom_site_label
_atom_site_fract_x
_atom_site_fract_y
_atom_site_fract_z
Si Si1 0.883771 0.021298 0.705008
Si Si2 0.790543 0.620956 0.109834
Si Si3 0.424247 0.347219 0.461285
Si Si4 0.759978 0.072728 0.494767
Si Si5 0.105030 0.372912 0.641360
Si Si6 0.723422 0.747523 0.752468
Si Si7 0.188257 0.755692 0.996350
Si Si8 0.249643 0.077906 0.980296
O O1 0.808375 0.872440 0.710637
O O2 0.100038 0.909381 0.608139
O O3 0.767983 0.145667 0.637827
O O4 0.863725 0.149325 0.849268
O O5 0.814996 0.635076 0.243526
O O6 0.701687 0.477332 0.065126
O O7 0.699651 0.832319 0.112915
O O8 0.000000 0.500000 0.000000
O O9 0.500000 0.500000 0.500000
O O10 0.552661 0.173065 0.489372
O O11 0.211655 0.436935 0.553780
O O12 0.428102 0.266127 0.316619
O O13 0.848634 0.843241 0.444173
O O14 0.885844 0.528241 0.701379
O O15 0.677231 0.846557 0.903793
O O16 0.292233 0.858233 0.943985
O O17 0.985419 0.816963 0.969412
#
# Coordination Sequence:
#
# PCOD9078377 Si02
#       8
#     2   2   2   2   2   2   2   2
#     4  10  22  37  69  96 127 167 224 265 324 397
#     4  10  18  35  61  98 127 159 214 275 320 374
#     4  12  28  44  61  92 140 176 215 269 332 383
#     4  11  24  41  62  98 129 172 213 271 332 387
#     4  12  23  41  69  97 128 171 222 267 324 394
#     4  11  22  41  66  95 131 168 218 268 321 396
#     4   9  17  33  58  99 127 156 212 274 319 377
#     4   9  18  33  59  97 125 161 206 271 321 374
#
# _framework density 24.650955
#
# number of rings (size 3 to 8) (size 9 to 14) (size 15 to 20)
#    0.000    1.500    3.750    3.000    3.500    0.000 
#    2.250    0.000    0.000    6.000    0.000    0.000 
#    0.000    0.000    0.000    0.000    0.000    0.000 
#
# Total GULP energy -89537.921598 kJ/mol
# GULP energy per Si atom -5596.120100 kJ/mol
# Density = 2.459485 g / cm^3
# Si number density = 24.650955 Si / 1000 Ang^3
#
#
#
# Elastic Constant Matrix: (Units=GPa)
#
#
# Indices 1 2 3 4 5 6 
#
# 1 70.5830 32.5437 34.8461 4.7155 18.1052 11.1971
# 2 32.5437 127.4770 35.9272 -2.0986 5.1336 26.4593
# 3 34.8461 35.9272 153.4764 -20.5961 22.3322 -2.2715
# 4 4.7155 -2.0986 -20.5961 28.2879 -3.4469 4.7070
# 5 18.1052 5.1336 22.3322 -3.4469 37.6842 0.0324
# 6 11.1971 26.4593 -2.2715 4.7070 0.0324 43.9768
#
#
#
# Elastic Compliance Matrix: (Units=1/GPa)
#
#
# Indices 1 2 3 4 5 6 
#
# 1 0.020429 -0.003450 -0.003651 -0.006842 -0.007805 -0.002576
# 2 -0.003450 0.010340 -0.001770 0.001150 0.001408 -0.005558
# 3 -0.003651 -0.001770 0.009054 0.006435 -0.002783 0.001776
# 4 -0.006842 0.001150 0.006435 0.042170 0.003177 -0.003133
# 5 -0.007805 0.001408 -0.002783 0.003177 0.032034 0.000633
# 6 -0.002576 -0.005558 0.001776 -0.003133 0.000633 0.027166
#
#
# Mechanical properties :
#
#
# Convention : Reuss Voigt Hill
#
# Bulk Modulus (GPa) = 45.28943 62.01892 53.65418
# Shear Modulus (GPa) = 30.06704 38.53773 34.30238
#
# Velocity S-wave (km/s) = 3.49622 3.95819 3.73436
# Velocity P-wave (km/s) = 5.89154 6.78993 6.35663
#
# Compressibility (1/GPa) = 0.02208020
#
# Stress axis : x y z
#
# Youngs Moduli (GPa) = 48.95066 96.71132 110.45106
#
# Poissons Ratio (x) = 0.33363 0.40330
# Poissons Ratio (y) = 0.16887 0.19550
# Poissons Ratio (z) = 0.17874 0.17118
#
# Static dielectric constant tensor:
#      x y z
#    x 2.008310 -0.001080 -0.012590 
#    y -0.001080 1.985370 -0.003860 
#    z -0.012590 -0.003860 1.927330 
# 
# From -- ./inp_files/218074.got.cif
#   From: 2010.05.17/outbox.cif.g08.bks.cpg/sg2_110_cif.got.tgz:218074.got - 2010.06.03 11:33:40.
