data_PCOD9078596
_publ_section_title
;
Structure prediction by ZEFSAII (Michael W. Deem and Ramdas Pophale) SiO2 
 PCOD9078596
Probable space group: P -1
;
_chemical_formula_sum "Si O2"
_cell_formula_units_Z 16
_cell_length_a 7.181962
_cell_length_b 11.317011
_cell_length_c 12.176081
_cell_angle_alpha 130.801849
_cell_angle_beta 102.968564
_cell_angle_gamma 65.845550
_cell_volume 682.225901
_symmetry_space_group_name_H-M "P -1"
_symmetry_group_IT_number 2
_symmetry_cell_setting 'triclinic'
loop_
_space_group_symop_operation_xyz
x,y,z
-x,-y,-z
loop_
_atom_site_type_symbol
_atom_site_label
_atom_site_fract_x
_atom_site_fract_y
_atom_site_fract_z
Si Si1 0.864164 0.049172 0.902674
Si Si2 0.352130 0.962644 0.547194
Si Si3 0.724667 0.766576 0.622559
Si Si4 0.253804 0.505160 0.161354
Si Si5 0.657852 0.718149 0.163490
Si Si6 0.289400 0.565946 0.825170
Si Si7 0.816819 0.164533 0.748507
Si Si8 0.956281 0.476054 0.624304
O O1 0.958056 0.052094 0.794349
O O2 0.745733 0.919086 0.789712
O O3 0.752975 0.246442 0.030151
O O4 0.000000 0.000000 0.000000
O O5 0.508445 0.828874 0.568602
O O6 0.200727 0.907737 0.417836
O O7 0.500000 0.000000 0.500000
O O8 0.258457 0.137114 0.704265
O O9 0.776244 0.601150 0.602984
O O10 0.911299 0.702593 0.519068
O O11 0.476443 0.506579 0.223686
O O12 0.157394 0.660857 0.162442
O O13 0.129601 0.525841 0.267910
O O14 0.290939 0.343807 0.991777
O O15 0.728367 0.557023 0.154720
O O16 0.413829 0.793807 0.205028
O O17 0.127067 0.562288 0.711095
#
# Coordination Sequence:
#
# PCOD9078596 Si02
#       8
#     2   2   2   2   2   2   2   2
#     4  12  21  38  69  94 130 177 210 264 341 386
#     4  10  18  35  69  94 119 174 219 264 326 379
#     4  11  22  43  62  93 136 171 217 268 331 390
#     4  11  21  41  66  97 130 169 229 266 319 391
#     4  10  18  35  66  96 125 168 218 271 321 381
#     4  11  21  41  66  94 128 173 212 267 330 380
#     4  10  19  37  65  95 127 169 217 267 322 382
#     4  11  26  41  65  95 133 178 215 267 328 398
#
# _framework density 23.452642999999998
#
# number of rings (size 3 to 8) (size 9 to 14) (size 15 to 20)
#    0.000    1.250    6.250    3.000    0.000    0.500 
#    0.000   10.000    0.000    0.000    0.000    0.000 
#    0.000    0.000    0.000    0.000    0.000    0.000 
#
# Total GULP energy -89297.023901 kJ/mol
# GULP energy per Si atom -5581.063994 kJ/mol
# Density = 2.339926 g / cm^3
# Si number density = 23.452643 Si / 1000 Ang^3
#
#
#
# Elastic Constant Matrix: (Units=GPa)
#
#
# Indices 1 2 3 4 5 6 
#
# 1 50.0343 30.1156 38.0641 -10.9735 -7.0070 -10.6759
# 2 30.1156 121.2266 53.1119 -10.4467 3.3910 -19.7468
# 3 38.0641 53.1119 170.5260 -3.0520 16.5487 0.8239
# 4 -10.9735 -10.4467 -3.0520 43.9647 -2.3835 4.8358
# 5 -7.0070 3.3910 16.5487 -2.3835 31.5341 -5.7168
# 6 -10.6759 -19.7468 0.8239 4.8358 -5.7168 23.1531
#
#
#
# Elastic Compliance Matrix: (Units=1/GPa)
#
#
# Indices 1 2 3 4 5 6 
#
# 1 0.035445 -0.001917 -0.008877 0.006722 0.016455 0.017684
# 2 -0.001917 0.011857 -0.003480 0.001148 0.001952 0.009595
# 3 -0.008877 -0.003480 0.009768 -0.001822 -0.008517 -0.009132
# 4 0.006722 0.001148 -0.001822 0.024797 0.004201 0.000002
# 5 0.016455 0.001952 -0.008517 0.004201 0.043464 0.019409
# 6 0.017684 0.009595 -0.009132 0.000002 0.019409 0.064645
#
#
# Mechanical properties :
#
#
# Convention : Reuss Voigt Hill
#
# Bulk Modulus (GPa) = 35.06053 64.93002 49.99527
# Shear Modulus (GPa) = 21.92669 34.43005 28.17837
#
# Velocity S-wave (km/s) = 3.06099 3.83569 3.47003
# Velocity P-wave (km/s) = 5.24164 6.88204 6.11708
#
# Compressibility (1/GPa) = 0.02852210
#
# Stress axis : x y z
#
# Youngs Moduli (GPa) = 28.21262 84.33609 102.37734
#
# Poissons Ratio (x) = 0.16165 0.90880
# Poissons Ratio (y) = 0.05407 0.35632
# Poissons Ratio (z) = 0.25044 0.29353
#
# Static dielectric constant tensor:
#      x y z
#    x 1.936650 -0.065730 0.003110 
#    y -0.065730 1.947160 -0.010760 
#    z 0.003110 -0.010760 1.974800 
# 
# From -- ./inp_files/391397.got.cif
#   From: 2010.05.17/outbox.cif.g08.bks.cpg/sg2_196_cif.got.tgz:391397.got - 2010.06.03 11:33:40.
