data_PCOD9078783
_publ_section_title
;
Structure prediction by ZEFSAII (Michael W. Deem and Ramdas Pophale) SiO2 
 PCOD9078783
Probable space group: P -1
;
_chemical_formula_sum "Si O2"
_cell_formula_units_Z 16
_cell_length_a 12.915022
_cell_length_b 7.824481
_cell_length_c 7.663703
_cell_angle_alpha 126.057680
_cell_angle_beta 85.634856
_cell_angle_gamma 92.490160
_cell_volume 624.261842
_symmetry_space_group_name_H-M "P -1"
_symmetry_group_IT_number 2
_symmetry_cell_setting 'triclinic'
loop_
_space_group_symop_operation_xyz
x,y,z
-x,-y,-z
loop_
_atom_site_type_symbol
_atom_site_label
_atom_site_fract_x
_atom_site_fract_y
_atom_site_fract_z
Si Si1 0.392784 0.953447 0.200633
Si Si2 0.987973 0.052092 0.804787
Si Si3 0.466131 0.329401 0.168281
Si Si4 0.826730 0.616386 0.015479
Si Si5 0.325204 0.057550 0.645580
Si Si6 0.194179 0.733242 0.913087
Si Si7 0.642019 0.342971 0.423715
Si Si8 0.121090 0.777218 0.431343
O O1 0.379546 0.064571 0.455846
O O2 0.417422 0.133123 0.163267
O O3 0.479772 0.766335 0.068354
O O4 0.285820 0.843565 0.081821
O O5 0.929051 0.131779 0.685299
O O6 0.083328 0.212135 0.908277
O O7 0.899750 0.098676 0.987047
O O8 0.033761 0.822608 0.615097
O O9 0.566231 0.407630 0.314581
O O10 0.384225 0.516902 0.320198
O O11 0.841604 0.474222 0.102232
O O12 0.716235 0.733199 0.128644
O O13 0.841773 0.457294 0.757730
O O14 0.384333 0.897292 0.668061
O O15 0.220488 0.923079 0.539990
O O16 0.244929 0.661734 0.681563
#
# Coordination Sequence:
#
# PCOD9078783 Si02
#       8
#     2   2   2   2   2   2   2   2
#     4  10  19  37  60  85 109 145 192 235 282 337
#     4   9  17  31  60  83 113 152 194 229 262 331
#     4   9  21  41  58  79 113 145 191 238 281 343
#     4  10  19  34  59  87 118 147 192 231 273 327
#     4  11  21  35  59  88 115 148 184 236 283 333
#     4  10  18  36  58  85 113 152 191 229 274 339
#     4  10  22  39  57  81 115 149 186 235 291 337
#     4   9  17  33  50  87 117 140 185 234 268 319
#
# _framework density 25.630269999999999
#
# number of rings (size 3 to 8) (size 9 to 14) (size 15 to 20)
#    0.000    2.250    2.500    2.250    0.000    1.000 
#    9.000    2.500    0.000    3.750    0.000    0.000 
#    0.000    0.000    0.000    0.000    0.000    0.000 
#
# Total GULP energy -89452.613869 kJ/mol
# GULP energy per Si atom -5590.788367 kJ/mol
# Density = 2.557193 g / cm^3
# Si number density = 25.630270 Si / 1000 Ang^3
#
#
#
# Elastic Constant Matrix: (Units=GPa)
#
#
# Indices 1 2 3 4 5 6 
#
# 1 90.3480 13.3015 68.7602 6.0318 -40.2994 6.6698
# 2 13.3015 63.9327 32.6868 -0.2092 -10.8013 1.8236
# 3 68.7602 32.6868 221.6475 17.5188 -54.6616 -10.4316
# 4 6.0318 -0.2092 17.5188 39.5157 -4.3878 -5.7231
# 5 -40.2994 -10.8013 -54.6616 -4.3878 59.0300 3.7898
# 6 6.6698 1.8236 -10.4316 -5.7231 3.7898 26.4090
#
#
#
# Elastic Compliance Matrix: (Units=1/GPa)
#
#
# Indices 1 2 3 4 5 6 
#
# 1 0.019014 -0.000165 -0.003693 -0.001315 0.009945 -0.007961
# 2 -0.000165 0.017134 -0.002403 0.001000 0.001002 -0.002017
# 3 -0.003693 -0.002403 0.007109 -0.001794 0.003293 0.003045
# 4 -0.001315 0.001000 -0.001794 0.027026 -0.000721 0.005515
# 5 0.009945 0.001002 0.003293 -0.000721 0.027252 -0.005347
# 6 -0.007961 -0.002017 0.003045 0.005515 -0.005347 0.043181
#
#
# Mechanical properties :
#
#
# Convention : Reuss Voigt Hill
#
# Bulk Modulus (GPa) = 32.53441 67.26948 49.90195
# Shear Modulus (GPa) = 30.58413 42.40290 36.49352
#
# Velocity S-wave (km/s) = 3.45814 4.07185 3.77748
# Velocity P-wave (km/s) = 5.35409 6.95771 6.20790
#
# Compressibility (1/GPa) = 0.03073669
#
# Stress axis : x y z
#
# Youngs Moduli (GPa) = 52.59207 58.36275 140.67089
#
# Poissons Ratio (x) = 0.00964 0.51943
# Poissons Ratio (y) = 0.00869 0.33797
# Poissons Ratio (z) = 0.19420 0.14022
#
# Static dielectric constant tensor:
#      x y z
#    x 2.089110 -0.047550 -0.037240 
#    y -0.047550 1.989250 -0.018720 
#    z -0.037240 -0.018720 2.097310 
# 
# From -- ./inp_files/299628.got.cif
#   From: 2010.05.17/outbox.cif.g08.bks.cpg/sg2_150_cif.got.tgz:299628.got - 2010.06.03 11:33:40.
