data_PCOD9078065
_publ_section_title
;
Structure prediction by ZEFSAII (Michael W. Deem and Ramdas Pophale) SiO2 
 PCOD9078065
Probable space group: P -1
;
_chemical_formula_sum "Si O2"
_cell_formula_units_Z 16
_cell_length_a 21.123135
_cell_length_b 7.931784
_cell_length_c 10.472030
_cell_angle_alpha 82.858475
_cell_angle_beta 128.015374
_cell_angle_gamma 139.858048
_cell_volume 651.596242
_symmetry_space_group_name_H-M "P -1"
_symmetry_group_IT_number 2
_symmetry_cell_setting 'triclinic'
loop_
_space_group_symop_operation_xyz
x,y,z
-x,-y,-z
loop_
_atom_site_type_symbol
_atom_site_label
_atom_site_fract_x
_atom_site_fract_y
_atom_site_fract_z
Si Si1 0.712023 0.426437 0.368117
Si Si2 0.320308 0.981818 0.530554
Si Si3 0.477672 0.354624 0.341421
Si Si4 0.325815 0.582575 0.377588
Si Si5 0.852290 0.433337 0.891525
Si Si6 0.075928 0.404726 0.555459
Si Si7 0.937389 0.289923 0.637306
Si Si8 0.452309 0.228636 0.024979
O O1 0.622556 0.076502 0.316418
O O2 0.724754 0.503357 0.526294
O O3 0.874523 0.665929 0.463837
O O4 0.593084 0.344511 0.161928
O O5 0.165540 0.637634 0.276315
O O6 0.249388 0.996708 0.532305
O O7 0.477863 0.366023 0.626086
O O8 0.633755 0.538210 0.577404
O O9 0.451156 0.245253 0.174268
O O10 0.305315 0.974998 0.224644
O O11 0.185650 0.437126 0.150437
O O12 0.500000 0.000000 0.500000
O O13 0.991315 0.640190 0.146105
O O14 0.965703 0.206018 0.567739
O O15 0.995122 0.404112 0.366250
O O16 0.262038 0.814001 0.794509
O O17 0.500000 0.500000 0.000000
#
# Coordination Sequence:
#
# PCOD9078065 Si02
#       8
#     2   2   2   2   2   2   2   2
#     4   9  19  34  55  86 110 144 188 234 280 333
#     4  10  20  35  59  87 112 146 186 236 285 337
#     4  10  19  34  55  87 113 140 187 240 288 323
#     4   8  17  32  55  81 112 142 181 236 289 329
#     4  10  18  35  58  82 111 150 190 232 281 337
#     4  10  20  35  55  78 113 155 194 226 266 340
#     4  10  20  35  55  80 115 157 192 219 279 340
#     4  11  20  34  58  86 114 143 184 238 284 325
#
# _framework density 24.555084000000001
#
# number of rings (size 3 to 8) (size 9 to 14) (size 15 to 20)
#    0.000    2.250    1.250    2.625    0.000    0.000 
#    0.000    0.625    0.000   23.250    0.000    0.000 
#    0.000    0.000    0.000    0.000    0.000    0.000 
#
# Total GULP energy -89087.121007 kJ/mol
# GULP energy per Si atom -5567.945063 kJ/mol
# Density = 2.449920 g / cm^3
# Si number density = 24.555084 Si / 1000 Ang^3
#
#
#
# Elastic Constant Matrix: (Units=GPa)
#
#
# Indices 1 2 3 4 5 6 
#
# 1 151.6427 26.1425 30.7976 -11.8971 10.1018 20.3482
# 2 26.1425 70.2845 13.4446 -14.9244 11.5087 -5.2502
# 3 30.7976 13.4446 117.5679 -33.9174 4.6275 -9.2215
# 4 -11.8971 -14.9244 -33.9174 34.9340 -7.0425 6.3004
# 5 10.1018 11.5087 4.6275 -7.0425 39.0546 -10.5759
# 6 20.3482 -5.2502 -9.2215 6.3004 -10.5759 38.3595
#
#
#
# Elastic Compliance Matrix: (Units=1/GPa)
#
#
# Indices 1 2 3 4 5 6 
#
# 1 0.008565 -0.002736 -0.002284 0.000091 -0.002817 -0.006258
# 2 -0.002736 0.017008 0.000844 0.006212 -0.002683 0.002222
# 3 -0.002284 0.000844 0.012497 0.011539 0.001731 0.002914
# 4 0.000091 0.006212 0.011539 0.043772 0.003991 -0.002513
# 5 -0.002817 -0.002683 0.001731 0.003991 0.030129 0.009194
# 6 -0.006258 0.002222 0.002914 -0.002513 0.009194 0.033341
#
#
# Mechanical properties :
#
#
# Convention : Reuss Voigt Hill
#
# Bulk Modulus (GPa) = 33.65063 53.36274 43.50668
# Shear Modulus (GPa) = 30.56792 40.41031 35.48911
#
# Velocity S-wave (km/s) = 3.53210 4.06112 3.80582
# Velocity P-wave (km/s) = 5.51074 6.61584 6.08841
#
# Compressibility (1/GPa) = 0.02971713
#
# Stress axis : x y z
#
# Youngs Moduli (GPa) = 116.76021 58.79457 80.01863
#
# Poissons Ratio (x) = 0.16084 0.18280
# Poissons Ratio (y) = 0.31941 -0.06751
# Poissons Ratio (z) = 0.26674 -0.04960
#
# Static dielectric constant tensor:
#      x y z
#    x 2.120150 0.039670 -0.078620 
#    y 0.039670 2.048030 -0.033150 
#    z -0.078620 -0.033150 1.999910 
# 
# From -- ./inp_files/171339.got.cif
#   From: 2010.05.17/outbox.cif.g08.bks.cpg/sg2_86_cif.got.tgz:171339.got - 2010.06.03 11:33:40.
