data_PCOD9078551
_publ_section_title
;
Structure prediction by ZEFSAII (Michael W. Deem and Ramdas Pophale) SiO2 
 PCOD9078551
Probable space group: P -1
;
_chemical_formula_sum "Si O2"
_cell_formula_units_Z 16
_cell_length_a 9.485231
_cell_length_b 7.873591
_cell_length_c 15.357964
_cell_angle_alpha 70.545544
_cell_angle_beta 47.215677
_cell_angle_gamma 64.386240
_cell_volume 757.712922
_symmetry_space_group_name_H-M "P -1"
_symmetry_group_IT_number 2
_symmetry_cell_setting 'triclinic'
loop_
_space_group_symop_operation_xyz
x,y,z
-x,-y,-z
loop_
_atom_site_type_symbol
_atom_site_label
_atom_site_fract_x
_atom_site_fract_y
_atom_site_fract_z
Si Si1 0.224904 0.446445 0.459051
Si Si2 0.025902 0.295618 0.700754
Si Si3 0.958777 0.027830 0.113250
Si Si4 0.647535 0.602236 0.879161
Si Si5 0.009228 0.018489 0.358780
Si Si6 0.318411 0.822374 0.405468
Si Si7 0.491485 0.857690 0.736045
Si Si8 0.267736 0.130637 0.081310
O O1 0.196790 0.385123 0.581260
O O2 0.324248 0.619111 0.396993
O O3 0.356451 0.277736 0.372692
O O4 0.000000 0.500000 0.500000
O O5 0.822448 0.462543 0.773310
O O6 0.021207 0.164426 0.642248
O O7 0.036846 0.160244 0.801980
O O8 0.728207 0.151790 0.196952
O O9 0.134461 0.109136 0.060047
O O10 0.000000 0.000000 0.000000
O O11 0.542575 0.772917 0.827194
O O12 0.729799 0.667418 0.922232
O O13 0.500000 0.500000 0.000000
O O14 0.158109 0.967571 0.385934
O O15 0.137903 0.083547 0.222008
O O16 0.796817 0.155395 0.457079
O O17 0.492415 0.927141 0.315314
O O18 0.500000 0.000000 0.000000
#
# Coordination Sequence:
#
# PCOD9078551 Si02
#       8
#     2   2   2   2   2   2   2   2
#     4  12  21  39  69 111 142 179 237 291 345 422
#     4  11  22  41  67  99 142 178 232 294 335 418
#     4  11  27  50  68  97 143 189 233 292 364 417
#     4  12  23  41  71 104 131 180 245 291 342 418
#     4  10  18  35  64  99 132 173 226 274 338 407
#     4  11  20  36  67 103 141 178 221 282 354 418
#     4  12  24  45  71 102 148 185 226 297 362 416
#     4  11  23  42  70  97 129 183 239 285 345 421
#
# _framework density 21.116174999999998
#
# number of rings (size 3 to 8) (size 9 to 14) (size 15 to 20)
#    0.000    0.750    5.000    4.500    0.000    0.500 
#    2.250    1.875    0.000    0.000    0.000    0.000 
#    0.000    0.000    0.000    0.000    0.000    0.000 
#
# Total GULP energy -89126.437366 kJ/mol
# GULP energy per Si atom -5570.402335 kJ/mol
# Density = 2.106811 g / cm^3
# Si number density = 21.116175 Si / 1000 Ang^3
#
#
#
# Elastic Constant Matrix: (Units=GPa)
#
#
# Indices 1 2 3 4 5 6 
#
# 1 102.0901 35.3920 41.4693 4.0169 -11.7110 17.9227
# 2 35.3920 70.5396 26.8337 -5.8429 -11.9562 23.2591
# 3 41.4693 26.8337 119.1845 -5.4866 1.8671 10.6350
# 4 4.0169 -5.8429 -5.4866 38.1031 1.3347 -3.8614
# 5 -11.7110 -11.9562 1.8671 1.3347 34.9316 -3.7019
# 6 17.9227 23.2591 10.6350 -3.8614 -3.7019 34.4028
#
#
#
# Elastic Compliance Matrix: (Units=1/GPa)
#
#
# Indices 1 2 3 4 5 6 
#
# 1 0.013822 -0.004146 -0.003779 -0.003076 0.003192 -0.003232
# 2 -0.004146 0.021873 -0.002472 0.002137 0.004972 -0.011089
# 3 -0.003779 -0.002472 0.010350 0.001638 -0.002693 0.000335
# 4 -0.003076 0.002137 0.001638 0.027437 -0.001160 0.002606
# 5 0.003192 0.004972 -0.002693 -0.001160 0.031489 -0.000934
# 6 -0.003232 -0.011089 0.000335 0.002606 -0.000934 0.038337
#
#
# Mechanical properties :
#
#
# Convention : Reuss Voigt Hill
#
# Bulk Modulus (GPa) = 39.60261 55.46713 47.53487
# Shear Modulus (GPa) = 28.98246 34.02876 31.50561
#
# Velocity S-wave (km/s) = 3.70878 4.01871 3.86685
# Velocity P-wave (km/s) = 6.09388 6.91795 6.51895
#
# Compressibility (1/GPa) = 0.02525086
#
# Stress axis : x y z
#
# Youngs Moduli (GPa) = 72.34790 45.71844 96.62200
#
# Poissons Ratio (x) = 0.18953 0.36515
# Poissons Ratio (y) = 0.29992 0.23887
# Poissons Ratio (z) = 0.27342 0.11302
#
# Static dielectric constant tensor:
#      x y z
#    x 1.988380 0.202110 -0.303270 
#    y 0.202110 2.016900 -0.333290 
#    z -0.303270 -0.333290 2.425010 
# 
# From -- ./inp_files/455983.got.cif
#   From: 2010.05.17/outbox.cif.g08.bks.cpg/sg2_228_cif.got.tgz:455983.got - 2010.06.03 11:33:40.
