data_PCOD9078429
_publ_section_title
;
Structure prediction by ZEFSAII (Michael W. Deem and Ramdas Pophale) SiO2 
 PCOD9078429
Probable space group: P -1
;
_chemical_formula_sum "Si O2"
_cell_formula_units_Z 15
_cell_length_a 9.734542
_cell_length_b 11.338434
_cell_length_c 9.728931
_cell_angle_alpha 45.979682
_cell_angle_beta 63.902713
_cell_angle_gamma 55.777341
_cell_volume 636.306074
_symmetry_space_group_name_H-M "P -1"
_symmetry_group_IT_number 2
_symmetry_cell_setting 'triclinic'
loop_
_space_group_symop_operation_xyz
x,y,z
-x,-y,-z
loop_
_atom_site_type_symbol
_atom_site_label
_atom_site_fract_x
_atom_site_fract_y
_atom_site_fract_z
Si Si1 0.136241 0.321738 0.954526
Si Si2 0.838411 0.461335 0.766651
Si Si3 0.372304 0.174316 0.348955
Si Si4 0.981117 0.829003 0.298191
Si Si5 0.500000 0.500000 0.000000
Si Si6 0.758870 0.009203 0.010455
Si Si7 0.069637 0.149629 0.379949
Si Si8 0.554669 0.638770 0.087062
O O1 0.038821 0.282086 0.158160
O O2 0.273190 0.391266 0.893214
O O3 0.245511 0.141587 0.968198
O O4 0.991904 0.433051 0.823612
O O5 0.742984 0.674204 0.619314
O O6 0.913948 0.349132 0.689022
O O7 0.708394 0.395237 0.952512
O O8 0.267310 0.105595 0.346860
O O9 0.448054 0.295765 0.128443
O O10 0.500000 0.000000 0.500000
O O11 0.807917 0.932427 0.206404
O O12 0.986758 0.793188 0.486110
O O13 0.080908 0.956545 0.135076
O O14 0.465180 0.537370 0.810860
O O15 0.597921 0.194473 0.919944
O O16 0.000000 0.000000 0.500000
#
# Coordination Sequence:
#
# PCOD9078429 Si02
#       8
#     2   2   2   2   1   2   2   2
#     4  10  22  38  62  95 125 162 202 257 306 360
#     4  10  22  41  63  92 119 161 213 253 305 363
#     4  10  23  40  61  88 120 160 205 255 308 364
#     4  10  20  35  62  91 123 164 208 251 299 364
#     4  10  20  34  60  88 122 154 200 258 294 362
#     4  10  18  35  62  91 123 162 211 251 294 362
#     4  11  22  37  60  91 127 163 197 248 307 369
#     4  10  20  35  59  93 124 159 201 255 303 363
#
# _framework density 23.573561000000002
#
# number of rings (size 3 to 8) (size 9 to 14) (size 15 to 20)
#    0.000    1.867    2.667    1.200    0.000    7.467 
#    0.000    0.000    0.000    9.600    0.000    0.000 
#    0.000    0.000    0.000    0.000    0.000    0.000 
#
# Total GULP energy -83508.591658 kJ/mol
# GULP energy per Si atom -5567.239444 kJ/mol
# Density = 2.351991 g / cm^3
# Si number density = 23.573561 Si / 1000 Ang^3
#
#
#
# Elastic Constant Matrix: (Units=GPa)
#
#
# Indices 1 2 3 4 5 6 
#
# 1 160.6127 47.7216 17.8306 4.5936 7.2759 24.9438
# 2 47.7216 102.0471 20.1818 17.9286 23.1200 5.2266
# 3 17.8306 20.1818 77.1331 13.3941 11.6154 3.7322
# 4 4.5936 17.9286 13.3941 33.9707 6.6933 2.3719
# 5 7.2759 23.1200 11.6154 6.6933 31.8543 2.9678
# 6 24.9438 5.2266 3.7322 2.3719 2.9678 43.2781
#
#
#
# Elastic Compliance Matrix: (Units=1/GPa)
#
#
# Indices 1 2 3 4 5 6 
#
# 1 0.008069 -0.003928 -0.001105 0.001418 0.001510 -0.004262
# 2 -0.003928 0.014549 -0.000786 -0.005283 -0.008400 0.001440
# 3 -0.001105 -0.000786 0.014759 -0.004542 -0.003600 -0.000045
# 4 0.001418 -0.005283 -0.004542 0.034306 -0.001898 -0.001537
# 5 0.001510 -0.008400 -0.003600 -0.001898 0.039054 -0.002119
# 6 -0.004262 0.001440 -0.000045 -0.001537 -0.002119 0.025623
#
#
# Mechanical properties :
#
#
# Convention : Reuss Voigt Hill
#
# Bulk Modulus (GPa) = 38.85083 56.80676 47.82880
# Shear Modulus (GPa) = 31.93330 38.75787 35.34559
#
# Velocity S-wave (km/s) = 3.68451 4.05918 3.87638
# Velocity P-wave (km/s) = 5.88365 6.79111 6.35360
#
# Compressibility (1/GPa) = 0.02573947
#
# Stress axis : x y z
#
# Youngs Moduli (GPa) = 123.93433 68.73249 67.75620
#
# Poissons Ratio (x) = 0.26995 0.07486
# Poissons Ratio (y) = 0.48677 0.05327
# Poissons Ratio (z) = 0.13693 0.05404
#
# Static dielectric constant tensor:
#      x y z
#    x 2.192100 0.245540 -0.227370 
#    y 0.245540 2.207600 -0.173680 
#    z -0.227370 -0.173680 2.123430 
# 
# From -- ./inp_files/184938.got.cif
#   From: 2010.05.17/outbox.cif.g08.bks.cpg/sg2_93_cif.got.tgz:184938.got - 2010.06.03 11:33:40.
