data_PCOD9078531
_publ_section_title
;
Structure prediction by ZEFSAII (Michael W. Deem and Ramdas Pophale) SiO2 
 PCOD9078531
Probable space group: P -1
;
_chemical_formula_sum "Si O2"
_cell_formula_units_Z 16
_cell_length_a 9.255592
_cell_length_b 18.734221
_cell_length_c 13.919049
_cell_angle_alpha 22.517957
_cell_angle_beta 101.355054
_cell_angle_gamma 88.772540
_cell_volume 761.891016
_symmetry_space_group_name_H-M "P -1"
_symmetry_group_IT_number 2
_symmetry_cell_setting 'triclinic'
loop_
_space_group_symop_operation_xyz
x,y,z
-x,-y,-z
loop_
_atom_site_type_symbol
_atom_site_label
_atom_site_fract_x
_atom_site_fract_y
_atom_site_fract_z
Si Si1 0.874671 0.000646 0.166902
Si Si2 0.399284 0.258104 0.140652
Si Si3 0.195545 0.028727 0.162435
Si Si4 0.089664 0.587887 0.836298
Si Si5 0.150789 0.469491 0.663793
Si Si6 0.246963 0.150823 0.824809
Si Si7 0.319830 0.515733 0.436369
Si Si8 0.338170 0.719556 0.750945
O O1 0.739052 0.002640 0.071060
O O2 0.942419 0.783855 0.508336
O O3 0.054804 0.968587 0.188624
O O4 0.798579 0.228686 0.932932
O O5 0.569243 0.274205 0.148767
O O6 0.500000 0.000000 0.500000
O O7 0.248756 0.400157 0.024729
O O8 0.293259 0.353877 0.910163
O O9 0.284708 0.898515 0.435174
O O10 0.109403 0.286022 0.855736
O O11 0.308505 0.006112 0.111219
O O12 0.176541 0.694983 0.775277
O O13 0.000000 0.500000 0.000000
O O14 0.239312 0.514761 0.530776
O O15 0.965555 0.682609 0.404048
O O16 0.317549 0.317425 0.625894
O O17 0.500000 0.500000 0.500000
O O18 0.500000 0.500000 0.000000
#
# Coordination Sequence:
#
# PCOD9078531 Si02
#       8
#     2   2   2   2   2   2   2   2
#     4  11  21  38  67  87 121 165 209 255 308 377
#     4  11  21  38  65  95 121 159 218 260 305 371
#     4  10  18  35  64  91 116 158 201 261 305 356
#     4  10  23  42  61  88 126 169 210 253 320 378
#     4  11  20  39  64  91 119 161 212 256 299 375
#     4  11  21  39  67  93 117 159 219 252 301 384
#     4  11  25  41  58  94 134 159 198 263 326 367
#     4   9  20  36  57  87 124 160 202 256 308 365
#
# _framework density 21.000378000000001
#
# number of rings (size 3 to 8) (size 9 to 14) (size 15 to 20)
#    0.000    1.500    5.000    1.125    0.000    1.500 
#    4.500    0.625    0.000    0.000    0.000    0.000 
#    0.000    0.000    0.000    0.000    0.000    0.000 
#
# Total GULP energy -89078.320046 kJ/mol
# GULP energy per Si atom -5567.395003 kJ/mol
# Density = 2.095258 g / cm^3
# Si number density = 21.000378 Si / 1000 Ang^3
#
#
#
# Elastic Constant Matrix: (Units=GPa)
#
#
# Indices 1 2 3 4 5 6 
#
# 1 99.3161 38.9469 42.1631 14.6542 -11.4468 19.3320
# 2 38.9469 67.1965 16.2779 12.8015 -7.8223 32.1870
# 3 42.1631 16.2779 112.8972 12.6672 -13.0000 -3.3700
# 4 14.6542 12.8015 12.6672 27.0185 7.6669 4.0698
# 5 -11.4468 -7.8223 -13.0000 7.6669 34.0936 1.5281
# 6 19.3320 32.1870 -3.3700 4.0698 1.5281 26.6025
#
#
#
# Elastic Compliance Matrix: (Units=1/GPa)
#
#
# Indices 1 2 3 4 5 6 
#
# 1 0.016080 -0.002316 -0.004805 -0.005340 0.004637 -0.008941
# 2 -0.002316 0.049379 -0.004481 -0.015675 0.014927 -0.057089
# 3 -0.004805 -0.004481 0.012255 -0.003298 0.002287 0.010839
# 4 -0.005340 -0.015675 -0.003298 0.051933 -0.019024 0.015576
# 5 0.004637 0.014927 0.002287 -0.019024 0.040384 -0.020549
# 6 -0.008941 -0.057089 0.010839 0.015576 -0.020549 0.113332
#
#
# Mechanical properties :
#
#
# Convention : Reuss Voigt Hill
#
# Bulk Modulus (GPa) = 18.34539 52.68727 35.51633
# Shear Modulus (GPa) = 15.39708 29.67771 22.53739
#
# Velocity S-wave (km/s) = 2.71067 3.76333 3.27951
# Velocity P-wave (km/s) = 4.30717 6.63526 5.59368
#
# Compressibility (1/GPa) = 0.05450960
#
# Stress axis : x y z
#
# Youngs Moduli (GPa) = 62.19007 20.25157 81.59749
#
# Poissons Ratio (x) = 0.04690 0.39208
# Poissons Ratio (y) = 0.14402 0.36566
# Poissons Ratio (z) = 0.29883 0.09075
#
# Static dielectric constant tensor:
#      x y z
#    x 1.829930 0.067040 -0.036030 
#    y 0.067040 1.869450 -0.072970 
#    z -0.036030 -0.072970 1.790980 
# 
# From -- ./inp_files/202524.got.cif
#   From: 2010.05.17/outbox.cif.g08.bks.cpg/sg2_102_cif.got.tgz:202524.got - 2010.06.03 11:33:40.
