data_PCOD9078024
_publ_section_title
;
Structure prediction by ZEFSAII (Michael W. Deem and Ramdas Pophale) SiO2 
 PCOD9078024
Probable space group: P -1
;
_chemical_formula_sum "Si O2"
_cell_formula_units_Z 16
_cell_length_a 12.915786
_cell_length_b 10.352216
_cell_length_c 13.692014
_cell_angle_alpha 149.366361
_cell_angle_beta 53.685867
_cell_angle_gamma 107.194075
_cell_volume 641.540804
_symmetry_space_group_name_H-M "P -1"
_symmetry_group_IT_number 2
_symmetry_cell_setting 'triclinic'
loop_
_space_group_symop_operation_xyz
x,y,z
-x,-y,-z
loop_
_atom_site_type_symbol
_atom_site_label
_atom_site_fract_x
_atom_site_fract_y
_atom_site_fract_z
Si Si1 0.786518 0.812813 0.811824
Si Si2 0.052814 0.852779 0.727731
Si Si3 0.377015 0.714945 0.927754
Si Si4 0.121764 0.180804 0.510761
Si Si5 0.675535 0.585154 0.424914
Si Si6 0.401303 0.185882 0.905831
Si Si7 0.669941 0.254251 0.407382
Si Si8 0.158004 0.793040 0.411114
O O1 0.890751 0.489910 0.499207
O O2 0.878459 0.973613 0.889419
O O3 0.722861 0.769584 0.917197
O O4 0.654892 0.002510 0.934017
O O5 0.151843 0.913585 0.785012
O O6 0.112429 0.871827 0.600220
O O7 0.342874 0.529730 0.745535
O O8 0.555414 0.508446 0.713583
O O9 0.245930 0.876970 0.186421
O O10 0.126955 0.074969 0.549370
O O11 0.171134 0.422846 0.641909
O O12 0.960812 0.287338 0.621075
O O13 0.637348 0.431879 0.436915
O O14 0.557930 0.946297 0.713557
O O15 0.376531 0.989983 0.713737
O O16 0.332214 0.522188 0.128557
#
# Coordination Sequence:
#
# PCOD9078024 Si02
#       8
#     2   2   2   2   2   2   2   2
#     4  10  18  35  57  86 125 151 195 254 299 359
#     4  10  22  34  58  91 121 160 201 250 303 360
#     4  11  21  41  61  93 124 158 202 250 302 370
#     4  11  25  44  66  84 118 174 207 247 307 348
#     4  11  23  40  64  95 126 157 201 250 306 370
#     4  10  21  40  61  89 131 152 196 260 298 363
#     4  11  22  37  61  97 125 158 191 250 324 360
#     4  10  24  46  58  86 124 160 214 254 287 362
#
# _framework density 24.939957
#
# number of rings (size 3 to 8) (size 9 to 14) (size 15 to 20)
#    0.000    1.500    3.750    1.500    7.000    3.000 
#    2.250    2.500    0.000    0.000    0.000    0.000 
#    0.000    0.000    0.000    0.000    0.000    0.000 
#
# Total GULP energy -89212.663593 kJ/mol
# GULP energy per Si atom -5575.791475 kJ/mol
# Density = 2.488319 g / cm^3
# Si number density = 24.939957 Si / 1000 Ang^3
#
#
#
# Elastic Constant Matrix: (Units=GPa)
#
#
# Indices 1 2 3 4 5 6 
#
# 1 89.2287 9.4374 0.4526 -1.7504 -14.4897 -3.9707
# 2 9.4374 53.1287 -4.0068 -0.2306 6.7615 -17.9021
# 3 0.4526 -4.0068 46.2744 -4.8103 -17.4002 -3.0959
# 4 -1.7504 -0.2306 -4.8103 23.6996 -5.5957 -7.5945
# 5 -14.4897 6.7615 -17.4002 -5.5957 38.3796 3.0715
# 6 -3.9707 -17.9021 -3.0959 -7.5945 3.0715 30.6026
#
#
#
# Elastic Compliance Matrix: (Units=1/GPa)
#
#
# Indices 1 2 3 4 5 6 
#
# 1 0.012687 -0.002798 0.002577 0.003176 0.006885 0.000367
# 2 -0.002798 0.025729 0.001760 0.004399 -0.005471 0.016507
# 3 0.002577 0.001760 0.028941 0.011425 0.015000 0.005621
# 4 0.003176 0.004399 0.011425 0.052764 0.012014 0.016030
# 5 0.006885 -0.005471 0.015000 0.012014 0.038303 -0.001653
# 6 0.000367 0.016507 0.005621 0.016030 -0.001653 0.047094
#
#
# Mechanical properties :
#
#
# Convention : Reuss Voigt Hill
#
# Bulk Modulus (GPa) = 14.19738 22.26647 18.23192
# Shear Modulus (GPa) = 22.13184 30.71960 26.42572
#
# Velocity S-wave (km/s) = 2.98217 3.51343 3.25864
# Velocity P-wave (km/s) = 4.19079 5.04047 4.63514
#
# Compressibility (1/GPa) = 0.07043553
#
# Stress axis : x y z
#
# Youngs Moduli (GPa) = 78.82307 38.86600 34.55257
#
# Poissons Ratio (x) = 0.10874 -0.08905
# Poissons Ratio (y) = 0.22053 -0.06080
# Poissons Ratio (z) = -0.20314 -0.06839
#
# Static dielectric constant tensor:
#      x y z
#    x 2.065690 0.023720 0.014520 
#    y 0.023720 1.931450 0.006380 
#    z 0.014520 0.006380 2.231090 
# 
# From -- ./inp_files/175006.got.cif
#   From: 2010.05.17/outbox.cif.g08.bks.cpg/sg2_88_cif.got.tgz:175006.got - 2010.06.03 11:33:40.
