data_PCOD9078679
_publ_section_title
;
Structure prediction by ZEFSAII (Michael W. Deem and Ramdas Pophale) SiO2 
 PCOD9078679
Probable space group: P -1
;
_chemical_formula_sum "Si O2"
_cell_formula_units_Z 14
_cell_length_a 14.932294
_cell_length_b 14.073629
_cell_length_c 5.083267
_cell_angle_alpha 79.762406
_cell_angle_beta 93.455065
_cell_angle_gamma 151.728190
_cell_volume 487.194792
_symmetry_space_group_name_H-M "P -1"
_symmetry_group_IT_number 2
_symmetry_cell_setting 'triclinic'
loop_
_space_group_symop_operation_xyz
x,y,z
-x,-y,-z
loop_
_atom_site_type_symbol
_atom_site_label
_atom_site_fract_x
_atom_site_fract_y
_atom_site_fract_z
Si Si1 0.350073 0.182280 0.042528
Si Si2 0.989482 0.615550 0.116080
Si Si3 0.756112 0.654576 0.919782
Si Si4 0.734341 0.737050 0.380645
Si Si5 0.323185 0.816775 0.261191
Si Si6 0.315197 0.614570 0.183064
Si Si7 0.801540 0.119841 0.496179
O O1 0.228891 0.128223 0.837094
O O2 0.463637 0.205623 0.897921
O O3 0.525013 0.419964 0.031089
O O4 0.284355 0.065383 0.350889
O O5 0.117589 0.783891 0.822376
O O6 0.776560 0.413840 0.062483
O O7 0.105598 0.629147 0.198644
O O8 0.025752 0.711190 0.338388
O O9 0.809459 0.790639 0.661879
O O10 0.792556 0.590962 0.790529
O O11 0.814115 0.733236 0.188963
O O12 0.500000 0.500000 0.500000
O O13 0.318232 0.697672 0.369358
O O14 0.325379 0.905452 0.432511
O O15 0.500000 0.000000 0.000000
#
# Coordination Sequence:
#
# PCOD9078679 Si02
#       7
#     2   2   2   2   2   2   2
#     4   9  19  37  63  91 111 160 194 251 288 347
#     4  10  24  41  57  87 126 158 193 243 292 352
#     4   9  21  34  59  90 117 146 198 250 288 344
#     4  10  18  36  55  94 115 145 195 257 286 337
#     4  10  20  43  60  91 119 156 199 245 287 351
#     4  10  20  40  61  92 117 162 194 242 299 351
#     4  10  23  41  60  85 122 158 195 244 288 353
#
# _framework density 28.735944
#
# number of rings (size 3 to 8) (size 9 to 14) (size 15 to 20)
#    1.714    0.571    1.429    2.143    0.000    5.714 
#    2.571    0.000    0.000    5.143    0.000    0.000 
#    0.000    0.000    0.000    0.000    0.000    0.000 
#
# Total GULP energy -78070.028557 kJ/mol
# GULP energy per Si atom -5576.430611 kJ/mol
# Density = 2.867054 g / cm^3
# Si number density = 28.735944 Si / 1000 Ang^3
#
#
#
# Elastic Constant Matrix: (Units=GPa)
#
#
# Indices 1 2 3 4 5 6 
#
# 1 141.6412 21.7534 63.0125 0.6936 -23.9855 -28.0615
# 2 21.7534 82.8202 57.1450 -8.1717 -12.5074 -6.3215
# 3 63.0125 57.1450 130.0166 -19.5467 36.2869 -21.7415
# 4 0.6936 -8.1717 -19.5467 50.9482 3.1680 7.9374
# 5 -23.9855 -12.5074 36.2869 3.1680 0.6436 -2.0223
# 6 -28.0615 -6.3215 -21.7415 7.9374 -2.0223 40.1889
#
#
#
# Elastic Compliance Matrix: (Units=1/GPa)
#
#
# Indices 1 2 3 4 5 6 
#
# 1 0.005745 -0.004477 0.002648 0.000172 -0.009796 0.004212
# 2 -0.004477 0.011135 0.000686 0.003193 -0.011834 -0.002229
# 3 0.002648 0.000686 0.001988 -0.000833 0.016730 0.004038
# 4 0.000172 0.003193 -0.000833 0.019961 0.006341 -0.003451
# 5 -0.009796 -0.011834 0.016730 0.006341 -0.022088 -0.002014
# 6 0.004212 -0.002229 0.004038 -0.003451 -0.002014 0.030238
#
#
# Mechanical properties :
#
#
# Convention : Reuss Voigt Hill
#
# Bulk Modulus (GPa) = 60.31142 70.92219 65.61681
# Shear Modulus (GPa) = 91.25554 32.52728 61.89141
#
# Velocity S-wave (km/s) = 5.64141 3.36808 4.64594
# Velocity P-wave (km/s) = 7.96666 6.31344 7.18774
#
# Compressibility (1/GPa) = 0.01658061
#
# Stress axis : x y z
#
# Youngs Moduli (GPa) = 174.07626 89.80984 503.14081
#
# Poissons Ratio (x) = 0.40204 -1.33214
# Poissons Ratio (y) = 0.77926 -0.34505
# Poissons Ratio (z) = -0.46089 -0.06159
#
# Static dielectric constant tensor:
#      x y z
#    x 2.357120 0.035280 -0.023760 
#    y 0.035280 2.407280 -0.026240 
#    z -0.023760 -0.026240 2.236600 
# 
# From -- ./inp_files/97071.got.cif
#   From: 2010.05.17/outbox.cif.g08.bks.cpg/sg2_49_cif.got.tgz:97071.got - 2010.06.03 11:33:40.
