data_PCOD9078097
_publ_section_title
;
Structure prediction by ZEFSAII (Michael W. Deem and Ramdas Pophale) SiO2 
 PCOD9078097
Probable space group: P -1
;
_chemical_formula_sum "Si O2"
_cell_formula_units_Z 16
_cell_length_a 11.110676
_cell_length_b 19.869128
_cell_length_c 8.279647
_cell_angle_alpha 118.533697
_cell_angle_beta 73.511767
_cell_angle_gamma 149.016123
_cell_volume 794.090391
_symmetry_space_group_name_H-M "P -1"
_symmetry_group_IT_number 2
_symmetry_cell_setting 'triclinic'
loop_
_space_group_symop_operation_xyz
x,y,z
-x,-y,-z
loop_
_atom_site_type_symbol
_atom_site_label
_atom_site_fract_x
_atom_site_fract_y
_atom_site_fract_z
Si Si1 0.770966 0.103533 0.827129
Si Si2 0.571536 0.795733 0.832298
Si Si3 0.618469 0.449735 0.536196
Si Si4 0.376021 0.298820 0.029365
Si Si5 0.715452 0.549047 0.970638
Si Si6 0.351853 0.996530 0.868073
Si Si7 0.066636 0.969928 0.316913
Si Si8 0.827904 0.706219 0.616794
O O1 0.779787 0.021396 0.665069
O O2 0.544145 0.035060 0.778400
O O3 0.744096 0.080621 0.006627
O O4 0.024256 0.277848 0.897684
O O5 0.391474 0.642068 0.633130
O O6 0.643625 0.786969 0.954099
O O7 0.791311 0.921939 0.767092
O O8 0.515650 0.853015 0.975087
O O9 0.709559 0.505842 0.748044
O O10 0.776610 0.588917 0.520003
O O11 0.342357 0.341020 0.504397
O O12 0.289732 0.321397 0.205287
O O13 0.637660 0.450199 0.027700
O O14 0.185303 0.195677 0.840252
O O15 0.500000 0.500000 0.000000
O O16 0.111247 0.875844 0.710126
O O17 0.000000 0.000000 0.500000
#
# Coordination Sequence:
#
# PCOD9078097 Si02
#       8
#     2   2   2   2   2   2   2   2
#     4  10  21  36  62  85 115 163 197 235 292 364
#     4  10  22  35  58  90 117 154 196 246 295 343
#     4  10  20  31  56  93 114 142 198 251 295 327
#     4  11  20  34  56  88 116 157 194 246 299 340
#     4  12  19  36  57  86 120 153 196 244 298 346
#     4  10  19  40  61  82 119 160 202 229 292 370
#     4  11  20  34  58  91 120 144 195 255 297 334
#     4  10  18  35  58  87 114 153 193 246 293 348
#
# _framework density 20.148838000000001
#
# number of rings (size 3 to 8) (size 9 to 14) (size 15 to 20)
#    0.000    1.500    6.250    1.125    1.750    0.000 
#    0.000    1.250    2.750    3.000    0.000    0.000 
#    0.000    0.000    0.000    0.000    0.000    0.000 
#
# Total GULP energy -89285.672253 kJ/mol
# GULP energy per Si atom -5580.354516 kJ/mol
# Density = 2.010298 g / cm^3
# Si number density = 20.148838 Si / 1000 Ang^3
#
#
#
# Elastic Constant Matrix: (Units=GPa)
#
#
# Indices 1 2 3 4 5 6 
#
# 1 69.6767 36.7096 31.1574 -3.1792 -20.9025 -6.8863
# 2 36.7096 75.2446 21.5044 12.8678 -19.5283 -13.7574
# 3 31.1574 21.5044 67.6721 9.4816 -17.8012 0.3196
# 4 -3.1792 12.8678 9.4816 23.5258 -2.5646 -5.4424
# 5 -20.9025 -19.5283 -17.8012 -2.5646 28.0539 4.7278
# 6 -6.8863 -13.7574 0.3196 -5.4424 4.7278 25.6872
#
#
#
# Elastic Compliance Matrix: (Units=1/GPa)
#
#
# Indices 1 2 3 4 5 6 
#
# 1 0.027539 -0.010615 -0.009317 0.014967 0.007994 0.003513
# 2 -0.010615 0.023073 0.001042 -0.012440 0.006728 0.005625
# 3 -0.009317 0.001042 0.022479 -0.011429 0.008033 -0.006120
# 4 0.014967 -0.012440 -0.011429 0.058133 -0.001133 0.010018
# 5 0.007994 0.006728 0.008033 -0.001133 0.051980 -0.004161
# 6 0.003513 0.005625 -0.006120 0.010018 -0.004161 0.045849
#
#
# Mechanical properties :
#
#
# Convention : Reuss Voigt Hill
#
# Bulk Modulus (GPa) = 28.32077 43.48180 35.90128
# Shear Modulus (GPa) = 17.94651 23.66817 20.80734
#
# Velocity S-wave (km/s) = 2.98769 3.43106 3.21702
# Velocity P-wave (km/s) = 5.09785 6.10929 5.62634
#
# Compressibility (1/GPa) = 0.03530977
#
# Stress axis : x y z
#
# Youngs Moduli (GPa) = 36.31153 43.34060 44.48530
#
# Poissons Ratio (x) = 0.46008 0.41448
# Poissons Ratio (y) = 0.38546 -0.04634
# Poissons Ratio (z) = 0.33832 -0.04515
#
# Static dielectric constant tensor:
#      x y z
#    x 1.748940 -0.042940 -0.021640 
#    y -0.042940 1.741950 0.017670 
#    z -0.021640 0.017670 1.753190 
# 
# From -- ./inp_files/283229.got.cif
#   From: 2010.05.17/outbox.cif.g08.bks.cpg/sg2_142_cif.got.tgz:283229.got - 2010.06.03 11:33:40.
