data_PCOD9078346
_publ_section_title
;
Structure prediction by ZEFSAII (Michael W. Deem and Ramdas Pophale) SiO2 
 PCOD9078346
Probable space group: P -1
;
_chemical_formula_sum "Si O2"
_cell_formula_units_Z 14
_cell_length_a 12.883277
_cell_length_b 7.487163
_cell_length_c 7.531600
_cell_angle_alpha 84.920575
_cell_angle_beta 88.457594
_cell_angle_gamma 48.093244
_cell_volume 538.047051
_symmetry_space_group_name_H-M "P -1"
_symmetry_group_IT_number 2
_symmetry_cell_setting 'triclinic'
loop_
_space_group_symop_operation_xyz
x,y,z
-x,-y,-z
loop_
_atom_site_type_symbol
_atom_site_label
_atom_site_fract_x
_atom_site_fract_y
_atom_site_fract_z
Si Si1 0.481315 0.765059 0.126616
Si Si2 0.835050 0.477339 0.606586
Si Si3 0.071363 0.085759 0.888348
Si Si4 0.630896 0.976155 0.435886
Si Si5 0.788426 0.398356 0.237540
Si Si6 0.242064 0.217928 0.949536
Si Si7 0.577258 0.542177 0.745344
O O1 0.622135 0.617291 0.243798
O O2 0.398007 0.695961 0.217766
O O3 0.532264 0.654344 0.936226
O O4 0.375770 0.051232 0.086420
O O5 0.762193 0.756929 0.566063
O O6 0.863323 0.368821 0.417184
O O7 0.715791 0.485038 0.689067
O O8 0.970042 0.301910 0.735707
O O9 0.144147 0.160092 0.989197
O O10 0.185395 0.835615 0.797232
O O11 0.000000 0.000000 0.000000
O O12 0.696052 0.879021 0.243790
O O13 0.500000 0.000000 0.500000
O O14 0.550722 0.257274 0.395821
O O15 0.825838 0.507323 0.078467
#
# Coordination Sequence:
#
# PCOD9078346 Si02
#       7
#     2   2   2   2   2   2   2
#     4  10  18  35  61  89 122 155 196 250 301 353
#     4  10  21  37  57  88 124 157 201 249 295 355
#     4  12  25  43  63  84 120 166 205 244 296 361
#     4   8  16  32  56  85 117 149 188 239 292 346
#     4  11  23  38  61  90 119 154 200 253 302 352
#     4  10  22  39  62  90 121 158 201 246 296 354
#     4   9  17  34  60  89 120 160 201 240 299 359
#
# _framework density 26.020029999999998
#
# number of rings (size 3 to 8) (size 9 to 14) (size 15 to 20)
#    0.000    2.000    0.000    5.143    0.000    3.429 
#    0.000    4.286    0.000    5.143    0.000    0.000 
#    0.000    0.000    0.000    0.000    0.000    0.000 
#
# Total GULP energy -78282.264690 kJ/mol
# GULP energy per Si atom -5591.590335 kJ/mol
# Density = 2.596081 g / cm^3
# Si number density = 26.020030 Si / 1000 Ang^3
#
#
#
# Elastic Constant Matrix: (Units=GPa)
#
#
# Indices 1 2 3 4 5 6 
#
# 1 89.9430 26.6959 9.1986 -25.2109 -8.4177 1.2441
# 2 26.6959 101.1548 38.0802 -44.1281 5.2056 2.9826
# 3 9.1986 38.0802 66.4703 -19.3953 1.9685 2.3641
# 4 -25.2109 -44.1281 -19.3953 60.7156 -7.2156 2.0043
# 5 -8.4177 5.2056 1.9685 -7.2156 42.9484 -7.3652
# 6 1.2441 2.9826 2.3641 2.0043 -7.3652 32.7959
#
#
#
# Elastic Compliance Matrix: (Units=1/GPa)
#
#
# Indices 1 2 3 4 5 6 
#
# 1 0.013281 -0.001780 0.000469 0.004797 0.003628 0.000146
# 2 -0.001780 0.017130 -0.006699 0.009533 -0.000821 -0.001774
# 3 0.000469 -0.006699 0.019291 0.001532 0.000129 -0.000864
# 4 0.004797 0.009533 0.001532 0.026397 0.003821 -0.001914
# 5 0.003628 -0.000821 0.000129 0.003821 0.025666 0.005458
# 6 0.000146 -0.001774 -0.000864 -0.001914 0.005458 0.032053
#
#
# Mechanical properties :
#
#
# Convention : Reuss Voigt Hill
#
# Bulk Modulus (GPa) = 29.68851 45.05748 37.37300
# Shear Modulus (GPa) = 31.04340 39.53154 35.28747
#
# Velocity S-wave (km/s) = 3.45781 3.90201 3.68661
# Velocity P-wave (km/s) = 5.23227 6.13637 5.70226
#
# Compressibility (1/GPa) = 0.03368307
#
# Stress axis : x y z
#
# Youngs Moduli (GPa) = 75.29776 58.37605 51.83748
#
# Poissons Ratio (x) = 0.10389 -0.02430
# Poissons Ratio (y) = 0.13401 0.34724
# Poissons Ratio (z) = -0.03530 0.39104
#
# Static dielectric constant tensor:
#      x y z
#    x 2.069970 0.001630 -0.002990 
#    y 0.001630 2.046740 0.039920 
#    z -0.002990 0.039920 2.085330 
# 
# From -- ./inp_files/279183.got.cif
#   From: 2010.05.17/outbox.cif.g08.bks.cpg/sg2_140_cif.got.tgz:279183.got - 2010.06.03 11:33:40.
