data_PCOD9078004
_publ_section_title
;
Structure prediction by ZEFSAII (Michael W. Deem and Ramdas Pophale) SiO2 
 PCOD9078004
Probable space group: P -1
;
_chemical_formula_sum "Si O2"
_cell_formula_units_Z 16
_cell_length_a 16.063225
_cell_length_b 21.614648
_cell_length_c 12.183760
_cell_angle_alpha 151.805210
_cell_angle_beta 46.704906
_cell_angle_gamma 154.389103
_cell_volume 730.600505
_symmetry_space_group_name_H-M "P -1"
_symmetry_group_IT_number 2
_symmetry_cell_setting 'triclinic'
loop_
_space_group_symop_operation_xyz
x,y,z
-x,-y,-z
loop_
_atom_site_type_symbol
_atom_site_label
_atom_site_fract_x
_atom_site_fract_y
_atom_site_fract_z
Si Si1 0.947553 0.042298 0.443164
Si Si2 0.573517 0.995336 0.533944
Si Si3 0.119468 0.575259 0.397956
Si Si4 0.472931 0.357477 0.963701
Si Si5 0.990598 0.345622 0.577230
Si Si6 0.274415 0.446890 0.607704
Si Si7 0.279458 0.178375 0.085925
Si Si8 0.027431 0.182874 0.829539
O O1 0.124270 0.311228 0.641128
O O2 0.910134 0.065231 0.633281
O O3 0.722357 0.811536 0.212633
O O4 0.065120 0.015371 0.311146
O O5 0.396797 0.867372 0.588694
O O6 0.512955 0.783327 0.247402
O O7 0.500000 0.000000 0.500000
O O8 0.845422 0.256046 0.673615
O O9 0.012426 0.548557 0.349487
O O10 0.000000 0.500000 0.500000
O O11 0.062414 0.364796 0.117016
O O12 0.404435 0.349435 0.128877
O O13 0.722888 0.634852 0.130031
O O14 0.222605 0.515819 0.682187
O O15 0.870924 0.096144 0.242258
O O16 0.180516 0.215859 0.281391
O O17 0.532666 0.685270 0.783936
#
# Coordination Sequence:
#
# PCOD9078004 Si02
#       8
#     2   2   2   2   2   2   2   2
#     4  11  21  36  62  85 116 158 197 244 298 354
#     4   8  16  33  56  82 112 150 193 238 284 345
#     4  10  22  39  63  89 122 162 202 247 305 360
#     4  10  18  35  57  84 114 152 198 241 292 355
#     4  10  20  39  64  87 119 162 202 244 299 361
#     4  11  21  35  60  93 119 156 199 251 305 346
#     4  10  21  34  58  92 125 145 195 257 302 352
#     4  10  23  39  55  86 122 155 199 242 297 362
#
# _framework density 21.899794
#
# number of rings (size 3 to 8) (size 9 to 14) (size 15 to 20)
#    0.000    2.000    3.750    0.750    1.750    0.000 
#    0.000    5.625    0.000    3.750    0.000    0.000 
#    0.000    0.000    0.000    0.000    0.000    0.000 
#
# Total GULP energy -89128.134075 kJ/mol
# GULP energy per Si atom -5570.508380 kJ/mol
# Density = 2.184995 g / cm^3
# Si number density = 21.899794 Si / 1000 Ang^3
#
#
#
# Elastic Constant Matrix: (Units=GPa)
#
#
# Indices 1 2 3 4 5 6 
#
# 1 107.5797 29.0739 22.3905 -6.3965 -5.6807 9.7101
# 2 29.0739 87.8496 19.9353 -23.0118 5.2526 -9.5612
# 3 22.3905 19.9353 66.2122 -11.7955 1.2414 2.8710
# 4 -6.3965 -23.0118 -11.7955 21.4111 3.4758 0.4320
# 5 -5.6807 5.2526 1.2414 3.4758 28.7791 7.6477
# 6 9.7101 -9.5612 2.8710 0.4320 7.6477 29.8345
#
#
#
# Elastic Compliance Matrix: (Units=1/GPa)
#
#
# Indices 1 2 3 4 5 6 
#
# 1 0.012149 -0.005790 -0.003092 -0.005140 0.006067 -0.006993
# 2 -0.005790 0.021070 -0.000751 0.021992 -0.010561 0.011098
# 3 -0.003092 -0.000751 0.017955 0.008518 -0.002133 -0.000539
# 4 -0.005140 0.021992 0.008518 0.076126 -0.017595 0.011309
# 5 0.006067 -0.010561 -0.002133 -0.017595 0.044417 -0.016285
# 6 -0.006993 0.011098 -0.000539 0.011309 -0.016285 0.043413
#
#
# Mechanical properties :
#
#
# Convention : Reuss Voigt Hill
#
# Bulk Modulus (GPa) = 31.33842 44.93787 38.13814
# Shear Modulus (GPa) = 20.40549 28.68773 24.54661
#
# Velocity S-wave (km/s) = 3.05580 3.62326 3.35156
# Velocity P-wave (km/s) = 5.17605 6.16995 5.69473
#
# Compressibility (1/GPa) = 0.03190971
#
# Stress axis : x y z
#
# Youngs Moduli (GPa) = 82.30800 47.46183 55.69361
#
# Poissons Ratio (x) = 0.27478 0.17218
# Poissons Ratio (y) = 0.47652 0.04184
# Poissons Ratio (z) = 0.25446 0.03566
#
# Static dielectric constant tensor:
#      x y z
#    x 1.788890 -0.011130 0.003940 
#    y -0.011130 1.895610 0.027790 
#    z 0.003940 0.027790 1.815330 
# 
# From -- ./inp_files/457744.got.cif
#   From: 2010.05.17/outbox.cif.g08.bks.cpg/sg2_229_cif.got.tgz:457744.got - 2010.06.03 11:33:40.
