data_PCOD9078236
_publ_section_title
;
Structure prediction by ZEFSAII (Michael W. Deem and Ramdas Pophale) SiO2 
 PCOD9078236
Probable space group: P -1
;
_chemical_formula_sum "Si O2"
_cell_formula_units_Z 16
_cell_length_a 21.290215
_cell_length_b 7.342860
_cell_length_c 8.415915
_cell_angle_alpha 94.110061
_cell_angle_beta 122.492890
_cell_angle_gamma 126.960641
_cell_volume 718.773721
_symmetry_space_group_name_H-M "P -1"
_symmetry_group_IT_number 2
_symmetry_cell_setting 'triclinic'
loop_
_space_group_symop_operation_xyz
x,y,z
-x,-y,-z
loop_
_atom_site_type_symbol
_atom_site_label
_atom_site_fract_x
_atom_site_fract_y
_atom_site_fract_z
Si Si1 0.964420 0.649337 0.478254
Si Si2 0.609185 0.845173 0.493478
Si Si3 0.415548 0.892839 0.738847
Si Si4 0.410805 0.594081 0.449222
Si Si5 0.841991 0.330002 0.002632
Si Si6 0.826830 0.906190 0.022771
Si Si7 0.849660 0.639436 0.601176
Si Si8 0.975043 0.193084 0.916501
O O1 0.886792 0.558514 0.517919
O O2 0.000000 0.500000 0.500000
O O3 0.887844 0.550612 0.214048
O O4 0.082965 0.971994 0.708769
O O5 0.511917 0.725458 0.477446
O O6 0.615566 0.637409 0.495501
O O7 0.580278 0.887123 0.291064
O O8 0.731438 0.157099 0.733730
O O9 0.444381 0.824036 0.619962
O O10 0.285280 0.600995 0.587067
O O11 0.500000 0.000000 0.000000
O O12 0.292935 0.417568 0.183194
O O13 0.800083 0.070483 0.021452
O O14 0.959682 0.524124 0.072225
O O15 0.891238 0.036235 0.946101
O O16 0.906947 0.945573 0.678436
O O17 0.911557 0.694741 0.852749
#
# Coordination Sequence:
#
# PCOD9078236 Si02
#       8
#     2   2   2   2   2   2   2   2
#     4   9  20  36  55  88 121 157 197 250 314 366
#     4  10  23  43  67  92 122 173 214 262 312 373
#     4  12  25  43  65  93 128 168 214 266 320 370
#     4  10  22  44  67  91 127 164 220 260 310 378
#     4  10  19  34  61  88 119 159 206 250 309 375
#     4   9  18  36  59  88 122 159 198 253 312 374
#     4  10  21  37  57  86 123 161 201 258 313 370
#     4  10  18  35  60  83 119 155 201 254 304 379
#
# _framework density 22.260135999999999
#
# number of rings (size 3 to 8) (size 9 to 14) (size 15 to 20)
#    0.000    2.000    2.500    0.750    1.750    1.000 
#    2.250    0.000    0.000    0.000    0.000    0.000 
#    0.000    0.000    0.000    0.000    0.000    0.000 
#
# Total GULP energy -89124.289477 kJ/mol
# GULP energy per Si atom -5570.268092 kJ/mol
# Density = 2.220947 g / cm^3
# Si number density = 22.260136 Si / 1000 Ang^3
#
#
#
# Elastic Constant Matrix: (Units=GPa)
#
#
# Indices 1 2 3 4 5 6 
#
# 1 49.0909 -4.7209 5.3571 7.3562 -2.3731 3.8976
# 2 -4.7209 48.8801 19.1550 11.7046 2.1490 1.1003
# 3 5.3571 19.1550 90.7851 -8.1251 3.9331 -3.2627
# 4 7.3562 11.7046 -8.1251 28.0005 2.7395 6.3018
# 5 -2.3731 2.1490 3.9331 2.7395 34.6160 4.8509
# 6 3.8976 1.1003 -3.2627 6.3018 4.8509 24.1636
#
#
#
# Elastic Compliance Matrix: (Units=1/GPa)
#
#
# Indices 1 2 3 4 5 6 
#
# 1 0.023039 0.005783 -0.003615 -0.009197 0.002726 -0.002616
# 2 0.005783 0.027646 -0.007565 -0.015492 0.000669 0.000693
# 3 -0.003615 -0.007565 0.013676 0.008040 -0.002123 0.001104
# 4 -0.009197 -0.015492 0.008040 0.049263 -0.003230 -0.008925
# 5 0.002726 0.000669 -0.002123 -0.003230 0.030373 -0.006012
# 6 -0.002616 0.000693 0.001104 -0.008925 -0.006012 0.045458
#
#
# Mechanical properties :
#
#
# Convention : Reuss Voigt Hill
#
# Bulk Modulus (GPa) = 18.66838 25.37096 22.01967
# Shear Modulus (GPa) = 22.92486 28.62037 25.77261
#
# Velocity S-wave (km/s) = 3.21263 3.58959 3.40633
# Velocity P-wave (km/s) = 4.70807 5.34812 5.03827
#
# Compressibility (1/GPa) = 0.05356652
#
# Stress axis : x y z
#
# Youngs Moduli (GPa) = 43.40547 36.17167 73.12277
#
# Poissons Ratio (x) = -0.20918 0.26433
# Poissons Ratio (y) = -0.25101 0.55317
# Poissons Ratio (z) = 0.15690 0.27364
#
# Static dielectric constant tensor:
#      x y z
#    x 1.889590 -0.075220 -0.016140 
#    y -0.075220 1.944320 -0.022250 
#    z -0.016140 -0.022250 1.826550 
# 
# From -- ./inp_files/351792.got.cif
#   From: 2010.05.17/outbox.cif.g08.bks.cpg/sg2_176_cif.got.tgz:351792.got - 2010.06.03 11:33:40.
