data_PCOD9078568
_publ_section_title
;
Structure prediction by ZEFSAII (Michael W. Deem and Ramdas Pophale) SiO2 
 PCOD9078568
Probable space group: P -1
;
_chemical_formula_sum "Si O2"
_cell_formula_units_Z 16
_cell_length_a 8.885231
_cell_length_b 11.817404
_cell_length_c 11.809300
_cell_angle_alpha 132.065580
_cell_angle_beta 46.439517
_cell_angle_gamma 109.894576
_cell_volume 649.854252
_symmetry_space_group_name_H-M "P -1"
_symmetry_group_IT_number 2
_symmetry_cell_setting 'triclinic'
loop_
_space_group_symop_operation_xyz
x,y,z
-x,-y,-z
loop_
_atom_site_type_symbol
_atom_site_label
_atom_site_fract_x
_atom_site_fract_y
_atom_site_fract_z
Si Si1 0.095208 0.276994 0.454394
Si Si2 0.502216 0.446458 0.592020
Si Si3 0.398882 0.036220 0.282328
Si Si4 0.118279 0.006449 0.621764
Si Si5 0.978093 0.256509 0.260045
Si Si6 0.945811 0.599059 0.211930
Si Si7 0.706262 0.247765 0.957856
Si Si8 0.194990 0.043450 0.838409
O O1 0.051991 0.419175 0.662611
O O2 0.921113 0.168020 0.480155
O O3 0.091145 0.313863 0.348152
O O4 0.309651 0.160142 0.313167
O O5 0.500000 0.500000 0.500000
O O6 0.736451 0.353763 0.442142
O O7 0.312157 0.353283 0.640883
O O8 0.427171 0.606636 0.808172
O O9 0.213033 0.044903 0.478663
O O10 0.431858 0.861247 0.098932
O O11 0.615259 0.040282 0.234789
O O12 0.263762 0.043549 0.672477
O O13 0.890174 0.123600 0.845506
O O14 0.963851 0.075064 0.168248
O O15 0.100135 0.218049 0.051453
O O16 0.138527 0.687759 0.164259
O O17 0.000000 0.500000 0.000000
#
# Coordination Sequence:
#
# PCOD9078568 Si02
#       8
#     2   2   2   2   2   2   2   2
#     4  10  19  37  63  88 123 155 192 254 306 355
#     4  11  24  42  63  83 121 170 208 248 302 362
#     4  11  19  35  66  92 122 153 198 249 308 359
#     4  10  18  35  65  91 128 146 194 257 297 361
#     4  10  23  41  58  87 129 160 204 248 295 366
#     4  10  20  38  62  87 117 157 205 248 300 362
#     4  10  20  38  62  94 119 154 203 246 307 362
#     4  10  22  37  60  95 121 160 202 243 303 360
#
# _framework density 24.620906000000002
#
# number of rings (size 3 to 8) (size 9 to 14) (size 15 to 20)
#    0.000    1.750    2.500    2.625    0.000    2.500 
#    0.000    7.500    0.000    0.000    0.000    0.000 
#    0.000    0.000    0.000    0.000    0.000    0.000 
#
# Total GULP energy -89131.816897 kJ/mol
# GULP energy per Si atom -5570.738556 kJ/mol
# Density = 2.456487 g / cm^3
# Si number density = 24.620906 Si / 1000 Ang^3
#
#
#
# Elastic Constant Matrix: (Units=GPa)
#
#
# Indices 1 2 3 4 5 6 
#
# 1 146.2358 5.2171 74.1586 -2.8359 20.4740 0.6343
# 2 5.2171 43.4744 16.6942 9.1128 2.1227 9.6915
# 3 74.1586 16.6942 187.8700 14.8361 16.2677 -7.3180
# 4 -2.8359 9.1128 14.8361 26.3850 6.3878 0.5129
# 5 20.4740 2.1227 16.2677 6.3878 54.8125 1.5151
# 6 0.6343 9.6915 -7.3180 0.5129 1.5151 23.1791
#
#
#
# Elastic Compliance Matrix: (Units=1/GPa)
#
#
# Indices 1 2 3 4 5 6 
#
# 1 0.009199 -0.000033 -0.003743 0.003791 -0.002729 -0.001325
# 2 -0.000033 0.028456 -0.002419 -0.008460 0.000961 -0.012536
# 3 -0.003743 -0.002419 0.007485 -0.003750 -0.000392 0.003586
# 4 0.003791 -0.008460 -0.003750 0.044570 -0.005214 0.001604
# 5 -0.002729 0.000961 -0.000392 -0.005214 0.019995 -0.001642
# 6 -0.001325 -0.012536 0.003586 0.001604 -0.001642 0.049624
#
#
# Mechanical properties :
#
#
# Convention : Reuss Voigt Hill
#
# Bulk Modulus (GPa) = 30.53378 63.30224 46.91801
# Shear Modulus (GPa) = 27.37699 39.64268 33.50984
#
# Velocity S-wave (km/s) = 3.33820 4.01699 3.69322
# Velocity P-wave (km/s) = 5.22365 6.87615 6.10606
#
# Compressibility (1/GPa) = 0.03275061
#
# Stress axis : x y z
#
# Youngs Moduli (GPa) = 108.70895 35.14198 133.60052
#
# Poissons Ratio (x) = 0.00114 0.50005
# Poissons Ratio (y) = 0.00354 0.32320
# Poissons Ratio (z) = 0.40689 0.08501
#
# Static dielectric constant tensor:
#      x y z
#    x 2.053810 -0.083240 0.064370 
#    y -0.083240 2.110480 -0.010390 
#    z 0.064370 -0.010390 2.088190 
# 
# From -- ./inp_files/399737.got.cif
#   From: 2010.05.17/outbox.cif.g08.bks.cpg/sg2_200_cif.got.tgz:399737.got - 2010.06.03 11:33:40.
