data_PCOD9078523
_publ_section_title
;
Structure prediction by ZEFSAII (Michael W. Deem and Ramdas Pophale) SiO2 
 PCOD9078523
Probable space group: P -1
;
_chemical_formula_sum "Si O2"
_cell_formula_units_Z 16
_cell_length_a 12.093630
_cell_length_b 11.862966
_cell_length_c 8.994651
_cell_angle_alpha 122.360901
_cell_angle_beta 105.804560
_cell_angle_gamma 50.057147
_cell_volume 830.621713
_symmetry_space_group_name_H-M "P -1"
_symmetry_group_IT_number 2
_symmetry_cell_setting 'triclinic'
loop_
_space_group_symop_operation_xyz
x,y,z
-x,-y,-z
loop_
_atom_site_type_symbol
_atom_site_label
_atom_site_fract_x
_atom_site_fract_y
_atom_site_fract_z
Si Si1 0.792937 0.095558 0.612599
Si Si2 0.009837 0.173001 0.726007
Si Si3 0.667323 0.497883 0.193826
Si Si4 0.606845 0.232877 0.916757
Si Si5 0.169654 0.464207 0.171274
Si Si6 0.530242 0.346899 0.499499
Si Si7 0.497690 0.841640 0.888178
Si Si8 0.053628 0.576400 0.892639
O O1 0.931226 0.092565 0.687445
O O2 0.719330 0.100024 0.740523
O O3 0.666013 0.268056 0.604790
O O4 0.853905 0.944936 0.412873
O O5 0.890631 0.343178 0.710795
O O6 0.035036 0.241612 0.930851
O O7 0.549615 0.635447 0.127648
O O8 0.606703 0.577568 0.389449
O O9 0.824495 0.447859 0.184061
O O10 0.661877 0.341284 0.061735
O O11 0.584519 0.155232 0.994799
O O12 0.336183 0.326980 0.165743
O O13 0.063628 0.447376 0.218527
O O14 0.140215 0.448903 0.974885
O O15 0.500000 0.500000 0.500000
O O16 0.562120 0.196039 0.302719
O O17 0.500000 0.000000 0.000000
#
# Coordination Sequence:
#
# PCOD9078523 Si02
#       8
#     2   2   2   2   2   2   2   2
#     4  10  20  33  61  92 112 146 197 258 279 328
#     4   9  17  33  59  89 113 142 201 244 287 333
#     4  10  18  35  64  89 105 152 209 243 276 338
#     4  10  18  36  60  86 118 146 202 244 284 341
#     4   9  19  36  59  80 110 161 191 230 290 351
#     4  11  23  37  60  88 123 154 192 242 300 357
#     4  12  25  40  58  86 128 159 184 240 309 359
#     4   9  17  33  62  83 106 145 202 242 268 339
#
# _framework density 19.262681000000001
#
# number of rings (size 3 to 8) (size 9 to 14) (size 15 to 20)
#    0.750    1.250    3.750    0.750    3.500    0.000 
#    2.250    1.875    5.500    4.500    0.000    0.000 
#    0.000    0.000    0.000    0.000    0.000    0.000 
#
# Total GULP energy -89127.756954 kJ/mol
# GULP energy per Si atom -5570.484810 kJ/mol
# Density = 1.921884 g / cm^3
# Si number density = 19.262681 Si / 1000 Ang^3
#
#
#
# Elastic Constant Matrix: (Units=GPa)
#
#
# Indices 1 2 3 4 5 6 
#
# 1 124.3089 11.8976 48.7627 0.7634 -34.9634 14.1590
# 2 11.8976 32.3024 12.3757 6.9921 -15.3386 4.7318
# 3 48.7627 12.3757 90.8469 6.4268 -32.8186 13.8704
# 4 0.7634 6.9921 6.4268 24.9768 -4.5384 -3.6434
# 5 -34.9634 -15.3386 -32.8186 -4.5384 35.6032 -0.6750
# 6 14.1590 4.7318 13.8704 -3.6434 -0.6750 26.4900
#
#
#
# Elastic Compliance Matrix: (Units=1/GPa)
#
#
# Indices 1 2 3 4 5 6 
#
# 1 0.012448 0.002186 -0.002155 0.000787 0.011176 -0.005523
# 2 0.002186 0.043591 0.003646 -0.010803 0.022687 -0.011771
# 3 -0.002155 0.003646 0.019524 -0.004387 0.016705 -0.009900
# 4 0.000787 -0.010803 -0.004387 0.045265 -0.001966 0.009982
# 5 0.011176 0.022687 0.016705 -0.001966 0.063653 -0.017421
# 6 -0.005523 -0.011771 -0.009900 0.009982 -0.017421 0.048917
#
#
# Mechanical properties :
#
#
# Convention : Reuss Voigt Hill
#
# Bulk Modulus (GPa) = 12.06029 43.72556 27.89293
# Shear Modulus (GPa) = 19.70959 29.04215 24.37587
#
# Velocity S-wave (km/s) = 3.20222 3.88711 3.56117
# Velocity P-wave (km/s) = 4.46619 6.54943 5.60544
#
# Compressibility (1/GPa) = 0.08291673
#
# Stress axis : x y z
#
# Youngs Moduli (GPa) = 80.33486 22.94050 51.21918
#
# Poissons Ratio (x) = -0.05015 0.11036
# Poissons Ratio (y) = -0.17561 -0.18672
# Poissons Ratio (z) = 0.17309 -0.08363
#
# Static dielectric constant tensor:
#      x y z
#    x 1.685610 -0.002820 0.019090 
#    y -0.002820 1.679100 0.001570 
#    z 0.019090 0.001570 1.702770 
# 
# From -- ./inp_files/260128.got.cif
#   From: 2010.05.17/outbox.cif.g08.bks.cpg/sg2_131_cif.got.tgz:260128.got - 2010.06.03 11:33:40.
