data_PCOD9078818
_publ_section_title
;
Structure prediction by ZEFSAII (Michael W. Deem and Ramdas Pophale) SiO2 
 PCOD9078818
Probable space group: P -1
;
_chemical_formula_sum "Si O2"
_cell_formula_units_Z 16
_cell_length_a 13.425643
_cell_length_b 13.233761
_cell_length_c 14.722220
_cell_angle_alpha 31.471074
_cell_angle_beta 134.531383
_cell_angle_gamma 145.244359
_cell_volume 778.488203
_symmetry_space_group_name_H-M "P -1"
_symmetry_group_IT_number 2
_symmetry_cell_setting 'triclinic'
loop_
_space_group_symop_operation_xyz
x,y,z
-x,-y,-z
loop_
_atom_site_type_symbol
_atom_site_label
_atom_site_fract_x
_atom_site_fract_y
_atom_site_fract_z
Si Si1 0.688907 0.153673 0.547419
Si Si2 0.164382 0.996612 0.104464
Si Si3 0.950907 0.613295 0.016857
Si Si4 0.484655 0.880592 0.199612
Si Si5 0.243796 0.639216 0.075104
Si Si6 0.693358 0.453803 0.489883
Si Si7 0.960985 0.445749 0.335301
Si Si8 0.719993 0.882744 0.100903
O O1 0.735471 0.988298 0.753333
O O2 0.692721 0.325991 0.494558
O O3 0.830377 0.302109 0.444499
O O4 0.500000 0.000000 0.500000
O O5 0.081521 0.727916 0.222319
O O6 0.285652 0.174300 0.965547
O O7 0.000000 0.000000 0.000000
O O8 0.875344 0.443328 0.187860
O O9 0.078910 0.564337 0.087629
O O10 0.811058 0.543624 0.902824
O O11 0.080544 0.893910 0.914392
O O12 0.386791 0.690291 0.200499
O O13 0.442552 0.744537 0.371737
O O14 0.677802 0.101531 0.122478
O O15 0.389047 0.011214 0.041300
O O16 0.660023 0.648459 0.297526
O O17 0.891197 0.596176 0.547242
#
# Coordination Sequence:
#
# PCOD9078818 Si02
#       8
#     2   2   2   2   2   2   2   2
#     4  11  23  36  56  91 124 154 195 247 297 343
#     4  10  18  36  59  82 114 158 200 233 282 359
#     4   9  18  35  59  84 109 149 196 239 292 341
#     4  10  19  37  60  83 114 156 187 236 304 346
#     4   9  18  35  61  81 113 149 190 246 293 344
#     4  11  20  39  59  84 120 156 196 232 291 367
#     4  10  19  35  57  81 113 158 192 229 294 353
#     4  10  19  35  59  85 111 151 198 235 283 358
#
# _framework density 20.552655999999999
#
# number of rings (size 3 to 8) (size 9 to 14) (size 15 to 20)
#    0.000    2.000    5.000    3.000    1.750    0.000 
#    0.000   12.500    0.000    0.000    0.000    0.000 
#    0.000    0.000    0.000    0.000    0.000    0.000 
#
# Total GULP energy -89136.315645 kJ/mol
# GULP energy per Si atom -5571.019728 kJ/mol
# Density = 2.050588 g / cm^3
# Si number density = 20.552656 Si / 1000 Ang^3
#
#
#
# Elastic Constant Matrix: (Units=GPa)
#
#
# Indices 1 2 3 4 5 6 
#
# 1 65.3759 7.8735 47.7244 8.4170 -28.8976 -0.6729
# 2 7.8735 48.0015 17.7195 10.0304 -8.9607 -4.7787
# 3 47.7244 17.7195 141.1232 -1.1587 -16.4477 -1.8837
# 4 8.4170 10.0304 -1.1587 20.5113 6.1108 -5.7163
# 5 -28.8976 -8.9607 -16.4477 6.1108 46.0116 0.7477
# 6 -0.6729 -4.7787 -1.8837 -5.7163 0.7477 21.2053
#
#
#
# Elastic Compliance Matrix: (Units=1/GPa)
#
#
# Indices 1 2 3 4 5 6 
#
# 1 0.036919 0.007982 -0.010925 -0.028913 0.024785 -0.006668
# 2 0.007982 0.027796 -0.005033 -0.020492 0.011346 0.000146
# 3 -0.010925 -0.005033 0.010909 0.009777 -0.005278 0.002310
# 4 -0.028913 -0.020492 0.009777 0.085666 -0.030349 0.019496
# 5 0.024785 0.011346 -0.005278 -0.030349 0.041763 -0.006779
# 6 -0.006668 0.000146 0.002310 0.019496 -0.006779 0.052679
#
#
# Mechanical properties :
#
#
# Convention : Reuss Voigt Hill
#
# Bulk Modulus (GPa) = 16.75864 44.57058 30.66461
# Shear Modulus (GPa) = 17.14816 29.62454 23.38635
#
# Velocity S-wave (km/s) = 2.89165 3.80069 3.37690
# Velocity P-wave (km/s) = 4.39551 6.40261 5.49154
#
# Compressibility (1/GPa) = 0.05967072
#
# Stress axis : x y z
#
# Youngs Moduli (GPa) = 27.08597 35.97622 91.67127
#
# Poissons Ratio (x) = -0.28715 1.00153
# Poissons Ratio (y) = -0.21619 0.46140
# Poissons Ratio (z) = 0.29592 0.18108
#
# Static dielectric constant tensor:
#      x y z
#    x 2.575800 0.290570 0.046610 
#    y 0.290570 1.910650 0.071930 
#    z 0.046610 0.071930 1.769380 
# 
# From -- ./inp_files/304352.got.cif
#   From: 2010.05.17/outbox.cif.g08.bks.cpg/sg2_153_cif.got.tgz:304352.got - 2010.06.03 11:33:40.
