data_PCOD9078672
_publ_section_title
;
Structure prediction by ZEFSAII (Michael W. Deem and Ramdas Pophale) SiO2 
 PCOD9078672
Probable space group: P -1
;
_chemical_formula_sum "Si O2"
_cell_formula_units_Z 16
_cell_length_a 9.278608
_cell_length_b 11.702540
_cell_length_c 15.722975
_cell_angle_alpha 123.252266
_cell_angle_beta 145.978545
_cell_angle_gamma 60.188309
_cell_volume 795.480233
_symmetry_space_group_name_H-M "P -1"
_symmetry_group_IT_number 2
_symmetry_cell_setting 'triclinic'
loop_
_space_group_symop_operation_xyz
x,y,z
-x,-y,-z
loop_
_atom_site_type_symbol
_atom_site_label
_atom_site_fract_x
_atom_site_fract_y
_atom_site_fract_z
Si Si1 0.489357 0.308665 0.166785
Si Si2 0.238729 0.905752 0.470079
Si Si3 0.239889 0.463311 0.253590
Si Si4 0.265469 0.404983 0.848044
Si Si5 0.283476 0.144582 0.854075
Si Si6 0.878908 0.468361 0.337969
Si Si7 0.350965 0.315898 0.421981
Si Si8 0.154777 0.866769 0.610345
O O1 0.263116 0.383670 0.143576
O O2 0.603607 0.415644 0.202659
O O3 0.720332 0.257961 0.324303
O O4 0.412604 0.184050 0.020496
O O5 0.521827 0.837468 0.562036
O O6 0.179798 0.854551 0.516382
O O7 0.028772 0.840721 0.281601
O O8 0.138091 0.066980 0.485701
O O9 0.319109 0.353558 0.322345
O O10 0.451003 0.575942 0.403833
O O11 0.962473 0.533606 0.175259
O O12 0.351518 0.253759 0.861211
O O13 0.148466 0.413533 0.698721
O O14 0.500000 0.500000 0.000000
O O15 0.322775 0.992621 0.772591
O O16 0.000000 0.500000 0.500000
O O17 0.074544 0.349793 0.343625
#
# Coordination Sequence:
#
# PCOD9078672 Si02
#       8
#     2   2   2   2   2   2   2   2
#     4  12  21  37  56  91 116 149 191 237 291 332
#     4   9  18  36  60  83 103 152 198 236 264 336
#     4  10  20  32  62  79 115 153 187 236 276 351
#     4  11  22  41  55  85 118 150 185 229 302 343
#     4  10  21  36  59  81 116 150 189 240 277 339
#     4  11  24  34  57  87 123 148 178 243 292 338
#     4  10  18  36  55  86 114 149 196 228 285 337
#     4   9  20  35  61  86 105 152 206 231 272 335
#
# _framework density 20.113636
#
# number of rings (size 3 to 8) (size 9 to 14) (size 15 to 20)
#    0.750    1.000    5.000    0.375    1.750    0.500 
#    2.250    0.625    0.000    4.500    0.000    0.000 
#    0.000    0.000    0.000    0.000    0.000    0.000 
#
# Total GULP energy -89146.360705 kJ/mol
# GULP energy per Si atom -5571.647544 kJ/mol
# Density = 2.006786 g / cm^3
# Si number density = 20.113636 Si / 1000 Ang^3
#
#
#
# Elastic Constant Matrix: (Units=GPa)
#
#
# Indices 1 2 3 4 5 6 
#
# 1 75.1667 13.3197 11.3289 -2.8850 -6.6302 -1.4094
# 2 13.3197 53.8240 -9.7202 -15.6825 -0.7120 2.7195
# 3 11.3289 -9.7202 64.5898 0.0279 -15.1750 2.7573
# 4 -2.8850 -15.6825 0.0279 29.8478 4.3817 0.8660
# 5 -6.6302 -0.7120 -15.1750 4.3817 23.3785 -1.0925
# 6 -1.4094 2.7195 2.7573 0.8660 -1.0925 14.5557
#
#
#
# Elastic Compliance Matrix: (Units=1/GPa)
#
#
# Indices 1 2 3 4 5 6 
#
# 1 0.014804 -0.004746 -0.002820 -0.001542 0.002660 0.003146
# 2 -0.004746 0.024661 0.004781 0.012717 -0.000190 -0.006744
# 3 -0.002820 0.004781 0.019639 0.000608 0.011791 -0.004038
# 4 -0.001542 0.012717 0.000608 0.041326 -0.007666 -0.005675
# 5 0.002660 -0.000190 0.011791 -0.007666 0.052729 0.002473
# 6 0.003146 -0.006744 -0.004038 -0.005675 0.002473 0.071554
#
#
# Mechanical properties :
#
#
# Convention : Reuss Voigt Hill
#
# Bulk Modulus (GPa) = 18.67908 24.82635 21.75272
# Shear Modulus (GPa) = 20.15116 25.46656 22.80886
#
# Velocity S-wave (km/s) = 3.16866 3.56214 3.37114
# Velocity P-wave (km/s) = 4.76384 5.41186 5.09816
#
# Compressibility (1/GPa) = 0.05353582
#
# Stress axis : x y z
#
# Youngs Moduli (GPa) = 67.54900 40.55053 50.91979
#
# Poissons Ratio (x) = 0.19244 0.14357
# Poissons Ratio (y) = 0.32056 -0.24346
# Poissons Ratio (z) = 0.19045 -0.19389
#
# Static dielectric constant tensor:
#      x y z
#    x 1.695510 -0.018120 -0.002320 
#    y -0.018120 1.750300 -0.014070 
#    z -0.002320 -0.014070 1.740350 
# 
# From -- ./inp_files/334612.got.cif
#   From: 2010.05.17/outbox.cif.g08.bks.cpg/sg2_168_cif.got.tgz:334612.got - 2010.06.03 11:33:40.
