data_PCOD9078933
_publ_section_title
;
Structure prediction by ZEFSAII (Michael W. Deem and Ramdas Pophale) SiO2 
 PCOD9078933
Probable space group: P -1
;
_chemical_formula_sum "Si O2"
_cell_formula_units_Z 14
_cell_length_a 18.379022
_cell_length_b 8.598137
_cell_length_c 11.014604
_cell_angle_alpha 135.707907
_cell_angle_beta 29.652681
_cell_angle_gamma 135.485258
_cell_volume 580.103306
_symmetry_space_group_name_H-M "P -1"
_symmetry_group_IT_number 2
_symmetry_cell_setting 'triclinic'
loop_
_space_group_symop_operation_xyz
x,y,z
-x,-y,-z
loop_
_atom_site_type_symbol
_atom_site_label
_atom_site_fract_x
_atom_site_fract_y
_atom_site_fract_z
Si Si1 0.568697 0.917799 0.233841
Si Si2 0.329534 0.824296 0.002726
Si Si3 0.045293 0.457044 0.239329
Si Si4 0.092289 0.332361 0.829046
Si Si5 0.844833 0.888613 0.953712
Si Si6 0.270717 0.841293 0.504642
Si Si7 0.615555 0.787726 0.669154
O O1 0.706134 0.818161 0.021904
O O2 0.421165 0.775544 0.295694
O O3 0.500000 0.000000 0.500000
O O4 0.642034 0.129113 0.154367
O O5 0.443661 0.679425 0.809656
O O6 0.153974 0.712366 0.224195
O O7 0.385059 0.066321 0.127133
O O8 0.863806 0.381538 0.457097
O O9 0.090077 0.357821 0.991513
O O10 0.098780 0.320270 0.192984
O O11 0.268971 0.367358 0.560805
O O12 0.000000 0.500000 0.000000
O O13 0.991233 0.078992 0.797749
O O14 0.786788 0.020126 0.224859
O O15 0.310939 0.022113 0.435691
#
# Coordination Sequence:
#
# PCOD9078933 Si02
#       7
#     2   2   2   2   2   2   2
#     4   9  19  37  60  87 119 167 201 254 307 363
#     4  10  23  38  64  92 124 162 209 253 314 374
#     4  11  20  37  61  96 118 155 217 257 301 369
#     4  11  21  37  63  92 124 164 212 256 302 364
#     4  10  18  36  60  89 126 154 205 262 304 356
#     4   9  17  36  61  83 123 164 197 251 316 352
#     4  10  20  42  61  87 130 166 199 257 316 365
#
# _framework density 24.133631000000001
#
# number of rings (size 3 to 8) (size 9 to 14) (size 15 to 20)
#    0.000    2.000    2.857    1.714    0.000    1.143 
#   10.286    2.857    3.143    2.571    0.000    0.000 
#    0.000    0.000    0.000    0.000    0.000    0.000 
#
# Total GULP energy -78253.291093 kJ/mol
# GULP energy per Si atom -5589.520792 kJ/mol
# Density = 2.407870 g / cm^3
# Si number density = 24.133631 Si / 1000 Ang^3
#
#
#
# Elastic Constant Matrix: (Units=GPa)
#
#
# Indices 1 2 3 4 5 6 
#
# 1 136.4236 44.4597 54.6738 -4.2230 -40.9230 3.0495
# 2 44.4597 68.3538 28.1408 -24.5416 -9.1060 1.7946
# 3 54.6738 28.1408 80.3049 1.7493 -21.3663 8.7628
# 4 -4.2230 -24.5416 1.7493 27.7947 1.5814 -9.4983
# 5 -40.9230 -9.1060 -21.3663 1.5814 43.8049 -4.7272
# 6 3.0495 1.7946 8.7628 -9.4983 -4.7272 24.7933
#
#
#
# Elastic Compliance Matrix: (Units=1/GPa)
#
#
# Indices 1 2 3 4 5 6 
#
# 1 0.014592 -0.008363 -0.004230 -0.005424 0.010041 0.000142
# 2 -0.008363 0.037322 -0.011353 0.038148 -0.005247 0.015953
# 3 -0.004230 -0.011353 0.021957 -0.016352 0.003696 -0.011978
# 4 -0.005424 0.038148 -0.016352 0.081798 -0.004376 0.034188
# 5 0.010041 -0.005247 0.003696 -0.004376 0.033351 0.002521
# 6 0.000142 0.015953 -0.011978 0.034188 0.002521 0.056973
#
#
# Mechanical properties :
#
#
# Convention : Reuss Voigt Hill
#
# Bulk Modulus (GPa) = 38.49099 59.95899 49.22499
# Shear Modulus (GPa) = 16.52658 29.79911 23.16284
#
# Velocity S-wave (km/s) = 2.61970 3.51772 3.10138
# Velocity P-wave (km/s) = 5.01340 6.43410 5.76766
#
# Compressibility (1/GPa) = 0.02598010
#
# Stress axis : x y z
#
# Youngs Moduli (GPa) = 68.53234 26.79401 45.54347
#
# Poissons Ratio (x) = 0.22408 0.19263
# Poissons Ratio (y) = 0.57314 0.51704
# Poissons Ratio (z) = 0.28986 0.30418
#
# Static dielectric constant tensor:
#      x y z
#    x 1.911030 0.007300 -0.010430 
#    y 0.007300 1.937580 -0.022470 
#    z -0.010430 -0.022470 1.951750 
# 
# From -- ./inp_files/171291.got.cif
#   From: 2010.05.17/outbox.cif.g08.bks.cpg/sg2_86_cif.got.tgz:171291.got - 2010.06.03 11:33:40.
