data_PCOD9078500
_publ_section_title
;
Structure prediction by ZEFSAII (Michael W. Deem and Ramdas Pophale) SiO2 
 PCOD9078500
Probable space group: P -1
;
_chemical_formula_sum "Si O2"
_cell_formula_units_Z 14
_cell_length_a 15.301979
_cell_length_b 8.540067
_cell_length_c 12.315965
_cell_angle_alpha 137.301293
_cell_angle_beta 40.990852
_cell_angle_gamma 148.019937
_cell_volume 537.962156
_symmetry_space_group_name_H-M "P -1"
_symmetry_group_IT_number 2
_symmetry_cell_setting 'triclinic'
loop_
_space_group_symop_operation_xyz
x,y,z
-x,-y,-z
loop_
_atom_site_type_symbol
_atom_site_label
_atom_site_fract_x
_atom_site_fract_y
_atom_site_fract_z
Si Si1 0.592264 0.574114 0.292412
Si Si2 0.849494 0.479004 0.769059
Si Si3 0.109760 0.854914 0.110600
Si Si4 0.374250 0.750211 0.584053
Si Si5 0.449241 0.985984 0.882427
Si Si6 0.851952 0.099277 0.144976
Si Si7 0.895179 0.043684 0.418522
O O1 0.413071 0.522581 0.431007
O O2 0.564594 0.270009 0.170108
O O3 0.710417 0.807830 0.202994
O O4 0.715383 0.781797 0.386921
O O5 0.858100 0.209745 0.619120
O O6 0.952168 0.693916 0.885947
O O7 0.964095 0.693034 0.667241
O O8 0.644969 0.308661 0.870498
O O9 0.290304 0.976585 0.058819
O O10 0.161332 0.000615 0.015748
O O11 0.987549 0.913466 0.305893
O O12 0.000000 0.500000 0.000000
O O13 0.423891 0.892793 0.731120
O O14 0.193361 0.678270 0.693385
O O15 0.500000 0.000000 0.500000
#
# Coordination Sequence:
#
# PCOD9078500 Si02
#       7
#     2   2   2   2   2   2   2
#     4  10  18  35  63  93 116 167 217 254 294 381
#     4  10  22  39  66  97 125 162 207 270 314 364
#     4  11  23  43  67  91 125 173 212 253 310 390
#     4   9  18  33  58  91 121 161 212 256 291 377
#     4  11  21  37  67  91 124 165 218 251 316 372
#     4   9  22  40  64  92 127 162 214 259 317 367
#     4  10  21  39  65  91 129 162 208 250 327 364
#
# _framework density 26.024135999999999
#
# number of rings (size 3 to 8) (size 9 to 14) (size 15 to 20)
#    0.000    2.000    2.857    0.429    2.000    2.857 
#    0.000    3.571    3.143    0.000    0.000    0.000 
#    0.000    0.000    0.000    0.000    0.000    0.000 
#
# Total GULP energy -78430.823826 kJ/mol
# GULP energy per Si atom -5602.201702 kJ/mol
# Density = 2.596490 g / cm^3
# Si number density = 26.024136 Si / 1000 Ang^3
#
#
#
# Elastic Constant Matrix: (Units=GPa)
#
#
# Indices 1 2 3 4 5 6 
#
# 1 108.6629 31.2787 40.7405 5.2982 -36.9384 8.1915
# 2 31.2787 105.4663 7.1120 7.2989 -2.4864 -9.9340
# 3 40.7405 7.1120 104.5366 19.6795 -43.8295 -5.6759
# 4 5.2982 7.2989 19.6795 41.6319 -11.3331 1.6068
# 5 -36.9384 -2.4864 -43.8295 -11.3331 55.4966 -12.7331
# 6 8.1915 -9.9340 -5.6759 1.6068 -12.7331 53.8010
#
#
#
# Elastic Compliance Matrix: (Units=1/GPa)
#
#
# Indices 1 2 3 4 5 6 
#
# 1 0.013729 -0.004023 -0.002652 0.002164 0.006954 -0.001532
# 2 -0.004023 0.010975 0.000753 -0.002269 -0.001497 0.002432
# 3 -0.002652 0.000753 0.016565 -0.004671 0.011584 0.005171
# 4 0.002164 -0.002269 -0.004671 0.027190 0.002887 -0.001370
# 5 0.006954 -0.001497 0.011584 0.002887 0.034126 0.007877
# 6 -0.001532 0.002432 0.005171 -0.001370 0.007877 0.021720
#
#
# Mechanical properties :
#
#
# Convention : Reuss Voigt Hill
#
# Bulk Modulus (GPa) = 33.98413 52.99200 43.48807
# Shear Modulus (GPa) = 34.25669 46.15486 40.20578
#
# Velocity S-wave (km/s) = 3.63208 4.21591 3.93484
# Velocity P-wave (km/s) = 5.53863 6.64119 6.11481
#
# Compressibility (1/GPa) = 0.02942550
#
# Stress axis : x y z
#
# Youngs Moduli (GPa) = 72.83981 91.11743 60.36698
#
# Poissons Ratio (x) = 0.36655 0.16008
# Poissons Ratio (y) = 0.29303 -0.04545
# Poissons Ratio (z) = 0.19315 -0.06860
#
# Static dielectric constant tensor:
#      x y z
#    x 2.035950 -0.071230 -0.032110 
#    y -0.071230 2.042350 -0.014420 
#    z -0.032110 -0.014420 2.064400 
# 
# From -- ./inp_files/197554.got.cif
#   From: 2010.05.17/outbox.cif.g08.bks.cpg/sg2_99_cif.got.tgz:197554.got - 2010.06.03 11:33:40.
