data_PCOD9078353
_publ_section_title
;
Structure prediction by ZEFSAII (Michael W. Deem and Ramdas Pophale) SiO2 
 PCOD9078353
Probable space group: P -1
;
_chemical_formula_sum "Si O2"
_cell_formula_units_Z 14
_cell_length_a 11.521438
_cell_length_b 18.048932
_cell_length_c 14.583531
_cell_angle_alpha 32.983140
_cell_angle_beta 30.233900
_cell_angle_gamma 54.244861
_cell_volume 713.969489
_symmetry_space_group_name_H-M "P -1"
_symmetry_group_IT_number 2
_symmetry_cell_setting 'triclinic'
loop_
_space_group_symop_operation_xyz
x,y,z
-x,-y,-z
loop_
_atom_site_type_symbol
_atom_site_label
_atom_site_fract_x
_atom_site_fract_y
_atom_site_fract_z
Si Si1 0.385915 0.779315 0.721490
Si Si2 0.319955 0.201899 0.687858
Si Si3 0.453877 0.290155 0.775978
Si Si4 0.828004 0.328096 0.337227
Si Si5 0.222684 0.421793 0.644228
Si Si6 0.057432 0.942285 0.425466
Si Si7 0.786710 0.958399 0.410104
O O1 0.569051 0.792311 0.495877
O O2 0.557298 0.810613 0.664305
O O3 0.321279 0.922475 0.615950
O O4 0.086687 0.625609 0.089703
O O5 0.563547 0.228504 0.559184
O O6 0.269921 0.344385 0.602074
O O7 0.044196 0.049371 0.070888
O O8 0.738512 0.362128 0.459018
O O9 0.274212 0.333425 0.788028
O O10 0.539890 0.395127 0.699615
O O11 0.338158 0.103751 0.045716
O O12 0.948987 0.217848 0.383500
O O13 0.000000 0.500000 0.000000
O O14 0.875799 0.920943 0.484078
O O15 0.000000 0.000000 0.500000
#
# Coordination Sequence:
#
# PCOD9078353 Si02
#       7
#     2   2   2   2   2   2   2
#     4  10  18  35  61  90 121 165 205 245 305 371
#     4  10  19  34  60  87 120 157 207 244 306 364
#     4  10  20  38  58  87 127 154 198 257 305 362
#     4  11  23  36  62  90 122 161 203 251 320 367
#     4   9  19  34  60  89 121 154 203 248 299 360
#     4  12  24  38  60  93 126 159 204 258 308 360
#     4  10  21  37  55  91 126 160 205 255 298 363
#
# _framework density 19.60868
#
# number of rings (size 3 to 8) (size 9 to 14) (size 15 to 20)
#    0.000    1.714    4.286    2.571    6.000    0.000 
#    0.000    0.000    0.000    4.286    0.000    0.000 
#    0.000    0.000    0.000    0.000    0.000    0.000 
#
# Total GULP energy -77973.555359 kJ/mol
# GULP energy per Si atom -5569.539669 kJ/mol
# Density = 1.956405 g / cm^3
# Si number density = 19.608680 Si / 1000 Ang^3
#
#
#
# Elastic Constant Matrix: (Units=GPa)
#
#
# Indices 1 2 3 4 5 6 
#
# 1 106.2453 51.0858 52.3910 0.8783 -19.5497 12.6409
# 2 51.0858 84.5755 48.0010 10.3802 1.0292 5.4679
# 3 52.3910 48.0010 89.2621 1.1047 -10.6988 -5.1216
# 4 0.8783 10.3802 1.1047 35.6800 4.3027 8.9363
# 5 -19.5497 1.0292 -10.6988 4.3027 30.2435 -3.0918
# 6 12.6409 5.4679 -5.1216 8.9363 -3.0918 26.7648
#
#
#
# Elastic Compliance Matrix: (Units=1/GPa)
#
#
# Indices 1 2 3 4 5 6 
#
# 1 0.018922 -0.007715 -0.006419 0.003051 0.008912 -0.008579
# 2 -0.007715 0.021989 -0.008338 -0.004479 -0.008242 -0.001901
# 3 -0.006419 -0.008338 0.020554 -0.000981 0.004518 0.009518
# 4 0.003051 -0.004479 -0.000981 0.032827 -0.004135 -0.012152
# 5 0.008912 -0.008242 0.004518 -0.004135 0.041757 0.004543
# 6 -0.008579 -0.001901 0.009518 -0.012152 0.004543 0.048206
#
#
# Mechanical properties :
#
#
# Convention : Reuss Voigt Hill
#
# Bulk Modulus (GPa) = 60.52767 64.78207 62.65487
# Shear Modulus (GPa) = 21.30312 27.11133 24.20723
#
# Velocity S-wave (km/s) = 3.29965 3.72239 3.51738
# Velocity P-wave (km/s) = 6.74179 7.18221 6.96548
#
# Compressibility (1/GPa) = 0.01652137
#
# Stress axis : x y z
#
# Youngs Moduli (GPa) = 52.84735 45.47782 48.65155
#
# Poissons Ratio (x) = 0.35084 0.31232
# Poissons Ratio (y) = 0.40770 0.40566
# Poissons Ratio (z) = 0.33925 0.37920
#
# Static dielectric constant tensor:
#      x y z
#    x 1.707050 0.041950 -0.006720 
#    y 0.041950 1.755980 0.050640 
#    z -0.006720 0.050640 1.678080 
# 
# From -- ./inp_files/523195.got.cif
#   From: 2010.05.17/outbox.cif.g08.bks.cpg/sg2_262_cif.got.tgz:523195.got - 2010.06.03 11:33:40.
