data_PCOD9078622
_publ_section_title
;
Structure prediction by ZEFSAII (Michael W. Deem and Ramdas Pophale) SiO2 
 PCOD9078622
Probable space group: P -1
;
_chemical_formula_sum "Si O2"
_cell_formula_units_Z 14
_cell_length_a 8.312120
_cell_length_b 11.622062
_cell_length_c 7.806706
_cell_angle_alpha 98.329105
_cell_angle_beta 88.686548
_cell_angle_gamma 52.156918
_cell_volume 583.210472
_symmetry_space_group_name_H-M "P -1"
_symmetry_group_IT_number 2
_symmetry_cell_setting 'triclinic'
loop_
_space_group_symop_operation_xyz
x,y,z
-x,-y,-z
loop_
_atom_site_type_symbol
_atom_site_label
_atom_site_fract_x
_atom_site_fract_y
_atom_site_fract_z
Si Si1 0.752043 0.866117 0.128502
Si Si2 0.631349 0.994412 0.646948
Si Si3 0.623851 0.182656 0.209304
Si Si4 0.838680 0.712918 0.737809
Si Si5 0.433218 0.655657 0.102588
Si Si6 0.215722 0.836261 0.448247
Si Si7 0.140907 0.415939 0.811515
O O1 0.836996 0.733400 0.234799
O O2 0.506706 0.950260 0.167023
O O3 0.757466 0.002332 0.179320
O O4 0.846842 0.779110 0.931660
O O5 0.828303 0.824199 0.629871
O O6 0.500000 0.000000 0.500000
O O7 0.658023 0.112792 0.621388
O O8 0.383009 0.253893 0.255642
O O9 0.698691 0.226573 0.377562
O O10 0.645114 0.235037 0.036615
O O11 0.022612 0.538547 0.692842
O O12 0.263071 0.722404 0.273286
O O13 0.642203 0.621344 0.160952
O O14 0.500000 0.500000 0.000000
O O15 0.000000 0.000000 0.500000
O O16 0.000000 0.500000 0.000000
#
# Coordination Sequence:
#
# PCOD9078622 Si02
#       7
#     2   2   2   2   2   2   2
#     4  10  18  35  70  99 129 170 229 290 344 405
#     4  11  19  38  65  94 131 173 225 292 341 396
#     4  11  22  44  73 101 137 184 231 298 355 404
#     4  10  19  35  67 104 131 173 225 288 357 410
#     4  12  27  48  70 100 151 191 226 290 358 421
#     4  12  27  45  69 104 139 188 246 283 337 431
#     4  10  20  37  69 104 133 176 234 283 348 423
#
# _framework density 24.005053
#
# number of rings (size 3 to 8) (size 9 to 14) (size 15 to 20)
#    0.000    1.143    7.143    2.571    0.000    4.571 
#    0.000    2.857    0.000    0.000    0.000    0.000 
#    0.000    0.000    0.000    0.000    0.000    0.000 
#
# Total GULP energy -78141.282087 kJ/mol
# GULP energy per Si atom -5581.520149 kJ/mol
# Density = 2.395042 g / cm^3
# Si number density = 24.005053 Si / 1000 Ang^3
#
#
#
# Elastic Constant Matrix: (Units=GPa)
#
#
# Indices 1 2 3 4 5 6 
#
# 1 32.9404 8.7568 17.2423 17.4774 4.5189 -8.4497
# 2 8.7568 194.0194 45.4349 2.2028 21.3367 1.3469
# 3 17.2423 45.4349 130.3268 11.6526 13.7242 -11.1666
# 4 17.4774 2.2028 11.6526 38.4517 -6.5952 0.3847
# 5 4.5189 21.3367 13.7242 -6.5952 14.2874 6.5832
# 6 -8.4497 1.3469 -11.1666 0.3847 6.5832 30.4344
#
#
#
# Elastic Compliance Matrix: (Units=1/GPa)
#
#
# Indices 1 2 3 4 5 6 
#
# 1 0.070512 0.003839 0.003895 -0.045774 -0.069722 0.036496
# 2 0.003839 0.006741 -0.000616 -0.004463 -0.014467 0.003727
# 3 0.003895 -0.000616 0.010919 -0.008391 -0.018971 0.009325
# 4 -0.045774 -0.004463 -0.008391 0.062423 0.072823 -0.032131
# 5 -0.069722 -0.014467 -0.018971 0.072823 0.197420 -0.069301
# 6 0.036496 0.003727 0.009325 -0.032131 -0.069301 0.061643
#
#
# Mechanical properties :
#
#
# Convention : Reuss Voigt Hill
#
# Bulk Modulus (GPa) = 9.76488 55.57272 32.66880
# Shear Modulus (GPa) = 11.63989 35.69154 23.66572
#
# Velocity S-wave (km/s) = 2.20442 3.86013 3.14325
# Velocity P-wave (km/s) = 3.24899 6.56264 5.17804
#
# Compressibility (1/GPa) = 0.10240779
#
# Stress axis : x y z
#
# Youngs Moduli (GPa) = 14.18205 148.34881 91.57957
#
# Poissons Ratio (x) = -0.56956 -0.35667
# Poissons Ratio (y) = -0.05445 0.05642
# Poissons Ratio (z) = -0.05523 0.09140
#
# Static dielectric constant tensor:
#      x y z
#    x 1.978600 -0.058210 0.010770 
#    y -0.058210 2.011950 -0.003160 
#    z 0.010770 -0.003160 2.145440 
# 
# From -- ./inp_files/188518.got.cif
#   From: 2010.05.17/outbox.cif.g08.bks.cpg/sg2_95_cif.got.tgz:188518.got - 2010.06.03 11:33:40.
