data_PCOD9078641
_publ_section_title
;
Structure prediction by ZEFSAII (Michael W. Deem and Ramdas Pophale) SiO2 
 PCOD9078641
Probable space group: P -1
;
_chemical_formula_sum "Si O2"
_cell_formula_units_Z 16
_cell_length_a 11.325926
_cell_length_b 10.289466
_cell_length_c 9.510573
_cell_angle_alpha 107.027691
_cell_angle_beta 117.396405
_cell_angle_gamma 120.867289
_cell_volume 608.105554
_symmetry_space_group_name_H-M "P -1"
_symmetry_group_IT_number 2
_symmetry_cell_setting 'triclinic'
loop_
_space_group_symop_operation_xyz
x,y,z
-x,-y,-z
loop_
_atom_site_type_symbol
_atom_site_label
_atom_site_fract_x
_atom_site_fract_y
_atom_site_fract_z
Si Si1 0.281869 0.580195 0.452715
Si Si2 0.938171 0.868855 0.784952
Si Si3 0.117483 0.884080 0.227115
Si Si4 0.322746 0.996923 0.073269
Si Si5 0.680179 0.422313 0.832824
Si Si6 0.332079 0.281045 0.756849
Si Si7 0.062793 0.827557 0.491362
Si Si8 0.142184 0.591771 0.799921
O O1 0.235930 0.382692 0.381444
O O2 0.360672 0.679158 0.370446
O O3 0.062784 0.481917 0.305945
O O4 0.451781 0.763549 0.714188
O O5 0.875633 0.949261 0.684954
O O6 0.149193 0.956234 0.894397
O O7 0.000000 0.000000 0.000000
O O8 0.241780 0.929483 0.173090
O O9 0.141950 0.840993 0.382406
O O10 0.880456 0.669195 0.992889
O O11 0.304183 0.838101 0.935223
O O12 0.481219 0.353071 0.735155
O O13 0.751577 0.391732 0.997650
O O14 0.133757 0.224631 0.626971
O O15 0.251295 0.074497 0.711351
O O16 0.500000 0.500000 0.000000
O O17 0.949662 0.600598 0.409739
#
# Coordination Sequence:
#
# PCOD9078641 Si02
#       8
#     2   2   2   2   2   2   2   2
#     4  11  21  33  52  81 113 147 178 206 265 319
#     4   9  18  35  50  73 113 145 176 222 250 309
#     4  10  18  36  53  77 115 141 175 223 258 311
#     4  10  21  33  51  79 112 147 177 209 260 319
#     4  11  20  34  54  79 111 143 173 218 268 315
#     4  11  21  38  54  78 111 136 178 222 265 318
#     4  10  23  36  56  82 107 138 177 219 270 317
#     4  10  21  34  51  78 114 143 174 212 263 323
#
# _framework density 26.311222999999998
#
# number of rings (size 3 to 8) (size 9 to 14) (size 15 to 20)
#    0.000    1.750    6.250    1.125    3.500    2.500 
#    2.250    0.000    0.000    0.000    0.000   28.000 
#    0.000    0.000    0.000    0.000    0.000    0.000 
#
# Total GULP energy -89221.440981 kJ/mol
# GULP energy per Si atom -5576.340061 kJ/mol
# Density = 2.625134 g / cm^3
# Si number density = 26.311223 Si / 1000 Ang^3
#
#
#
# Elastic Constant Matrix: (Units=GPa)
#
#
# Indices 1 2 3 4 5 6 
#
# 1 94.9216 26.5510 22.7436 19.6102 -9.9342 1.8018
# 2 26.5510 44.6134 19.6202 20.6943 -16.1568 -13.2523
# 3 22.7436 19.6202 195.9035 53.5671 -8.9699 -16.4374
# 4 19.6102 20.6943 53.5671 40.6784 -9.4003 -14.4571
# 5 -9.9342 -16.1568 -8.9699 -9.4003 37.9453 13.6827
# 6 1.8018 -13.2523 -16.4374 -14.4571 13.6827 51.7866
#
#
#
# Elastic Compliance Matrix: (Units=1/GPa)
#
#
# Indices 1 2 3 4 5 6 
#
# 1 0.013458 -0.006878 -0.000038 -0.004011 0.000888 -0.003595
# 2 -0.006878 0.036871 0.001741 -0.014216 0.009430 0.003767
# 3 -0.000038 0.001741 0.008090 -0.011626 -0.000169 -0.000186
# 4 -0.004011 -0.014216 -0.011626 0.051684 0.000378 0.007140
# 5 0.000888 0.009430 -0.000169 0.000378 0.032913 -0.006262
# 6 -0.003595 0.003767 -0.000186 0.007140 -0.006262 0.023988
#
#
# Mechanical properties :
#
#
# Convention : Reuss Voigt Hill
#
# Bulk Modulus (GPa) = 20.80333 52.58536 36.69434
# Shear Modulus (GPa) = 25.85624 43.85032 34.85328
#
# Velocity S-wave (km/s) = 3.13822 4.08683 3.64353
# Velocity P-wave (km/s) = 4.58857 6.50376 5.62823
#
# Compressibility (1/GPa) = 0.04806924
#
# Stress axis : x y z
#
# Youngs Moduli (GPa) = 74.30588 27.12162 123.60516
#
# Poissons Ratio (x) = 0.18655 0.00465
# Poissons Ratio (y) = 0.51109 -0.21517
# Poissons Ratio (z) = 0.00280 -0.04721
#
# Static dielectric constant tensor:
#      x y z
#    x 1.917340 0.131450 -0.055420 
#    y 0.131450 2.456280 -0.131970 
#    z -0.055420 -0.131970 2.086680 
# 
# From -- ./inp_files/519054.got.cif
#   From: 2010.05.17/outbox.cif.g08.bks.cpg/sg2_260_cif.got.tgz:519054.got - 2010.06.03 11:33:40.
