data_PCOD9078399
_publ_section_title
;
Structure prediction by ZEFSAII (Michael W. Deem and Ramdas Pophale) SiO2 
 PCOD9078399
Probable space group: P -1
;
_chemical_formula_sum "Si O2"
_cell_formula_units_Z 16
_cell_length_a 15.853864
_cell_length_b 8.415100
_cell_length_c 14.635572
_cell_angle_alpha 63.390356
_cell_angle_beta 144.671130
_cell_angle_gamma 90.892423
_cell_volume 743.287268
_symmetry_space_group_name_H-M "P -1"
_symmetry_group_IT_number 2
_symmetry_cell_setting 'triclinic'
loop_
_space_group_symop_operation_xyz
x,y,z
-x,-y,-z
loop_
_atom_site_type_symbol
_atom_site_label
_atom_site_fract_x
_atom_site_fract_y
_atom_site_fract_z
Si Si1 0.549110 0.244119 0.868300
Si Si2 0.828441 0.134523 0.888399
Si Si3 0.799468 0.707031 0.167334
Si Si4 0.805275 0.422437 0.392271
Si Si5 0.938892 0.105293 0.198343
Si Si6 0.381559 0.063364 0.245753
Si Si7 0.066431 0.485503 0.958918
Si Si8 0.706717 0.587890 0.582551
O O1 0.397065 0.394287 0.777426
O O2 0.421924 0.360188 0.632170
O O3 0.728198 0.237554 0.025488
O O4 0.659740 0.961960 0.033732
O O5 0.718509 0.412897 0.706799
O O6 0.692989 0.076319 0.767757
O O7 0.914502 0.051490 0.087314
O O8 0.000000 0.000000 0.000000
O O9 0.785396 0.527779 0.248452
O O10 0.021778 0.600656 0.401025
O O11 0.723161 0.774489 0.979542
O O12 0.890621 0.152313 0.537942
O O13 0.975320 0.282555 0.171781
O O14 0.607382 0.843850 0.474441
O O15 0.296362 0.250719 0.204039
O O16 0.929070 0.462216 0.786499
O O17 0.000000 0.500000 0.000000
#
# Coordination Sequence:
#
# PCOD9078399 Si02
#       8
#     2   2   2   2   2   2   2   2
#     4  10  20  36  62  90 117 150 198 243 287 352
#     4  12  19  37  61  84 117 155 196 240 282 347
#     4   9  19  35  59  94 114 146 199 250 284 349
#     4  10  18  35  62  86 120 151 190 247 303 329
#     4  11  23  39  55  91 121 148 202 242 289 354
#     4  11  22  39  60  85 121 153 198 244 286 351
#     4  12  25  41  56  86 126 157 193 242 298 350
#     4  11  22  36  62  86 115 160 196 233 294 349
#
# _framework density 21.525998000000001
#
# number of rings (size 3 to 8) (size 9 to 14) (size 15 to 20)
#    0.000    1.250    6.250    2.250    0.000    1.500 
#    0.000    0.625    0.000    3.750    0.000    0.000 
#    0.000    0.000    0.000    0.000    0.000    0.000 
#
# Total GULP energy -89396.968386 kJ/mol
# GULP energy per Si atom -5587.310524 kJ/mol
# Density = 2.147700 g / cm^3
# Si number density = 21.525998 Si / 1000 Ang^3
#
#
#
# Elastic Constant Matrix: (Units=GPa)
#
#
# Indices 1 2 3 4 5 6 
#
# 1 125.1722 31.2758 49.0447 -27.2614 5.6560 13.0674
# 2 31.2758 54.9033 11.6918 -22.5684 -3.3738 21.7090
# 3 49.0447 11.6918 79.4566 -21.8831 7.5027 5.6064
# 4 -27.2614 -22.5684 -21.8831 30.1380 2.8177 -3.7650
# 5 5.6560 -3.3738 7.5027 2.8177 39.7687 -13.5819
# 6 13.0674 21.7090 5.6064 -3.7650 -13.5819 38.1167
#
#
#
# Elastic Compliance Matrix: (Units=1/GPa)
#
#
# Indices 1 2 3 4 5 6 
#
# 1 0.012240 -0.003417 -0.005528 0.004466 -0.001872 -0.001663
# 2 -0.003417 0.038415 0.006379 0.028282 -0.006719 -0.021246
# 3 -0.005528 0.006379 0.019746 0.013957 -0.005125 -0.005090
# 4 0.004466 0.028282 0.013957 0.067469 -0.011498 -0.017124
# 5 -0.001872 -0.006719 -0.005125 -0.011498 0.031901 0.015453
# 6 -0.001663 -0.021246 -0.005090 -0.017124 0.015453 0.043470
#
#
# Mechanical properties :
#
#
# Convention : Reuss Voigt Hill
#
# Bulk Modulus (GPa) = 15.32117 49.28405 32.30261
# Shear Modulus (GPa) = 20.82218 32.77266 26.79742
#
# Velocity S-wave (km/s) = 3.11352 3.90612 3.53212
# Velocity P-wave (km/s) = 4.47865 6.57940 5.62791
#
# Compressibility (1/GPa) = 0.06526919
#
# Stress axis : x y z
#
# Youngs Moduli (GPa) = 81.70227 26.03128 50.64304
#
# Poissons Ratio (x) = 0.08894 0.27995
# Poissons Ratio (y) = 0.27916 -0.32305
# Poissons Ratio (z) = 0.45165 -0.16605
#
# Static dielectric constant tensor:
#      x y z
#    x 1.766590 -0.018130 0.012000 
#    y -0.018130 1.800590 -0.029200 
#    z 0.012000 -0.029200 1.827570 
# 
# From -- ./inp_files/457483.got.cif
#   From: 2010.05.17/outbox.cif.g08.bks.cpg/sg2_229_cif.got.tgz:457483.got - 2010.06.03 11:33:40.
