data_PCOD9078735
_publ_section_title
;
Structure prediction by ZEFSAII (Michael W. Deem and Ramdas Pophale) SiO2 
 PCOD9078735
Probable space group: P -1
;
_chemical_formula_sum "Si O2"
_cell_formula_units_Z 16
_cell_length_a 14.324331
_cell_length_b 11.402716
_cell_length_c 13.117052
_cell_angle_alpha 122.973104
_cell_angle_beta 150.074712
_cell_angle_gamma 45.170587
_cell_volume 744.403083
_symmetry_space_group_name_H-M "P -1"
_symmetry_group_IT_number 2
_symmetry_cell_setting 'triclinic'
loop_
_space_group_symop_operation_xyz
x,y,z
-x,-y,-z
loop_
_atom_site_type_symbol
_atom_site_label
_atom_site_fract_x
_atom_site_fract_y
_atom_site_fract_z
Si Si1 0.886918 0.323568 0.259808
Si Si2 0.599702 0.820877 0.311233
Si Si3 0.643097 0.631988 0.877281
Si Si4 0.151115 0.948666 0.019100
Si Si5 0.159999 0.718649 0.209675
Si Si6 0.528504 0.337865 0.061012
Si Si7 0.091518 0.525522 0.206815
Si Si8 0.504042 0.811043 0.612899
O O1 0.915383 0.159474 0.159753
O O2 0.703062 0.480839 0.092167
O O3 0.127389 0.302416 0.483622
O O4 0.741408 0.345803 0.234402
O O5 0.503607 0.781652 0.101191
O O6 0.555288 0.003958 0.358526
O O7 0.423595 0.834124 0.235379
O O8 0.722114 0.443024 0.829414
O O9 0.554006 0.746535 0.746858
O O10 0.471654 0.702634 0.840764
O O11 0.879544 0.609549 0.119558
O O12 0.081826 0.124131 0.981283
O O13 0.000000 0.000000 0.000000
O O14 0.165249 0.646006 0.292839
O O15 0.300197 0.799992 0.381290
O O16 0.289971 0.336447 0.329398
O O17 0.000000 0.500000 0.000000
#
# Coordination Sequence:
#
# PCOD9078735 Si02
#       8
#     2   2   2   2   2   2   2   2
#     4  10  22  43  60  83 117 158 195 238 297 341
#     4  11  22  41  62  83 120 156 193 234 297 351
#     4  10  19  36  58  88 116 151 200 237 282 349
#     4  11  22  37  62  91 118 150 190 246 290 343
#     4  10  18  36  57  85 124 151 185 239 304 345
#     4  10  23  41  62  81 116 158 200 244 280 340
#     4   8  16  31  55  81 113 152 182 228 293 344
#     4  10  19  35  59  87 118 155 186 238 303 348
#
# _framework density 21.493732999999999
#
# number of rings (size 3 to 8) (size 9 to 14) (size 15 to 20)
#    0.000    2.250    1.250    4.875    0.000    1.000 
#    6.750    0.625    0.000    0.000    0.000    0.000 
#    0.000    0.000    0.000    0.000    0.000    0.000 
#
# Total GULP energy -89133.397470 kJ/mol
# GULP energy per Si atom -5570.837342 kJ/mol
# Density = 2.144481 g / cm^3
# Si number density = 21.493733 Si / 1000 Ang^3
#
#
#
# Elastic Constant Matrix: (Units=GPa)
#
#
# Indices 1 2 3 4 5 6 
#
# 1 78.4864 -9.2199 17.6426 -9.8921 17.6350 -21.0359
# 2 -9.2199 70.1629 6.2704 3.0828 5.1581 2.9367
# 3 17.6426 6.2704 90.9801 -12.0448 36.0524 -10.2731
# 4 -9.8921 3.0828 -12.0448 30.2334 -3.9949 12.1595
# 5 17.6350 5.1581 36.0524 -3.9949 24.3003 -4.7878
# 6 -21.0359 2.9367 -10.2731 12.1595 -4.7878 18.3385
#
#
#
# Elastic Compliance Matrix: (Units=1/GPa)
#
#
# Indices 1 2 3 4 5 6 
#
# 1 0.023543 0.003240 0.007132 -0.003666 -0.023691 0.026728
# 2 0.003240 0.015134 0.001150 -0.001367 -0.007311 0.000936
# 3 0.007132 0.001150 0.029806 0.003930 -0.047063 0.009800
# 4 -0.003666 -0.001367 0.003930 0.046708 -0.001745 -0.033210
# 5 -0.023691 -0.007311 -0.047063 -0.001745 0.125814 -0.018364
# 6 0.026728 0.000936 0.009800 -0.033210 -0.018364 0.107756
#
#
# Mechanical properties :
#
#
# Convention : Reuss Voigt Hill
#
# Bulk Modulus (GPa) = 10.92563 29.89062 20.40812
# Shear Modulus (GPa) = 14.03607 29.57018 21.80313
#
# Velocity S-wave (km/s) = 2.55822 3.71315 3.18841
# Velocity P-wave (km/s) = 3.71755 5.68508 4.80314
#
# Compressibility (1/GPa) = 0.09152789
#
# Stress axis : x y z
#
# Youngs Moduli (GPa) = 42.47510 66.07668 33.55083
#
# Poissons Ratio (x) = -0.21411 -0.23928
# Poissons Ratio (y) = -0.13764 -0.03860
# Poissons Ratio (z) = -0.30292 -0.07602
#
# Static dielectric constant tensor:
#      x y z
#    x 1.889140 0.052990 0.028830 
#    y 0.052990 1.871200 -0.062260 
#    z 0.028830 -0.062260 1.884930 
# 
# From -- ./inp_files/531967.got.cif
#   From: 2010.05.17/outbox.cif.g08.bks.cpg/sg2_266_cif.got.tgz:531967.got - 2010.06.03 11:33:40.
