data_PCOD9078915
_publ_section_title
;
Structure prediction by ZEFSAII (Michael W. Deem and Ramdas Pophale) SiO2 
 PCOD9078915
Probable space group: P -1
;
_chemical_formula_sum "Si O2"
_cell_formula_units_Z 16
_cell_length_a 14.918410
_cell_length_b 9.362752
_cell_length_c 5.121984
_cell_angle_alpha 62.235142
_cell_angle_beta 104.469278
_cell_angle_gamma 85.313933
_cell_volume 596.368835
_symmetry_space_group_name_H-M "P -1"
_symmetry_group_IT_number 2
_symmetry_cell_setting 'triclinic'
loop_
_space_group_symop_operation_xyz
x,y,z
-x,-y,-z
loop_
_atom_site_type_symbol
_atom_site_label
_atom_site_fract_x
_atom_site_fract_y
_atom_site_fract_z
Si Si1 0.235610 0.374991 0.228089
Si Si2 0.066902 0.332810 0.783832
Si Si3 0.125904 0.675343 0.205690
Si Si4 0.441928 0.465608 0.736181
Si Si5 0.897610 0.988801 0.045365
Si Si6 0.720126 0.979834 0.586635
Si Si7 0.439431 0.082225 0.132864
Si Si8 0.721526 0.336286 0.276459
O O1 0.175999 0.492704 0.303542
O O2 0.285877 0.179737 0.461084
O O3 0.159568 0.360627 0.963314
O O4 0.297538 0.500321 0.058321
O O5 0.000000 0.500000 0.500000
O O6 0.986503 0.291525 0.952351
O O7 0.087576 0.197324 0.681544
O O8 0.169247 0.691105 0.515333
O O9 0.146457 0.847699 0.959352
O O10 0.500000 0.500000 0.500000
O O11 0.342159 0.599927 0.570089
O O12 0.500000 0.500000 0.000000
O O13 0.427314 0.279283 0.913681
O O14 0.826736 0.972277 0.770683
O O15 0.000000 0.000000 0.000000
O O16 0.660683 0.957957 0.822905
O O17 0.690781 0.170037 0.302578
O O18 0.500000 0.000000 0.500000
O O19 0.500000 0.000000 0.000000
#
# Coordination Sequence:
#
# PCOD9078915 Si02
#       8
#     2   2   2   2   2   2   2   2
#     4  11  22  40  64  93 130 171 227 279 339 412
#     4  10  18  36  60  87 129 171 216 271 342 404
#     4  10  21  38  63  91 126 174 222 277 336 410
#     4  12  27  48  76 106 144 188 239 301 368 437
#     4   8  18  37  64  88 132 176 217 283 342 415
#     4  10  22  44  64  99 137 180 226 288 351 424
#     4  12  26  49  75 110 148 191 243 304 368 438
#     4  11  23  43  65  93 133 174 223 282 346 416
#
# _framework density 26.829034
#
# number of rings (size 3 to 8) (size 9 to 14) (size 15 to 20)
#    0.000    1.500    2.500    2.625    1.750    1.000 
#    6.750    0.625    0.000    0.000    0.000    0.000 
#    0.000    0.000    0.000    0.000    0.000    0.000 
#
# Total GULP energy -89236.736269 kJ/mol
# GULP energy per Si atom -5577.296017 kJ/mol
# Density = 2.676797 g / cm^3
# Si number density = 26.829034 Si / 1000 Ang^3
#
#
#
# Elastic Constant Matrix: (Units=GPa)
#
#
# Indices 1 2 3 4 5 6 
#
# 1 106.6699 32.9167 18.7249 6.4366 -0.8379 10.9981
# 2 32.9167 254.7086 54.0096 -55.8566 -31.2976 22.2116
# 3 18.7249 54.0096 69.5533 -1.9422 -12.3438 9.0614
# 4 6.4366 -55.8566 -1.9422 52.0474 3.8577 -9.5172
# 5 -0.8379 -31.2976 -12.3438 3.8577 39.4622 -4.9887
# 6 10.9981 22.2116 9.0614 -9.5172 -4.9887 43.9235
#
#
#
# Elastic Compliance Matrix: (Units=1/GPa)
#
#
# Indices 1 2 3 4 5 6 
#
# 1 0.010673 -0.001864 -0.001512 -0.003693 -0.001668 -0.002408
# 2 -0.001864 0.007140 -0.004168 0.007424 0.003559 -0.000271
# 3 -0.001512 -0.004168 0.018630 -0.004145 0.002648 -0.001954
# 4 -0.003693 0.007424 -0.004145 0.028111 0.002319 0.004380
# 5 -0.001668 0.003559 0.002648 0.002319 0.028965 0.001864
# 6 -0.002408 -0.000271 -0.001954 0.004380 0.001864 0.025071
#
#
# Mechanical properties :
#
#
# Convention : Reuss Voigt Hill
#
# Bulk Modulus (GPa) = 46.82541 71.35935 59.09238
# Shear Modulus (GPa) = 35.51247 48.77199 42.14223
#
# Velocity S-wave (km/s) = 3.64216 4.26829 3.96759
# Velocity P-wave (km/s) = 5.93112 7.13769 6.56220
#
# Compressibility (1/GPa) = 0.02135593
#
# Stress axis : x y z
#
# Youngs Moduli (GPa) = 93.69313 140.06172 53.67723
#
# Poissons Ratio (x) = 0.26101 0.08114
# Poissons Ratio (y) = 0.17460 0.22373
# Poissons Ratio (z) = 0.14163 0.58380
#
# Static dielectric constant tensor:
#      x y z
#    x 2.500900 0.008060 -0.095020 
#    y 0.008060 2.272800 -0.125660 
#    z -0.095020 -0.125660 2.241410 
# 
# From -- ./inp_files/89919.got.cif
#   From: 2010.05.17/outbox.cif.g08.bks.cpg/sg2_45_cif.got.tgz:89919.got - 2010.06.03 11:33:40.
