data_PCOD9078746
_publ_section_title
;
Structure prediction by ZEFSAII (Michael W. Deem and Ramdas Pophale) SiO2 
 PCOD9078746
Probable space group: P -1
;
_chemical_formula_sum "Si O2"
_cell_formula_units_Z 16
_cell_length_a 11.546331
_cell_length_b 15.976210
_cell_length_c 9.179636
_cell_angle_alpha 76.853917
_cell_angle_beta 105.635193
_cell_angle_gamma 39.745601
_cell_volume 738.464849
_symmetry_space_group_name_H-M "P -1"
_symmetry_group_IT_number 2
_symmetry_cell_setting 'triclinic'
loop_
_space_group_symop_operation_xyz
x,y,z
-x,-y,-z
loop_
_atom_site_type_symbol
_atom_site_label
_atom_site_fract_x
_atom_site_fract_y
_atom_site_fract_z
Si Si1 0.902318 0.966333 0.447501
Si Si2 0.413783 0.261463 0.375800
Si Si3 0.175410 0.526300 0.769216
Si Si4 0.832160 0.403901 0.933334
Si Si5 0.358155 0.130882 0.258873
Si Si6 0.751028 0.709664 0.394431
Si Si7 0.426478 0.528380 0.796735
Si Si8 0.505346 0.150044 0.040252
O O1 0.148747 0.749475 0.603637
O O2 0.694112 0.078757 0.462506
O O3 0.753830 0.048321 0.211668
O O4 0.000000 0.000000 0.500000
O O5 0.296373 0.429783 0.244967
O O6 0.253467 0.287168 0.230401
O O7 0.394946 0.249135 0.543400
O O8 0.378996 0.457773 0.778657
O O9 0.903026 0.692299 0.528507
O O10 0.159828 0.582834 0.895852
O O11 0.281765 0.363820 0.899799
O O12 0.653572 0.435135 0.826077
O O13 0.137426 0.209290 0.086936
O O14 0.500790 0.077602 0.186329
O O15 0.500000 0.000000 0.500000
O O16 0.000000 0.500000 0.500000
O O17 0.555443 0.846980 0.141067
O O18 0.500000 0.500000 0.000000
#
# Coordination Sequence:
#
# PCOD9078746 Si02
#       8
#     2   2   2   2   2   2   2   2
#     4  11  20  39  60  94 123 156 204 256 302 360
#     4  11  21  36  65  89 121 158 205 254 308 351
#     4  10  18  36  57  89 122 159 202 248 303 366
#     4  11  18  36  60  89 122 153 204 249 303 357
#     4  11  23  36  60  94 120 150 202 267 305 358
#     4  10  21  37  62  89 121 164 206 249 307 371
#     4  10  22  33  59  93 120 160 198 255 307 360
#     4  10  22  39  61  89 121 159 199 255 315 358
#
# _framework density 21.66657
#
# number of rings (size 3 to 8) (size 9 to 14) (size 15 to 20)
#    0.000    1.500    5.000    2.625    7.000    0.000 
#    0.000    3.125    0.000    6.750    0.000    0.000 
#    0.000    0.000    0.000    0.000    0.000    0.000 
#
# Total GULP energy -89139.446815 kJ/mol
# GULP energy per Si atom -5571.215426 kJ/mol
# Density = 2.161726 g / cm^3
# Si number density = 21.666570 Si / 1000 Ang^3
#
#
#
# Elastic Constant Matrix: (Units=GPa)
#
#
# Indices 1 2 3 4 5 6 
#
# 1 157.5397 21.0736 60.3756 6.0057 6.4779 -13.0163
# 2 21.0736 49.7212 24.1863 0.0125 -3.0790 -4.6823
# 3 60.3756 24.1863 163.3516 13.1201 6.8369 -3.8599
# 4 6.0057 0.0125 13.1201 31.8826 0.6565 -1.8395
# 5 6.4779 -3.0790 6.8369 0.6565 32.4976 -7.2967
# 6 -13.0163 -4.6823 -3.8599 -1.8395 -7.2967 21.4710
#
#
#
# Elastic Compliance Matrix: (Units=1/GPa)
#
#
# Indices 1 2 3 4 5 6 
#
# 1 0.007893 -0.001777 -0.002532 -0.000217 -0.000350 0.003804
# 2 -0.001777 0.023036 -0.002953 0.001743 0.004247 0.005008
# 3 -0.002532 -0.002953 0.007751 -0.002769 -0.001710 -0.001604
# 4 -0.000217 0.001743 -0.002769 0.032691 0.000761 0.002810
# 5 -0.000350 0.004247 -0.001710 0.000761 0.034312 0.012132
# 6 0.003804 0.005008 -0.001604 0.002810 0.012132 0.054048
#
#
# Mechanical properties :
#
#
# Convention : Reuss Voigt Hill
#
# Bulk Modulus (GPa) = 41.39924 64.65371 53.02648
# Shear Modulus (GPa) = 27.42613 34.83539 31.13076
#
# Velocity S-wave (km/s) = 3.56171 4.01408 3.79464
# Velocity P-wave (km/s) = 6.00527 7.16860 6.61257
#
# Compressibility (1/GPa) = 0.02415503
#
# Stress axis : x y z
#
# Youngs Moduli (GPa) = 126.69919 43.41006 129.01599
#
# Poissons Ratio (x) = 0.07713 0.32668
# Poissons Ratio (y) = 0.22513 0.38104
# Poissons Ratio (z) = 0.32081 0.12821
#
# Static dielectric constant tensor:
#      x y z
#    x 1.965930 -0.142340 0.131790 
#    y -0.142340 2.048490 -0.219230 
#    z 0.131790 -0.219230 2.077640 
# 
# From -- ./inp_files/201471.got.cif
#   From: 2010.05.17/outbox.cif.g08.bks.cpg/sg2_101_cif.got.tgz:201471.got - 2010.06.03 11:33:40.
