data_PCOD9078224
_publ_section_title
;
Structure prediction by ZEFSAII (Michael W. Deem and Ramdas Pophale) SiO2 
 PCOD9078224
Probable space group: P -1
;
_chemical_formula_sum "Si O2"
_cell_formula_units_Z 16
_cell_length_a 9.707394
_cell_length_b 19.817986
_cell_length_c 8.036437
_cell_angle_alpha 62.651374
_cell_angle_beta 132.097084
_cell_angle_gamma 138.949671
_cell_volume 749.997168
_symmetry_space_group_name_H-M "P -1"
_symmetry_group_IT_number 2
_symmetry_cell_setting 'triclinic'
loop_
_space_group_symop_operation_xyz
x,y,z
-x,-y,-z
loop_
_atom_site_type_symbol
_atom_site_label
_atom_site_fract_x
_atom_site_fract_y
_atom_site_fract_z
Si Si1 0.447773 0.176893 0.282629
Si Si2 0.922693 0.231718 0.214573
Si Si3 0.688797 0.148099 0.788061
Si Si4 0.634675 0.705969 0.724155
Si Si5 0.819850 0.631639 0.152903
Si Si6 0.490159 0.047285 0.272014
Si Si7 0.081264 0.560871 0.322683
Si Si8 0.004676 0.620488 0.644446
O O1 0.488986 0.137270 0.526021
O O2 0.297723 0.208002 0.190167
O O3 0.368721 0.094993 0.168952
O O4 0.717024 0.286041 0.313983
O O5 0.774418 0.143620 0.334139
O O6 0.013668 0.333985 0.258372
O O7 0.150230 0.252414 0.283079
O O8 0.714239 0.184641 0.954532
O O9 0.952036 0.243795 0.805313
O O10 0.641785 0.045173 0.860577
O O11 0.378165 0.657570 0.477007
O O12 0.598267 0.618431 0.903473
O O13 0.922237 0.593950 0.155944
O O14 0.810762 0.597020 0.371404
O O15 0.500000 0.000000 0.500000
O O16 0.000000 0.500000 0.500000
O O17 0.031962 0.479285 0.247269
#
# Coordination Sequence:
#
# PCOD9078224 Si02
#       8
#     2   2   2   2   2   2   2   2
#     4   9  17  35  57  79 111 148 188 226 275 331
#     4  10  21  33  54  86 115 143 183 233 284 325
#     4   9  16  34  56  79 110 150 179 224 284 328
#     4  11  20  35  58  84 116 143 186 237 279 322
#     4   9  19  34  59  82 110 149 188 230 278 324
#     4   9  18  34  61  81 107 152 186 225 279 339
#     4  10  18  35  60  80 112 151 191 226 276 330
#     4   9  18  36  54  79 113 150 188 225 273 334
#
# _framework density 21.333413
#
# number of rings (size 3 to 8) (size 9 to 14) (size 15 to 20)
#    0.000    2.500    3.750    1.125    0.000    2.500 
#    0.000   10.000    0.000    0.000    0.000    0.000 
#    0.000    0.000    0.000    0.000    0.000    0.000 
#
# Total GULP energy -89137.876667 kJ/mol
# GULP energy per Si atom -5571.117292 kJ/mol
# Density = 2.128486 g / cm^3
# Si number density = 21.333413 Si / 1000 Ang^3
#
#
#
# Elastic Constant Matrix: (Units=GPa)
#
#
# Indices 1 2 3 4 5 6 
#
# 1 136.7375 48.5383 28.7224 -6.0149 1.2284 -37.7554
# 2 48.5383 107.2700 16.2915 -0.2327 4.9708 -47.6409
# 3 28.7224 16.2915 55.5715 -8.8100 -2.8016 -21.7798
# 4 -6.0149 -0.2327 -8.8100 18.6981 -7.0691 0.1420
# 5 1.2284 4.9708 -2.8016 -7.0691 31.1102 -3.7689
# 6 -37.7554 -47.6409 -21.7798 0.1420 -3.7689 50.3822
#
#
#
# Elastic Compliance Matrix: (Units=1/GPa)
#
#
# Indices 1 2 3 4 5 6 
#
# 1 0.009890 -0.002217 -0.002347 0.002320 0.000807 0.004354
# 2 -0.002217 0.016689 0.002137 0.000188 -0.000526 0.015003
# 3 -0.002347 0.002137 0.025755 0.013831 0.006649 0.011854
# 4 0.002320 0.000188 0.013831 0.067297 0.017508 0.009016
# 5 0.000807 -0.000526 0.006649 0.017508 0.037468 0.005735
# 6 0.004354 0.015003 0.011854 0.009016 0.005735 0.042826
#
#
# Mechanical properties :
#
#
# Convention : Reuss Voigt Hill
#
# Bulk Modulus (GPa) = 21.06142 54.07594 37.56868
# Shear Modulus (GPa) = 22.66469 33.77324 28.21896
#
# Velocity S-wave (km/s) = 3.26299 3.98315 3.64092
# Velocity P-wave (km/s) = 4.90816 6.82327 5.94336
#
# Compressibility (1/GPa) = 0.04748019
#
# Stress axis : x y z
#
# Youngs Moduli (GPa) = 101.10735 59.91919 38.82722
#
# Poissons Ratio (x) = 0.13287 0.09112
# Poissons Ratio (y) = 0.22420 -0.08297
# Poissons Ratio (z) = 0.23727 -0.12804
#
# Static dielectric constant tensor:
#      x y z
#    x 1.791230 -0.047380 -0.007310 
#    y -0.047380 1.872970 0.013610 
#    z -0.007310 0.013610 1.847920 
# 
# From -- ./inp_files/214958.got.cif
#   From: 2010.05.17/outbox.cif.g08.bks.cpg/sg2_108_cif.got.tgz:214958.got - 2010.06.03 11:33:40.
