data_PCOD9078881
_publ_section_title
;
Structure prediction by ZEFSAII (Michael W. Deem and Ramdas Pophale) SiO2 
 PCOD9078881
Probable space group: P -1
;
_chemical_formula_sum "Si O2"
_cell_formula_units_Z 16
_cell_length_a 16.858263
_cell_length_b 17.673290
_cell_length_c 7.816588
_cell_angle_alpha 71.092938
_cell_angle_beta 49.505315
_cell_angle_gamma 30.895902
_cell_volume 729.414489
_symmetry_space_group_name_H-M "P -1"
_symmetry_group_IT_number 2
_symmetry_cell_setting 'triclinic'
loop_
_space_group_symop_operation_xyz
x,y,z
-x,-y,-z
loop_
_atom_site_type_symbol
_atom_site_label
_atom_site_fract_x
_atom_site_fract_y
_atom_site_fract_z
Si Si1 0.726758 0.891071 0.544240
Si Si2 0.162072 0.649230 0.546712
Si Si3 0.711016 0.026482 0.175233
Si Si4 0.762383 0.212388 0.724148
Si Si5 0.769633 0.293688 0.217620
Si Si6 0.368369 0.993175 0.026136
Si Si7 0.751460 0.447939 0.888281
Si Si8 0.626034 0.255070 0.265360
O O1 0.661070 0.984891 0.396207
O O2 0.679296 0.977362 0.722699
O O3 0.009379 0.672910 0.293349
O O4 0.565701 0.924141 0.770411
O O5 0.209558 0.711565 0.401858
O O6 0.223888 0.568609 0.335510
O O7 0.358198 0.472025 0.520653
O O8 0.891881 0.805582 0.834092
O O9 0.632911 0.156646 0.300875
O O10 0.589141 0.108237 0.097140
O O11 0.002003 0.836784 0.896217
O O12 0.531025 0.341255 0.844520
O O13 0.709710 0.232923 0.981809
O O14 0.000000 0.000000 0.500000
O O15 0.500000 0.500000 0.500000
O O16 0.783931 0.190146 0.234626
O O17 0.797034 0.327224 0.984003
#
# Coordination Sequence:
#
# PCOD9078881 Si02
#       8
#     2   2   2   2   2   2   2   2
#     4   9  21  40  67  88 123 164 208 267 299 367
#     4  10  18  36  60  82 119 160 200 252 306 367
#     4  11  23  37  59  95 125 160 210 258 306 369
#     4  11  20  32  61  89 120 156 203 252 306 378
#     4  11  21  35  55  81 128 168 200 246 309 377
#     4  10  20  40  68  90 113 168 219 248 316 363
#     4   9  18  36  55  83 121 156 200 248 306 360
#     4  11  21  37  54  87 130 167 194 254 316 371
#
# _framework density 21.935400999999999
#
# number of rings (size 3 to 8) (size 9 to 14) (size 15 to 20)
#    0.000    1.750    2.500    3.000    1.750    0.000 
#    0.000    1.875    0.000   20.250    0.000    0.000 
#    0.000    0.000    0.000    0.000    0.000    0.000 
#
# Total GULP energy -89089.566245 kJ/mol
# GULP energy per Si atom -5568.097890 kJ/mol
# Density = 2.188547 g / cm^3
# Si number density = 21.935401 Si / 1000 Ang^3
#
#
#
# Elastic Constant Matrix: (Units=GPa)
#
#
# Indices 1 2 3 4 5 6 
#
# 1 97.5330 4.7647 15.6152 7.0555 -10.7745 -4.8637
# 2 4.7647 46.0599 19.4498 12.3205 -14.7396 0.5423
# 3 15.6152 19.4498 97.5558 16.5373 -26.7343 3.3831
# 4 7.0555 12.3205 16.5373 33.1883 -13.1492 8.9910
# 5 -10.7745 -14.7396 -26.7343 -13.1492 30.9963 -2.2262
# 6 -4.8637 0.5423 3.3831 8.9910 -2.2262 24.3045
#
#
#
# Elastic Compliance Matrix: (Units=1/GPa)
#
#
# Indices 1 2 3 4 5 6 
#
# 1 0.010973 0.000597 -0.000917 -0.001897 0.002737 0.003263
# 2 0.000597 0.027021 -0.002102 -0.006471 0.008714 0.003001
# 3 -0.000917 -0.002102 0.013834 -0.001926 0.009764 -0.000455
# 4 -0.001897 -0.006471 -0.001926 0.042430 0.011553 -0.014605
# 5 0.002737 0.008714 0.009764 0.011553 0.050633 -0.000642
# 6 0.003263 0.003001 -0.000455 -0.014605 -0.000642 0.047138
#
#
# Mechanical properties :
#
#
# Convention : Reuss Voigt Hill
#
# Bulk Modulus (GPa) = 21.28358 35.64532 28.46445
# Shear Modulus (GPa) = 23.52550 31.11909 27.32230
#
# Velocity S-wave (km/s) = 3.27844 3.77061 3.53311
# Velocity P-wave (km/s) = 4.90457 5.93650 5.44504
#
# Compressibility (1/GPa) = 0.04698457
#
# Stress axis : x y z
#
# Youngs Moduli (GPa) = 91.13414 37.00841 72.28324
#
# Poissons Ratio (x) = -0.02209 0.06628
# Poissons Ratio (y) = -0.05440 0.15192
# Poissons Ratio (z) = 0.08357 0.07778
#
# Static dielectric constant tensor:
#      x y z
#    x 1.923480 0.016480 0.083230 
#    y 0.016480 1.808310 0.082630 
#    z 0.083230 0.082630 1.924990 
# 
# From -- ./inp_files/216559.got.cif
#   From: 2010.05.17/outbox.cif.g08.bks.cpg/sg2_109_cif.got.tgz:216559.got - 2010.06.03 11:33:40.
