data_PCOD9078047
_publ_section_title
;
Structure prediction by ZEFSAII (Michael W. Deem and Ramdas Pophale) SiO2 
 PCOD9078047
Probable space group: P -1
;
_chemical_formula_sum "Si O2"
_cell_formula_units_Z 12
_cell_length_a 9.249211
_cell_length_b 8.913364
_cell_length_c 18.397959
_cell_angle_alpha 146.703809
_cell_angle_beta 45.344432
_cell_angle_gamma 111.473858
_cell_volume 487.915830
_symmetry_space_group_name_H-M "P -1"
_symmetry_group_IT_number 2
_symmetry_cell_setting 'triclinic'
loop_
_space_group_symop_operation_xyz
x,y,z
-x,-y,-z
loop_
_atom_site_type_symbol
_atom_site_label
_atom_site_fract_x
_atom_site_fract_y
_atom_site_fract_z
Si Si1 0.807171 0.782851 0.787933
Si Si2 0.841667 0.308616 0.031258
Si Si3 0.729219 0.342454 0.301374
Si Si4 0.680318 0.528771 0.599791
Si Si5 0.968115 0.331009 0.677699
Si Si6 0.927212 0.790067 0.249380
O O1 0.709337 0.758483 0.735963
O O2 0.103759 0.594539 0.587879
O O3 0.795834 0.594997 0.784646
O O4 0.687989 0.155648 0.007766
O O5 0.921507 0.312991 0.921312
O O6 0.062341 0.019647 0.887396
O O7 0.763293 0.645843 0.233881
O O8 0.500000 0.500000 0.500000
O O9 0.595687 0.313388 0.266512
O O10 0.819321 0.588369 0.360691
O O11 0.771346 0.184912 0.468554
O O12 0.910501 0.350838 0.791941
O O13 0.000000 0.000000 0.500000
#
# Coordination Sequence:
#
# PCOD9078047 Si02
#       6
#     2   2   2   2   2   2
#     4   9  18  33  56  78 109 154 180 216 279 346
#     4   9  20  36  58  79 113 154 184 224 284 344
#     4  11  20  36  57  84 114 150 187 228 283 337
#     4  10  18  35  58  79 111 148 188 222 273 341
#     4  11  21  34  58  87 113 144 192 238 271 329
#     4  10  19  34  58  84 110 144 195 229 275 330
#
# _framework density 24.594407
#
# number of rings (size 3 to 8) (size 9 to 14) (size 15 to 20)
#    0.000    2.000    6.667    0.000    0.000    3.333 
#    0.000    0.000    3.667   13.000    0.000    0.000 
#    0.000    0.000    0.000    0.000    0.000    0.000 
#
# Total GULP energy -66887.799831 kJ/mol
# GULP energy per Si atom -5573.983319 kJ/mol
# Density = 2.453843 g / cm^3
# Si number density = 24.594407 Si / 1000 Ang^3
#
#
#
# Elastic Constant Matrix: (Units=GPa)
#
#
# Indices 1 2 3 4 5 6 
#
# 1 174.6067 35.7006 29.6221 4.2243 23.4498 -2.7895
# 2 35.7006 104.3069 31.7761 10.1401 -7.0455 -14.3054
# 3 29.6221 31.7761 64.0651 9.5385 22.8245 9.2550
# 4 4.2243 10.1401 9.5385 40.9625 19.7398 -0.0895
# 5 23.4498 -7.0455 22.8245 19.7398 49.4975 -3.1012
# 6 -2.7895 -14.3054 9.2550 -0.0895 -3.1012 34.2880
#
#
#
# Elastic Compliance Matrix: (Units=1/GPa)
#
#
# Indices 1 2 3 4 5 6 
#
# 1 0.006915 -0.002913 -0.000351 0.002249 -0.004486 -0.000958
# 2 -0.002913 0.017842 -0.012966 -0.007676 0.013707 0.011927
# 3 -0.000351 -0.012966 0.030292 0.005151 -0.018660 -0.015289
# 4 0.002249 -0.007676 0.005151 0.033713 -0.018353 -0.005982
# 5 -0.004486 0.013707 -0.018660 -0.018353 0.041084 0.014059
# 6 -0.000958 0.011927 -0.015289 -0.005982 0.014059 0.039445
#
#
# Mechanical properties :
#
#
# Convention : Reuss Voigt Hill
#
# Bulk Modulus (GPa) = 44.26863 59.68626 51.97745
# Shear Modulus (GPa) = 23.89129 41.34158 32.61643
#
# Velocity S-wave (km/s) = 3.12013 4.10437 3.64562
# Velocity P-wave (km/s) = 5.56945 6.83974 6.23702
#
# Compressibility (1/GPa) = 0.02258936
#
# Stress axis : x y z
#
# Youngs Moduli (GPa) = 144.61304 56.04768 33.01168
#
# Poissons Ratio (x) = 0.16326 0.01158
# Poissons Ratio (y) = 0.42125 0.42804
# Poissons Ratio (z) = 0.05073 0.72673
#
# Static dielectric constant tensor:
#      x y z
#    x 2.031090 0.040480 0.003200 
#    y 0.040480 2.109860 -0.044760 
#    z 0.003200 -0.044760 1.936860 
# 
# From -- ./inp_files/175425.got.cif
#   From: 2010.05.17/outbox.cif.g08.bks.cpg/sg2_88_cif.got.tgz:175425.got - 2010.06.03 11:33:40.
