data_PCOD9078180
_publ_section_title
;
Structure prediction by ZEFSAII (Michael W. Deem and Ramdas Pophale) SiO2 
 PCOD9078180
Probable space group: P -1
;
_chemical_formula_sum "Si O2"
_cell_formula_units_Z 16
_cell_length_a 12.002802
_cell_length_b 14.285111
_cell_length_c 9.872031
_cell_angle_alpha 138.038651
_cell_angle_beta 51.224423
_cell_angle_gamma 103.729238
_cell_volume 793.158973
_symmetry_space_group_name_H-M "P -1"
_symmetry_group_IT_number 2
_symmetry_cell_setting 'triclinic'
loop_
_space_group_symop_operation_xyz
x,y,z
-x,-y,-z
loop_
_atom_site_type_symbol
_atom_site_label
_atom_site_fract_x
_atom_site_fract_y
_atom_site_fract_z
Si Si1 0.978738 0.699744 0.864207
Si Si2 0.512553 0.301763 0.135495
Si Si3 0.907167 0.808565 0.562451
Si Si4 0.139611 0.353754 0.814722
Si Si5 0.802520 0.657763 0.716002
Si Si6 0.152329 0.838160 0.238914
Si Si7 0.547408 0.617705 0.417031
Si Si8 0.202543 0.835187 0.898458
O O1 0.116066 0.529131 0.537684
O O2 0.060807 0.815619 0.910533
O O3 0.834284 0.729335 0.905381
O O4 0.925794 0.688630 0.045249
O O5 0.377202 0.288110 0.135817
O O6 0.542425 0.451708 0.236525
O O7 0.458106 0.330975 0.365355
O O8 0.686186 0.157714 0.833279
O O9 0.815429 0.785723 0.478010
O O10 0.894925 0.702170 0.575885
O O11 0.083735 0.762005 0.319912
O O12 0.835931 0.985999 0.857817
O O13 0.291563 0.384180 0.763033
O O14 0.000000 0.500000 0.000000
O O15 0.199956 0.761609 0.971435
O O16 0.000000 0.000000 0.500000
O O17 0.381603 0.739540 0.608216
#
# Coordination Sequence:
#
# PCOD9078180 Si02
#       8
#     2   2   2   2   2   2   2   2
#     4  11  23  40  61  84 128 157 203 248 300 362
#     4  10  18  35  59  86 122 153 198 244 308 350
#     4  11  21  37  62  90 117 154 206 243 304 358
#     4  12  21  36  62  94 117 150 207 257 293 351
#     4  11  23  40  59  89 119 167 199 244 302 366
#     4   9  19  34  57  92 118 150 193 254 300 346
#     4  10  20  33  59  90 118 150 196 257 298 348
#     4  10  21  38  58  90 123 156 193 253 307 353
#
# _framework density 20.172499999999999
#
# number of rings (size 3 to 8) (size 9 to 14) (size 15 to 20)
#    0.000    1.500    5.000    0.750    1.750    1.000 
#    2.250    1.875    0.000    3.750    0.000    0.000 
#    0.000    0.000    0.000    0.000    0.000    0.000 
#
# Total GULP energy -89256.440800 kJ/mol
# GULP energy per Si atom -5578.527550 kJ/mol
# Density = 2.012659 g / cm^3
# Si number density = 20.172500 Si / 1000 Ang^3
#
#
#
# Elastic Constant Matrix: (Units=GPa)
#
#
# Indices 1 2 3 4 5 6 
#
# 1 143.7233 32.2354 27.8218 -0.5943 -12.9180 15.6322
# 2 32.2354 40.1270 12.6870 4.2452 -1.7087 19.0621
# 3 27.8218 12.6870 42.3158 8.9369 -14.7501 7.9504
# 4 -0.5943 4.2452 8.9369 28.4628 6.0144 1.7795
# 5 -12.9180 -1.7087 -14.7501 6.0144 39.8649 -6.0001
# 6 15.6322 19.0621 7.9504 1.7795 -6.0001 27.9315
#
#
#
# Elastic Compliance Matrix: (Units=1/GPa)
#
#
# Indices 1 2 3 4 5 6 
#
# 1 0.009317 -0.006544 -0.004489 0.002376 0.000802 0.000550
# 2 -0.006544 0.044370 -0.005734 -0.002060 -0.005963 -0.026136
# 3 -0.004489 -0.005734 0.035864 -0.013369 0.013584 -0.000013
# 4 0.002376 -0.002060 -0.013369 0.042034 -0.010774 -0.001111
# 5 0.000802 -0.005963 0.013584 -0.010774 0.032870 0.007502
# 6 0.000550 -0.026136 -0.000013 -0.001111 0.007502 0.055017
#
#
# Mechanical properties :
#
#
# Convention : Reuss Voigt Hill
#
# Bulk Modulus (GPa) = 17.85168 41.29494 29.57331
# Shear Modulus (GPa) = 18.40425 29.47997 23.94211
#
# Velocity S-wave (km/s) = 3.02378 3.82697 3.44883
# Velocity P-wave (km/s) = 4.58909 6.32795 5.52732
#
# Compressibility (1/GPa) = 0.05601713
#
# Stress axis : x y z
#
# Youngs Moduli (GPa) = 107.33605 22.53757 27.88350
#
# Poissons Ratio (x) = 0.14748 0.12518
# Poissons Ratio (y) = 0.70236 0.15988
# Poissons Ratio (z) = 0.48187 0.12922
#
# Static dielectric constant tensor:
#      x y z
#    x 1.750270 0.003260 -0.000930 
#    y 0.003260 1.760490 0.029740 
#    z -0.000930 0.029740 1.751290 
# 
# From -- ./inp_files/238444.got.cif
#   From: 2010.05.17/outbox.cif.g08.bks.cpg/sg2_120_cif.got.tgz:238444.got - 2010.06.03 11:33:40.
