data_PCOD9078174
_publ_section_title
;
Structure prediction by ZEFSAII (Michael W. Deem and Ramdas Pophale) SiO2 
 PCOD9078174
Probable space group: P -1
;
_chemical_formula_sum "Si O2"
_cell_formula_units_Z 16
_cell_length_a 21.035995
_cell_length_b 13.023029
_cell_length_c 8.562055
_cell_angle_alpha 105.775485
_cell_angle_beta 86.599187
_cell_angle_gamma 28.022830
_cell_volume 794.839552
_symmetry_space_group_name_H-M "P -1"
_symmetry_group_IT_number 2
_symmetry_cell_setting 'triclinic'
loop_
_space_group_symop_operation_xyz
x,y,z
-x,-y,-z
loop_
_atom_site_type_symbol
_atom_site_label
_atom_site_fract_x
_atom_site_fract_y
_atom_site_fract_z
Si Si1 0.337578 0.187967 0.416183
Si Si2 0.968175 0.407440 0.795704
Si Si3 0.954661 0.321664 0.081838
Si Si4 0.711182 0.274406 0.008411
Si Si5 0.190653 0.214008 0.266927
Si Si6 0.315963 0.834890 0.297530
Si Si7 0.295308 0.362700 0.203739
Si Si8 0.729835 0.493162 0.040876
O O1 0.211364 0.380980 0.663555
O O2 0.286888 0.165920 0.306824
O O3 0.283707 0.377034 0.399317
O O4 0.550109 0.839364 0.266685
O O5 0.858160 0.682718 0.861699
O O6 0.850008 0.493748 0.781530
O O7 0.983676 0.361573 0.956825
O O8 0.161648 0.101692 0.555554
O O9 0.895780 0.301666 0.003403
O O10 0.127023 0.031599 0.044816
O O11 0.719061 0.222487 0.805450
O O12 0.516513 0.539800 0.208185
O O13 0.723921 0.382103 0.054237
O O14 0.000000 0.500000 0.500000
O O15 0.299852 0.941162 0.195415
O O16 0.273256 0.496048 0.144366
O O17 0.500000 0.000000 0.000000
#
# Coordination Sequence:
#
# PCOD9078174 Si02
#       8
#     2   2   2   2   2   2   2   2
#     4  10  18  35  59  86 114 146 190 232 284 333
#     4   9  19  35  57  85 116 143 189 237 287 331
#     4  11  22  36  57  88 121 151 178 229 295 351
#     4  11  22  38  60  82 114 154 192 228 286 339
#     4   9  16  33  59  82 105 141 192 239 269 312
#     4  10  21  39  61  80 109 153 199 238 271 329
#     4   8  16  31  57  84 108 141 187 241 274 318
#     4  10  20  37  58  85 117 148 187 234 287 339
#
# _framework density 20.129847999999999
#
# number of rings (size 3 to 8) (size 9 to 14) (size 15 to 20)
#    0.000    2.250    1.250    3.000    0.000    0.500 
#    0.000   12.500    5.500    0.000    0.000    0.000 
#    0.000    0.000    0.000    0.000    0.000    0.000 
#
# Total GULP energy -89168.712514 kJ/mol
# GULP energy per Si atom -5573.044532 kJ/mol
# Density = 2.008403 g / cm^3
# Si number density = 20.129848 Si / 1000 Ang^3
#
#
#
# Elastic Constant Matrix: (Units=GPa)
#
#
# Indices 1 2 3 4 5 6 
#
# 1 61.4986 30.1028 9.7424 -2.4034 -6.8506 -9.1513
# 2 30.1028 88.0859 30.4119 -6.9472 -15.2415 3.7000
# 3 9.7424 30.4119 74.6158 -17.3490 -16.6280 10.0707
# 4 -2.4034 -6.9472 -17.3490 27.0491 0.1961 -12.0685
# 5 -6.8506 -15.2415 -16.6280 0.1961 25.6190 2.5264
# 6 -9.1513 3.7000 10.0707 -12.0685 2.5264 29.6250
#
#
#
# Elastic Compliance Matrix: (Units=1/GPa)
#
#
# Indices 1 2 3 4 5 6 
#
# 1 0.021407 -0.007299 -0.000002 0.004111 0.000446 0.009161
# 2 -0.007299 0.016318 -0.004189 -0.000818 0.005405 -0.003662
# 3 -0.000002 -0.004189 0.020432 0.010590 0.010988 -0.003046
# 4 0.004111 -0.000818 0.010590 0.052167 0.005255 0.018575
# 5 0.000446 0.005405 0.010988 0.005255 0.050091 -0.006403
# 6 0.009161 -0.003662 -0.003046 0.018575 -0.006403 0.046191
#
#
# Mechanical properties :
#
#
# Convention : Reuss Voigt Hill
#
# Bulk Modulus (GPa) = 28.42718 40.52382 34.47550
# Shear Modulus (GPa) = 20.72029 26.72153 23.72091
#
# Velocity S-wave (km/s) = 3.21180 3.64738 3.43650
# Velocity P-wave (km/s) = 5.28269 6.15734 5.73670
#
# Compressibility (1/GPa) = 0.03517760
#
# Stress axis : x y z
#
# Youngs Moduli (GPa) = 46.71386 61.28356 48.94400
#
# Poissons Ratio (x) = 0.44728 0.00007
# Poissons Ratio (y) = 0.34094 0.20504
# Poissons Ratio (z) = 0.00007 0.25673
#
# Static dielectric constant tensor:
#      x y z
#    x 1.764240 0.014960 -0.010300 
#    y 0.014960 1.757760 -0.024230 
#    z -0.010300 -0.024230 1.713970 
# 
# From -- ./inp_files/269498.got.cif
#   From: 2010.05.17/outbox.cif.g08.bks.cpg/sg2_135_cif.got.tgz:269498.got - 2010.06.03 11:33:40.
