data_PCOD9078225
_publ_section_title
;
Structure prediction by ZEFSAII (Michael W. Deem and Ramdas Pophale) SiO2 
 PCOD9078225
Probable space group: P -1
;
_chemical_formula_sum "Si O2"
_cell_formula_units_Z 10
_cell_length_a 7.445204
_cell_length_b 11.349326
_cell_length_c 8.299713
_cell_angle_alpha 141.278012
_cell_angle_beta 101.506771
_cell_angle_gamma 60.860008
_cell_volume 361.678120
_symmetry_space_group_name_H-M "P -1"
_symmetry_group_IT_number 2
_symmetry_cell_setting 'triclinic'
loop_
_space_group_symop_operation_xyz
x,y,z
-x,-y,-z
loop_
_atom_site_type_symbol
_atom_site_label
_atom_site_fract_x
_atom_site_fract_y
_atom_site_fract_z
Si Si1 0.042109 0.226983 0.895396
Si Si2 0.336572 0.463629 0.038186
Si Si3 0.433531 0.853953 0.728723
Si Si4 0.272442 0.828867 0.987954
Si Si5 0.184922 0.304851 0.576610
O O1 0.898467 0.302917 0.785899
O O2 0.896831 0.203809 0.980315
O O3 0.275136 0.004681 0.716531
O O4 0.298818 0.798860 0.768186
O O5 0.294647 0.289876 0.752718
O O6 0.500000 0.500000 0.000000
O O7 0.482028 0.345495 0.092357
O O8 0.963533 0.549076 0.811855
O O9 0.198072 0.083342 0.291437
O O10 0.659874 0.669258 0.494533
O O11 0.500000 0.000000 0.000000
#
# Coordination Sequence:
#
# PCOD9078225 Si02
#       5
#     2   2   2   2   2
#     4   9  20  37  57  77 114 141 180 218 271 321
#     4   8  17  36  58  76 108 146 176 219 269 320
#     4  10  21  36  56  84 110 138 185 225 261 324
#     4  10  18  35  60  81 107 144 181 220 267 323
#     4   9  20  36  60  75 113 144 175 222 277 305
#
# _framework density 27.648893999999999
#
# number of rings (size 3 to 8) (size 9 to 14) (size 15 to 20)
#    1.200    1.600    0.000    1.200    0.000    4.000 
#    0.000   12.000    4.400    0.000    0.000    0.000 
#    0.000    0.000    0.000    0.000    0.000    0.000 
#
# Total GULP energy -55874.141083 kJ/mol
# GULP energy per Si atom -5587.414108 kJ/mol
# Density = 2.758596 g / cm^3
# Si number density = 27.648894 Si / 1000 Ang^3
#
#
#
# Elastic Constant Matrix: (Units=GPa)
#
#
# Indices 1 2 3 4 5 6 
#
# 1 93.2569 21.9330 0.6294 10.6974 3.7373 3.0053
# 2 21.9330 118.2963 3.6717 -2.5480 -3.6124 -1.2238
# 3 0.6294 3.6717 100.3617 16.1324 -1.0831 2.1676
# 4 10.6974 -2.5480 16.1324 26.4165 4.7079 -2.8566
# 5 3.7373 -3.6124 -1.0831 4.7079 39.3245 4.3270
# 6 3.0053 -1.2238 2.1676 -2.8566 4.3270 54.9229
#
#
#
# Elastic Compliance Matrix: (Units=1/GPa)
#
#
# Indices 1 2 3 4 5 6 
#
# 1 0.011986 -0.002400 0.000940 -0.005670 -0.000545 -0.000998
# 2 -0.002400 0.008992 -0.000662 0.002158 0.000732 0.000412
# 3 0.000940 -0.000662 0.011243 -0.007629 0.001183 -0.001000
# 4 -0.005670 0.002158 -0.007629 0.046361 -0.005408 0.003497
# 5 -0.000545 0.000732 0.001183 -0.005408 0.026489 -0.002369
# 6 -0.000998 0.000412 -0.001000 0.003497 -0.002369 0.018679
#
#
# Mechanical properties :
#
#
# Convention : Reuss Voigt Hill
#
# Bulk Modulus (GPa) = 35.74524 40.48701 38.11613
# Shear Modulus (GPa) = 36.41133 43.17816 39.79474
#
# Velocity S-wave (km/s) = 3.63287 3.95607 3.79791
# Velocity P-wave (km/s) = 5.52751 5.96174 5.74873
#
# Compressibility (1/GPa) = 0.02797575
#
# Stress axis : x y z
#
# Youngs Moduli (GPa) = 83.43275 111.20923 88.94417
#
# Poissons Ratio (x) = 0.26696 -0.08358
# Poissons Ratio (y) = 0.20028 0.05886
# Poissons Ratio (z) = -0.07840 0.07359
#
# Static dielectric constant tensor:
#      x y z
#    x 2.260350 0.085810 -0.009650 
#    y 0.085810 2.116050 0.007330 
#    z -0.009650 0.007330 2.078310 
# 
# From -- ./inp_files/61621.got.cif
#   From: 2010.05.17/outbox.cif.g08.bks.cpg/sg2_31_cif.got.tgz:61621.got - 2010.06.03 11:33:40.
