data_PCOD9078533
_publ_section_title
;
Structure prediction by ZEFSAII (Michael W. Deem and Ramdas Pophale) SiO2 
 PCOD9078533
Probable space group: P -1
;
_chemical_formula_sum "Si O2"
_cell_formula_units_Z 14
_cell_length_a 17.801211
_cell_length_b 7.872205
_cell_length_c 8.840211
_cell_angle_alpha 100.734506
_cell_angle_beta 153.990627
_cell_angle_gamma 73.621698
_cell_volume 514.517361
_symmetry_space_group_name_H-M "P -1"
_symmetry_group_IT_number 2
_symmetry_cell_setting 'triclinic'
loop_
_space_group_symop_operation_xyz
x,y,z
-x,-y,-z
loop_
_atom_site_type_symbol
_atom_site_label
_atom_site_fract_x
_atom_site_fract_y
_atom_site_fract_z
Si Si1 0.088605 0.788089 0.594822
Si Si2 0.250127 0.165964 0.189629
Si Si3 0.513633 0.809764 0.644048
Si Si4 0.647181 0.328652 0.416683
Si Si5 0.003228 0.755274 0.761570
Si Si6 0.691691 0.079307 0.193540
Si Si7 0.191552 0.397771 0.396492
O O1 0.269736 0.778009 0.833494
O O2 0.082195 0.696490 0.728964
O O3 0.000000 0.000000 0.500000
O O4 0.945852 0.749527 0.213800
O O5 0.374558 0.243289 0.314756
O O6 0.256717 0.219999 0.383418
O O7 0.325797 0.950640 0.281682
O O8 0.484655 0.657683 0.677718
O O9 0.607437 0.941926 0.928285
O O10 0.605952 0.180605 0.204969
O O11 0.673464 0.487734 0.384549
O O12 0.839914 0.265564 0.837432
O O13 0.858725 0.651327 0.536214
O O14 0.885772 0.960189 0.577744
O O15 0.000000 0.500000 0.000000
#
# Coordination Sequence:
#
# PCOD9078533 Si02
#       7
#     2   2   2   2   2   2   2
#     4  10  18  35  64  92 118 150 208 259 298 347
#     4  11  22  41  66  90 129 156 205 258 305 365
#     4  11  23  38  67  94 124 159 204 255 312 358
#     4  11  23  39  61  89 126 164 205 245 310 369
#     4  10  20  38  65  90 118 158 213 256 300 349
#     4  11  21  39  64  95 120 158 209 261 300 357
#     4  10  23  43  62  88 123 170 206 248 303 365
#
# _framework density 27.209965
#
# number of rings (size 3 to 8) (size 9 to 14) (size 15 to 20)
#    0.000    1.429    2.857    5.143    2.000    0.571 
#    0.000    9.286    0.000    0.000    0.000    0.000 
#    0.000    0.000    0.000    0.000    0.000    0.000 
#
# Total GULP energy -78370.266664 kJ/mol
# GULP energy per Si atom -5597.876190 kJ/mol
# Density = 2.714803 g / cm^3
# Si number density = 27.209965 Si / 1000 Ang^3
#
#
#
# Elastic Constant Matrix: (Units=GPa)
#
#
# Indices 1 2 3 4 5 6 
#
# 1 173.9138 38.0266 15.5306 16.3070 11.3299 61.4622
# 2 38.0266 48.3626 9.3281 1.8400 3.8304 25.4929
# 3 15.5306 9.3281 134.0551 5.9088 -15.0746 5.1273
# 4 16.3070 1.8400 5.9088 21.6556 3.8827 7.0331
# 5 11.3299 3.8304 -15.0746 3.8827 38.1731 9.7289
# 6 61.4622 25.4929 5.1273 7.0331 9.7289 52.0086
#
#
#
# Elastic Compliance Matrix: (Units=1/GPa)
#
#
# Indices 1 2 3 4 5 6 
#
# 1 0.010427 -0.002394 -0.000447 -0.004109 0.000079 -0.010564
# 2 -0.002394 0.028840 -0.001460 0.003551 -0.000161 -0.011614
# 3 -0.000447 -0.001460 0.008137 -0.002452 0.003722 0.000077
# 4 -0.004109 0.003551 -0.002452 0.051353 -0.004635 -0.002720
# 5 0.000079 -0.000161 0.003722 -0.004635 0.029473 -0.005268
# 6 -0.010564 -0.011614 0.000077 -0.002720 -0.005268 0.038750
#
#
# Mechanical properties :
#
#
# Convention : Reuss Voigt Hill
#
# Bulk Modulus (GPa) = 25.77188 53.56690 39.66939
# Shear Modulus (GPa) = 26.52293 41.93057 34.22675
#
# Velocity S-wave (km/s) = 3.12549 3.92982 3.55050
# Velocity P-wave (km/s) = 4.74520 6.34984 5.60524
#
# Compressibility (1/GPa) = 0.03880198
#
# Stress axis : x y z
#
# Youngs Moduli (GPa) = 95.90732 34.67350 122.90009
#
# Poissons Ratio (x) = 0.08300 0.05498
# Poissons Ratio (y) = 0.22957 0.17943
# Poissons Ratio (z) = 0.04290 0.05062
#
# Static dielectric constant tensor:
#      x y z
#    x 2.122630 0.056560 0.025400 
#    y 0.056560 2.145830 0.014730 
#    z 0.025400 0.014730 2.181530 
# 
# From -- ./inp_files/239469.got.cif
#   From: 2010.05.17/outbox.cif.g08.bks.cpg/sg2_120_cif.got.tgz:239469.got - 2010.06.03 11:33:40.
