data_PCOD9078099
_publ_section_title
;
Structure prediction by ZEFSAII (Michael W. Deem and Ramdas Pophale) SiO2 
 PCOD9078099
Probable space group: P -1
;
_chemical_formula_sum "Si O2"
_cell_formula_units_Z 14
_cell_length_a 13.603919
_cell_length_b 23.496334
_cell_length_c 12.045862
_cell_angle_alpha 150.907874
_cell_angle_beta 35.141214
_cell_angle_gamma 161.998450
_cell_volume 576.280912
_symmetry_space_group_name_H-M "P -1"
_symmetry_group_IT_number 2
_symmetry_cell_setting 'triclinic'
loop_
_space_group_symop_operation_xyz
x,y,z
-x,-y,-z
loop_
_atom_site_type_symbol
_atom_site_label
_atom_site_fract_x
_atom_site_fract_y
_atom_site_fract_z
Si Si1 0.152012 0.071500 0.101714
Si Si2 0.403797 0.980961 0.207688
Si Si3 0.671558 0.091248 0.378556
Si Si4 0.438997 0.567479 0.502806
Si Si5 0.138509 0.419577 0.226993
Si Si6 0.512251 0.196768 0.293673
Si Si7 0.424885 0.365959 0.005153
O O1 0.405593 0.314967 0.321479
O O2 0.306440 0.031639 0.888840
O O3 0.000000 0.000000 0.000000
O O4 0.841267 0.882508 0.144421
O O5 0.460341 0.028936 0.368694
O O6 0.270708 0.001063 0.277158
O O7 0.765244 0.192222 0.188129
O O8 0.327342 0.804251 0.940248
O O9 0.048063 0.348339 0.482205
O O10 0.500000 0.000000 0.500000
O O11 0.604385 0.766726 0.616757
O O12 0.528625 0.495210 0.241050
O O13 0.241759 0.586675 0.491731
O O14 0.265547 0.376142 0.095866
O O15 0.298350 0.523281 0.137140
#
# Coordination Sequence:
#
# PCOD9078099 Si02
#       7
#     2   2   2   2   2   2   2
#     4  11  23  43  62  86 122 168 212 255 304 364
#     4  11  20  37  57  89 127 154 205 245 307 369
#     4  11  24  41  62  91 126 163 214 256 296 373
#     4  10  20  42  65  85 125 162 199 256 318 352
#     4  10  18  35  58  87 123 152 190 249 306 359
#     4  10  20  34  63  89 119 165 190 251 314 365
#     4   9  20  35  59  89 116 155 202 245 299 373
#
# _framework density 24.293707000000001
#
# number of rings (size 3 to 8) (size 9 to 14) (size 15 to 20)
#    0.000    1.714    5.714    0.429    0.000    5.143 
#    0.000    7.143    0.000    0.000    0.000    0.000 
#    0.000    0.000    0.000    0.000    0.000    0.000 
#
# Total GULP energy -78096.717099 kJ/mol
# GULP energy per Si atom -5578.336936 kJ/mol
# Density = 2.423841 g / cm^3
# Si number density = 24.293707 Si / 1000 Ang^3
#
#
#
# Elastic Constant Matrix: (Units=GPa)
#
#
# Indices 1 2 3 4 5 6 
#
# 1 91.8880 22.4354 37.7201 1.9847 28.5716 -18.8590
# 2 22.4354 106.2985 54.5055 -15.0126 16.6738 -26.3763
# 3 37.7201 54.5055 115.2296 13.4681 27.5294 1.4174
# 4 1.9847 -15.0126 13.4681 30.8082 -5.2445 6.2965
# 5 28.5716 16.6738 27.5294 -5.2445 37.2193 -7.9559
# 6 -18.8590 -26.3763 1.4174 6.2965 -7.9559 26.1275
#
#
#
# Elastic Compliance Matrix: (Units=1/GPa)
#
#
# Indices 1 2 3 4 5 6 
#
# 1 0.018036 0.004256 -0.006054 -0.000972 -0.008118 0.015406
# 2 0.004256 0.025006 -0.016635 0.014550 0.005755 0.027465
# 3 -0.006054 -0.016635 0.023561 -0.015524 -0.012314 -0.022449
# 4 -0.000972 0.014550 -0.015524 0.047206 0.014012 0.007719
# 5 -0.008118 0.005755 -0.012314 0.014012 0.043870 0.010600
# 6 0.015406 0.027465 -0.022449 0.007719 0.010600 0.079705
#
#
# Mechanical properties :
#
#
# Convention : Reuss Voigt Hill
#
# Bulk Modulus (GPa) = 33.62676 60.30422 46.96549
# Shear Modulus (GPa) = 17.59571 32.08134 24.83853
#
# Velocity S-wave (km/s) = 2.69418 3.63790 3.20101
# Velocity P-wave (km/s) = 4.85283 6.52093 5.74772
#
# Compressibility (1/GPa) = 0.02973822
#
# Stress axis : x y z
#
# Youngs Moduli (GPa) = 55.44545 39.99068 42.44307
#
# Poissons Ratio (x) = -0.17021 0.25693
# Poissons Ratio (y) = -0.23599 0.70603
# Poissons Ratio (z) = 0.33564 0.66524
#
# Static dielectric constant tensor:
#      x y z
#    x 2.274630 0.009580 -0.049930 
#    y 0.009580 1.927670 0.013530 
#    z -0.049930 0.013530 2.002910 
# 
# From -- ./inp_files/458112.got.cif
#   From: 2010.05.17/outbox.cif.g08.bks.cpg/sg2_230_cif.got.tgz:458112.got - 2010.06.03 11:33:40.
