data_PCOD9078603
_publ_section_title
;
Structure prediction by ZEFSAII (Michael W. Deem and Ramdas Pophale) SiO2 
 PCOD9078603
Probable space group: P -1
;
_chemical_formula_sum "Si O2"
_cell_formula_units_Z 16
_cell_length_a 7.819852
_cell_length_b 15.318178
_cell_length_c 11.689554
_cell_angle_alpha 69.002457
_cell_angle_beta 37.147901
_cell_angle_gamma 88.271367
_cell_volume 703.735277
_symmetry_space_group_name_H-M "P -1"
_symmetry_group_IT_number 2
_symmetry_cell_setting 'triclinic'
loop_
_space_group_symop_operation_xyz
x,y,z
-x,-y,-z
loop_
_atom_site_type_symbol
_atom_site_label
_atom_site_fract_x
_atom_site_fract_y
_atom_site_fract_z
Si Si1 0.279806 0.329463 0.121627
Si Si2 0.994950 0.439059 0.778678
Si Si3 0.381010 0.658417 0.774245
Si Si4 0.361304 0.663666 0.514582
Si Si5 0.704840 0.956612 0.841060
Si Si6 0.687025 0.853285 0.678393
Si Si7 0.067906 0.396685 0.527055
Si Si8 0.387807 0.241900 0.884998
O O1 0.192217 0.217090 0.278775
O O2 0.003639 0.355510 0.294034
O O3 0.633021 0.408895 0.940110
O O4 0.276082 0.309251 0.996516
O O5 0.296784 0.550911 0.555167
O O6 0.068575 0.373735 0.673564
O O7 0.941755 0.416123 0.952428
O O8 0.403303 0.680523 0.618486
O O9 0.474312 0.767738 0.739692
O O10 0.618984 0.604829 0.689309
O O11 0.617561 0.746582 0.253648
O O12 0.546477 0.897793 0.833020
O O13 0.753456 0.874586 0.935875
O O14 0.034786 0.051193 0.579715
O O15 0.500000 0.000000 0.000000
O O16 0.000000 0.500000 0.500000
O O17 0.765297 0.298251 0.684065
#
# Coordination Sequence:
#
# PCOD9078603 Si02
#       8
#     2   2   2   2   2   2   2   2
#     4   9  20  35  59  81 112 150 200 240 284 333
#     4  10  22  36  57  79 109 160 202 236 276 328
#     4  11  25  38  54  85 125 154 189 236 295 346
#     4  12  22  35  55  83 121 158 190 237 287 344
#     4  10  18  35  67  89 106 138 196 249 287 335
#     4   9  20  38  59  87 112 145 190 243 289 345
#     4  11  22  38  60  83 114 155 200 243 281 332
#     4  10  21  36  58  88 111 148 196 242 286 339
#
# _framework density 22.735821000000001
#
# number of rings (size 3 to 8) (size 9 to 14) (size 15 to 20)
#    0.000    1.750    1.250    4.500    3.500    1.500 
#    0.000    0.625    0.000   10.500    0.000    0.000 
#    0.000    0.000    0.000    0.000    0.000    0.000 
#
# Total GULP energy -89161.795136 kJ/mol
# GULP energy per Si atom -5572.612196 kJ/mol
# Density = 2.268407 g / cm^3
# Si number density = 22.735821 Si / 1000 Ang^3
#
#
#
# Elastic Constant Matrix: (Units=GPa)
#
#
# Indices 1 2 3 4 5 6 
#
# 1 55.5748 20.4650 20.5140 7.1008 32.8847 12.1832
# 2 20.4650 87.5971 28.8838 12.5400 5.3950 9.5934
# 3 20.5140 28.8838 126.9444 8.5744 37.4567 -0.5482
# 4 7.1008 12.5400 8.5744 50.1012 6.5955 9.7460
# 5 32.8847 5.3950 37.4567 6.5955 39.3647 14.6019
# 6 12.1832 9.5934 -0.5482 9.7460 14.6019 24.8983
#
#
#
# Elastic Compliance Matrix: (Units=1/GPa)
#
#
# Indices 1 2 3 4 5 6 
#
# 1 0.047107 -0.012720 0.011042 -0.001049 -0.052975 0.013572
# 2 -0.012720 0.017246 -0.007842 -0.001531 0.020422 -0.011971
# 3 0.011042 -0.007842 0.016908 -0.001709 -0.029975 0.016239
# 4 -0.001049 -0.001531 -0.001709 0.022228 0.002325 -0.008999
# 5 -0.052975 0.020422 -0.029975 0.002325 0.113588 -0.050132
# 6 0.013572 -0.011971 0.016239 -0.008999 -0.050132 0.071415
#
#
# Mechanical properties :
#
#
# Convention : Reuss Voigt Hill
#
# Bulk Modulus (GPa) = 16.07197 45.53800 30.80499
# Shear Modulus (GPa) = 15.23125 36.22306 25.72716
#
# Velocity S-wave (km/s) = 2.59110 3.99584 3.36753
# Velocity P-wave (km/s) = 4.00450 6.43130 5.35713
#
# Compressibility (1/GPa) = 0.06222011
#
# Stress axis : x y z
#
# Youngs Moduli (GPa) = 21.22828 57.98431 59.14502
#
# Poissons Ratio (x) = 0.73756 -0.65310
# Poissons Ratio (y) = 0.27002 0.46384
# Poissons Ratio (z) = -0.23441 0.45474
#
# Static dielectric constant tensor:
#      x y z
#    x 2.005510 -0.045270 0.064130 
#    y -0.045270 1.894020 -0.010760 
#    z 0.064130 -0.010760 1.874770 
# 
# From -- ./inp_files/398891.got.cif
#   From: 2010.05.17/outbox.cif.g08.bks.cpg/sg2_200_cif.got.tgz:398891.got - 2010.06.03 11:33:40.
