data_PCOD9078074
_publ_section_title
;
Structure prediction by ZEFSAII (Michael W. Deem and Ramdas Pophale) SiO2 
 PCOD9078074
Probable space group: P -1
;
_chemical_formula_sum "Si O2"
_cell_formula_units_Z 16
_cell_length_a 11.782343
_cell_length_b 11.362116
_cell_length_c 9.325836
_cell_angle_alpha 114.723033
_cell_angle_beta 72.186673
_cell_angle_gamma 65.484737
_cell_volume 840.424345
_symmetry_space_group_name_H-M "P -1"
_symmetry_group_IT_number 2
_symmetry_cell_setting 'triclinic'
loop_
_space_group_symop_operation_xyz
x,y,z
-x,-y,-z
loop_
_atom_site_type_symbol
_atom_site_label
_atom_site_fract_x
_atom_site_fract_y
_atom_site_fract_z
Si Si1 0.980789 0.031140 0.195420
Si Si2 0.481624 0.076710 0.393552
Si Si3 0.342912 0.086608 0.019359
Si Si4 0.648685 0.230335 0.428805
Si Si5 0.693779 0.191705 0.072485
Si Si6 0.819786 0.670236 0.547829
Si Si7 0.110493 0.624738 0.471389
Si Si8 0.425360 0.500763 0.176395
O O1 0.823034 0.068310 0.318518
O O2 0.949853 0.198559 0.348299
O O3 0.000000 0.000000 0.000000
O O4 0.149581 0.871691 0.098084
O O5 0.535676 0.187811 0.440465
O O6 0.315719 0.195212 0.439419
O O7 0.500000 0.000000 0.500000
O O8 0.606193 0.920700 0.164557
O O9 0.224194 0.253835 0.234955
O O10 0.500000 0.000000 0.000000
O O11 0.291898 0.971896 0.989135
O O12 0.667695 0.272617 0.280889
O O13 0.588623 0.372679 0.639490
O O14 0.545297 0.316761 0.099960
O O15 0.840025 0.502965 0.480002
O O16 0.976632 0.640568 0.446522
O O17 0.255557 0.555736 0.278049
O O18 0.500000 0.500000 0.000000
#
# Coordination Sequence:
#
# PCOD9078074 Si02
#       8
#     2   2   2   2   2   2   2   2
#     4   9  18  34  60  87 110 142 193 249 281 330
#     4  10  21  36  56  87 120 152 191 237 299 349
#     4   9  17  31  56  85 106 147 194 234 277 335
#     4   9  20  37  57  82 112 150 194 237 283 343
#     4  10  18  35  58  83 109 146 198 234 281 336
#     4  10  20  36  63  85 117 156 194 248 285 347
#     4  10  20  38  59  90 118 150 202 241 295 344
#     4  11  23  37  56  85 118 155 190 239 296 351
#
# _framework density 19.038
#
# number of rings (size 3 to 8) (size 9 to 14) (size 15 to 20)
#    0.000    2.250    1.250    2.625    0.000    5.000 
#    2.250    1.250    0.000    3.750    0.000    0.000 
#    0.000    0.000    0.000    0.000    0.000    0.000 
#
# Total GULP energy -89073.018651 kJ/mol
# GULP energy per Si atom -5567.063666 kJ/mol
# Density = 1.899467 g / cm^3
# Si number density = 19.038000 Si / 1000 Ang^3
#
#
#
# Elastic Constant Matrix: (Units=GPa)
#
#
# Indices 1 2 3 4 5 6 
#
# 1 103.0798 25.4462 41.1542 -1.0354 -24.6014 -10.3836
# 2 25.4462 59.1818 45.4272 -7.5651 -13.2251 -12.6601
# 3 41.1542 45.4272 108.3681 -1.1704 -14.5866 -7.1984
# 4 -1.0354 -7.5651 -1.1704 24.7064 -1.9108 -2.5142
# 5 -24.6014 -13.2251 -14.5866 -1.9108 35.0888 8.6014
# 6 -10.3836 -12.6601 -7.1984 -2.5142 8.6014 13.3775
#
#
#
# Elastic Compliance Matrix: (Units=1/GPa)
#
#
# Indices 1 2 3 4 5 6 
#
# 1 0.013286 -0.000390 -0.003706 0.001174 0.006753 0.003828
# 2 -0.000390 0.033931 -0.011938 0.012654 0.001705 0.026667
# 3 -0.003706 -0.011938 0.015228 -0.003761 0.000791 -0.007197
# 4 0.001174 0.012654 -0.003761 0.046235 0.002082 0.018213
# 5 0.006753 0.001705 0.000791 0.002082 0.038507 -0.017087
# 6 0.003828 0.026667 -0.007197 0.018213 -0.017087 0.113498
#
#
# Mechanical properties :
#
#
# Convention : Reuss Voigt Hill
#
# Bulk Modulus (GPa) = 32.91994 54.96500 43.94247
# Shear Modulus (GPa) = 16.50816 25.20800 20.85808
#
# Velocity S-wave (km/s) = 2.94788 3.64275 3.31358
# Velocity P-wave (km/s) = 5.37735 6.82838 6.14584
#
# Compressibility (1/GPa) = 0.03037672
#
# Stress axis : x y z
#
# Youngs Moduli (GPa) = 75.26542 29.47116 65.66984
#
# Poissons Ratio (x) = 0.01148 0.24339
# Poissons Ratio (y) = 0.02933 0.78399
# Poissons Ratio (z) = 0.27896 0.35184
#
# Static dielectric constant tensor:
#      x y z
#    x 1.728530 -0.007240 -0.016110 
#    y -0.007240 1.704810 0.012030 
#    z -0.016110 0.012030 1.702510 
# 
# From -- ./inp_files/259477.got.cif
#   From: 2010.05.17/outbox.cif.g08.bks.cpg/sg2_130_cif.got.tgz:259477.got - 2010.06.03 11:33:40.
