data_PCOD9078036
_publ_section_title
;
Structure prediction by ZEFSAII (Michael W. Deem and Ramdas Pophale) SiO2 
 PCOD9078036
Probable space group: P -1
;
_chemical_formula_sum "Si O2"
_cell_formula_units_Z 16
_cell_length_a 9.870676
_cell_length_b 11.428232
_cell_length_c 11.050445
_cell_angle_alpha 112.311745
_cell_angle_beta 55.990195
_cell_angle_gamma 137.652611
_cell_volume 694.788973
_symmetry_space_group_name_H-M "P -1"
_symmetry_group_IT_number 2
_symmetry_cell_setting 'triclinic'
loop_
_space_group_symop_operation_xyz
x,y,z
-x,-y,-z
loop_
_atom_site_type_symbol
_atom_site_label
_atom_site_fract_x
_atom_site_fract_y
_atom_site_fract_z
Si Si1 0.551846 0.572531 0.369292
Si Si2 0.449786 0.282129 0.172527
Si Si3 0.076718 0.395544 0.872290
Si Si4 0.151909 0.759677 0.548248
Si Si5 0.369298 0.120362 0.639259
Si Si6 0.424493 0.164472 0.883844
Si Si7 0.951156 0.459180 0.707547
Si Si8 0.401607 0.885281 0.883173
O O1 0.500000 0.500000 0.500000
O O2 0.402606 0.398144 0.290514
O O3 0.811654 0.677527 0.248996
O O4 0.540905 0.715217 0.418448
O O5 0.721522 0.437998 0.084728
O O6 0.453206 0.166764 0.222219
O O7 0.347314 0.182996 0.057762
O O8 0.043830 0.451337 0.783391
O O9 0.857750 0.270466 0.013284
O O10 0.404102 0.839907 0.439575
O O11 0.020902 0.632058 0.448397
O O12 0.058153 0.643529 0.671441
O O13 0.180682 0.925848 0.606251
O O14 0.301173 0.137895 0.812375
O O15 0.685499 0.340185 0.808968
O O16 0.418350 0.007662 0.828882
O O17 0.500000 0.000000 0.000000
#
# Coordination Sequence:
#
# PCOD9078036 Si02
#       8
#     2   2   2   2   2   2   2   2
#     4  10  23  39  59  84 123 159 197 233 299 363
#     4   9  21  34  59  87 119 157 190 242 294 349
#     4  10  20  34  62  84 119 154 193 241 295 354
#     4   9  21  35  62  83 115 153 201 246 292 341
#     4  10  21  40  57  87 115 158 199 242 294 344
#     4  10  21  34  61  88 117 149 199 252 287 344
#     4  10  18  35  57  90 112 147 199 246 294 348
#     4  10  18  35  58  92 117 142 201 248 289 338
#
# _framework density 23.028572
#
# number of rings (size 3 to 8) (size 9 to 14) (size 15 to 20)
#    0.750    1.500    2.500    1.125    1.750    2.500 
#    0.000    1.250   16.500    0.000    0.000    0.000 
#    0.000    0.000    0.000    0.000    0.000    0.000 
#
# Total GULP energy -89119.881354 kJ/mol
# GULP energy per Si atom -5569.992585 kJ/mol
# Density = 2.297616 g / cm^3
# Si number density = 23.028572 Si / 1000 Ang^3
#
#
#
# Elastic Constant Matrix: (Units=GPa)
#
#
# Indices 1 2 3 4 5 6 
#
# 1 27.4954 22.7433 18.2892 7.9788 16.8735 -12.9396
# 2 22.7433 124.5673 36.8853 13.6612 21.7741 -25.3298
# 3 18.2892 36.8853 69.2575 3.0140 17.7966 -16.4937
# 4 7.9788 13.6612 3.0140 37.4453 -4.1436 3.1541
# 5 16.8735 21.7741 17.7966 -4.1436 33.0584 -7.5377
# 6 -12.9396 -25.3298 -16.4937 3.1541 -7.5377 32.4197
#
#
#
# Elastic Compliance Matrix: (Units=1/GPa)
#
#
# Indices 1 2 3 4 5 6 
#
# 1 0.078217 0.000547 -0.005581 -0.022199 -0.034848 0.022864
# 2 0.000547 0.011849 -0.003117 -0.005394 -0.005452 0.007147
# 3 -0.005581 -0.003117 0.019850 -0.000169 -0.004818 0.004332
# 4 -0.022199 -0.005394 -0.000169 0.036335 0.016602 -0.012835
# 5 -0.034848 -0.005452 -0.004818 0.016602 0.054100 -0.009656
# 6 0.022864 0.007147 0.004332 -0.012835 -0.009656 0.046763
#
#
# Mechanical properties :
#
#
# Convention : Reuss Voigt Hill
#
# Bulk Modulus (GPa) = 10.68216 41.90619 26.29418
# Shear Modulus (GPa) = 16.97098 30.14485 23.55791
#
# Velocity S-wave (km/s) = 2.71763 3.62196 3.20189
# Velocity P-wave (km/s) = 3.80737 5.97733 5.01122
#
# Compressibility (1/GPa) = 0.09361399
#
# Stress axis : x y z
#
# Youngs Moduli (GPa) = 12.78492 84.39729 50.37832
#
# Poissons Ratio (x) = -0.04616 0.28114
# Poissons Ratio (y) = -0.00699 0.15704
# Poissons Ratio (z) = 0.07135 0.26308
#
# Static dielectric constant tensor:
#      x y z
#    x 1.830580 0.134850 0.070070 
#    y 0.134850 1.518910 -0.126600 
#    z 0.070070 -0.126600 1.823250 
# 
# From -- ./inp_files/406401.got.cif
#   From: 2010.05.17/outbox.cif.g08.bks.cpg/sg2_204_cif.got.tgz:406401.got - 2010.06.03 11:33:40.
