data_PCOD9078738
_publ_section_title
;
Structure prediction by ZEFSAII (Michael W. Deem and Ramdas Pophale) SiO2 
 PCOD9078738
Probable space group: P -1
;
_chemical_formula_sum "Si O2"
_cell_formula_units_Z 16
_cell_length_a 27.262719
_cell_length_b 21.423638
_cell_length_c 10.676560
_cell_angle_alpha 146.686115
_cell_angle_beta 145.562334
_cell_angle_gamma 11.292600
_cell_volume 669.858231
_symmetry_space_group_name_H-M "P -1"
_symmetry_group_IT_number 2
_symmetry_cell_setting 'triclinic'
loop_
_space_group_symop_operation_xyz
x,y,z
-x,-y,-z
loop_
_atom_site_type_symbol
_atom_site_label
_atom_site_fract_x
_atom_site_fract_y
_atom_site_fract_z
Si Si1 0.759460 0.463428 0.944019
Si Si2 0.071861 0.427874 0.742888
Si Si3 0.799869 0.245975 0.293326
Si Si4 0.866864 0.406938 0.807720
Si Si5 0.251987 0.375011 0.566780
Si Si6 0.446934 0.675356 0.761358
Si Si7 0.631122 0.032439 0.627963
Si Si8 0.574484 0.480149 0.963816
O O1 0.749361 0.542836 0.926750
O O2 0.502250 0.720151 0.875059
O O3 0.830412 0.454725 0.196989
O O4 0.950594 0.123509 0.752391
O O5 0.962554 0.452949 0.627100
O O6 0.288138 0.125238 0.594691
O O7 0.154799 0.434471 0.009689
O O8 0.843590 0.745891 0.700482
O O9 0.780850 0.403135 0.541641
O O10 0.789522 0.227479 0.094058
O O11 0.564751 0.468827 0.233073
O O12 0.165679 0.019209 0.794250
O O13 0.363691 0.317748 0.597200
O O14 0.500000 0.000000 0.500000
O O15 0.500000 0.500000 0.500000
O O16 0.629239 0.443328 0.875354
O O17 0.616664 0.185142 0.835034
#
# Coordination Sequence:
#
# PCOD9078738 Si02
#       8
#     2   2   2   2   2   2   2   2
#     4  12  21  36  63  88 119 159 198 246 299 349
#     4  10  19  32  61  84 115 149 196 247 296 340
#     4  11  24  38  61  85 123 165 193 238 302 359
#     4  12  22  40  58  92 123 150 200 253 292 349
#     4  10  19  32  55  90 113 145 193 249 296 340
#     4  12  22  37  61  88 118 153 195 243 293 347
#     4  10  18  36  57  86 116 149 194 249 291 345
#     4  11  22  42  59  87 123 158 199 240 294 367
#
# _framework density 23.885652
#
# number of rings (size 3 to 8) (size 9 to 14) (size 15 to 20)
#    0.000    1.000    5.000    4.875    0.000    0.500 
#    0.000    0.625    0.000    0.750    0.000    0.000 
#    0.000    1.250    0.000    0.000    0.000    0.000 
#
# Total GULP energy -89453.416387 kJ/mol
# GULP energy per Si atom -5590.838524 kJ/mol
# Density = 2.383129 g / cm^3
# Si number density = 23.885652 Si / 1000 Ang^3
#
#
#
# Elastic Constant Matrix: (Units=GPa)
#
#
# Indices 1 2 3 4 5 6 
#
# 1 78.4143 24.7622 25.4997 -12.9505 12.7374 -36.8069
# 2 24.7622 33.5960 19.1692 -5.4095 2.4153 -15.3751
# 3 25.4997 19.1692 177.0939 1.1999 28.2852 -26.3943
# 4 -12.9505 -5.4095 1.1999 28.1116 -12.4757 9.7361
# 5 12.7374 2.4153 28.2852 -12.4757 31.1420 -1.5791
# 6 -36.8069 -15.3751 -26.3943 9.7361 -1.5791 30.5350
#
#
#
# Elastic Compliance Matrix: (Units=1/GPa)
#
#
# Indices 1 2 3 4 5 6 
#
# 1 0.039777 -0.009907 0.007036 -0.012617 -0.024318 0.051805
# 2 -0.009907 0.041532 -0.003282 0.004417 0.005836 0.005027
# 3 0.007036 -0.003282 0.010285 -0.011086 -0.015470 0.018453
# 4 -0.012617 0.004417 -0.011086 0.061713 0.037566 -0.040301
# 5 -0.024318 0.005836 -0.015470 0.037566 0.068261 -0.048195
# 6 0.051805 0.005027 0.018453 -0.040301 -0.048195 0.124035
#
#
# Mechanical properties :
#
#
# Convention : Reuss Voigt Hill
#
# Bulk Modulus (GPa) = 12.61225 47.55183 30.08204
# Shear Modulus (GPa) = 13.00935 32.60260 22.80597
#
# Velocity S-wave (km/s) = 2.33631 3.69852 3.09333
# Velocity P-wave (km/s) = 3.54535 6.17981 5.03784
#
# Compressibility (1/GPa) = 0.07928802
#
# Stress axis : x y z
#
# Youngs Moduli (GPa) = 25.14036 24.07763 97.22668
#
# Poissons Ratio (x) = 0.23853 -0.68405
# Poissons Ratio (y) = 0.24906 0.31909
# Poissons Ratio (z) = -0.17688 0.07902
#
# Static dielectric constant tensor:
#      x y z
#    x 1.943320 0.015590 0.007510 
#    y 0.015590 1.946450 -0.043620 
#    z 0.007510 -0.043620 1.935480 
# 
# From -- ./inp_files/436909.got.cif
#   From: 2010.05.17/outbox.cif.g08.bks.cpg/sg2_219_cif.got.tgz:436909.got - 2010.06.03 11:33:40.
