data_PCOD9078928
_publ_section_title
;
Structure prediction by ZEFSAII (Michael W. Deem and Ramdas Pophale) SiO2 
 PCOD9078928
Probable space group: P -1
;
_chemical_formula_sum "Si O2"
_cell_formula_units_Z 16
_cell_length_a 10.695042
_cell_length_b 13.706603
_cell_length_c 10.614503
_cell_angle_alpha 49.845114
_cell_angle_beta 83.912415
_cell_angle_gamma 119.328929
_cell_volume 802.505186
_symmetry_space_group_name_H-M "P -1"
_symmetry_group_IT_number 2
_symmetry_cell_setting 'triclinic'
loop_
_space_group_symop_operation_xyz
x,y,z
-x,-y,-z
loop_
_atom_site_type_symbol
_atom_site_label
_atom_site_fract_x
_atom_site_fract_y
_atom_site_fract_z
Si Si1 0.267382 0.897288 0.578625
Si Si2 0.638792 0.218210 0.140005
Si Si3 0.074032 0.937634 0.964145
Si Si4 0.070839 0.196446 0.347123
Si Si5 0.565706 0.459812 0.909488
Si Si6 0.632226 0.043252 0.056209
Si Si7 0.590444 0.815993 0.449811
Si Si8 0.735831 0.623611 0.090240
O O1 0.237441 0.746506 0.788714
O O2 0.092464 0.827446 0.587738
O O3 0.436684 0.011634 0.370092
O O4 0.334268 0.051545 0.547249
O O5 0.698065 0.202994 0.013064
O O6 0.610784 0.348152 0.030085
O O7 0.192456 0.913529 0.040057
O O8 0.223874 0.098178 0.710110
O O9 0.894552 0.745163 0.075561
O O10 0.000000 0.000000 0.000000
O O11 0.236818 0.330353 0.317944
O O12 0.155239 0.303833 0.114017
O O13 0.000000 0.000000 0.500000
O O14 0.393387 0.345078 0.928957
O O15 0.500000 0.500000 0.000000
O O16 0.523023 0.863858 0.309220
O O17 0.500000 0.000000 0.000000
O O18 0.422316 0.600187 0.685435
#
# Coordination Sequence:
#
# PCOD9078928 Si02
#       8
#     2   2   2   2   2   2   2   2
#     4  10  18  36  60  88 128 165 208 253 320 401
#     4  10  20  36  59  88 126 174 202 256 336 371
#     4  10  23  41  66  92 117 171 222 264 323 370
#     4  11  20  35  58  92 134 170 203 261 320 382
#     4  10  22  32  54  93 126 164 205 254 316 379
#     4   9  21  43  65  91 130 165 211 271 324 380
#     4   9  20  39  64  94 123 170 208 261 329 376
#     4  11  20  38  63  87 132 163 212 268 308 386
#
# _framework density 19.937564999999999
#
# number of rings (size 3 to 8) (size 9 to 14) (size 15 to 20)
#    0.750    1.250    1.250    3.750    1.750    1.000 
#    0.000    4.375    0.000    0.000    0.000    0.000 
#    0.000    0.000    0.000    0.000    0.000    0.000 
#
# Total GULP energy -89068.074176 kJ/mol
# GULP energy per Si atom -5566.754636 kJ/mol
# Density = 1.989219 g / cm^3
# Si number density = 19.937565 Si / 1000 Ang^3
#
#
#
# Elastic Constant Matrix: (Units=GPa)
#
#
# Indices 1 2 3 4 5 6 
#
# 1 152.2778 36.8806 25.4424 -3.3632 -6.1377 -0.0342
# 2 36.8806 44.4726 16.5318 0.3036 -6.5453 -1.9006
# 3 25.4424 16.5318 79.8231 -10.1863 1.1316 -4.6074
# 4 -3.3632 0.3036 -10.1863 18.9188 -3.7305 -6.5294
# 5 -6.1377 -6.5453 1.1316 -3.7305 38.4402 -4.1172
# 6 -0.0342 -1.9006 -4.6074 -6.5294 -4.1172 42.8599
#
#
#
# Elastic Compliance Matrix: (Units=1/GPa)
#
#
# Indices 1 2 3 4 5 6 
#
# 1 0.008368 -0.006448 -0.001235 0.000910 0.000337 -0.000241
# 2 -0.006448 0.030189 -0.004600 -0.003049 0.004032 0.000762
# 3 -0.001235 -0.004600 0.015176 0.008926 -0.000265 0.002761
# 4 0.000910 -0.003049 0.008926 0.063006 0.006663 0.011064
# 5 0.000337 0.004032 -0.000265 0.006663 0.027820 0.003838
# 6 -0.000241 0.000762 0.002761 0.011064 0.003838 0.025716
#
#
# Mechanical properties :
#
#
# Convention : Reuss Voigt Hill
#
# Bulk Modulus (GPa) = 34.28175 48.25368 41.26772
# Shear Modulus (GPa) = 24.44222 33.22502 28.83362
#
# Velocity S-wave (km/s) = 3.50514 4.08665 3.80701
# Velocity P-wave (km/s) = 5.79769 6.82074 6.32992
#
# Compressibility (1/GPa) = 0.02917004
#
# Stress axis : x y z
#
# Youngs Moduli (GPa) = 119.49632 33.12410 65.89375
#
# Poissons Ratio (x) = 0.21358 0.08135
# Poissons Ratio (y) = 0.77050 0.30308
# Poissons Ratio (z) = 0.14752 0.15236
#
# Static dielectric constant tensor:
#      x y z
#    x 1.814440 0.003450 0.017440 
#    y 0.003450 1.750140 -0.001150 
#    z 0.017440 -0.001150 1.728430 
# 
# From -- ./inp_files/432587.got.cif
#   From: 2010.05.17/outbox.cif.g08.bks.cpg/sg2_217_cif.got.tgz:432587.got - 2010.06.03 11:33:40.
