data_PCOD9078219
_publ_section_title
;
Structure prediction by ZEFSAII (Michael W. Deem and Ramdas Pophale) SiO2 
 PCOD9078219
Probable space group: P -1
;
_chemical_formula_sum "Si O2"
_cell_formula_units_Z 16
_cell_length_a 9.311129
_cell_length_b 16.269724
_cell_length_c 9.100333
_cell_angle_alpha 47.397671
_cell_angle_beta 63.289779
_cell_angle_gamma 62.498521
_cell_volume 880.071448
_symmetry_space_group_name_H-M "P -1"
_symmetry_group_IT_number 2
_symmetry_cell_setting 'triclinic'
loop_
_space_group_symop_operation_xyz
x,y,z
-x,-y,-z
loop_
_atom_site_type_symbol
_atom_site_label
_atom_site_fract_x
_atom_site_fract_y
_atom_site_fract_z
Si Si1 0.080893 0.308706 0.382919
Si Si2 0.017876 0.066513 0.764096
Si Si3 0.837003 0.081506 0.547075
Si Si4 0.493356 0.509923 0.316939
Si Si5 0.565316 0.698749 0.862168
Si Si6 0.747028 0.521895 0.773620
Si Si7 0.354588 0.941222 0.595982
Si Si8 0.807801 0.349748 0.218754
O O1 0.030028 0.199258 0.609412
O O2 0.581682 0.192163 0.229540
O O3 0.117837 0.400867 0.371659
O O4 0.949492 0.364361 0.251338
O O5 0.864134 0.066511 0.726056
O O6 0.187503 0.000245 0.686770
O O7 0.000000 0.000000 0.000000
O O8 0.684677 0.051513 0.568685
O O9 0.831969 0.213883 0.353643
O O10 0.000000 0.000000 0.500000
O O11 0.500000 0.500000 0.500000
O O12 0.322046 0.506551 0.316163
O O13 0.636150 0.407434 0.308161
O O14 0.538419 0.627975 0.102322
O O15 0.591415 0.605434 0.830806
O O16 0.741767 0.732925 0.732310
O O17 0.809150 0.414590 0.984776
O O18 0.500000 0.000000 0.500000
#
# Coordination Sequence:
#
# PCOD9078219 Si02
#       8
#     2   2   2   2   2   2   2   2
#     4   9  19  34  59  81 101 142 195 227 268 334
#     4  10  21  37  55  82 117 147 181 234 291 332
#     4   9  20  34  56  86 109 143 190 226 274 345
#     4  11  22  34  52  83 117 145 177 228 281 339
#     4   9  19  33  58  78 106 140 195 224 271 323
#     4   9  18  34  56  82 104 140 192 223 272 326
#     4  11  18  35  60  82 106 146 191 238 268 328
#     4  10  18  35  60  77 108 146 182 226 279 320
#
# _framework density 18.180342
#
# number of rings (size 3 to 8) (size 9 to 14) (size 15 to 20)
#    0.750    1.500    1.250    3.375    0.000    2.000 
#    0.000    2.500    0.000    0.000    0.000    0.000 
#    0.000    0.000    0.000    0.000    0.000    0.000 
#
# Total GULP energy -89085.805152 kJ/mol
# GULP energy per Si atom -5567.862822 kJ/mol
# Density = 1.813896 g / cm^3
# Si number density = 18.180342 Si / 1000 Ang^3
#
#
#
# Elastic Constant Matrix: (Units=GPa)
#
#
# Indices 1 2 3 4 5 6 
#
# 1 141.4650 20.3296 67.1966 2.1370 24.3465 20.8777
# 2 20.3296 49.9732 31.8639 -22.5177 12.3844 1.8075
# 3 67.1966 31.8639 135.3663 -5.9706 28.4607 25.2545
# 4 2.1370 -22.5177 -5.9706 25.1603 -1.7663 6.7095
# 5 24.3465 12.3844 28.4607 -1.7663 25.4171 0.4525
# 6 20.8777 1.8075 25.2545 6.7095 0.4525 25.9888
#
#
#
# Elastic Compliance Matrix: (Units=1/GPa)
#
#
# Indices 1 2 3 4 5 6 
#
# 1 0.010416 -0.001901 -0.002573 -0.002292 -0.006239 -0.005034
# 2 -0.001901 0.045095 -0.003464 0.041064 -0.013266 -0.008613
# 3 -0.002573 -0.003464 0.014267 0.002934 -0.011404 -0.012115
# 4 -0.002292 0.041064 0.002934 0.083020 -0.014883 -0.025040
# 5 -0.006239 -0.013266 -0.011404 -0.014883 0.063167 0.019759
# 6 -0.005034 -0.008613 -0.012115 -0.025040 0.019759 0.061015
#
#
# Mechanical properties :
#
#
# Convention : Reuss Voigt Hill
#
# Bulk Modulus (GPa) = 18.55221 62.84274 40.69747
# Shear Modulus (GPa) = 16.08629 29.14085 22.61357
#
# Velocity S-wave (km/s) = 2.97782 4.00794 3.53065
# Velocity P-wave (km/s) = 4.69573 7.48729 6.24937
#
# Compressibility (1/GPa) = 0.05390194
#
# Stress axis : x y z
#
# Youngs Moduli (GPa) = 96.00921 22.17531 70.09017
#
# Poissons Ratio (x) = 0.04216 0.18034
# Poissons Ratio (y) = 0.18254 0.24279
# Poissons Ratio (z) = 0.24703 0.07681
#
# Static dielectric constant tensor:
#      x y z
#    x 1.676440 0.017390 0.003520 
#    y 0.017390 1.638910 -0.008920 
#    z 0.003520 -0.008920 1.603690 
# 
# From -- ./inp_files/214385.got.cif
#   From: 2010.05.17/outbox.cif.g08.bks.cpg/sg2_108_cif.got.tgz:214385.got - 2010.06.03 11:33:40.
