data_PCOD9078839
_publ_section_title
;
Structure prediction by ZEFSAII (Michael W. Deem and Ramdas Pophale) SiO2 
 PCOD9078839
Probable space group: P -1
;
_chemical_formula_sum "Si O2"
_cell_formula_units_Z 16
_cell_length_a 9.816206
_cell_length_b 9.154847
_cell_length_c 16.664970
_cell_angle_alpha 111.447685
_cell_angle_beta 121.749332
_cell_angle_gamma 114.596512
_cell_volume 757.731026
_symmetry_space_group_name_H-M "P -1"
_symmetry_group_IT_number 2
_symmetry_cell_setting 'triclinic'
loop_
_space_group_symop_operation_xyz
x,y,z
-x,-y,-z
loop_
_atom_site_type_symbol
_atom_site_label
_atom_site_fract_x
_atom_site_fract_y
_atom_site_fract_z
Si Si1 0.928745 0.614193 0.921106
Si Si2 0.624052 0.276608 0.891464
Si Si3 0.703733 0.353155 0.116116
Si Si4 0.027956 0.852604 0.396239
Si Si5 0.417246 0.769978 0.398377
Si Si6 0.827547 0.074094 0.084678
Si Si7 0.928830 0.129225 0.402443
Si Si8 0.237899 0.394206 0.396447
O O1 0.739955 0.495202 0.912116
O O2 0.774601 0.383624 0.766108
O O3 0.024308 0.820616 0.932262
O O4 0.178813 0.718448 0.051344
O O5 0.348343 0.014932 0.728715
O O6 0.629141 0.327980 0.995932
O O7 0.776520 0.223017 0.118078
O O8 0.926449 0.632862 0.268566
O O9 0.453491 0.201345 0.058910
O O10 0.988021 0.780341 0.462476
O O11 0.322420 0.109917 0.526570
O O12 0.897458 0.916589 0.344586
O O13 0.303224 0.594706 0.403795
O O14 0.500000 0.000000 0.500000
O O15 0.009584 0.145050 0.224327
O O16 0.125143 0.333606 0.437570
O O17 0.500000 0.500000 0.500000
#
# Coordination Sequence:
#
# PCOD9078839 Si02
#       8
#     2   2   2   2   2   2   2   2
#     4   9  19  34  60  84 117 158 195 249 307 356
#     4  10  18  36  59  86 114 154 207 243 297 360
#     4  10  20  38  60  87 118 157 204 250 304 362
#     4  11  23  39  60  90 127 164 202 253 315 366
#     4  11  21  39  61  92 126 161 203 258 315 362
#     4   9  19  36  61  84 120 160 196 251 311 354
#     4  11  23  40  61  89 124 165 205 252 309 368
#     4  11  21  39  62  87 120 164 206 246 305 372
#
# _framework density 21.115670000000001
#
# number of rings (size 3 to 8) (size 9 to 14) (size 15 to 20)
#    0.000    1.750    3.750    2.250    0.000    0.500 
#    0.000    8.750    0.000    1.500    0.000    0.000 
#    0.000    0.000    0.000    0.000    0.000    0.000 
#
# Total GULP energy -89257.484626 kJ/mol
# GULP energy per Si atom -5578.592789 kJ/mol
# Density = 2.106761 g / cm^3
# Si number density = 21.115670 Si / 1000 Ang^3
#
#
#
# Elastic Constant Matrix: (Units=GPa)
#
#
# Indices 1 2 3 4 5 6 
#
# 1 27.0314 20.3678 12.6594 1.8757 13.2327 14.9480
# 2 20.3678 75.3690 26.2625 -13.3915 -0.9108 36.4419
# 3 12.6594 26.2625 80.5509 -0.6905 26.4415 -5.3307
# 4 1.8757 -13.3915 -0.6905 26.8033 8.1971 3.5977
# 5 13.2327 -0.9108 26.4415 8.1971 32.8979 4.7427
# 6 14.9480 36.4419 -5.3307 3.5977 4.7427 43.1378
#
#
#
# Elastic Compliance Matrix: (Units=1/GPa)
#
#
# Indices 1 2 3 4 5 6 
#
# 1 0.065584 -0.021894 0.007100 -0.005844 -0.031320 0.000578
# 2 -0.021894 0.064704 -0.034119 0.028774 0.039213 -0.058001
# 3 0.007100 -0.034119 0.036357 -0.010522 -0.035538 0.035640
# 4 -0.005844 0.028774 -0.010522 0.055026 0.001986 -0.028390
# 5 -0.031320 0.039213 -0.035538 0.001986 0.077242 -0.035322
# 6 0.000578 -0.058001 0.035640 -0.028390 -0.035322 0.082635
#
#
# Mechanical properties :
#
#
# Convention : Reuss Voigt Hill
#
# Bulk Modulus (GPa) = 14.53068 33.50343 24.01705
# Shear Modulus (GPa) = 9.95400 28.81190 19.38295
#
# Velocity S-wave (km/s) = 2.17354 3.69789 3.03304
# Velocity P-wave (km/s) = 3.63255 5.84240 4.86462
#
# Compressibility (1/GPa) = 0.06881990
#
# Stress axis : x y z
#
# Youngs Moduli (GPa) = 15.24773 15.45500 27.50527
#
# Poissons Ratio (x) = 0.33836 -0.19529
# Poissons Ratio (y) = 0.33383 0.93844
# Poissons Ratio (z) = -0.10826 0.52730
#
# Static dielectric constant tensor:
#      x y z
#    x 1.817480 0.014360 0.057260 
#    y 0.014360 1.796820 -0.002880 
#    z 0.057260 -0.002880 1.779360 
# 
# From -- ./inp_files/469285.got.cif
#   From: 2010.05.17/outbox.cif.g08.bks.cpg/sg2_235_cif.got.tgz:469285.got - 2010.06.03 11:33:40.
