data_PCOD9078098
_publ_section_title
;
Structure prediction by ZEFSAII (Michael W. Deem and Ramdas Pophale) SiO2 
 PCOD9078098
Probable space group: P -1
;
_chemical_formula_sum "Si O2"
_cell_formula_units_Z 16
_cell_length_a 11.740740
_cell_length_b 20.963389
_cell_length_c 7.741875
_cell_angle_alpha 42.023460
_cell_angle_beta 69.602625
_cell_angle_gamma 38.543516
_cell_volume 659.920498
_symmetry_space_group_name_H-M "P -1"
_symmetry_group_IT_number 2
_symmetry_cell_setting 'triclinic'
loop_
_space_group_symop_operation_xyz
x,y,z
-x,-y,-z
loop_
_atom_site_type_symbol
_atom_site_label
_atom_site_fract_x
_atom_site_fract_y
_atom_site_fract_z
Si Si1 0.300659 0.852274 0.767181
Si Si2 0.414533 0.951574 0.279908
Si Si3 0.436419 0.971619 0.748102
Si Si4 0.355576 0.358475 0.774664
Si Si5 0.810057 0.219162 0.279773
Si Si6 0.792201 0.577191 0.885017
Si Si7 0.923185 0.286781 0.776458
Si Si8 0.087804 0.710271 0.620712
O O1 0.329135 0.944685 0.506143
O O2 0.351420 0.755690 0.762177
O O3 0.406132 0.750265 0.099159
O O4 0.039034 0.015731 0.605984
O O5 0.624154 0.751176 0.514376
O O6 0.508016 0.993153 0.196607
O O7 0.186740 0.108573 0.984412
O O8 0.500000 0.000000 0.500000
O O9 0.180371 0.107563 0.599623
O O10 0.596019 0.775338 0.061720
O O11 0.163535 0.553857 0.428922
O O12 0.318468 0.369926 0.977224
O O13 0.784254 0.301737 0.295778
O O14 0.838824 0.268132 0.999592
O O15 0.000000 0.500000 0.000000
O O16 0.865057 0.429644 0.065559
O O17 0.842513 0.324922 0.546007
#
# Coordination Sequence:
#
# PCOD9078098 Si02
#       8
#     2   2   2   2   2   2   2   2
#     4   9  18  37  66  89 119 164 211 251 308 369
#     4  10  20  37  59  89 129 164 202 255 309 363
#     4  12  18  35  67  90 123 166 204 248 309 374
#     4  10  20  36  59  93 127 162 206 252 309 373
#     4  10  20  41  66  89 121 167 206 258 310 361
#     4  10  18  35  58  87 122 162 204 247 306 365
#     4  10  24  41  58  93 135 156 205 261 304 365
#     4  11  22  39  63  94 122 164 208 252 313 370
#
# _framework density 24.245342999999998
#
# number of rings (size 3 to 8) (size 9 to 14) (size 15 to 20)
#    0.000    1.750    5.000    0.750    0.000    1.500 
#    2.250   11.250    0.000    0.000    0.000    0.000 
#    0.000    0.000    0.000    0.000    0.000    0.000 
#
# Total GULP energy -89163.621459 kJ/mol
# GULP energy per Si atom -5572.726341 kJ/mol
# Density = 2.419016 g / cm^3
# Si number density = 24.245343 Si / 1000 Ang^3
#
#
#
# Elastic Constant Matrix: (Units=GPa)
#
#
# Indices 1 2 3 4 5 6 
#
# 1 111.9413 19.7181 36.9296 -7.2311 -8.1352 35.5438
# 2 19.7181 66.3945 36.1461 2.9081 -9.5378 27.7278
# 3 36.9296 36.1461 134.7701 -27.4806 -7.8886 20.0382
# 4 -7.2311 2.9081 -27.4806 38.5001 9.7193 -7.7961
# 5 -8.1352 -9.5378 -7.8886 9.7193 27.8584 -9.6852
# 6 35.5438 27.7278 20.0382 -7.7961 -9.6852 39.5614
#
#
#
# Elastic Compliance Matrix: (Units=1/GPa)
#
#
# Indices 1 2 3 4 5 6 
#
# 1 0.013476 0.003550 -0.003207 -0.002889 0.000593 -0.013394
# 2 0.003550 0.027857 -0.007684 -0.012412 0.005831 -0.019840
# 3 -0.003207 -0.007684 0.011635 0.009623 -0.002345 0.003696
# 4 -0.002889 -0.012412 0.009623 0.038498 -0.011946 0.011082
# 5 0.000593 0.005831 -0.002345 -0.011946 0.043238 0.004799
# 6 -0.013394 -0.019840 0.003696 0.011082 0.004799 0.052704
#
#
# Mechanical properties :
#
#
# Convention : Reuss Voigt Hill
#
# Bulk Modulus (GPa) = 26.11965 55.41039 40.76502
# Shear Modulus (GPa) = 23.27180 35.87145 29.57162
#
# Velocity S-wave (km/s) = 3.10150 3.85062 3.49618
# Velocity P-wave (km/s) = 4.86027 6.53249 5.75741
#
# Compressibility (1/GPa) = 0.03828536
#
# Stress axis : x y z
#
# Youngs Moduli (GPa) = 74.20794 35.89701 85.94583
#
# Poissons Ratio (x) = -0.12742 0.27566
# Poissons Ratio (y) = -0.26341 0.66039
# Poissons Ratio (z) = 0.23801 0.27582
#
# Static dielectric constant tensor:
#      x y z
#    x 1.750400 0.137980 -0.141370 
#    y 0.137980 1.968530 0.073380 
#    z -0.141370 0.073380 1.869910 
# 
# From -- ./inp_files/282745.got.cif
#   From: 2010.05.17/outbox.cif.g08.bks.cpg/sg2_142_cif.got.tgz:282745.got - 2010.06.03 11:33:40.
