data_PCOD9078865
_publ_section_title
;
Structure prediction by ZEFSAII (Michael W. Deem and Ramdas Pophale) SiO2 
 PCOD9078865
Probable space group: P -1
;
_chemical_formula_sum "Si O2"
_cell_formula_units_Z 16
_cell_length_a 13.867563
_cell_length_b 8.757186
_cell_length_c 11.624822
_cell_angle_alpha 113.928799
_cell_angle_beta 93.111695
_cell_angle_gamma 43.145559
_cell_volume 813.828851
_symmetry_space_group_name_H-M "P -1"
_symmetry_group_IT_number 2
_symmetry_cell_setting 'triclinic'
loop_
_space_group_symop_operation_xyz
x,y,z
-x,-y,-z
loop_
_atom_site_type_symbol
_atom_site_label
_atom_site_fract_x
_atom_site_fract_y
_atom_site_fract_z
Si Si1 0.552025 0.439321 0.852454
Si Si2 0.380170 0.905761 0.544810
Si Si3 0.358040 0.244643 0.790819
Si Si4 0.191447 0.846032 0.566575
Si Si5 0.133411 0.581874 0.351063
Si Si6 0.350441 0.313940 0.071791
Si Si7 0.297072 0.093656 0.348944
Si Si8 0.318574 0.566858 0.710694
O O1 0.605130 0.553487 0.864301
O O2 0.414902 0.565147 0.797025
O O3 0.687191 0.122749 0.747626
O O4 0.500000 0.500000 0.000000
O O5 0.348914 0.064624 0.699422
O O6 0.294290 0.099703 0.488310
O O7 0.329571 0.784419 0.525144
O O8 0.555791 0.673439 0.444761
O O9 0.273080 0.477879 0.764959
O O10 0.538281 0.053639 0.729273
O O11 0.303429 0.354924 0.948758
O O12 0.195553 0.663337 0.446114
O O13 0.193403 0.812483 0.693848
O O14 0.040932 0.144387 0.605850
O O15 0.225547 0.433008 0.193651
O O16 0.166130 0.377333 0.369279
O O17 0.500000 0.000000 0.000000
#
# Coordination Sequence:
#
# PCOD9078865 Si02
#       8
#     2   2   2   2   2   2   2   2
#     4  10  18  36  59  92 114 146 194 239 294 339
#     4  10  20  35  59  89 112 150 199 243 298 332
#     4  10  19  35  58  89 117 148 191 245 292 349
#     4  11  24  39  59  86 121 156 197 249 282 351
#     4  11  23  41  58  85 121 159 198 235 299 341
#     4  12  22  36  63  91 119 154 192 242 296 347
#     4  10  19  37  61  86 118 150 197 246 288 349
#     4  10  20  35  62  85 119 150 191 249 287 346
#
# _framework density 19.660152
#
# number of rings (size 3 to 8) (size 9 to 14) (size 15 to 20)
#    0.000    1.750    3.750    4.875    1.750    0.500 
#    0.000    2.500    0.000    0.000    0.000    0.000 
#    0.000    0.000    0.000    0.000    0.000    0.000 
#
# Total GULP energy -89345.036236 kJ/mol
# GULP energy per Si atom -5584.064765 kJ/mol
# Density = 1.961540 g / cm^3
# Si number density = 19.660152 Si / 1000 Ang^3
#
#
#
# Elastic Constant Matrix: (Units=GPa)
#
#
# Indices 1 2 3 4 5 6 
#
# 1 36.6481 17.2546 12.7129 4.5923 15.9539 13.4879
# 2 17.2546 130.2975 23.5719 -3.5600 11.9169 13.2560
# 3 12.7129 23.5719 83.2568 -3.5391 20.2248 -1.6740
# 4 4.5923 -3.5600 -3.5391 29.5685 7.5567 5.9241
# 5 15.9539 11.9169 20.2248 7.5567 29.9079 2.8770
# 6 13.4879 13.2560 -1.6740 5.9241 2.8770 19.9288
#
#
#
# Elastic Compliance Matrix: (Units=1/GPa)
#
#
# Indices 1 2 3 4 5 6 
#
# 1 0.048994 -0.000800 -0.002295 0.003877 -0.022286 -0.030755
# 2 -0.000800 0.009012 -0.001972 0.002695 -0.001921 -0.006142
# 3 -0.002295 -0.001972 0.015557 0.003593 -0.009854 0.004526
# 4 0.003877 0.002695 0.003593 0.040482 -0.014447 -0.014063
# 5 -0.022286 -0.001921 -0.009854 -0.014447 0.055263 0.011850
# 6 -0.030755 -0.006142 0.004526 -0.014063 0.011850 0.077929
#
#
# Mechanical properties :
#
#
# Convention : Reuss Voigt Hill
#
# Bulk Modulus (GPa) = 15.76530 39.69789 27.73159
# Shear Modulus (GPa) = 17.95256 28.99190 23.47223
#
# Velocity S-wave (km/s) = 3.02511 3.84429 3.45903
# Velocity P-wave (km/s) = 4.49867 6.31986 5.48537
#
# Compressibility (1/GPa) = 0.06343046
#
# Stress axis : x y z
#
# Youngs Moduli (GPa) = 20.41073 110.96901 64.27992
#
# Poissons Ratio (x) = 0.08875 0.14749
# Poissons Ratio (y) = 0.01632 0.12673
# Poissons Ratio (z) = 0.04683 0.21879
#
# Static dielectric constant tensor:
#      x y z
#    x 1.697140 0.003350 0.017960 
#    y 0.003350 1.744230 -0.018000 
#    z 0.017960 -0.018000 1.675450 
# 
# From -- ./inp_files/252225.got.cif
#   From: 2010.05.17/outbox.cif.g08.bks.cpg/sg2_127_cif.got.tgz:252225.got - 2010.06.03 11:33:40.
