data_PCOD9078310
_publ_section_title
;
Structure prediction by ZEFSAII (Michael W. Deem and Ramdas Pophale) SiO2 
 PCOD9078310
Probable space group: P -1
;
_chemical_formula_sum "Si O2"
_cell_formula_units_Z 14
_cell_length_a 15.373189
_cell_length_b 12.000839
_cell_length_c 8.895093
_cell_angle_alpha 61.658882
_cell_angle_beta 31.667804
_cell_angle_gamma 66.141438
_cell_volume 758.280704
_symmetry_space_group_name_H-M "P -1"
_symmetry_group_IT_number 2
_symmetry_cell_setting 'triclinic'
loop_
_space_group_symop_operation_xyz
x,y,z
-x,-y,-z
loop_
_atom_site_type_symbol
_atom_site_label
_atom_site_fract_x
_atom_site_fract_y
_atom_site_fract_z
Si Si1 0.846753 0.740954 0.958834
Si Si2 0.317117 0.053148 0.729393
Si Si3 0.314410 0.479237 0.841337
Si Si4 0.935182 0.169955 0.667044
Si Si5 0.164661 0.544201 0.318664
Si Si6 0.006005 0.378000 0.894717
Si Si7 0.895212 0.873730 0.260770
O O1 0.983602 0.825660 0.618988
O O2 0.752284 0.657116 0.027730
O O3 0.943172 0.648343 0.991971
O O4 0.722434 0.827941 0.181134
O O5 0.500000 0.000000 0.500000
O O6 0.274969 0.097906 0.592724
O O7 0.191104 0.942501 0.038630
O O8 0.500000 0.500000 0.500000
O O9 0.303898 0.502483 0.021827
O O10 0.178004 0.571589 0.903868
O O11 0.846665 0.305769 0.736613
O O12 0.086277 0.158074 0.571816
O O13 0.140982 0.470282 0.557156
O O14 0.000000 0.500000 0.500000
O O15 0.023546 0.243186 0.872133
O O16 0.000000 0.000000 0.000000
#
# Coordination Sequence:
#
# PCOD9078310 Si02
#       7
#     2   2   2   2   2   2   2
#     4  11  22  38  61  84 116 154 197 235 278 353
#     4  10  24  39  58  86 119 147 188 251 298 325
#     4  11  22  34  57  89 118 145 189 243 288 328
#     4  11  19  38  63  82 111 157 205 221 280 356
#     4  10  18  35  61  82 114 156 191 230 278 351
#     4  10  19  38  57  84 117 153 198 227 286 339
#     4   9  18  34  61  81 106 158 196 222 274 355
#
# _framework density 18.462820000000001
#
# number of rings (size 3 to 8) (size 9 to 14) (size 15 to 20)
#    0.000    1.714    5.714    0.857    2.000    0.000 
#    0.000    5.714    0.000    0.000    0.000    0.000 
#    0.000    0.000    0.000    0.000    0.000    0.000 
#
# Total GULP energy -78025.561518 kJ/mol
# GULP energy per Si atom -5573.254394 kJ/mol
# Density = 1.842080 g / cm^3
# Si number density = 18.462820 Si / 1000 Ang^3
#
#
#
# Elastic Constant Matrix: (Units=GPa)
#
#
# Indices 1 2 3 4 5 6 
#
# 1 82.6591 29.0381 42.6494 9.2793 15.6849 -23.7792
# 2 29.0381 105.4730 25.5679 3.0016 -5.4408 -11.0240
# 3 42.6494 25.5679 108.6366 14.7759 8.4566 -25.4351
# 4 9.2793 3.0016 14.7759 31.4283 -6.7713 0.7226
# 5 15.6849 -5.4408 8.4566 -6.7713 31.5207 -4.2752
# 6 -23.7792 -11.0240 -25.4351 0.7226 -4.2752 19.9436
#
#
#
# Elastic Compliance Matrix: (Units=1/GPa)
#
#
# Indices 1 2 3 4 5 6 
#
# 1 0.023746 -0.004263 -0.000875 -0.009127 -0.011189 0.022773
# 2 -0.004263 0.011250 -0.001618 0.002007 0.004936 0.000058
# 3 -0.000875 -0.001618 0.015261 -0.007868 -0.003309 0.017101
# 4 -0.009127 0.002007 -0.007868 0.041326 0.013376 -0.018437
# 5 -0.011189 0.004936 -0.003309 0.013376 0.041021 -0.006524
# 6 0.022773 0.000058 0.017101 -0.018437 -0.006524 0.098405
#
#
# Mechanical properties :
#
#
# Convention : Reuss Voigt Hill
#
# Bulk Modulus (GPa) = 27.21384 54.58661 40.90023
# Shear Modulus (GPa) = 19.47268 29.87942 24.67605
#
# Velocity S-wave (km/s) = 3.25113 4.02724 3.65982
# Velocity P-wave (km/s) = 5.37261 7.15925 6.32929
#
# Compressibility (1/GPa) = 0.03674601
#
# Stress axis : x y z
#
# Youngs Moduli (GPa) = 42.11291 88.88504 65.52681
#
# Poissons Ratio (x) = 0.37889 0.05733
# Poissons Ratio (y) = 0.17951 0.10602
# Poissons Ratio (z) = 0.03685 0.14381
#
# Static dielectric constant tensor:
#      x y z
#    x 1.683030 0.004290 0.042130 
#    y 0.004290 1.657950 -0.007950 
#    z 0.042130 -0.007950 1.631350 
# 
# From -- ./inp_files/171712.got.cif
#   From: 2010.05.17/outbox.cif.g08.bks.cpg/sg2_86_cif.got.tgz:171712.got - 2010.06.03 11:33:40.
