data_PCOD9078664
_publ_section_title
;
Structure prediction by ZEFSAII (Michael W. Deem and Ramdas Pophale) SiO2 
 PCOD9078664
Probable space group: P -1
;
_chemical_formula_sum "Si O2"
_cell_formula_units_Z 16
_cell_length_a 8.498564
_cell_length_b 25.959651
_cell_length_c 11.355735
_cell_angle_alpha 30.765435
_cell_angle_beta 39.344202
_cell_angle_gamma 36.546720
_cell_volume 734.213668
_symmetry_space_group_name_H-M "P -1"
_symmetry_group_IT_number 2
_symmetry_cell_setting 'triclinic'
loop_
_space_group_symop_operation_xyz
x,y,z
-x,-y,-z
loop_
_atom_site_type_symbol
_atom_site_label
_atom_site_fract_x
_atom_site_fract_y
_atom_site_fract_z
Si Si1 0.697535 0.444080 0.791631
Si Si2 0.948093 0.759972 0.602666
Si Si3 0.092285 0.222142 0.139917
Si Si4 0.122425 0.968233 0.325311
Si Si5 0.735212 0.633048 0.819034
Si Si6 0.189463 0.395354 0.437294
Si Si7 0.439887 0.827027 0.216743
Si Si8 0.585847 0.115197 0.452400
O O1 0.638924 0.544494 0.719187
O O2 0.894670 0.449379 0.564272
O O3 0.433569 0.434760 0.910461
O O4 0.882317 0.332098 0.978102
O O5 0.881288 0.746348 0.803110
O O6 0.945364 0.655756 0.736537
O O7 0.690480 0.869397 0.484629
O O8 0.218013 0.781112 0.397048
O O9 0.977772 0.129170 0.402239
O O10 0.375973 0.171796 0.002105
O O11 0.276624 0.937524 0.172328
O O12 0.313663 0.961268 0.339944
O O13 0.842049 0.078761 0.286386
O O14 0.839185 0.591651 0.710265
O O15 0.502625 0.760144 0.695421
O O16 0.348135 0.265472 0.634993
#
# Coordination Sequence:
#
# PCOD9078664 Si02
#       8
#     2   2   2   2   2   2   2   2
#     4  10  20  35  56  78  99 131 176 215 249 298
#     4   9  20  35  49  77 108 136 163 209 254 304
#     4  10  19  34  54  75 104 139 169 206 254 302
#     4  10  18  37  55  76 101 132 178 213 242 297
#     4  10  18  36  55  74 100 138 166 208 259 296
#     4  10  20  35  56  78  99 131 176 215 249 298
#     4  10  19  34  54  75 104 139 169 206 254 302
#     4   9  19  35  56  75 105 134 165 217 255 287
#
# _framework density 21.792020000000001
#
# number of rings (size 3 to 8) (size 9 to 14) (size 15 to 20)
#    0.750    1.500    2.500    1.125    0.000    3.000 
#    0.000   10.000    0.000    4.500    0.000    0.000 
#    0.000    0.000    0.000    0.000    0.000    0.000 
#
# Total GULP energy -89248.586478 kJ/mol
# GULP energy per Si atom -5578.036655 kJ/mol
# Density = 2.174242 g / cm^3
# Si number density = 21.792020 Si / 1000 Ang^3
#
#
#
# Elastic Constant Matrix: (Units=GPa)
#
#
# Indices 1 2 3 4 5 6 
#
# 1 69.9952 28.4195 12.0611 9.7751 -20.6744 0.5492
# 2 28.4195 102.1864 22.0507 18.9496 2.8653 14.5806
# 3 12.0611 22.0507 66.7238 22.2932 -14.8707 5.8534
# 4 9.7751 18.9496 22.2932 19.4937 -0.0762 0.5412
# 5 -20.6744 2.8653 -14.8707 -0.0762 5.5419 -8.5090
# 6 0.5492 14.5806 5.8534 0.5412 -8.5090 37.0185
#
#
#
# Elastic Compliance Matrix: (Units=1/GPa)
#
#
# Indices 1 2 3 4 5 6 
#
# 1 0.002490 0.002221 -0.013124 0.011671 -0.039237 -0.008026
# 2 0.002221 0.010982 0.006200 -0.018782 0.017323 -0.001083
# 3 -0.013124 0.006200 0.013375 -0.014540 -0.035307 -0.012265
# 4 0.011671 -0.018782 -0.014540 0.079992 0.043521 0.018358
# 5 -0.039237 0.017323 -0.035307 0.043521 -0.109755 -0.026522
# 6 -0.008026 -0.001083 -0.012265 0.018358 -0.026522 0.023134
#
#
# Mechanical properties :
#
#
# Convention : Reuss Voigt Hill
#
# Bulk Modulus (GPa) = 57.33575 40.44091 48.88833
# Shear Modulus (GPa) = 141.08593 24.16910 82.62751
#
# Velocity S-wave (km/s) = 8.05497 3.33390 6.16431
# Velocity P-wave (km/s) = 10.62439 5.78081 8.55264
#
# Compressibility (1/GPa) = 0.01744113
#
# Stress axis : x y z
#
# Youngs Moduli (GPa) = 401.58801 91.05631 74.76371
#
# Poissons Ratio (x) = -0.20220 0.98120
# Poissons Ratio (y) = -0.89178 -0.46354
# Poissons Ratio (z) = 5.27047 -0.56456
#
# Static dielectric constant tensor:
#      x y z
#    x 1.812770 -0.015210 -0.015780 
#    y -0.015210 1.833790 -0.028890 
#    z -0.015780 -0.028890 1.803170 
# 
# From -- ./inp_files/395813.got.cif
#   From: 2010.05.17/outbox.cif.g08.bks.cpg/sg2_198_cif.got.tgz:395813.got - 2010.06.03 11:33:40.
