data_PCOD9078355
_publ_section_title
;
Structure prediction by ZEFSAII (Michael W. Deem and Ramdas Pophale) SiO2 
 PCOD9078355
Probable space group: P -1
;
_chemical_formula_sum "Si O2"
_cell_formula_units_Z 16
_cell_length_a 8.376545
_cell_length_b 23.515376
_cell_length_c 17.232814
_cell_angle_alpha 18.572626
_cell_angle_beta 41.148250
_cell_angle_gamma 42.163133
_cell_volume 705.290361
_symmetry_space_group_name_H-M "P -1"
_symmetry_group_IT_number 2
_symmetry_cell_setting 'triclinic'
loop_
_space_group_symop_operation_xyz
x,y,z
-x,-y,-z
loop_
_atom_site_type_symbol
_atom_site_label
_atom_site_fract_x
_atom_site_fract_y
_atom_site_fract_z
Si Si1 0.300085 0.116607 0.574925
Si Si2 0.122265 0.184276 0.710554
Si Si3 0.351171 0.662052 0.387161
Si Si4 0.803787 0.895424 0.662593
Si Si5 0.050604 0.751430 0.142454
Si Si6 0.587874 0.544362 0.214143
Si Si7 0.943693 0.255470 0.391495
Si Si8 0.657556 0.929330 0.959258
O O1 0.330185 0.167649 0.589338
O O2 0.138378 0.246636 0.404301
O O3 0.566936 0.040929 0.543818
O O4 0.147215 0.946242 0.855605
O O5 0.922580 0.319983 0.562897
O O6 0.110778 0.255928 0.710411
O O7 0.000000 0.000000 0.000000
O O8 0.500000 0.500000 0.500000
O O9 0.377303 0.611026 0.532957
O O10 0.465489 0.842165 0.090520
O O11 0.911090 0.803107 0.663905
O O12 0.703747 0.725103 0.962457
O O13 0.000000 0.000000 0.500000
O O14 0.297110 0.611412 0.225528
O O15 0.865543 0.767653 0.117352
O O16 0.755024 0.440492 0.219678
O O17 0.779138 0.093428 0.670772
O O18 0.500000 0.000000 0.000000
#
# Coordination Sequence:
#
# PCOD9078355 Si02
#       8
#     2   2   2   2   2   2   2   2
#     4   9  19  39  61  87 120 163 208 253 313 366
#     4  10  18  35  61  90 124 166 199 245 315 369
#     4  12  23  38  62  95 132 166 193 255 317 376
#     4  11  26  42  64  91 119 165 217 264 305 366
#     4   9  20  35  60  93 128 163 200 251 307 375
#     4  11  22  43  63  91 131 162 208 253 320 363
#     4  11  22  42  68  86 121 169 209 259 307 371
#     4  11  22  40  62  96 126 161 213 249 312 376
#
# _framework density 22.685693000000001
#
# number of rings (size 3 to 8) (size 9 to 14) (size 15 to 20)
#    0.000    1.500    3.750    2.250    1.750    1.500 
#    0.000    0.625    0.000    0.000    0.000    0.000 
#    0.000    0.000    0.000    0.000    0.000    0.000 
#
# Total GULP energy -89221.799057 kJ/mol
# GULP energy per Si atom -5576.362441 kJ/mol
# Density = 2.263406 g / cm^3
# Si number density = 22.685693 Si / 1000 Ang^3
#
#
#
# Elastic Constant Matrix: (Units=GPa)
#
#
# Indices 1 2 3 4 5 6 
#
# 1 74.6298 22.5219 15.4802 -4.9721 5.1474 -5.8949
# 2 22.5219 143.3090 5.0995 -8.3385 8.9158 7.0031
# 3 15.4802 5.0995 76.1823 -4.5523 -12.5042 1.4106
# 4 -4.9721 -8.3385 -4.5523 31.7374 -3.9996 6.0778
# 5 5.1474 8.9158 -12.5042 -3.9996 31.9527 -7.5919
# 6 -5.8949 7.0031 1.4106 6.0778 -7.5919 21.1878
#
#
#
# Elastic Compliance Matrix: (Units=1/GPa)
#
#
# Indices 1 2 3 4 5 6 
#
# 1 0.015318 -0.002370 -0.003360 0.000179 -0.002032 0.004490
# 2 -0.002370 0.007907 -0.000285 0.002250 -0.002821 -0.004910
# 3 -0.003360 -0.000285 0.015094 0.002442 0.006808 -0.000107
# 4 0.000179 0.002250 0.002442 0.034677 0.002265 -0.009992
# 5 -0.002032 -0.002821 0.006808 0.002265 0.038458 0.013044
# 6 0.004490 -0.004910 -0.000107 -0.009992 0.013044 0.057616
#
#
# Mechanical properties :
#
#
# Convention : Reuss Voigt Hill
#
# Bulk Modulus (GPa) = 38.04062 42.25828 40.14945
# Shear Modulus (GPa) = 26.33464 33.71019 30.02242
#
# Velocity S-wave (km/s) = 3.41082 3.85901 3.64181
# Velocity P-wave (km/s) = 5.68476 6.20678 5.95150
#
# Compressibility (1/GPa) = 0.02628769
#
# Stress axis : x y z
#
# Youngs Moduli (GPa) = 65.28062 126.47066 66.25336
#
# Poissons Ratio (x) = 0.29978 0.22261
# Poissons Ratio (y) = 0.15474 0.01890
# Poissons Ratio (z) = 0.21934 0.03608
#
# Static dielectric constant tensor:
#      x y z
#    x 1.896460 0.021090 -0.013380 
#    y 0.021090 1.959490 0.026730 
#    z -0.013380 0.026730 1.769760 
# 
# From -- ./inp_files/270923.got.cif
#   From: 2010.05.17/outbox.cif.g08.bks.cpg/sg2_136_cif.got.tgz:270923.got - 2010.06.03 11:33:40.
