data_PCOD9078644
_publ_section_title
;
Structure prediction by ZEFSAII (Michael W. Deem and Ramdas Pophale) SiO2 
 PCOD9078644
Probable space group: P -1
;
_chemical_formula_sum "Si O2"
_cell_formula_units_Z 16
_cell_length_a 9.650691
_cell_length_b 8.040036
_cell_length_c 9.532154
_cell_angle_alpha 92.977849
_cell_angle_beta 125.476167
_cell_angle_gamma 105.901048
_cell_volume 557.857569
_symmetry_space_group_name_H-M "P -1"
_symmetry_group_IT_number 2
_symmetry_cell_setting 'triclinic'
loop_
_space_group_symop_operation_xyz
x,y,z
-x,-y,-z
loop_
_atom_site_type_symbol
_atom_site_label
_atom_site_fract_x
_atom_site_fract_y
_atom_site_fract_z
Si Si1 0.161388 0.546932 0.436081
Si Si2 0.733707 0.621696 0.258575
Si Si3 0.517608 0.967400 0.826772
Si Si4 0.991791 0.196231 0.783515
Si Si5 0.793403 0.981699 0.220388
Si Si6 0.552220 0.752056 0.584344
Si Si7 0.901188 0.666064 0.862949
Si Si8 0.595430 0.348491 0.808778
O O1 0.161671 0.474124 0.590045
O O2 0.372843 0.583457 0.520341
O O3 0.036980 0.388359 0.251617
O O4 0.139067 0.729978 0.379112
O O5 0.816304 0.648493 0.152325
O O6 0.793444 0.835787 0.332009
O O7 0.521984 0.557136 0.170453
O O8 0.538737 0.909637 0.680005
O O9 0.305255 0.901190 0.752312
O O10 0.600604 0.183060 0.894589
O O11 0.641626 0.905177 0.002864
O O12 0.021298 0.013271 0.749715
O O13 0.969497 0.208662 0.936643
O O14 0.738883 0.735117 0.738910
O O15 0.524104 0.749388 0.402564
O O16 0.790104 0.476294 0.868059
#
# Coordination Sequence:
#
# PCOD9078644 Si02
#       8
#     2   2   2   2   2   2   2   2
#     4  11  20  35  56  82 117 138 176 229 271 322
#     4   9  17  34  54  77 108 140 174 220 273 307
#     4  10  18  36  53  80 109 145 179 225 271 313
#     4  10  21  35  55  81 113 146 176 218 279 322
#     4   8  19  33  52  76 110 139 183 216 267 320
#     4  11  19  34  58  84 104 146 183 222 273 315
#     4  11  20  36  56  86 107 142 183 225 270 317
#     4  10  19  33  57  83 112 133 183 235 261 315
#
# _framework density 28.681155
#
# number of rings (size 3 to 8) (size 9 to 14) (size 15 to 20)
#    0.750    1.250    3.750    1.875    0.000    0.500 
#    6.750    0.625    0.000    3.000    0.000    0.000 
#    0.000    0.000    0.000    0.000    0.000    0.000 
#
# Total GULP energy -89254.389647 kJ/mol
# GULP energy per Si atom -5578.399353 kJ/mol
# Density = 2.861588 g / cm^3
# Si number density = 28.681155 Si / 1000 Ang^3
#
#
#
# Elastic Constant Matrix: (Units=GPa)
#
#
# Indices 1 2 3 4 5 6 
#
# 1 74.8576 28.7055 17.1863 -1.8261 11.2937 -16.4184
# 2 28.7055 84.8834 51.6092 -27.3696 18.0294 -20.4691
# 3 17.1863 51.6092 113.4811 -3.7192 1.0532 -10.9985
# 4 -1.8261 -27.3696 -3.7192 39.0268 -11.1525 6.7074
# 5 11.2937 18.0294 1.0532 -11.1525 38.0499 -10.4588
# 6 -16.4184 -20.4691 -10.9985 6.7074 -10.4588 51.3808
#
#
#
# Elastic Compliance Matrix: (Units=1/GPa)
#
#
# Indices 1 2 3 4 5 6 
#
# 1 0.016538 -0.006096 0.000432 -0.004720 -0.002580 0.003039
# 2 -0.006096 0.027347 -0.010604 0.015771 -0.005257 0.003548
# 3 0.000432 -0.010604 0.013375 -0.005300 0.002994 0.000078
# 4 -0.004720 0.015771 -0.005300 0.037420 0.004979 -0.000231
# 5 -0.002580 -0.005257 0.002994 0.004979 0.031895 0.003564
# 6 0.003039 0.003548 0.000078 -0.000231 0.003564 0.022619
#
#
# Mechanical properties :
#
#
# Convention : Reuss Voigt Hill
#
# Bulk Modulus (GPa) = 40.44825 52.02491 46.23658
# Shear Modulus (GPa) = 26.31952 37.40624 31.86288
#
# Velocity S-wave (km/s) = 3.03258 3.61530 3.33668
# Velocity P-wave (km/s) = 5.13764 5.96705 5.56781
#
# Compressibility (1/GPa) = 0.02472295
#
# Stress axis : x y z
#
# Youngs Moduli (GPa) = 60.46680 36.56700 74.76441
#
# Poissons Ratio (x) = 0.22292 -0.03227
# Poissons Ratio (y) = 0.36861 0.79282
# Poissons Ratio (z) = -0.02610 0.38776
#
# Static dielectric constant tensor:
#      x y z
#    x 2.332520 -0.009030 0.004140 
#    y -0.009030 2.341240 0.040160 
#    z 0.004140 0.040160 2.171950 
# 
# From -- ./inp_files/182377.got.cif
#   From: 2010.05.17/outbox.cif.g08.bks.cpg/sg2_92_cif.got.tgz:182377.got - 2010.06.03 11:33:40.
