data_PCOD9078284
_publ_section_title
;
Structure prediction by ZEFSAII (Michael W. Deem and Ramdas Pophale) SiO2 
 PCOD9078284
Probable space group: P -1
;
_chemical_formula_sum "Si O2"
_cell_formula_units_Z 14
_cell_length_a 8.270670
_cell_length_b 24.570689
_cell_length_c 9.430837
_cell_angle_alpha 139.718242
_cell_angle_beta 50.484729
_cell_angle_gamma 148.980876
_cell_volume 637.660058
_symmetry_space_group_name_H-M "P -1"
_symmetry_group_IT_number 2
_symmetry_cell_setting 'triclinic'
loop_
_space_group_symop_operation_xyz
x,y,z
-x,-y,-z
loop_
_atom_site_type_symbol
_atom_site_label
_atom_site_fract_x
_atom_site_fract_y
_atom_site_fract_z
Si Si1 0.700990 0.900126 0.360838
Si Si2 0.626619 0.053684 0.790873
Si Si3 0.594891 0.618587 0.616788
Si Si4 0.237914 0.327053 0.901780
Si Si5 0.919727 0.099571 0.030413
Si Si6 0.714666 0.465769 0.669645
Si Si7 0.659301 0.370536 0.976235
O O1 0.446822 0.754144 0.258213
O O2 0.555940 0.948268 0.533718
O O3 0.000000 0.000000 0.500000
O O4 0.833417 0.899794 0.142298
O O5 0.896422 0.183265 0.815090
O O6 0.306005 0.998629 0.913702
O O7 0.763583 0.068731 0.901182
O O8 0.500000 0.500000 0.500000
O O9 0.530560 0.593644 0.438458
O O10 0.927869 0.764245 0.745761
O O11 0.366486 0.617954 0.820016
O O12 0.491865 0.366235 0.724762
O O13 0.402393 0.353853 0.012800
O O14 0.188323 0.412297 0.087404
O O15 0.000000 0.500000 0.500000
O O16 0.000000 0.500000 0.000000
#
# Coordination Sequence:
#
# PCOD9078284 Si02
#       7
#     2   2   2   2   2   2   2
#     4   9  17  33  52  87 124 149 202 254 300 365
#     4  10  18  35  60  90 118 163 199 261 311 358
#     4  11  20  39  61  89 122 155 208 262 310 357
#     4  11  22  42  60  89 128 162 216 252 304 391
#     4   9  19  32  55  89 121 148 204 258 298 359
#     4  11  25  42  62  89 129 172 200 253 324 378
#     4  11  21  35  61  97 122 156 211 267 307 362
#
# _framework density 21.955272000000001
#
# number of rings (size 3 to 8) (size 9 to 14) (size 15 to 20)
#    0.000    1.714    5.714    0.857    2.000    1.143 
#    5.143    0.714    0.000    4.286    0.000    0.000 
#    0.000    0.000    0.000    0.000    0.000    0.000 
#
# Total GULP energy -77938.703689 kJ/mol
# GULP energy per Si atom -5567.050263 kJ/mol
# Density = 2.190530 g / cm^3
# Si number density = 21.955272 Si / 1000 Ang^3
#
#
#
# Elastic Constant Matrix: (Units=GPa)
#
#
# Indices 1 2 3 4 5 6 
#
# 1 12.8240 3.6248 12.0419 -0.8631 -0.9734 -2.4314
# 2 3.6248 181.5302 69.2972 0.4351 -17.0296 8.3797
# 3 12.0419 69.2972 124.2024 9.6118 -10.8772 1.5454
# 4 -0.8631 0.4351 9.6118 43.0531 2.1391 0.1867
# 5 -0.9734 -17.0296 -10.8772 2.1391 24.9707 -6.9749
# 6 -2.4314 8.3797 1.5454 0.1867 -6.9749 20.0159
#
#
#
# Elastic Compliance Matrix: (Units=1/GPa)
#
#
# Indices 1 2 3 4 5 6 
#
# 1 0.089464 0.001695 -0.009757 0.003731 0.003448 0.012078
# 2 0.001695 0.007361 -0.004062 0.000734 0.002810 -0.001590
# 3 -0.009757 -0.004062 0.011683 -0.002880 0.002310 0.000445
# 4 0.003731 0.000734 -0.002880 0.024086 -0.002915 -0.000872
# 5 0.003448 0.002810 0.002310 -0.002915 0.047747 0.015730
# 6 0.012078 -0.001590 0.000445 -0.000872 0.015730 0.057548
#
#
# Mechanical properties :
#
#
# Convention : Reuss Voigt Hill
#
# Bulk Modulus (GPa) = 11.86795 54.27603 33.07199
# Shear Modulus (GPa) = 17.22810 33.18078 25.20444
#
# Velocity S-wave (km/s) = 2.80427 3.89175 3.39188
# Velocity P-wave (km/s) = 3.98779 6.70590 5.51687
#
# Compressibility (1/GPa) = 0.08426058
#
# Stress axis : x y z
#
# Youngs Moduli (GPa) = 11.17767 135.85562 85.59227
#
# Poissons Ratio (x) = -0.23027 0.83509
# Poissons Ratio (y) = -0.01895 0.34769
# Poissons Ratio (z) = 0.10906 0.55186
#
# Static dielectric constant tensor:
#      x y z
#    x 1.659800 -0.221650 -0.050840 
#    y -0.221650 1.554750 -0.035180 
#    z -0.050840 -0.035180 1.796950 
# 
# From -- ./inp_files/226609.got.cif
#   From: 2010.05.17/outbox.cif.g08.bks.cpg/sg2_114_cif.got.tgz:226609.got - 2010.06.03 11:33:40.
