data_PCOD9078153
_publ_section_title
;
Structure prediction by ZEFSAII (Michael W. Deem and Ramdas Pophale) SiO2 
 PCOD9078153
Probable space group: P -1
;
_chemical_formula_sum "Si O2"
_cell_formula_units_Z 14
_cell_length_a 9.237244
_cell_length_b 10.564942
_cell_length_c 7.465289
_cell_angle_alpha 114.742087
_cell_angle_beta 89.289380
_cell_angle_gamma 120.781227
_cell_volume 549.116021
_symmetry_space_group_name_H-M "P -1"
_symmetry_group_IT_number 2
_symmetry_cell_setting 'triclinic'
loop_
_space_group_symop_operation_xyz
x,y,z
-x,-y,-z
loop_
_atom_site_type_symbol
_atom_site_label
_atom_site_fract_x
_atom_site_fract_y
_atom_site_fract_z
Si Si1 0.883573 0.151863 0.866091
Si Si2 0.739019 0.048657 0.193702
Si Si3 0.907832 0.591321 0.229247
Si Si4 0.255519 0.373936 0.184182
Si Si5 0.749035 0.368024 0.419748
Si Si6 0.109051 0.148114 0.388331
Si Si7 0.539991 0.324204 0.054619
O O1 0.916394 0.300292 0.823043
O O2 0.757624 0.088602 0.002049
O O3 0.076599 0.250822 0.009134
O O4 0.851496 0.992153 0.663691
O O5 0.742353 0.203118 0.369801
O O6 0.912613 0.061883 0.263624
O O7 0.573197 0.864638 0.127717
O O8 0.905625 0.493649 0.349399
O O9 0.870878 0.728269 0.383164
O O10 0.731302 0.453058 0.047399
O O11 0.262457 0.531882 0.358088
O O12 0.232921 0.266560 0.298729
O O13 0.421731 0.397673 0.101156
O O14 0.589160 0.314034 0.254208
#
# Coordination Sequence:
#
# PCOD9078153 Si02
#       7
#     2   2   2   2   2   2   2
#     4  11  20  35  58  86 109 149 182 230 272 330
#     4  11  20  37  64  77 113 143 194 224 267 328
#     4   9  23  34  55  85 120 135 184 225 291 317
#     4  10  18  35  59  84 108 141 195 224 265 324
#     4   9  22  35  56  87 109 146 182 230 276 321
#     4  10  19  36  57  85 109 145 188 227 270 324
#     4  10  19  38  58  82 109 148 184 230 265 333
#
# _framework density 25.495522000000001
#
# number of rings (size 3 to 8) (size 9 to 14) (size 15 to 20)
#    0.857    1.143    2.857    2.143    0.000    6.286 
#    0.000    0.000    0.000    0.857    0.000    0.000 
#    0.000    0.000    0.000    0.000    0.000    0.000 
#
# Total GULP energy -78281.330271 kJ/mol
# GULP energy per Si atom -5591.523591 kJ/mol
# Density = 2.543749 g / cm^3
# Si number density = 25.495522 Si / 1000 Ang^3
#
#
#
# Elastic Constant Matrix: (Units=GPa)
#
#
# Indices 1 2 3 4 5 6 
#
# 1 53.2143 21.9007 32.9271 17.3426 -17.0982 -18.9357
# 2 21.9007 141.5650 56.8553 24.1635 -20.7634 9.8222
# 3 32.9271 56.8553 86.0079 34.2598 -11.9885 -3.7634
# 4 17.3426 24.1635 34.2598 49.8700 -12.4827 -0.2210
# 5 -17.0982 -20.7634 -11.9885 -12.4827 24.6697 10.8429
# 6 -18.9357 9.8222 -3.7634 -0.2210 10.8429 24.0248
#
#
#
# Elastic Compliance Matrix: (Units=1/GPa)
#
#
# Indices 1 2 3 4 5 6 
#
# 1 0.038646 -0.002459 -0.009510 -0.004072 0.006081 0.027193
# 2 -0.002459 0.012941 -0.007614 0.003108 0.013408 -0.014444
# 3 -0.009510 -0.007614 0.023822 -0.011515 -0.008628 0.003137
# 4 -0.004072 0.003108 -0.011515 0.031858 0.016155 -0.013282
# 5 0.006081 0.013408 -0.008628 0.016155 0.075906 -0.036149
# 6 0.027193 -0.014444 0.003137 -0.013282 -0.036149 0.085646
#
#
# Mechanical properties :
#
#
# Convention : Reuss Voigt Hill
#
# Bulk Modulus (GPa) = 27.59189 56.01704 41.80446
# Shear Modulus (GPa) = 15.62185 30.98651 23.30418
#
# Velocity S-wave (km/s) = 2.47802 3.49000 3.02661
# Velocity P-wave (km/s) = 4.36271 6.18540 5.35221
#
# Compressibility (1/GPa) = 0.03624254
#
# Stress axis : x y z
#
# Youngs Moduli (GPa) = 25.87603 77.27671 41.97779
#
# Poissons Ratio (x) = 0.19002 0.39921
# Poissons Ratio (y) = 0.06363 0.31962
# Poissons Ratio (z) = 0.24608 0.58838
#
# Static dielectric constant tensor:
#      x y z
#    x 1.989390 -0.006390 0.008490 
#    y -0.006390 2.083220 -0.069300 
#    z 0.008490 -0.069300 2.027980 
# 
# From -- ./inp_files/260079.got.cif
#   From: 2010.05.17/outbox.cif.g08.bks.cpg/sg2_131_cif.got.tgz:260079.got - 2010.06.03 11:33:40.
