data_PCOD9078581
_publ_section_title
;
Structure prediction by ZEFSAII (Michael W. Deem and Ramdas Pophale) SiO2 
 PCOD9078581
Probable space group: P -1
;
_chemical_formula_sum "Si O2"
_cell_formula_units_Z 15
_cell_length_a 7.729909
_cell_length_b 9.344397
_cell_length_c 11.807967
_cell_angle_alpha 66.922488
_cell_angle_beta 51.169179
_cell_angle_gamma 91.109319
_cell_volume 567.874559
_symmetry_space_group_name_H-M "P -1"
_symmetry_group_IT_number 2
_symmetry_cell_setting 'triclinic'
loop_
_space_group_symop_operation_xyz
x,y,z
-x,-y,-z
loop_
_atom_site_type_symbol
_atom_site_label
_atom_site_fract_x
_atom_site_fract_y
_atom_site_fract_z
Si Si1 0.892153 0.630742 0.745327
Si Si2 0.295217 0.989522 0.858662
Si Si3 0.462298 0.652007 0.256164
Si Si4 0.224417 0.868447 0.159292
Si Si5 0.000000 0.500000 0.500000
Si Si6 0.790946 0.938984 0.693526
Si Si7 0.728900 0.454720 0.080164
Si Si8 0.298684 0.841368 0.683632
O O1 0.948269 0.604006 0.602662
O O2 0.730037 0.742559 0.788600
O O3 0.126494 0.741714 0.685152
O O4 0.766978 0.467787 0.925296
O O5 0.559352 0.980241 0.747996
O O6 0.398564 0.715263 0.745920
O O7 0.178605 0.909975 0.813573
O O8 0.153405 0.872948 0.057534
O O9 0.247953 0.705650 0.262727
O O10 0.611689 0.584903 0.131001
O O11 0.262846 0.507470 0.451056
O O12 0.634979 0.815491 0.199019
O O13 0.108029 0.957715 0.265285
O O14 0.500000 0.000000 0.000000
O O15 0.000000 0.000000 0.500000
O O16 0.000000 0.500000 0.000000
O O17 0.500000 0.000000 0.500000
#
# Coordination Sequence:
#
# PCOD9078581 Si02
#       8
#     2   2   2   2   1   2   2   2
#     4  11  24  45  67 104 144 189 243 289 354 431
#     4  10  21  40  72  97 134 178 232 289 356 415
#     4  10  21  43  67 107 143 181 232 293 350 425
#     4   8  17  35  62  98 132 167 224 284 341 406
#     4  12  26  38  68 102 150 182 228 290 362 412
#     4  10  18  35  65  99 136 179 226 283 343 413
#     4  10  24  46  73  99 143 192 239 288 357 431
#     4  11  24  45  69 101 140 184 239 298 359 426
#
# _framework density 26.414282
#
# number of rings (size 3 to 8) (size 9 to 14) (size 15 to 20)
#    0.000    2.133    0.000    5.600    3.733    0.533 
#    4.800   12.000    0.000    0.000    0.000    0.000 
#    0.000    0.000    0.000    0.000    0.000    0.000 
#
# Total GULP energy -83675.182061 kJ/mol
# GULP energy per Si atom -5578.345471 kJ/mol
# Density = 2.635416 g / cm^3
# Si number density = 26.414282 Si / 1000 Ang^3
#
#
#
# Elastic Constant Matrix: (Units=GPa)
#
#
# Indices 1 2 3 4 5 6 
#
# 1 104.2097 45.9592 43.4682 7.0160 3.4618 1.2009
# 2 45.9592 169.4146 70.0659 28.5447 18.6919 14.1443
# 3 43.4682 70.0659 163.6417 22.4512 10.5797 -13.3154
# 4 7.0160 28.5447 22.4512 58.2816 -1.0712 -1.5176
# 5 3.4618 18.6919 10.5797 -1.0712 43.7263 5.3099
# 6 1.2009 14.1443 -13.3154 -1.5176 5.3099 29.3421
#
#
#
# Elastic Compliance Matrix: (Units=1/GPa)
#
#
# Indices 1 2 3 4 5 6 
#
# 1 0.011495 -0.002348 -0.002214 0.000620 0.000698 -0.000438
# 2 -0.002348 0.009072 -0.003119 -0.003144 -0.002355 -0.005429
# 3 -0.002214 -0.003119 0.008791 -0.001468 -0.001353 0.005753
# 4 0.000620 -0.003144 -0.001468 0.019263 0.001943 0.001469
# 5 0.000698 -0.002355 -0.001353 0.001943 0.024666 -0.003870
# 6 -0.000438 -0.005429 0.005753 0.001469 -0.003870 0.040102
#
#
# Mechanical properties :
#
#
# Convention : Reuss Voigt Hill
#
# Bulk Modulus (GPa) = 71.44206 84.02803 77.73505
# Shear Modulus (GPa) = 37.47641 44.78818 41.13229
#
# Velocity S-wave (km/s) = 3.77077 4.12224 3.95042
# Velocity P-wave (km/s) = 6.78703 7.38497 7.09230
#
# Compressibility (1/GPa) = 0.01399736
#
# Stress axis : x y z
#
# Youngs Moduli (GPa) = 86.99390 110.22476 113.74764
#
# Poissons Ratio (x) = 0.25877 0.25184
# Poissons Ratio (y) = 0.20423 0.35478
# Poissons Ratio (z) = 0.19261 0.34379
#
# Static dielectric constant tensor:
#      x y z
#    x 2.272180 0.068280 -0.069570 
#    y 0.068280 1.721830 0.416310 
#    z -0.069570 0.416310 1.586990 
# 
# From -- ./inp_files/378988.got.cif
#   From: 2010.05.17/outbox.cif.g08.bks.cpg/sg2_190_cif.got.tgz:378988.got - 2010.06.03 11:33:40.
