data_PCOD9078544
_publ_section_title
;
Structure prediction by ZEFSAII (Michael W. Deem and Ramdas Pophale) SiO2 
 PCOD9078544
Probable space group: P -1
;
_chemical_formula_sum "Si O2"
_cell_formula_units_Z 14
_cell_length_a 15.107910
_cell_length_b 9.406974
_cell_length_c 10.806914
_cell_angle_alpha 119.305201
_cell_angle_beta 126.268382
_cell_angle_gamma 26.973882
_cell_volume 558.675855
_symmetry_space_group_name_H-M "P -1"
_symmetry_group_IT_number 2
_symmetry_cell_setting 'triclinic'
loop_
_space_group_symop_operation_xyz
x,y,z
-x,-y,-z
loop_
_atom_site_type_symbol
_atom_site_label
_atom_site_fract_x
_atom_site_fract_y
_atom_site_fract_z
Si Si1 0.056925 0.480208 0.362935
Si Si2 0.641158 0.228984 0.279923
Si Si3 0.141168 0.806650 0.408753
Si Si4 0.064436 0.283600 0.063103
Si Si5 0.249659 0.729316 0.861979
Si Si6 0.341131 0.352620 0.180818
Si Si7 0.262005 0.362018 0.712831
O O1 0.949313 0.460370 0.333152
O O2 0.211110 0.394143 0.538128
O O3 0.855864 0.843954 0.302578
O O4 0.172177 0.247647 0.245114
O O5 0.667548 0.321269 0.453580
O O6 0.647253 0.319014 0.194669
O O7 0.431192 0.395679 0.203782
O O8 0.228742 0.535261 0.298111
O O9 0.000000 0.000000 0.500000
O O10 0.975475 0.067455 0.278007
O O11 0.828464 0.514354 0.993145
O O12 0.194527 0.956642 0.994760
O O13 0.000000 0.500000 0.000000
O O14 0.348908 0.431685 0.852602
O O15 0.545650 0.991880 0.231165
#
# Coordination Sequence:
#
# PCOD9078544 Si02
#       7
#     2   2   2   2   2   2   2
#     4  10  21  40  67  94 137 175 211 266 337 389
#     4  10  18  35  64  95 123 170 226 264 307 391
#     4   9  18  35  62  91 125 170 216 261 314 392
#     4  11  23  43  68  92 127 183 226 253 329 407
#     4  10  20  38  68  91 129 177 218 257 330 396
#     4  10  23  39  66  98 127 165 228 273 320 382
#     4  10  22  40  67 101 132 166 216 281 328 371
#
# _framework density 25.059252999999998
#
# number of rings (size 3 to 8) (size 9 to 14) (size 15 to 20)
#    0.000    2.000    2.857    0.429    0.000    2.857 
#    0.000    7.143    3.143    0.000    0.000    0.000 
#    0.000    0.000    0.000    0.000    0.000    0.000 
#
# Total GULP energy -78057.843012 kJ/mol
# GULP energy per Si atom -5575.560215 kJ/mol
# Density = 2.500222 g / cm^3
# Si number density = 25.059253 Si / 1000 Ang^3
#
#
#
# Elastic Constant Matrix: (Units=GPa)
#
#
# Indices 1 2 3 4 5 6 
#
# 1 110.3470 20.7583 19.9738 10.5081 24.4088 11.8181
# 2 20.7583 26.6627 23.3209 6.6487 -0.1131 3.3599
# 3 19.9738 23.3209 139.6840 32.1059 15.4401 5.6096
# 4 10.5081 6.6487 32.1059 36.3069 -5.7663 16.0350
# 5 24.4088 -0.1131 15.4401 -5.7663 37.8137 2.0853
# 6 11.8181 3.3599 5.6096 16.0350 2.0853 26.2823
#
#
#
# Elastic Compliance Matrix: (Units=1/GPa)
#
#
# Indices 1 2 3 4 5 6 
#
# 1 0.013723 -0.011321 0.002298 -0.005021 -0.010523 -0.001316
# 2 -0.011321 0.054225 -0.010132 0.006368 0.012830 -0.004582
# 3 0.002298 -0.010132 0.012628 -0.014654 -0.009304 0.007245
# 4 -0.005021 0.006368 -0.014654 0.058361 0.019942 -0.032617
# 5 -0.010523 0.012830 -0.009304 0.019942 0.040685 -0.010317
# 6 -0.001316 -0.004582 0.007245 -0.032617 -0.010317 0.058398
#
#
# Mechanical properties :
#
#
# Convention : Reuss Voigt Hill
#
# Bulk Modulus (GPa) = 23.65970 44.97773 34.31872
# Shear Modulus (GPa) = 17.21652 34.25661 25.73656
#
# Velocity S-wave (km/s) = 2.62397 3.70134 3.20821
# Velocity P-wave (km/s) = 4.31768 6.02114 5.23910
#
# Compressibility (1/GPa) = 0.04226596
#
# Stress axis : x y z
#
# Youngs Moduli (GPa) = 72.87164 18.44151 79.19172
#
# Poissons Ratio (x) = 0.20877 -0.18197
# Poissons Ratio (y) = 0.82494 0.80239
# Poissons Ratio (z) = -0.16744 0.18685
#
# Static dielectric constant tensor:
#      x y z
#    x 2.079960 0.014440 -0.048300 
#    y 0.014440 2.089610 0.026770 
#    z -0.048300 0.026770 2.060860 
# 
# From -- ./inp_files/314420.got.cif
#   From: 2010.05.17/outbox.cif.g08.bks.cpg/sg2_158_cif.got.tgz:314420.got - 2010.06.03 11:33:40.
