data_PCOD9078446
_publ_section_title
;
Structure prediction by ZEFSAII (Michael W. Deem and Ramdas Pophale) SiO2 
 PCOD9078446
Probable space group: P -1
;
_chemical_formula_sum "Si O2"
_cell_formula_units_Z 16
_cell_length_a 8.265219
_cell_length_b 8.398507
_cell_length_c 11.434691
_cell_angle_alpha 78.023465
_cell_angle_beta 96.981503
_cell_angle_gamma 127.981479
_cell_volume 611.999408
_symmetry_space_group_name_H-M "P -1"
_symmetry_group_IT_number 2
_symmetry_cell_setting 'triclinic'
loop_
_space_group_symop_operation_xyz
x,y,z
-x,-y,-z
loop_
_atom_site_type_symbol
_atom_site_label
_atom_site_fract_x
_atom_site_fract_y
_atom_site_fract_z
Si Si1 0.499480 0.654197 0.194910
Si Si2 0.708350 0.191327 0.931665
Si Si3 0.068891 0.900839 0.875318
Si Si4 0.147413 0.930783 0.236642
Si Si5 0.697799 0.487281 0.555123
Si Si6 0.872587 0.241452 0.331787
Si Si7 0.281169 0.521260 0.707266
Si Si8 0.765088 0.901289 0.526551
O O1 0.322546 0.633647 0.106920
O O2 0.434020 0.645708 0.324406
O O3 0.551032 0.494395 0.217081
O O4 0.711472 0.873730 0.150081
O O5 0.723625 0.121782 0.815158
O O6 0.898030 0.225004 0.011542
O O7 0.500000 0.000000 0.000000
O O8 0.035008 0.805192 0.759167
O O9 0.901892 0.941714 0.868712
O O10 0.928547 0.712399 0.280011
O O11 0.244618 0.050616 0.347415
O O12 0.668730 0.402436 0.434856
O O13 0.676463 0.671093 0.523336
O O14 0.934730 0.592948 0.595552
O O15 0.764300 0.335813 0.257925
O O16 0.723516 0.033504 0.423445
O O17 0.000000 0.000000 0.500000
#
# Coordination Sequence:
#
# PCOD9078446 Si02
#       8
#     2   2   2   2   2   2   2   2
#     4  10  23  41  59  86 129 171 201 251 312 364
#     4  10  23  42  66  87 121 167 217 260 303 360
#     4  10  21  43  65  90 124 161 214 260 297 370
#     4  11  19  39  68  94 117 166 208 253 313 368
#     4  11  20  39  61  92 133 165 193 258 313 372
#     4  11  21  37  63  97 126 157 209 254 303 371
#     4  11  22  36  63  94 130 165 202 246 314 384
#     4  10  18  35  62  95 127 152 199 253 308 370
#
# _framework density 26.143816999999999
#
# number of rings (size 3 to 8) (size 9 to 14) (size 15 to 20)
#    0.000    1.500    5.000    2.625    1.750    0.000 
#    4.500    4.375    2.750    0.000    0.000    0.000 
#    0.000    0.000    0.000    0.000    0.000    0.000 
#
# Total GULP energy -89559.291660 kJ/mol
# GULP energy per Si atom -5597.455729 kJ/mol
# Density = 2.608431 g / cm^3
# Si number density = 26.143817 Si / 1000 Ang^3
#
#
#
# Elastic Constant Matrix: (Units=GPa)
#
#
# Indices 1 2 3 4 5 6 
#
# 1 111.3942 42.1239 24.7978 -16.9282 19.2750 -38.5686
# 2 42.1239 78.9254 15.8136 -10.9153 22.4867 -6.6045
# 3 24.7978 15.8136 73.0866 -13.1151 22.7067 -13.5103
# 4 -16.9282 -10.9153 -13.1151 31.3874 -14.8394 7.9931
# 5 19.2750 22.4867 22.7067 -14.8394 55.1818 -17.5134
# 6 -38.5686 -6.6045 -13.5103 7.9931 -17.5134 50.1489
#
#
#
# Elastic Compliance Matrix: (Units=1/GPa)
#
#
# Indices 1 2 3 4 5 6 
#
# 1 0.016356 -0.007672 -0.001993 0.003768 0.002876 0.011436
# 2 -0.007672 0.018222 -0.000367 0.000562 -0.006314 -0.005894
# 3 -0.001993 -0.000367 0.016679 0.003267 -0.004926 0.000671
# 4 0.003768 0.000562 0.003267 0.039013 0.007705 0.000325
# 5 0.002876 -0.006314 -0.004926 0.007705 0.026335 0.008022
# 6 0.011436 -0.005894 0.000671 0.000325 0.008022 0.030890
#
#
# Mechanical properties :
#
#
# Convention : Reuss Voigt Hill
#
# Bulk Modulus (GPa) = 32.05737 47.65300 39.85518
# Shear Modulus (GPa) = 28.09692 39.38835 33.74263
#
# Velocity S-wave (km/s) = 3.28183 3.88571 3.59647
# Velocity P-wave (km/s) = 5.16227 6.19665 5.70296
#
# Compressibility (1/GPa) = 0.03119408
#
# Stress axis : x y z
#
# Youngs Moduli (GPa) = 61.13842 54.87992 59.95687
#
# Poissons Ratio (x) = 0.42102 0.11950
# Poissons Ratio (y) = 0.46903 0.02198
# Poissons Ratio (z) = 0.12185 0.02012
#
# Static dielectric constant tensor:
#      x y z
#    x 2.171720 0.111730 0.058710 
#    y 0.111730 2.092650 -0.062120 
#    z 0.058710 -0.062120 2.055100 
# 
# From -- ./inp_files/216425.got.cif
#   From: 2010.05.17/outbox.cif.g08.bks.cpg/sg2_109_cif.got.tgz:216425.got - 2010.06.03 11:33:40.
