data_PCOD9078465
_publ_section_title
;
Structure prediction by ZEFSAII (Michael W. Deem and Ramdas Pophale) SiO2 
 PCOD9078465
Probable space group: P -1
;
_chemical_formula_sum "Si O2"
_cell_formula_units_Z 16
_cell_length_a 8.245402
_cell_length_b 10.477982
_cell_length_c 9.148712
_cell_angle_alpha 102.880533
_cell_angle_beta 109.155464
_cell_angle_gamma 79.758516
_cell_volume 723.138111
_symmetry_space_group_name_H-M "P -1"
_symmetry_group_IT_number 2
_symmetry_cell_setting 'triclinic'
loop_
_space_group_symop_operation_xyz
x,y,z
-x,-y,-z
loop_
_atom_site_type_symbol
_atom_site_label
_atom_site_fract_x
_atom_site_fract_y
_atom_site_fract_z
Si Si1 0.064868 0.199188 0.112107
Si Si2 0.934529 0.396672 0.342183
Si Si3 0.888829 0.218072 0.532278
Si Si4 0.819374 0.349117 0.841930
Si Si5 0.493694 0.800506 0.173838
Si Si6 0.242174 0.972443 0.941382
Si Si7 0.248839 0.040034 0.617962
Si Si8 0.310083 0.452260 0.933498
O O1 0.080744 0.306800 0.269813
O O2 0.927439 0.103653 0.107136
O O3 0.970274 0.274424 0.965911
O O4 0.221919 0.101527 0.071917
O O5 0.842244 0.295038 0.388764
O O6 0.805054 0.470681 0.205933
O O7 0.000000 0.500000 0.500000
O O8 0.870039 0.323099 0.684027
O O9 0.083282 0.144255 0.558247
O O10 0.776247 0.098370 0.499273
O O11 0.649290 0.277893 0.811419
O O12 0.777557 0.497659 0.927178
O O13 0.575224 0.896612 0.334563
O O14 0.651890 0.699804 0.133568
O O15 0.400229 0.876745 0.028715
O O16 0.247403 0.010664 0.784247
O O17 0.500000 0.500000 0.000000
#
# Coordination Sequence:
#
# PCOD9078465 Si02
#       8
#     2   2   2   2   2   2   2   2
#     4   9  18  36  62  89 117 159 202 239 298 356
#     4  11  22  40  63  89 122 158 202 253 299 353
#     4  11  23  38  61  90 122 158 197 251 308 350
#     4   9  19  39  62  87 118 161 203 243 291 364
#     4  10  21  37  62  88 119 159 201 244 300 355
#     4  10  18  35  63  87 121 154 202 245 291 364
#     4  11  22  36  57  93 129 150 193 253 308 357
#     4   9  20  41  64  81 116 169 201 236 299 364
#
# _framework density 22.125788
#
# number of rings (size 3 to 8) (size 9 to 14) (size 15 to 20)
#    0.000    2.000    2.500    1.875    0.000    0.500 
#    2.250    6.875    0.000    0.000    0.000    0.000 
#    0.000    0.000    0.000    0.000    0.000    0.000 
#
# Total GULP energy -89410.137724 kJ/mol
# GULP energy per Si atom -5588.133608 kJ/mol
# Density = 2.207543 g / cm^3
# Si number density = 22.125788 Si / 1000 Ang^3
#
#
#
# Elastic Constant Matrix: (Units=GPa)
#
#
# Indices 1 2 3 4 5 6 
#
# 1 42.9025 22.5037 10.9792 -2.4720 5.8127 7.2532
# 2 22.5037 89.8923 30.8978 6.6481 -10.7867 -18.0973
# 3 10.9792 30.8978 98.0751 16.7102 -14.0972 -9.7777
# 4 -2.4720 6.6481 16.7102 34.2289 -1.0413 3.7363
# 5 5.8127 -10.7867 -14.0972 -1.0413 36.2161 14.4527
# 6 7.2532 -18.0973 -9.7777 3.7363 14.4527 24.5651
#
#
#
# Elastic Compliance Matrix: (Units=1/GPa)
#
#
# Indices 1 2 3 4 5 6 
#
# 1 0.035571 -0.012849 -0.003996 0.009319 -0.002162 -0.021705
# 2 -0.012849 0.019000 -0.001818 -0.005728 -0.000405 0.018178
# 3 -0.003996 -0.001818 0.013273 -0.006763 0.003420 0.004141
# 4 0.009319 -0.005728 -0.006763 0.036111 0.001636 -0.016118
# 5 -0.002162 -0.000405 0.003420 0.001636 0.037424 -0.020566
# 6 -0.021705 0.018178 0.004141 -0.016118 -0.020566 0.076708
#
#
# Mechanical properties :
#
#
# Convention : Reuss Voigt Hill
#
# Bulk Modulus (GPa) = 32.76836 39.95904 36.36370
# Shear Modulus (GPa) = 18.82626 30.10129 24.46377
#
# Velocity S-wave (km/s) = 2.92014 3.69245 3.32877
# Velocity P-wave (km/s) = 5.11975 6.02312 5.58971
#
# Compressibility (1/GPa) = 0.03051724
#
# Stress axis : x y z
#
# Youngs Moduli (GPa) = 28.11306 52.63023 75.34110
#
# Poissons Ratio (x) = 0.67627 0.30109
# Poissons Ratio (y) = 0.36124 0.13694
# Poissons Ratio (z) = 0.11235 0.09566
#
# Static dielectric constant tensor:
#      x y z
#    x 1.830870 0.029710 -0.010880 
#    y 0.029710 1.819930 0.047720 
#    z -0.010880 0.047720 1.784620 
# 
# From -- ./inp_files/181804.got.cif
#   From: 2010.05.17/outbox.cif.g08.bks.cpg/sg2_91_cif.got.tgz:181804.got - 2010.06.03 11:33:40.
