data_PCOD9078965
_publ_section_title
;
Structure prediction by ZEFSAII (Michael W. Deem and Ramdas Pophale) SiO2 
 PCOD9078965
Probable space group: P -1
;
_chemical_formula_sum "Si O2"
_cell_formula_units_Z 16
_cell_length_a 17.757278
_cell_length_b 8.654726
_cell_length_c 11.974747
_cell_angle_alpha 57.375290
_cell_angle_beta 29.272028
_cell_angle_gamma 60.316700
_cell_volume 756.476908
_symmetry_space_group_name_H-M "P -1"
_symmetry_group_IT_number 2
_symmetry_cell_setting 'triclinic'
loop_
_space_group_symop_operation_xyz
x,y,z
-x,-y,-z
loop_
_atom_site_type_symbol
_atom_site_label
_atom_site_fract_x
_atom_site_fract_y
_atom_site_fract_z
Si Si1 0.967970 0.176348 0.548830
Si Si2 0.482620 0.266692 0.699547
Si Si3 0.194811 0.257906 0.413337
Si Si4 0.475249 0.903967 0.950274
Si Si5 0.942744 0.539151 0.286683
Si Si6 0.612070 0.449747 0.685961
Si Si7 0.702837 0.354174 0.966307
Si Si8 0.266092 0.618349 0.820124
O O1 0.981483 0.353461 0.381503
O O2 0.807883 0.210184 0.813059
O O3 0.100060 0.164642 0.476855
O O4 0.000000 0.000000 0.500000
O O5 0.553352 0.357981 0.684011
O O6 0.352731 0.417338 0.770212
O O7 0.623709 0.248455 0.437926
O O8 0.412211 0.073118 0.891259
O O9 0.351398 0.152087 0.288573
O O10 0.095841 0.307203 0.629963
O O11 0.240386 0.449568 0.224404
O O12 0.392340 0.716398 0.153069
O O13 0.500000 0.000000 0.000000
O O14 0.785260 0.511661 0.434462
O O15 0.093817 0.600896 0.005391
O O16 0.483274 0.613264 0.818804
O O17 0.735940 0.336914 0.062374
#
# Coordination Sequence:
#
# PCOD9078965 Si02
#       8
#     2   2   2   2   2   2   2   2
#     4  11  22  31  55  89 117 144 189 241 287 332
#     4   9  20  35  59  86 108 153 201 227 281 336
#     4  10  19  36  55  82 112 152 187 230 289 346
#     4   9  19  34  56  79 121 139 185 243 285 324
#     4  11  21  35  57  84 118 149 187 232 292 336
#     4   9  20  34  57  86 113 152 185 238 285 334
#     4   9  17  38  57  77 118 151 192 224 284 346
#     4  10  18  36  61  78 112 161 191 225 276 352
#
# _framework density 21.150677000000002
#
# number of rings (size 3 to 8) (size 9 to 14) (size 15 to 20)
#    0.000    2.250    2.500    1.500    3.500    5.000 
#    0.000    0.625    0.000    0.000    0.000    8.750 
#    0.000    0.000    0.000    0.000    0.000    0.000 
#
# Total GULP energy -89300.544382 kJ/mol
# GULP energy per Si atom -5581.284024 kJ/mol
# Density = 2.110254 g / cm^3
# Si number density = 21.150677 Si / 1000 Ang^3
#
#
#
# Elastic Constant Matrix: (Units=GPa)
#
#
# Indices 1 2 3 4 5 6 
#
# 1 47.9064 8.7545 14.2001 3.5538 -24.7832 11.9115
# 2 8.7545 71.1387 18.7389 13.7720 2.2489 15.2961
# 3 14.2001 18.7389 103.8164 16.8825 -12.2138 4.5045
# 4 3.5538 13.7720 16.8825 21.8194 2.6981 9.1031
# 5 -24.7832 2.2489 -12.2138 2.6981 34.0103 -5.0936
# 6 11.9115 15.2961 4.5045 9.1031 -5.0936 19.3638
#
#
#
# Elastic Compliance Matrix: (Units=1/GPa)
#
#
# Indices 1 2 3 4 5 6 
#
# 1 0.038608 -0.001889 -0.001042 -0.001406 0.025815 -0.014564
# 2 -0.001889 0.018509 -0.002569 -0.003514 -0.005125 -0.012557
# 3 -0.001042 -0.002569 0.012475 -0.011338 0.005781 0.006619
# 4 -0.001406 -0.003514 -0.011338 0.072164 -0.015333 -0.031680
# 5 0.025815 -0.005125 0.005781 -0.015333 0.053041 0.007984
# 6 -0.014564 -0.012557 0.006619 -0.031680 0.007984 0.085974
#
#
# Mechanical properties :
#
#
# Convention : Reuss Voigt Hill
#
# Bulk Modulus (GPa) = 17.06743 34.02760 25.54752
# Shear Modulus (GPa) = 16.06154 27.11656 21.58905
#
# Velocity S-wave (km/s) = 2.75869 3.58448 3.19835
# Velocity P-wave (km/s) = 4.27014 5.76667 5.07388
#
# Compressibility (1/GPa) = 0.05859111
#
# Stress axis : x y z
#
# Youngs Moduli (GPa) = 25.90120 54.02915 80.15783
#
# Poissons Ratio (x) = 0.10207 0.08355
# Poissons Ratio (y) = 0.04893 0.20592
# Poissons Ratio (z) = 0.02700 0.13880
#
# Static dielectric constant tensor:
#      x y z
#    x 1.806160 -0.015500 -0.026390 
#    y -0.015500 1.866530 0.082030 
#    z -0.026390 0.082030 1.818660 
# 
# From -- ./inp_files/345521.got.cif
#   From: 2010.05.17/outbox.cif.g08.bks.cpg/sg2_173_cif.got.tgz:345521.got - 2010.06.03 11:33:40.
