data_PCOD9078816
_publ_section_title
;
Structure prediction by ZEFSAII (Michael W. Deem and Ramdas Pophale) SiO2 
 PCOD9078816
Probable space group: P -1
;
_chemical_formula_sum "Si O2"
_cell_formula_units_Z 15
_cell_length_a 13.152186
_cell_length_b 11.985192
_cell_length_c 8.030796
_cell_angle_alpha 106.158543
_cell_angle_beta 67.748826
_cell_angle_gamma 148.618689
_cell_volume 607.445357
_symmetry_space_group_name_H-M "P -1"
_symmetry_group_IT_number 2
_symmetry_cell_setting 'triclinic'
loop_
_space_group_symop_operation_xyz
x,y,z
-x,-y,-z
loop_
_atom_site_type_symbol
_atom_site_label
_atom_site_fract_x
_atom_site_fract_y
_atom_site_fract_z
Si Si1 0.031314 0.196204 0.381118
Si Si2 0.610407 0.037986 0.291543
Si Si3 0.500000 0.500000 0.500000
Si Si4 0.229642 0.659945 0.953156
Si Si5 0.403141 0.229625 0.709990
Si Si6 0.868957 0.680185 0.254160
Si Si7 0.932979 0.536329 0.692646
Si Si8 0.157335 0.094319 0.077694
O O1 0.031028 0.227516 0.587150
O O2 0.127664 0.392680 0.312768
O O3 0.147523 0.177839 0.267720
O O4 0.806133 0.980172 0.353771
O O5 0.614584 0.120761 0.155507
O O6 0.851939 0.248237 0.263242
O O7 0.500000 0.000000 0.500000
O O8 0.535729 0.840379 0.282998
O O9 0.530814 0.414898 0.573469
O O10 0.700947 0.632915 0.325944
O O11 0.229798 0.529253 0.824915
O O12 0.230451 0.654213 0.151125
O O13 0.000000 0.500000 0.000000
O O14 0.362183 0.264245 0.919290
O O15 0.061788 0.887027 0.106069
O O16 0.000000 0.500000 0.500000
O O17 0.000000 0.000000 0.000000
#
# Coordination Sequence:
#
# PCOD9078816 Si02
#       8
#     2   2   1   2   2   2   2   2
#     4  10  20  36  61  86 116 155 202 245 290 351
#     4  10  20  38  60  87 123 161 196 239 308 360
#     4  12  24  36  60  88 124 156 194 240 320 346
#     4  10  20  37  64  91 114 158 207 247 294 357
#     4  10  22  38  60  85 121 159 200 250 291 358
#     4  12  22  37  65  88 121 155 204 247 300 363
#     4  10  21  37  63  91 118 150 205 256 291 350
#     4  10  18  36  59  82 113 156 201 237 290 350
#
# _framework density 24.693577999999999
#
# number of rings (size 3 to 8) (size 9 to 14) (size 15 to 20)
#    0.000    1.600    2.667    6.000    0.000    0.000 
#    0.000    1.333    2.933    0.000    0.000    0.000 
#    0.000    0.000    0.000    0.000    0.000    0.000 
#
# Total GULP energy -83542.385479 kJ/mol
# GULP energy per Si atom -5569.492365 kJ/mol
# Density = 2.463737 g / cm^3
# Si number density = 24.693578 Si / 1000 Ang^3
#
#
#
# Elastic Constant Matrix: (Units=GPa)
#
#
# Indices 1 2 3 4 5 6 
#
# 1 73.3331 38.6492 35.0585 -4.9175 10.7896 -33.3955
# 2 38.6492 140.2415 53.7863 -20.8624 14.0911 -23.8727
# 3 35.0585 53.7863 161.8112 -19.2371 21.9296 -33.4425
# 4 -4.9175 -20.8624 -19.2371 50.0159 -17.5392 8.8954
# 5 10.7896 14.0911 21.9296 -17.5392 41.1632 -9.5379
# 6 -33.3955 -23.8727 -33.4425 8.8954 -9.5379 46.5640
#
#
#
# Elastic Compliance Matrix: (Units=1/GPa)
#
#
# Indices 1 2 3 4 5 6 
#
# 1 0.022321 -0.003723 -0.000830 -0.002870 -0.002206 0.013600
# 2 -0.003723 0.009341 -0.001931 0.002761 0.000032 0.000211
# 3 -0.000830 -0.001931 0.008162 0.000802 -0.002281 0.003656
# 4 -0.002870 0.002761 0.000802 0.024967 0.009341 -0.002923
# 5 -0.002206 0.000032 -0.002281 0.009341 0.030340 0.001227
# 6 0.013600 0.000211 0.003656 -0.002923 0.001227 0.034774
#
#
# Mechanical properties :
#
#
# Convention : Reuss Voigt Hill
#
# Bulk Modulus (GPa) = 37.23651 70.04150 53.63901
# Shear Modulus (GPa) = 32.93297 44.07472 38.50385
#
# Velocity S-wave (km/s) = 3.65590 4.22935 3.95304
# Velocity P-wave (km/s) = 5.73873 7.23019 6.52720
#
# Compressibility (1/GPa) = 0.02685536
#
# Stress axis : x y z
#
# Youngs Moduli (GPa) = 44.80088 107.06010 122.52280
#
# Poissons Ratio (x) = 0.39863 0.10169
# Poissons Ratio (y) = 0.16681 0.23654
# Poissons Ratio (z) = 0.03718 0.20669
#
# Static dielectric constant tensor:
#      x y z
#    x 2.044540 0.059660 0.113390 
#    y 0.059660 1.946600 0.006600 
#    z 0.113390 0.006600 2.034890 
# 
# From -- ./inp_files/305359.got.cif
#   From: 2010.05.17/outbox.cif.g08.bks.cpg/sg2_153_cif.got.tgz:305359.got - 2010.06.03 11:33:40.
