data_PCOD9078312
_publ_section_title
;
Structure prediction by ZEFSAII (Michael W. Deem and Ramdas Pophale) SiO2 
 PCOD9078312
Probable space group: P -1
;
_chemical_formula_sum "Si O2"
_cell_formula_units_Z 16
_cell_length_a 7.296295
_cell_length_b 15.234242
_cell_length_c 11.100793
_cell_angle_alpha 47.056678
_cell_angle_beta 117.008145
_cell_angle_gamma 92.747052
_cell_volume 737.244801
_symmetry_space_group_name_H-M "P -1"
_symmetry_group_IT_number 2
_symmetry_cell_setting 'triclinic'
loop_
_space_group_symop_operation_xyz
x,y,z
-x,-y,-z
loop_
_atom_site_type_symbol
_atom_site_label
_atom_site_fract_x
_atom_site_fract_y
_atom_site_fract_z
Si Si1 0.157947 0.925132 0.226050
Si Si2 0.919117 0.638360 0.146968
Si Si3 0.228390 0.658862 0.419434
Si Si4 0.824905 0.150598 0.223886
Si Si5 0.070531 0.121110 0.558418
Si Si6 0.285123 0.092816 0.277187
Si Si7 0.560296 0.633141 0.238459
Si Si8 0.856202 0.656344 0.509225
O O1 0.296554 0.777017 0.363030
O O2 0.011768 0.910672 0.308326
O O3 0.279278 0.014368 0.227886
O O4 0.000000 0.000000 0.000000
O O5 0.760861 0.624432 0.217261
O O6 0.102015 0.677869 0.234945
O O7 0.044641 0.491698 0.270172
O O8 0.759234 0.757705 0.906085
O O9 0.422081 0.514256 0.610239
O O10 0.044617 0.659866 0.464957
O O11 0.862098 0.176971 0.349572
O O12 0.068790 0.110710 0.275559
O O13 0.772415 0.021393 0.314479
O O14 0.658136 0.266997 0.985401
O O15 0.169981 0.228952 0.512179
O O16 0.500000 0.000000 0.500000
O O17 0.635782 0.674890 0.347918
#
# Coordination Sequence:
#
# PCOD9078312 Si02
#       8
#     2   2   2   2   2   2   2   2
#     4  10  18  35  61  84 110 145 187 232 268 323
#     4   9  17  33  60  82 111 142 184 227 273 325
#     4   8  15  33  56  86 111 138 185 232 269 326
#     4  10  22  39  54  79 117 150 181 226 281 332
#     4   9  20  36  56  79 117 145 184 225 272 331
#     4  11  24  38  56  80 114 152 184 228 283 331
#     4   9  18  33  62  84 107 144 185 230 276 322
#     4   8  16  34  56  86 107 141 186 229 267 326
#
# _framework density 21.702425000000002
#
# number of rings (size 3 to 8) (size 9 to 14) (size 15 to 20)
#    0.000    2.750    1.250    1.500    5.250    0.500 
#    2.250    7.500    0.000    0.000    0.000    0.000 
#    0.000    0.000    0.000    0.000    0.000    0.000 
#
# Total GULP energy -89273.838555 kJ/mol
# GULP energy per Si atom -5579.614910 kJ/mol
# Density = 2.165303 g / cm^3
# Si number density = 21.702425 Si / 1000 Ang^3
#
#
#
# Elastic Constant Matrix: (Units=GPa)
#
#
# Indices 1 2 3 4 5 6 
#
# 1 43.9418 14.5762 14.3063 4.1981 -3.0023 -0.4750
# 2 14.5762 137.7524 88.2469 0.3232 -7.3329 6.7609
# 3 14.3063 88.2469 206.7796 -3.4434 11.1791 4.6817
# 4 4.1981 0.3232 -3.4434 28.0101 4.9094 -5.1804
# 5 -3.0023 -7.3329 11.1791 4.9094 30.9271 1.0019
# 6 -0.4750 6.7609 4.6817 -5.1804 1.0019 14.8996
#
#
#
# Elastic Compliance Matrix: (Units=1/GPa)
#
#
# Indices 1 2 3 4 5 6 
#
# 1 0.024319 -0.001616 -0.001236 -0.004284 0.003098 0.000199
# 2 -0.001616 0.010944 -0.004741 -0.002127 0.004638 -0.004579
# 3 -0.001236 -0.004741 0.007186 0.002012 -0.004188 0.000835
# 4 -0.004284 -0.002127 0.002012 0.040901 -0.008626 0.014997
# 5 0.003098 0.004638 -0.004188 -0.008626 0.036817 -0.006165
# 6 0.000199 -0.004579 0.000835 0.014997 -0.006165 0.074566
#
#
# Mechanical properties :
#
#
# Convention : Reuss Voigt Hill
#
# Bulk Modulus (GPa) = 36.68090 69.19251 52.93671
# Shear Modulus (GPa) = 22.83008 32.85700 27.84354
#
# Velocity S-wave (km/s) = 3.24691 3.89521 3.58574
# Velocity P-wave (km/s) = 5.56732 7.22370 6.44891
#
# Compressibility (1/GPa) = 0.02726214
#
# Stress axis : x y z
#
# Youngs Moduli (GPa) = 41.11990 91.37023 139.15779
#
# Poissons Ratio (x) = 0.14768 0.17202
# Poissons Ratio (y) = 0.06646 0.65980
# Poissons Ratio (z) = 0.05083 0.43322
#
# Static dielectric constant tensor:
#      x y z
#    x 1.872370 -0.000440 -0.027240 
#    y -0.000440 1.819350 -0.020840 
#    z -0.027240 -0.020840 1.796480 
# 
# From -- ./inp_files/243518.got.cif
#   From: 2010.05.17/outbox.cif.g08.bks.cpg/sg2_122_cif.got.tgz:243518.got - 2010.06.03 11:33:40.
