data_PCOD9078633
_publ_section_title
;
Structure prediction by ZEFSAII (Michael W. Deem and Ramdas Pophale) SiO2 
 PCOD9078633
Probable space group: P -1
;
_chemical_formula_sum "Si O2"
_cell_formula_units_Z 16
_cell_length_a 8.566201
_cell_length_b 9.563674
_cell_length_c 10.463944
_cell_angle_alpha 75.192602
_cell_angle_beta 89.705480
_cell_angle_gamma 66.395117
_cell_volume 754.852706
_symmetry_space_group_name_H-M "P -1"
_symmetry_group_IT_number 2
_symmetry_cell_setting 'triclinic'
loop_
_space_group_symop_operation_xyz
x,y,z
-x,-y,-z
loop_
_atom_site_type_symbol
_atom_site_label
_atom_site_fract_x
_atom_site_fract_y
_atom_site_fract_z
Si Si1 0.720500 0.640299 0.514355
Si Si2 0.880327 0.743735 0.996276
Si Si3 0.403851 0.722195 0.640626
Si Si4 0.253583 0.061665 0.431613
Si Si5 0.912865 0.228444 0.238695
Si Si6 0.159568 0.048297 0.830881
Si Si7 0.548300 0.878134 0.805640
Si Si8 0.946960 0.611597 0.294925
O O1 0.544924 0.628793 0.556236
O O2 0.699717 0.817778 0.509807
O O3 0.875729 0.523216 0.629125
O O4 0.793346 0.602545 0.380182
O O5 0.883809 0.897811 0.034628
O O6 0.922154 0.620495 0.141157
O O7 0.691117 0.793256 0.930393
O O8 0.011767 0.698304 0.889358
O O9 0.265198 0.667770 0.714361
O O10 0.513237 0.749487 0.750118
O O11 0.294766 0.898136 0.541444
O O12 0.369339 0.035329 0.310204
O O13 0.060130 0.151683 0.361963
O O14 0.881493 0.088861 0.197786
O O15 0.060775 0.212998 0.716570
O O16 0.363794 0.995151 0.830361
#
# Coordination Sequence:
#
# PCOD9078633 Si02
#       8
#     2   2   2   2   2   2   2   2
#     4  10  18  36  52  76  95 135 167 209 246 290
#     4   9  19  31  51  78 102 130 164 203 256 291
#     4  10  19  31  54  74 104 127 167 211 248 288
#     4  10  19  31  54  77 102 126 169 210 250 288
#     4  10  19  33  51  78 100 132 162 207 253 295
#     4   9  17  31  52  76 104 128 160 206 250 294
#     4   9  16  30  50  78  99 125 165 214 245 282
#     4   9  20  31  55  71 103 131 169 199 251 300
#
# _framework density 21.196189
#
# number of rings (size 3 to 8) (size 9 to 14) (size 15 to 20)
#    0.750    1.750    0.000    4.875    0.000    0.000 
#    0.000    6.250    0.000   11.250    0.000    0.000 
#    0.000    0.000    0.000    0.000    0.000    0.000 
#
# Total GULP energy -89228.047537 kJ/mol
# GULP energy per Si atom -5576.752971 kJ/mol
# Density = 2.114795 g / cm^3
# Si number density = 21.196189 Si / 1000 Ang^3
#
#
#
# Elastic Constant Matrix: (Units=GPa)
#
#
# Indices 1 2 3 4 5 6 
#
# 1 68.1787 40.0033 38.2730 16.1749 10.5045 -28.6275
# 2 40.0033 71.3281 24.6306 4.6957 -19.1288 -15.3939
# 3 38.2730 24.6306 120.0554 -7.6858 -6.2452 -11.5399
# 4 16.1749 4.6957 -7.6858 16.1384 -4.4303 0.8580
# 5 10.5045 -19.1288 -6.2452 -4.4303 20.2455 14.6922
# 6 -28.6275 -15.3939 -11.5399 0.8580 14.6922 38.0138
#
#
#
# Elastic Compliance Matrix: (Units=1/GPa)
#
#
# Indices 1 2 3 4 5 6 
#
# 1 -0.013616 0.010655 0.003733 0.023835 0.038050 -0.020050
# 2 0.010655 0.011664 -0.006271 -0.021505 -0.013022 0.016362
# 3 0.003733 -0.006271 0.008472 -0.001143 -0.010536 0.006941
# 4 0.023835 -0.021505 -0.001143 0.030054 -0.045064 0.025633
# 5 0.038050 -0.013022 -0.010536 -0.045064 -0.015495 0.027188
# 6 -0.020050 0.016362 0.006941 0.025633 0.027188 0.008853
#
#
# Mechanical properties :
#
#
# Convention : Reuss Voigt Hill
#
# Bulk Modulus (GPa) = 43.94888 51.70844 47.82866
# Shear Modulus (GPa) = 234.91628 25.32322 130.11975
#
# Velocity S-wave (km/s) = 10.53898 3.46020 7.84357
# Velocity P-wave (km/s) = 12.99511 6.35705 10.22949
#
# Compressibility (1/GPa) = 0.02275371
#
# Stress axis : x y z
#
# Youngs Moduli (GPa) = -73.44355 85.73282 118.03441
#
# Poissons Ratio (x) = -0.91350 -0.44058
# Poissons Ratio (y) = 0.78256 0.74022
# Poissons Ratio (z) = 0.27414 0.53765
#
# Static dielectric constant tensor:
#      x y z
#    x 1.770770 -0.006790 -0.036430 
#    y -0.006790 1.783370 0.027270 
#    z -0.036430 0.027270 1.764520 
# 
# From -- ./inp_files/394078.got.cif
#   From: 2010.05.17/outbox.cif.g08.bks.cpg/sg2_198_cif.got.tgz:394078.got - 2010.06.03 11:33:40.
