data_PCOD9078109
_publ_section_title
;
Structure prediction by ZEFSAII (Michael W. Deem and Ramdas Pophale) SiO2 
 PCOD9078109
Probable space group: P -1
;
_chemical_formula_sum "Si O2"
_cell_formula_units_Z 16
_cell_length_a 14.129675
_cell_length_b 14.203055
_cell_length_c 6.828554
_cell_angle_alpha 60.688311
_cell_angle_beta 104.680869
_cell_angle_gamma 139.336535
_cell_volume 761.683363
_symmetry_space_group_name_H-M "P -1"
_symmetry_group_IT_number 2
_symmetry_cell_setting 'triclinic'
loop_
_space_group_symop_operation_xyz
x,y,z
-x,-y,-z
loop_
_atom_site_type_symbol
_atom_site_label
_atom_site_fract_x
_atom_site_fract_y
_atom_site_fract_z
Si Si1 0.697785 0.299021 0.102294
Si Si2 0.365389 0.342190 0.301247
Si Si3 0.138551 0.679667 0.479238
Si Si4 0.263586 0.859549 0.963785
Si Si5 0.018025 0.339553 0.249742
Si Si6 0.475227 0.311019 0.033857
Si Si7 0.249717 0.085906 0.827989
Si Si8 0.056274 0.148981 0.257766
O O1 0.767805 0.314672 0.325777
O O2 0.642848 0.149699 0.101201
O O3 0.578051 0.291985 0.083793
O O4 0.834332 0.466342 0.883812
O O5 0.456485 0.334890 0.222137
O O6 0.305133 0.229783 0.573111
O O7 0.224670 0.263632 0.174557
O O8 0.454056 0.525363 0.202552
O O9 0.000000 0.500000 0.500000
O O10 0.065591 0.714625 0.534321
O O11 0.239907 0.804689 0.229565
O O12 0.101766 0.721147 0.913129
O O13 0.305785 0.020410 0.825098
O O14 0.057956 0.252049 0.299511
O O15 0.320403 0.156087 0.005700
O O16 0.070409 0.933829 0.884702
O O17 0.000000 0.000000 0.500000
#
# Coordination Sequence:
#
# PCOD9078109 Si02
#       8
#     2   2   2   2   2   2   2   2
#     4  11  21  36  59  88 122 159 197 246 303 352
#     4  10  22  44  64  88 121 161 209 247 296 357
#     4  11  19  34  60  92 119 154 204 249 294 357
#     4  10  21  37  59  90 122 156 198 252 301 356
#     4  10  18  35  58  88 123 151 196 252 298 349
#     4  11  24  40  64  90 123 163 202 247 298 368
#     4  10  23  41  63  89 124 157 200 251 308 357
#     4   9  19  38  64  87 117 158 197 251 302 345
#
# _framework density 21.006105999999999
#
# number of rings (size 3 to 8) (size 9 to 14) (size 15 to 20)
#    0.000    1.750    3.750    1.125    0.000    6.000 
#    0.000    7.500    0.000    0.000    0.000    0.000 
#    0.000    0.000    0.000    0.000    0.000    0.000 
#
# Total GULP energy -89329.688226 kJ/mol
# GULP energy per Si atom -5583.105514 kJ/mol
# Density = 2.095830 g / cm^3
# Si number density = 21.006106 Si / 1000 Ang^3
#
#
#
# Elastic Constant Matrix: (Units=GPa)
#
#
# Indices 1 2 3 4 5 6 
#
# 1 121.5493 15.2429 14.1105 6.8007 7.2086 -14.4954
# 2 15.2429 72.9886 3.0231 6.6512 9.9594 -4.5511
# 3 14.1105 3.0231 56.9389 11.0755 2.9674 -0.7136
# 4 6.8007 6.6512 11.0755 20.6356 -6.0486 2.8771
# 5 7.2086 9.9594 2.9674 -6.0486 18.5627 -8.9933
# 6 -14.4954 -4.5511 -0.7136 2.8771 -8.9933 20.2288
#
#
#
# Elastic Compliance Matrix: (Units=1/GPa)
#
#
# Indices 1 2 3 4 5 6 
#
# 1 0.009562 -0.001160 -0.001608 -0.003016 -0.000565 0.006712
# 2 -0.001160 0.016300 0.001845 -0.009268 -0.012192 -0.001201
# 3 -0.001608 0.001845 0.020990 -0.013739 -0.009240 -0.002150
# 4 -0.003016 -0.009268 -0.013739 0.068831 0.030249 -0.001073
# 5 -0.000565 -0.012192 -0.009240 0.030249 0.086920 0.030867
# 6 0.006712 -0.001201 -0.002150 -0.001073 0.030867 0.067773
#
#
# Mechanical properties :
#
#
# Convention : Reuss Voigt Hill
#
# Bulk Modulus (GPa) = 22.21899 35.13663 28.67781
# Shear Modulus (GPa) = 17.40803 26.49211 21.95007
#
# Velocity S-wave (km/s) = 2.88186 3.55514 3.23606
# Velocity P-wave (km/s) = 4.65552 5.79786 5.25781
#
# Compressibility (1/GPa) = 0.04500655
#
# Stress axis : x y z
#
# Youngs Moduli (GPa) = 104.58194 61.35043 47.64112
#
# Poissons Ratio (x) = 0.07116 0.07660
# Poissons Ratio (y) = 0.12131 -0.08790
# Poissons Ratio (z) = 0.16815 -0.11320
#
# Static dielectric constant tensor:
#      x y z
#    x 1.778810 0.012150 0.007570 
#    y 0.012150 1.781120 -0.000230 
#    z 0.007570 -0.000230 1.742930 
# 
# From -- ./inp_files/97591.got.cif
#   From: 2010.05.17/outbox.cif.g08.bks.cpg/sg2_49_cif.got.tgz:97591.got - 2010.06.03 11:33:40.
