data_PCOD9078700
_publ_section_title
;
Structure prediction by ZEFSAII (Michael W. Deem and Ramdas Pophale) SiO2 
 PCOD9078700
Probable space group: P -1
;
_chemical_formula_sum "Si O2"
_cell_formula_units_Z 14
_cell_length_a 17.725762
_cell_length_b 15.722271
_cell_length_c 8.500570
_cell_angle_alpha 121.698428
_cell_angle_beta 44.199234
_cell_angle_gamma 156.400864
_cell_volume 583.174899
_symmetry_space_group_name_H-M "P -1"
_symmetry_group_IT_number 2
_symmetry_cell_setting 'triclinic'
loop_
_space_group_symop_operation_xyz
x,y,z
-x,-y,-z
loop_
_atom_site_type_symbol
_atom_site_label
_atom_site_fract_x
_atom_site_fract_y
_atom_site_fract_z
Si Si1 0.788755 0.655679 0.161594
Si Si2 0.693995 0.578366 0.593015
Si Si3 0.471865 0.245365 0.042825
Si Si4 0.770045 0.137518 0.270314
Si Si5 0.824409 0.875570 0.878216
Si Si6 0.202403 0.619195 0.524644
Si Si7 0.124685 0.782890 0.180703
O O1 0.685043 0.570796 0.411920
O O2 0.567661 0.427011 0.157584
O O3 0.925699 0.877862 0.160143
O O4 0.022065 0.770743 0.902574
O O5 0.850912 0.801686 0.656132
O O6 0.850454 0.610350 0.432724
O O7 0.413324 0.343457 0.862825
O O8 0.266422 0.109397 0.085679
O O9 0.338411 0.047980 0.158557
O O10 0.708837 0.388421 0.741620
O O11 0.819364 0.286808 0.418127
O O12 0.467715 0.851569 0.461813
O O13 0.814198 0.190479 0.066661
O O14 0.938458 0.364823 0.760713
#
# Coordination Sequence:
#
# PCOD9078700 Si02
#       7
#     2   2   2   2   2   2   2
#     4  11  22  39  57  87 115 148 186 236 277 338
#     4  10  21  38  64  79 113 150 192 227 286 331
#     4  11  23  35  59  85 118 147 189 226 289 329
#     4   9  19  34  59  84 109 152 192 221 286 331
#     4  11  21  42  58  84 111 153 186 236 279 335
#     4  10  18  36  59  82 114 151 183 237 274 334
#     4  10  18  36  56  84 113 148 187 234 274 335
#
# _framework density 24.006519999999998
#
# number of rings (size 3 to 8) (size 9 to 14) (size 15 to 20)
#    0.000    1.714    5.714    0.857    0.000    2.286 
#    0.000    2.143    0.000    0.000    0.000    0.000 
#    0.000    0.000    0.000    0.000    0.000    0.000 
#
# Total GULP energy -78247.050691 kJ/mol
# GULP energy per Si atom -5589.075049 kJ/mol
# Density = 2.395188 g / cm^3
# Si number density = 24.006520 Si / 1000 Ang^3
#
#
#
# Elastic Constant Matrix: (Units=GPa)
#
#
# Indices 1 2 3 4 5 6 
#
# 1 30.2419 24.9529 9.4311 -3.5599 -4.1901 -5.7905
# 2 24.9529 165.4591 27.1176 8.1678 22.0880 -12.5404
# 3 9.4311 27.1176 79.3958 6.3715 -3.8969 -3.9932
# 4 -3.5599 8.1678 6.3715 49.6094 -13.3138 3.9640
# 5 -4.1901 22.0880 -3.8969 -13.3138 27.8215 -6.7517
# 6 -5.7905 -12.5404 -3.9932 3.9640 -6.7517 32.5093
#
#
#
# Elastic Compliance Matrix: (Units=1/GPa)
#
#
# Indices 1 2 3 4 5 6 
#
# 1 0.047131 -0.009589 -0.001721 0.010271 0.021240 0.007643
# 2 -0.009589 0.009730 -0.002362 -0.005203 -0.012015 -0.000106
# 3 -0.001721 -0.002362 0.013901 -0.000669 0.003561 0.001311
# 4 0.010271 -0.005203 -0.000669 0.026769 0.018469 0.000312
# 5 0.021240 -0.012015 0.003561 0.018469 0.060416 0.009881
# 6 0.007643 -0.000106 0.001311 0.000312 0.009881 0.034256
#
#
# Mechanical properties :
#
#
# Convention : Reuss Voigt Hill
#
# Bulk Modulus (GPa) = 23.03177 44.23333 33.63255
# Shear Modulus (GPa) = 21.36593 36.22773 28.79683
#
# Velocity S-wave (km/s) = 2.98653 3.88890 3.46720
# Velocity P-wave (km/s) = 4.63760 6.21533 5.48350
#
# Compressibility (1/GPa) = 0.04341829
#
# Stress axis : x y z
#
# Youngs Moduli (GPa) = 21.21764 102.77809 71.93957
#
# Poissons Ratio (x) = 0.98553 0.12379
# Poissons Ratio (y) = 0.20345 0.16990
# Poissons Ratio (z) = 0.03651 0.24273
#
# Static dielectric constant tensor:
#      x y z
#    x 1.974200 -0.024990 -0.006350 
#    y -0.024990 1.959520 -0.005650 
#    z -0.006350 -0.005650 1.889120 
# 
# From -- ./inp_files/336761.got.cif
#   From: 2010.05.17/outbox.cif.g08.bks.cpg/sg2_169_cif.got.tgz:336761.got - 2010.06.03 11:33:40.
