data_PCOD9078854
_publ_section_title
;
Structure prediction by ZEFSAII (Michael W. Deem and Ramdas Pophale) SiO2 
 PCOD9078854
Probable space group: P -1
;
_chemical_formula_sum "Si O2"
_cell_formula_units_Z 16
_cell_length_a 14.756212
_cell_length_b 23.765024
_cell_length_c 18.145725
_cell_angle_alpha 20.756483
_cell_angle_beta 31.181104
_cell_angle_gamma 21.291921
_cell_volume 812.750597
_symmetry_space_group_name_H-M "P -1"
_symmetry_group_IT_number 2
_symmetry_cell_setting 'triclinic'
loop_
_space_group_symop_operation_xyz
x,y,z
-x,-y,-z
loop_
_atom_site_type_symbol
_atom_site_label
_atom_site_fract_x
_atom_site_fract_y
_atom_site_fract_z
Si Si1 0.584103 0.494133 0.864961
Si Si2 0.348661 0.216499 0.924377
Si Si3 0.838917 0.657830 0.488938
Si Si4 0.055512 0.058542 0.967876
Si Si5 0.498634 0.385766 0.711588
Si Si6 0.676404 0.691833 0.329777
Si Si7 0.250363 0.755152 0.551744
Si Si8 0.072685 0.752751 0.827146
O O1 0.627523 0.658104 0.638655
O O2 0.347591 0.585311 0.872043
O O3 0.824872 0.264133 0.932223
O O4 0.500000 0.500000 0.000000
O O5 0.371874 0.306907 0.868490
O O6 0.376971 0.302484 0.726013
O O7 0.084197 0.303799 0.987298
O O8 0.562231 0.940902 0.117849
O O9 0.799217 0.872101 0.241930
O O10 0.000000 0.500000 0.500000
O O11 0.036616 0.510077 0.599631
O O12 0.233666 0.832632 0.171168
O O13 0.000000 0.000000 0.000000
O O14 0.500000 0.500000 0.500000
O O15 0.336407 0.570414 0.661363
O O16 0.496591 0.680286 0.508022
O O17 0.083815 0.785283 0.693426
O O18 0.092214 0.999599 0.325726
#
# Coordination Sequence:
#
# PCOD9078854 Si02
#       8
#     2   2   2   2   2   2   2   2
#     4  11  23  40  66  95 131 166 213 264 320 390
#     4  10  21  34  60  90 122 159 204 263 311 368
#     4  10  20  37  63  89 123 170 220 260 310 386
#     4  11  25  43  68  95 130 173 214 266 325 381
#     4  12  24  40  66  95 123 161 221 267 309 365
#     4  10  18  36  59  88 119 157 213 257 305 364
#     4  10  21  38  63  85 122 160 199 260 312 371
#     4  10  22  39  59  90 125 163 201 250 324 378
#
# _framework density 19.686236000000001
#
# number of rings (size 3 to 8) (size 9 to 14) (size 15 to 20)
#    0.000    1.500    1.250    5.250    1.750    2.500 
#    0.000    1.875    0.000    0.000    0.000    0.000 
#    0.000    0.000    0.000    0.000    0.000    0.000 
#
# Total GULP energy -89121.990726 kJ/mol
# GULP energy per Si atom -5570.124420 kJ/mol
# Density = 1.964143 g / cm^3
# Si number density = 19.686236 Si / 1000 Ang^3
#
#
#
# Elastic Constant Matrix: (Units=GPa)
#
#
# Indices 1 2 3 4 5 6 
#
# 1 84.6820 32.2840 45.4708 -20.6023 -4.9665 9.7794
# 2 32.2840 87.6270 28.8124 -2.9875 -0.3726 0.9338
# 3 45.4708 28.8124 80.2571 3.4644 1.5839 2.3558
# 4 -20.6023 -2.9875 3.4644 34.7618 2.5958 -3.1456
# 5 -4.9665 -0.3726 1.5839 2.5958 30.3397 -4.5644
# 6 9.7794 0.9338 2.3558 -3.1456 -4.5644 29.0010
#
#
#
# Elastic Compliance Matrix: (Units=1/GPa)
#
#
# Indices 1 2 3 4 5 6 
#
# 1 0.024886 -0.004279 -0.013113 0.015025 0.002647 -0.005143
# 2 -0.004279 0.013765 -0.002503 -0.000995 -0.000154 0.001071
# 3 -0.013113 -0.002503 0.021216 -0.009811 -0.002241 0.001362
# 4 0.015025 -0.000995 -0.009811 0.038581 -0.000358 -0.000109
# 5 0.002647 -0.000154 -0.002241 -0.000358 0.034238 0.004644
# 6 -0.005143 0.001071 0.001362 -0.000109 0.004644 0.036790
#
#
# Mechanical properties :
#
#
# Convention : Reuss Voigt Hill
#
# Bulk Modulus (GPa) = 49.80793 51.74451 50.77622
# Shear Modulus (GPa) = 23.15255 28.55376 25.85315
#
# Velocity S-wave (km/s) = 3.43312 3.81260 3.62782
# Velocity P-wave (km/s) = 6.40866 6.76187 6.58763
#
# Compressibility (1/GPa) = 0.02007712
#
# Stress axis : x y z
#
# Youngs Moduli (GPa) = 40.18312 72.64592 47.13439
#
# Poissons Ratio (x) = 0.31082 0.61809
# Poissons Ratio (y) = 0.17192 0.11798
# Poissons Ratio (z) = 0.52694 0.18184
#
# Static dielectric constant tensor:
#      x y z
#    x 1.672550 -0.009090 0.029800 
#    y -0.009090 1.699490 0.000210 
#    z 0.029800 0.000210 1.759340 
# 
# From -- ./inp_files/205383.got.cif
#   From: 2010.05.17/outbox.cif.g08.bks.cpg/sg2_103_cif.got.tgz:205383.got - 2010.06.03 11:33:40.
