data_PCOD9078714
_publ_section_title
;
Structure prediction by ZEFSAII (Michael W. Deem and Ramdas Pophale) SiO2 
 PCOD9078714
Probable space group: P -1
;
_chemical_formula_sum "Si O2"
_cell_formula_units_Z 14
_cell_length_a 17.853671
_cell_length_b 7.577990
_cell_length_c 8.415949
_cell_angle_alpha 62.830508
_cell_angle_beta 45.661080
_cell_angle_gamma 93.345576
_cell_volume 583.240652
_symmetry_space_group_name_H-M "P -1"
_symmetry_group_IT_number 2
_symmetry_cell_setting 'triclinic'
loop_
_space_group_symop_operation_xyz
x,y,z
-x,-y,-z
loop_
_atom_site_type_symbol
_atom_site_label
_atom_site_fract_x
_atom_site_fract_y
_atom_site_fract_z
Si Si1 0.459806 0.634762 0.182623
Si Si2 0.758076 0.063411 0.908806
Si Si3 0.854367 0.787538 0.753499
Si Si4 0.220533 0.750246 0.864065
Si Si5 0.776470 0.024932 0.556671
Si Si6 0.537099 0.306936 0.509563
Si Si7 0.498016 0.766201 0.746440
O O1 0.407556 0.670568 0.406134
O O2 0.431245 0.370443 0.312016
O O3 0.618043 0.833673 0.870859
O O4 0.418141 0.685127 0.059623
O O5 0.819525 0.200781 0.926342
O O6 0.606564 0.952765 0.185520
O O7 0.768351 0.835880 0.973016
O O8 0.811752 0.180853 0.605632
O O9 0.828859 0.861603 0.587710
O O10 0.827095 0.529092 0.939669
O O11 0.000000 0.000000 0.500000
O O12 0.180159 0.822965 0.733638
O O13 0.379966 0.948344 0.541508
O O14 0.500000 0.500000 0.500000
O O15 0.587568 0.341993 0.240197
#
# Coordination Sequence:
#
# PCOD9078714 Si02
#       7
#     2   2   2   2   2   2   2
#     4   8  12  24  44  70 101 128 163 203 247 298
#     4   8  18  35  52  78 106 135 173 216 261 308
#     4  10  22  38  54  79 107 133 181 228 255 310
#     4  10  18  36  57  75 106 140 173 215 266 312
#     4   8  18  35  53  78 106 139 171 216 262 310
#     4   8  12  22  45  69  96 134 162 196 254 300
#     4   8  14  22  45  75  91 133 169 192 251 310
#
# _framework density 24.003812
#
# number of rings (size 3 to 8) (size 9 to 14) (size 15 to 20)
#    0.857    2.571    0.000    0.000    0.000    1.143 
#    2.571    1.429    0.000    0.000    0.000   10.000 
#    0.000    0.000    0.000    0.000    0.000    0.000 
#
# Total GULP energy -77973.663701 kJ/mol
# GULP energy per Si atom -5569.547407 kJ/mol
# Density = 2.394918 g / cm^3
# Si number density = 24.003812 Si / 1000 Ang^3
#
#
#
# Elastic Constant Matrix: (Units=GPa)
#
#
# Indices 1 2 3 4 5 6 
#
# 1 122.2145 55.6795 74.7303 -1.0548 61.6167 5.5793
# 2 55.6795 136.2218 61.2313 -10.2268 54.4430 11.8469
# 3 74.7303 61.2313 84.4976 0.5482 54.4469 23.1619
# 4 -1.0548 -10.2268 0.5482 45.5625 13.1200 22.9966
# 5 61.6167 54.4430 54.4469 13.1200 69.0893 11.3878
# 6 5.5793 11.8469 23.1619 22.9966 11.3878 35.3998
#
#
#
# Elastic Compliance Matrix: (Units=1/GPa)
#
#
# Indices 1 2 3 4 5 6 
#
# 1 0.023147 0.000868 -0.021245 -0.004864 -0.006150 0.015100
# 2 0.000868 0.013184 -0.002600 0.008462 -0.009869 -0.005170
# 3 -0.021245 -0.002600 0.061258 0.028923 -0.025095 -0.046579
# 4 -0.004864 0.008462 0.028923 0.055744 -0.027752 -0.048274
# 5 -0.006150 -0.009869 -0.025095 -0.027752 0.048998 0.022958
# 6 0.015100 -0.005170 -0.046579 -0.048274 0.022958 0.082051
#
#
# Mechanical properties :
#
#
# Convention : Reuss Voigt Hill
#
# Bulk Modulus (GPa) = 19.36657 80.69069 50.02863
# Shear Modulus (GPa) = 14.38652 40.09648 27.24150
#
# Velocity S-wave (km/s) = 2.45080 4.09151 3.37246
# Velocity P-wave (km/s) = 4.01176 7.48394 6.00432
#
# Compressibility (1/GPa) = 0.05163538
#
# Stress axis : x y z
#
# Youngs Moduli (GPa) = 43.20233 75.84874 16.32433
#
# Poissons Ratio (x) = -0.06584 0.34681
# Poissons Ratio (y) = -0.03750 0.04244
# Poissons Ratio (z) = 0.91784 0.19720
#
# Static dielectric constant tensor:
#      x y z
#    x 1.996900 -0.101330 0.013990 
#    y -0.101330 2.333390 0.127110 
#    z 0.013990 0.127110 2.050300 
# 
# From -- ./inp_files/340951.got.cif
#   From: 2010.05.17/outbox.cif.g08.bks.cpg/sg2_171_cif.got.tgz:340951.got - 2010.06.03 11:33:40.
