data_PCOD9078858
_publ_section_title
;
Structure prediction by ZEFSAII (Michael W. Deem and Ramdas Pophale) SiO2 
 PCOD9078858
Probable space group: P -1
;
_chemical_formula_sum "Si O2"
_cell_formula_units_Z 16
_cell_length_a 6.437308
_cell_length_b 14.137947
_cell_length_c 9.272748
_cell_angle_alpha 66.677398
_cell_angle_beta 102.352778
_cell_angle_gamma 77.788179
_cell_volume 714.551124
_symmetry_space_group_name_H-M "P -1"
_symmetry_group_IT_number 2
_symmetry_cell_setting 'triclinic'
loop_
_space_group_symop_operation_xyz
x,y,z
-x,-y,-z
loop_
_atom_site_type_symbol
_atom_site_label
_atom_site_fract_x
_atom_site_fract_y
_atom_site_fract_z
Si Si1 0.984351 0.351735 0.374070
Si Si2 0.737906 0.904524 0.086067
Si Si3 0.168539 0.966931 0.752944
Si Si4 0.637880 0.808206 0.860033
Si Si5 0.630861 0.702327 0.329569
Si Si6 0.877808 0.585881 0.160655
Si Si7 0.717178 0.391096 0.612443
Si Si8 0.163749 0.123333 0.410355
O O1 0.904038 0.461947 0.202881
O O2 0.843785 0.368667 0.491622
O O3 0.235532 0.336906 0.478787
O O4 0.994960 0.240915 0.364539
O O5 0.696864 0.806062 0.228072
O O6 0.895311 0.960896 0.155866
O O7 0.781958 0.858891 0.958956
O O8 0.500000 0.000000 0.000000
O O9 0.385303 0.856834 0.856194
O O10 0.965837 0.938150 0.669805
O O11 0.243585 0.047041 0.606615
O O12 0.651613 0.849501 0.676431
O O13 0.752180 0.678579 0.971950
O O14 0.728949 0.617292 0.265849
O O15 0.375519 0.708163 0.306887
O O16 0.114164 0.595832 0.246342
O O17 0.500000 0.500000 0.500000
#
# Coordination Sequence:
#
# PCOD9078858 Si02
#       8
#     2   2   2   2   2   2   2   2
#     4  11  21  37  59  91 124 159 203 251 299 363
#     4   9  19  38  63  90 117 154 202 255 301 350
#     4  10  22  45  63  88 122 163 216 252 294 362
#     4  10  23  41  63  90 125 166 195 253 320 360
#     4  10  18  36  59  89 123 153 197 258 299 354
#     4  10  21  36  60  92 127 152 204 255 303 365
#     4  11  19  35  63  93 119 163 206 250 304 359
#     4  11  24  41  64  89 127 164 207 252 297 375
#
# _framework density 22.391679
#
# number of rings (size 3 to 8) (size 9 to 14) (size 15 to 20)
#    0.000    1.750    3.750    1.125    0.000    5.000 
#    9.000    0.625    0.000    0.000    0.000    0.000 
#    0.000    0.000    0.000    0.000    0.000    0.000 
#
# Total GULP energy -89302.360112 kJ/mol
# GULP energy per Si atom -5581.397507 kJ/mol
# Density = 2.234071 g / cm^3
# Si number density = 22.391679 Si / 1000 Ang^3
#
#
#
# Elastic Constant Matrix: (Units=GPa)
#
#
# Indices 1 2 3 4 5 6 
#
# 1 43.4313 -7.0001 -5.8973 -1.1511 -5.7521 4.1864
# 2 -7.0001 99.7830 5.3112 -18.8456 -4.0130 -1.3721
# 3 -5.8973 5.3112 44.0615 -19.2193 -6.9618 -0.8450
# 4 -1.1511 -18.8456 -19.2193 36.9796 -0.2234 7.4068
# 5 -5.7521 -4.0130 -6.9618 -0.2234 20.9550 -2.3646
# 6 4.1864 -1.3721 -0.8450 7.4068 -2.3646 22.7959
#
#
#
# Elastic Compliance Matrix: (Units=1/GPa)
#
#
# Indices 1 2 3 4 5 6 
#
# 1 0.026789 0.003281 0.008165 0.008007 0.010106 -0.005973
# 2 0.003281 0.011764 0.003198 0.008187 0.004076 -0.002013
# 3 0.008165 0.003198 0.034712 0.021095 0.013999 -0.005422
# 4 0.008007 0.008187 0.021095 0.045270 0.009688 -0.013900
# 5 0.010106 0.004076 0.013999 0.009688 0.056209 0.001591
# 6 -0.005973 -0.002013 -0.005422 -0.013900 0.001591 0.049324
#
#
# Mechanical properties :
#
#
# Convention : Reuss Voigt Hill
#
# Bulk Modulus (GPa) = 9.75108 19.12258 14.43683
# Shear Modulus (GPa) = 21.83736 29.13690 25.48713
#
# Velocity S-wave (km/s) = 3.12628 3.61118 3.37744
# Velocity P-wave (km/s) = 4.17082 5.09373 4.65520
#
# Compressibility (1/GPa) = 0.10255278
#
# Stress axis : x y z
#
# Youngs Moduli (GPa) = 37.32916 85.00304 28.80809
#
# Poissons Ratio (x) = -0.27891 -0.23521
# Poissons Ratio (y) = -0.12249 -0.09212
# Poissons Ratio (z) = -0.30478 -0.27182
#
# Static dielectric constant tensor:
#      x y z
#    x 1.843890 0.009300 0.010430 
#    y 0.009300 1.862100 -0.036640 
#    z 0.010430 -0.036640 1.889990 
# 
# From -- ./inp_files/135018.got.cif
#   From: 2010.05.17/outbox.cif.g08.bks.cpg/sg2_68_cif.got.tgz:135018.got - 2010.06.03 11:33:40.
