data_PCOD9078951
_publ_section_title
;
Structure prediction by ZEFSAII (Michael W. Deem and Ramdas Pophale) SiO2 
 PCOD9078951
Probable space group: P -1
;
_chemical_formula_sum "Si O2"
_cell_formula_units_Z 16
_cell_length_a 17.041951
_cell_length_b 9.541435
_cell_length_c 8.405033
_cell_angle_alpha 100.422681
_cell_angle_beta 111.183776
_cell_angle_gamma 136.548032
_cell_volume 633.372656
_symmetry_space_group_name_H-M "P -1"
_symmetry_group_IT_number 2
_symmetry_cell_setting 'triclinic'
loop_
_space_group_symop_operation_xyz
x,y,z
-x,-y,-z
loop_
_atom_site_type_symbol
_atom_site_label
_atom_site_fract_x
_atom_site_fract_y
_atom_site_fract_z
Si Si1 0.141106 0.361981 0.230878
Si Si2 0.723668 0.685521 0.471777
Si Si3 0.483365 0.143956 0.973766
Si Si4 0.747624 0.872630 0.836608
Si Si5 0.145544 0.590459 0.516888
Si Si6 0.896807 0.372844 0.060945
Si Si7 0.035659 0.248305 0.655900
Si Si8 0.717121 0.574891 0.966359
O O1 0.156737 0.256589 0.345808
O O2 0.223380 0.616818 0.430434
O O3 0.234611 0.437406 0.162298
O O4 0.947974 0.125001 0.016659
O O5 0.583806 0.393560 0.216731
O O6 0.844251 0.956425 0.506043
O O7 0.134570 0.246927 0.764179
O O8 0.558281 0.286211 0.884402
O O9 0.500000 0.000000 0.000000
O O10 0.287549 0.883294 0.770621
O O11 0.662609 0.691097 0.576447
O O12 0.745828 0.040617 0.877243
O O13 0.698221 0.710127 0.922180
O O14 0.068235 0.359129 0.529158
O O15 0.010155 0.490850 0.316883
O O16 0.873653 0.504297 0.108287
O O17 0.000000 0.500000 0.000000
#
# Coordination Sequence:
#
# PCOD9078951 Si02
#       8
#     2   2   2   2   2   2   2   2
#     4  10  18  36  60  93 128 157 215 266 311 367
#     4  11  20  36  63  94 130 165 209 267 320 377
#     4  12  25  41  59  99 143 174 202 264 337 398
#     4  10  20  39  63 100 126 164 220 277 318 369
#     4  11  25  42  62  96 135 170 213 262 328 394
#     4  11  23  44  70  94 129 165 225 276 319 376
#     4  12  21  39  70 101 124 170 214 278 326 372
#     4  11  21  37  68  97 128 168 215 271 329 374
#
# _framework density 25.261588
#
# number of rings (size 3 to 8) (size 9 to 14) (size 15 to 20)
#    0.000    1.000    6.250    1.875    3.500    1.500 
#    0.000    0.625    0.000    1.500    0.000    0.000 
#    0.000    0.000    0.000    0.000    0.000    0.000 
#
# Total GULP energy -89564.712964 kJ/mol
# GULP energy per Si atom -5597.794560 kJ/mol
# Density = 2.520409 g / cm^3
# Si number density = 25.261588 Si / 1000 Ang^3
#
#
#
# Elastic Constant Matrix: (Units=GPa)
#
#
# Indices 1 2 3 4 5 6 
#
# 1 59.9349 26.3135 19.9015 5.0356 -24.5383 -1.9797
# 2 26.3135 194.6385 54.4908 -0.7658 0.1583 -5.3473
# 3 19.9015 54.4908 122.6810 10.7428 -25.8087 -5.4641
# 4 5.0356 -0.7658 10.7428 41.3327 -8.7499 -6.0430
# 5 -24.5383 0.1583 -25.8087 -8.7499 39.7190 5.6005
# 6 -1.9797 -5.3473 -5.4641 -6.0430 5.6005 40.4898
#
#
#
# Elastic Compliance Matrix: (Units=1/GPa)
#
#
# Indices 1 2 3 4 5 6 
#
# 1 0.024428 -0.003615 0.000933 -0.000125 0.015878 -0.001372
# 2 -0.003615 0.006573 -0.003267 0.000623 -0.004378 0.000949
# 3 0.000933 -0.003267 0.011160 -0.001502 0.007531 -0.000145
# 4 -0.000125 0.000623 -0.001502 0.025967 0.004219 0.003165
# 5 0.015878 -0.004378 0.007531 0.004219 0.041373 -0.003879
# 6 -0.001372 0.000949 -0.000145 0.003165 -0.003879 0.025745
#
#
# Mechanical properties :
#
#
# Convention : Reuss Voigt Hill
#
# Bulk Modulus (GPa) = 33.04224 64.29624 48.66924
# Shear Modulus (GPa) = 31.80039 42.74488 37.27264
#
# Velocity S-wave (km/s) = 3.55187 4.11796 3.84535
# Velocity P-wave (km/s) = 5.47078 6.93669 6.24688
#
# Compressibility (1/GPa) = 0.03026429
#
# Stress axis : x y z
#
# Youngs Moduli (GPa) = 40.93684 152.13792 89.60556
#
# Poissons Ratio (x) = 0.54994 -0.08360
# Poissons Ratio (y) = 0.14798 0.29270
# Poissons Ratio (z) = -0.03819 0.49696
#
# Static dielectric constant tensor:
#      x y z
#    x 2.084480 0.003220 -0.065450 
#    y 0.003220 2.035680 0.023040 
#    z -0.065450 0.023040 2.045470 
# 
# From -- ./inp_files/353524.got.cif
#   From: 2010.05.17/outbox.cif.g08.bks.cpg/sg2_177_cif.got.tgz:353524.got - 2010.06.03 11:33:40.
