data_PCOD9078859
_publ_section_title
;
Structure prediction by ZEFSAII (Michael W. Deem and Ramdas Pophale) SiO2 
 PCOD9078859
Probable space group: P -1
;
_chemical_formula_sum "Si O2"
_cell_formula_units_Z 15
_cell_length_a 22.929964
_cell_length_b 18.140971
_cell_length_c 12.193250
_cell_angle_alpha 28.411149
_cell_angle_beta 26.836685
_cell_angle_gamma 16.537358
_cell_volume 640.128826
_symmetry_space_group_name_H-M "P -1"
_symmetry_group_IT_number 2
_symmetry_cell_setting 'triclinic'
loop_
_space_group_symop_operation_xyz
x,y,z
-x,-y,-z
loop_
_atom_site_type_symbol
_atom_site_label
_atom_site_fract_x
_atom_site_fract_y
_atom_site_fract_z
Si Si1 0.846516 0.562066 0.991359
Si Si2 0.864536 0.984035 0.841642
Si Si3 0.373720 0.864704 0.746504
Si Si4 0.532626 0.069087 0.706788
Si Si5 0.000000 0.500000 0.000000
Si Si6 0.779990 0.297309 0.895000
Si Si7 0.282398 0.810044 0.654462
Si Si8 0.851138 0.011459 0.588040
O O1 0.683963 0.799564 0.868791
O O2 0.727005 0.705167 0.127370
O O3 0.061113 0.436692 0.839902
O O4 0.912515 0.328444 0.149944
O O5 0.751197 0.118648 0.738044
O O6 0.937850 0.078655 0.641998
O O7 0.738684 0.009806 0.111449
O O8 0.395164 0.983262 0.470169
O O9 0.613546 0.563230 0.759941
O O10 0.240776 0.856615 0.917867
O O11 0.565770 0.200523 0.541103
O O12 0.077057 0.233965 0.227578
O O13 0.029639 0.106281 0.715837
O O14 0.699228 0.355967 0.079696
O O15 0.293674 0.791104 0.529730
#
# Coordination Sequence:
#
# PCOD9078859 Si02
#       8
#     2   2   2   2   1   2   2   2
#     4  10  22  40  61  93 117 164 203 253 300 364
#     4  10  22  37  60  91 128 154 197 255 321 345
#     4  10  20  36  58  89 121 162 199 251 304 367
#     4  10  22  37  64  88 120 160 215 241 300 367
#     4  10  20  36  66  82 118 156 206 246 288 362
#     4   9  20  32  60  87 122 153 210 246 302 358
#     4  10  18  36  59  90 113 157 205 257 285 360
#     4  10  20  35  61  88 118 159 200 244 302 359
#
# _framework density 23.432783000000001
#
# number of rings (size 3 to 8) (size 9 to 14) (size 15 to 20)
#    0.000    2.133    2.667    0.000    3.733    4.800 
#    0.000    2.667    0.000    4.000    0.000    0.000 
#    0.000    0.000    0.000    0.000    0.000    0.000 
#
# Total GULP energy -83562.039264 kJ/mol
# GULP energy per Si atom -5570.802618 kJ/mol
# Density = 2.337945 g / cm^3
# Si number density = 23.432783 Si / 1000 Ang^3
#
#
#
# Elastic Constant Matrix: (Units=GPa)
#
#
# Indices 1 2 3 4 5 6 
#
# 1 121.8917 21.4205 53.9025 8.3594 22.3860 -3.5091
# 2 21.4205 54.3952 34.2666 7.6277 2.2464 -0.0965
# 3 53.9025 34.2666 109.4447 12.9139 24.6203 7.4729
# 4 8.3594 7.6277 12.9139 27.1762 6.0513 5.1759
# 5 22.3860 2.2464 24.6203 6.0513 61.6657 2.4516
# 6 -3.5091 -0.0965 7.4729 5.1759 2.4516 31.2765
#
#
#
# Elastic Compliance Matrix: (Units=1/GPa)
#
#
# Indices 1 2 3 4 5 6 
#
# 1 0.010990 -0.001188 -0.004643 -0.000875 -0.002112 0.002649
# 2 -0.001188 0.023803 -0.007161 -0.003917 0.002725 0.002086
# 3 -0.004643 -0.007161 0.014992 -0.002204 -0.003685 -0.003471
# 4 -0.000875 -0.003917 -0.002204 0.040929 -0.002431 -0.006166
# 5 -0.002112 0.002725 -0.003685 -0.002431 0.018610 -0.000405
# 6 0.002649 0.002086 -0.003471 -0.006166 -0.000405 0.034158
#
#
# Mechanical properties :
#
#
# Convention : Reuss Voigt Hill
#
# Bulk Modulus (GPa) = 42.01491 56.10119 49.05805
# Shear Modulus (GPa) = 28.18491 35.76646 31.97569
#
# Velocity S-wave (km/s) = 3.47190 3.91108 3.69802
# Velocity P-wave (km/s) = 5.83447 6.66249 6.26218
#
# Compressibility (1/GPa) = 0.02380107
#
# Stress axis : x y z
#
# Youngs Moduli (GPa) = 90.98904 42.01119 66.70257
#
# Poissons Ratio (x) = 0.04992 0.30972
# Poissons Ratio (y) = 0.10811 0.47763
# Poissons Ratio (z) = 0.42249 0.30083
#
# Static dielectric constant tensor:
#      x y z
#    x 1.984090 -0.019750 0.050420 
#    y -0.019750 1.891260 0.060720 
#    z 0.050420 0.060720 1.949900 
# 
# From -- ./inp_files/330807.got.cif
#   From: 2010.05.17/outbox.cif.g08.bks.cpg/sg2_166_cif.got.tgz:330807.got - 2010.06.03 11:33:40.
