data_PCOD9078431
_publ_section_title
;
Structure prediction by ZEFSAII (Michael W. Deem and Ramdas Pophale) SiO2 
 PCOD9078431
Probable space group: P -1
;
_chemical_formula_sum "Si O2"
_cell_formula_units_Z 16
_cell_length_a 9.164610
_cell_length_b 10.018270
_cell_length_c 8.467563
_cell_angle_alpha 95.529481
_cell_angle_beta 117.561457
_cell_angle_gamma 104.968447
_cell_volume 644.326145
_symmetry_space_group_name_H-M "P -1"
_symmetry_group_IT_number 2
_symmetry_cell_setting 'triclinic'
loop_
_space_group_symop_operation_xyz
x,y,z
-x,-y,-z
loop_
_atom_site_type_symbol
_atom_site_label
_atom_site_fract_x
_atom_site_fract_y
_atom_site_fract_z
Si Si1 0.872953 0.877964 0.533960
Si Si2 0.380524 0.217058 0.340227
Si Si3 0.673612 0.049932 0.927470
Si Si4 0.662035 0.150592 0.610668
Si Si5 0.396248 0.429499 0.127009
Si Si6 0.766162 0.472357 0.209855
Si Si7 0.355061 0.147464 0.870946
Si Si8 0.095834 0.710366 0.526842
O O1 0.791887 0.881173 0.664660
O O2 0.704590 0.835937 0.331805
O O3 0.962765 0.759588 0.567588
O O4 0.000000 0.000000 0.500000
O O5 0.556487 0.259430 0.539264
O O6 0.352316 0.354983 0.266299
O O7 0.410263 0.110395 0.208775
O O8 0.750625 0.148068 0.824385
O O9 0.536217 0.118100 0.935259
O O10 0.765351 0.998400 0.113877
O O11 0.793255 0.175121 0.532614
O O12 0.500000 0.000000 0.500000
O O13 0.606043 0.501070 0.224889
O O14 0.295420 0.523591 0.002413
O O15 0.353143 0.287481 0.977129
O O16 0.782849 0.337698 0.297755
O O17 0.961883 0.583475 0.341711
#
# Coordination Sequence:
#
# PCOD9078431 Si02
#       8
#     2   2   2   2   2   2   2   2
#     4  12  24  38  60  98 136 164 205 267 327 385
#     4  10  20  37  63  92 126 166 214 249 319 389
#     4   9  19  34  60  89 124 161 204 259 305 375
#     4  10  18  35  62  91 125 165 204 247 315 388
#     4  10  20  42  68  91 116 175 222 264 308 377
#     4  10  22  41  70  86 128 170 221 264 317 372
#     4  10  20  35  59  94 124 160 216 254 312 383
#     4  11  23  40  65 100 126 170 210 265 326 377
#
# _framework density 24.832144
#
# number of rings (size 3 to 8) (size 9 to 14) (size 15 to 20)
#    0.000    1.750    3.750    1.500    1.750    1.000 
#    2.250    3.125   11.000    0.000    0.000    0.000 
#    0.000    0.000    0.000    0.000    0.000    0.000 
#
# Total GULP energy -89114.465381 kJ/mol
# GULP energy per Si atom -5569.654086 kJ/mol
# Density = 2.477563 g / cm^3
# Si number density = 24.832144 Si / 1000 Ang^3
#
#
#
# Elastic Constant Matrix: (Units=GPa)
#
#
# Indices 1 2 3 4 5 6 
#
# 1 89.8661 19.4328 30.5614 -16.4757 -7.0670 5.1153
# 2 19.4328 74.1479 43.6928 -32.1991 2.5238 12.2883
# 3 30.5614 43.6928 113.6635 -47.4011 12.2700 -2.8285
# 4 -16.4757 -32.1991 -47.4011 46.6407 -2.4572 8.4361
# 5 -7.0670 2.5238 12.2700 -2.4572 35.2796 -11.0542
# 6 5.1153 12.2883 -2.8285 8.4361 -11.0542 31.5868
#
#
#
# Elastic Compliance Matrix: (Units=1/GPa)
#
#
# Indices 1 2 3 4 5 6 
#
# 1 0.012915 -0.001066 -0.002969 0.001181 0.003449 -0.001051
# 2 -0.001066 0.025754 -0.001807 0.018319 -0.005414 -0.016796
# 3 -0.002969 -0.001807 0.017525 0.015853 -0.006649 -0.003808
# 4 0.001181 0.018319 0.015853 0.054421 -0.010332 -0.024049
# 5 0.003449 -0.005414 -0.006649 -0.010332 0.036142 0.016360
# 6 -0.001051 -0.016796 -0.003808 -0.024049 0.016360 0.050171
#
#
# Mechanical properties :
#
#
# Convention : Reuss Voigt Hill
#
# Bulk Modulus (GPa) = 22.46657 51.67240 37.06948
# Shear Modulus (GPa) = 22.37651 34.96745 28.67198
#
# Velocity S-wave (km/s) = 3.00511 3.75661 3.40167
# Velocity P-wave (km/s) = 4.59433 6.29841 5.51262
#
# Compressibility (1/GPa) = 0.04451058
#
# Stress axis : x y z
#
# Youngs Moduli (GPa) = 77.42725 38.82937 57.06140
#
# Poissons Ratio (x) = 0.04138 0.16941
# Poissons Ratio (y) = 0.08251 0.10313
# Poissons Ratio (z) = 0.22987 0.07018
#
# Static dielectric constant tensor:
#      x y z
#    x 1.936420 0.005470 0.007150 
#    y 0.005470 2.102300 -0.021000 
#    z 0.007150 -0.021000 2.140400 
# 
# From -- ./inp_files/178086.got.cif
#   From: 2010.05.17/outbox.cif.g08.bks.cpg/sg2_90_cif.got.tgz:178086.got - 2010.06.03 11:33:40.
