data_PCOD9078409
_publ_section_title
;
Structure prediction by ZEFSAII (Michael W. Deem and Ramdas Pophale) SiO2 
 PCOD9078409
Probable space group: P -1
;
_chemical_formula_sum "Si O2"
_cell_formula_units_Z 16
_cell_length_a 11.301245
_cell_length_b 12.094912
_cell_length_c 13.629911
_cell_angle_alpha 55.793862
_cell_angle_beta 94.007868
_cell_angle_gamma 139.013192
_cell_volume 764.943191
_symmetry_space_group_name_H-M "P -1"
_symmetry_group_IT_number 2
_symmetry_cell_setting 'triclinic'
loop_
_space_group_symop_operation_xyz
x,y,z
-x,-y,-z
loop_
_atom_site_type_symbol
_atom_site_label
_atom_site_fract_x
_atom_site_fract_y
_atom_site_fract_z
Si Si1 0.972802 0.913651 0.324779
Si Si2 0.232105 0.874991 0.921153
Si Si3 0.753923 0.901478 0.465990
Si Si4 0.479429 0.009126 0.379001
Si Si5 0.554881 0.713508 0.764674
Si Si6 0.356907 0.652669 0.429988
Si Si7 0.979667 0.372309 0.174689
Si Si8 0.004953 0.104845 0.039171
O O1 0.872468 0.891903 0.424849
O O2 0.862194 0.658042 0.445444
O O3 0.256989 0.180108 0.211210
O O4 0.904122 0.929962 0.216152
O O5 0.051997 0.710481 0.897652
O O6 0.144646 0.903980 0.975506
O O7 0.493383 0.160285 0.751178
O O8 0.195113 0.685371 0.046470
O O9 0.638880 0.765257 0.632366
O O10 0.543791 0.750436 0.458500
O O11 0.945750 0.211123 0.322553
O O12 0.417007 0.100332 0.312456
O O13 0.743019 0.231265 0.244792
O O14 0.500000 0.000000 0.500000
O O15 0.309251 0.738668 0.448122
O O16 0.281131 0.412088 0.915320
O O17 0.000000 0.000000 0.000000
#
# Coordination Sequence:
#
# PCOD9078409 Si02
#       8
#     2   2   2   2   2   2   2   2
#     4  12  25  41  57  89 132 161 196 248 309 369
#     4   9  18  34  59  90 108 148 204 256 279 344
#     4  10  20  39  64  88 116 167 205 242 290 376
#     4  10  18  35  62  89 114 150 206 249 290 360
#     4  12  24  39  62  93 124 158 195 257 314 350
#     4  10  21  36  65  85 116 162 211 241 293 351
#     4   9  16  32  62  89 107 146 210 245 288 335
#     4  12  25  39  62  89 123 159 203 252 299 362
#
# _framework density 20.916585999999999
#
# number of rings (size 3 to 8) (size 9 to 14) (size 15 to 20)
#    0.000    1.750    6.250    1.875    1.750    0.500 
#    0.000    0.000    0.000    0.750    0.000    0.000 
#    0.000    0.000    0.000    0.000    0.000    0.000 
#
# Total GULP energy -89324.641748 kJ/mol
# GULP energy per Si atom -5582.790109 kJ/mol
# Density = 2.086898 g / cm^3
# Si number density = 20.916586 Si / 1000 Ang^3
#
#
#
# Elastic Constant Matrix: (Units=GPa)
#
#
# Indices 1 2 3 4 5 6 
#
# 1 53.9316 33.1085 -1.3982 6.1529 -9.1537 -29.2360
# 2 33.1085 46.4320 27.6535 -6.7663 -5.4415 -32.4297
# 3 -1.3982 27.6535 98.4513 -9.3150 6.3108 -20.3999
# 4 6.1529 -6.7663 -9.3150 27.6326 -6.3988 -4.4553
# 5 -9.1537 -5.4415 6.3108 -6.3988 22.1550 4.6871
# 6 -29.2360 -32.4297 -20.3999 -4.4553 4.6871 35.9281
#
#
#
# Elastic Compliance Matrix: (Units=1/GPa)
#
#
# Indices 1 2 3 4 5 6 
#
# 1 0.048949 -0.032966 0.011781 -0.012095 0.002107 0.014990
# 2 -0.032966 0.106590 -0.013909 0.042709 0.015146 0.064809
# 3 0.011781 -0.013909 0.015813 -0.000721 -0.004642 0.006527
# 4 -0.012095 0.042709 -0.000721 0.058059 0.015381 0.033491
# 5 0.002107 0.015146 -0.004642 0.015381 0.053878 0.007628
# 6 0.014990 0.064809 0.006527 0.033491 0.007628 0.105394
#
#
# Mechanical properties :
#
#
# Convention : Reuss Voigt Hill
#
# Bulk Modulus (GPa) = 9.88473 35.28251 22.58362
# Shear Modulus (GPa) = 10.15039 26.43987 18.29513
#
# Velocity S-wave (km/s) = 2.20530 3.55922 2.96069
# Velocity P-wave (km/s) = 3.34970 5.81340 4.74426
#
# Compressibility (1/GPa) = 0.10116617
#
# Stress axis : x y z
#
# Youngs Moduli (GPa) = 20.42951 9.38170 63.23806
#
# Poissons Ratio (x) = 0.30928 -0.74503
# Poissons Ratio (y) = 0.67347 0.87957
# Poissons Ratio (z) = -0.24069 0.13049
#
# Static dielectric constant tensor:
#      x y z
#    x 1.752600 -0.023330 0.008510 
#    y -0.023330 1.786950 -0.009870 
#    z 0.008510 -0.009870 1.787270 
# 
# From -- ./inp_files/517783.got.cif
#   From: 2010.05.17/outbox.cif.g08.bks.cpg/sg2_259_cif.got.tgz:517783.got - 2010.06.03 11:33:40.
