data_PCOD9078015
_publ_section_title
;
Structure prediction by ZEFSAII (Michael W. Deem and Ramdas Pophale) SiO2 
 PCOD9078015
Probable space group: P -1
;
_chemical_formula_sum "Si O2"
_cell_formula_units_Z 13
_cell_length_a 13.650243
_cell_length_b 8.250852
_cell_length_c 8.582072
_cell_angle_alpha 129.339388
_cell_angle_beta 132.651625
_cell_angle_gamma 45.575796
_cell_volume 483.684056
_symmetry_space_group_name_H-M "P -1"
_symmetry_group_IT_number 2
_symmetry_cell_setting 'triclinic'
loop_
_space_group_symop_operation_xyz
x,y,z
-x,-y,-z
loop_
_atom_site_type_symbol
_atom_site_label
_atom_site_fract_x
_atom_site_fract_y
_atom_site_fract_z
Si Si1 0.665450 0.734612 0.751617
Si Si2 0.909125 0.523981 0.637550
Si Si3 0.219430 0.252589 0.701236
Si Si4 0.802539 0.202744 0.675628
Si Si5 0.577637 0.281540 0.725157
Si Si6 0.000000 0.000000 0.500000
Si Si7 0.543033 0.214327 0.008837
O O1 0.801021 0.688915 0.754595
O O2 0.702017 0.481226 0.704633
O O3 0.510583 0.823187 0.538285
O O4 0.642390 0.933590 0.974664
O O5 0.849614 0.655447 0.490073
O O6 0.088197 0.435717 0.786035
O O7 0.906716 0.271949 0.492741
O O8 0.371977 0.264864 0.869393
O O9 0.233367 0.989643 0.573034
O O10 0.744742 0.191682 0.780089
O O11 0.963594 0.118162 0.714540
O O12 0.582926 0.232712 0.883640
O O13 0.463819 0.567716 0.769812
#
# Coordination Sequence:
#
# PCOD9078015 Si02
#       7
#     2   2   2   2   2   1   2
#     4  11  20  38  59  86 115 157 188 245 283 344
#     4   9  18  32  62  79 114 149 197 230 291 332
#     4  10  18  35  57  86 109 157 189 238 280 348
#     4  10  20  35  60  86 115 152 199 229 296 337
#     4  11  22  36  57  88 117 153 195 239 284 347
#     4   8  18  34  56  88 108 154 190 238 282 352
#     4  11  23  36  59  86 122 149 199 232 291 339
#
# _framework density 26.877047000000001
#
# number of rings (size 3 to 8) (size 9 to 14) (size 15 to 20)
#    0.000    1.846    3.077    1.846    0.000    0.615 
#    0.000    0.000   10.154    9.231    0.000    0.000 
#    0.000    0.000    0.000    0.000    0.000    0.000 
#
# Total GULP energy -72444.379373 kJ/mol
# GULP energy per Si atom -5572.644567 kJ/mol
# Density = 2.681587 g / cm^3
# Si number density = 26.877047 Si / 1000 Ang^3
#
#
#
# Elastic Constant Matrix: (Units=GPa)
#
#
# Indices 1 2 3 4 5 6 
#
# 1 111.5934 7.5105 0.3811 -12.3469 -23.9817 -39.2648
# 2 7.5105 125.8343 21.9877 28.9583 2.2736 -0.7319
# 3 0.3811 21.9877 74.2286 20.7859 -8.2196 1.3313
# 4 -12.3469 28.9583 20.7859 36.7349 -4.6495 -5.7305
# 5 -23.9817 2.2736 -8.2196 -4.6495 26.4780 19.0704
# 6 -39.2648 -0.7319 1.3313 -5.7305 19.0704 48.4197
#
#
#
# Elastic Compliance Matrix: (Units=1/GPa)
#
#
# Indices 1 2 3 4 5 6 
#
# 1 0.016377 -0.003562 -0.001672 0.012112 0.008592 0.011322
# 2 -0.003562 0.010694 -0.000808 -0.010084 -0.004688 -0.002052
# 3 -0.001672 -0.000808 0.017215 -0.009738 0.006066 -0.005383
# 4 0.012112 -0.010084 -0.009738 0.047726 0.008332 0.012304
# 5 0.008592 -0.004688 0.006066 0.008332 0.061062 -0.016334
# 6 0.011322 -0.002052 -0.005383 0.012304 -0.016334 0.037841
#
#
# Mechanical properties :
#
#
# Convention : Reuss Voigt Hill
#
# Bulk Modulus (GPa) = 31.05516 41.26832 36.16174
# Shear Modulus (GPa) = 23.39363 41.11166 32.25265
#
# Velocity S-wave (km/s) = 2.95345 3.91528 3.46787
# Velocity P-wave (km/s) = 4.81768 5.98557 5.43310
#
# Compressibility (1/GPa) = 0.03220077
#
# Stress axis : x y z
#
# Youngs Moduli (GPa) = 61.06171 93.50940 58.08887
#
# Poissons Ratio (x) = 0.33309 0.09715
# Poissons Ratio (y) = 0.21751 0.04695
# Poissons Ratio (z) = 0.10212 0.07557
#
# Static dielectric constant tensor:
#      x y z
#    x 2.308130 0.020480 0.054000 
#    y 0.020480 2.154820 -0.025330 
#    z 0.054000 -0.025330 2.049730 
# 
# From -- ./inp_files/168244.got.cif
#   From: 2010.05.17/outbox.cif.g08.bks.cpg/sg2_85_cif.got.tgz:168244.got - 2010.06.03 11:33:40.
