data_PCOD9078140
_publ_section_title
;
Structure prediction by ZEFSAII (Michael W. Deem and Ramdas Pophale) SiO2 
 PCOD9078140
Probable space group: P -1
;
_chemical_formula_sum "Si O2"
_cell_formula_units_Z 12
_cell_length_a 10.155550
_cell_length_b 13.169687
_cell_length_c 7.066643
_cell_angle_alpha 123.743728
_cell_angle_beta 135.324060
_cell_angle_gamma 52.938482
_cell_volume 516.531535
_symmetry_space_group_name_H-M "P -1"
_symmetry_group_IT_number 2
_symmetry_cell_setting 'triclinic'
loop_
_space_group_symop_operation_xyz
x,y,z
-x,-y,-z
loop_
_atom_site_type_symbol
_atom_site_label
_atom_site_fract_x
_atom_site_fract_y
_atom_site_fract_z
Si Si1 0.796218 0.584908 0.119622
Si Si2 0.921031 0.958766 0.178372
Si Si3 0.992849 0.695261 0.120768
Si Si4 0.259590 0.835170 0.089171
Si Si5 0.610858 0.595671 0.307996
Si Si6 0.329399 0.633234 0.652035
O O1 0.930224 0.436216 0.056920
O O2 0.321806 0.487632 0.519323
O O3 0.782862 0.599130 0.346207
O O4 0.880386 0.673218 0.169048
O O5 0.871134 0.829411 0.035422
O O6 0.104261 0.912047 0.167845
O O7 0.000000 0.000000 0.500000
O O8 0.746976 0.066901 0.991014
O O9 0.205371 0.700810 0.413692
O O10 0.458654 0.743499 0.306214
O O11 0.215082 0.722581 0.805002
O O12 0.500000 0.500000 0.000000
O O13 0.559300 0.621309 0.867020
#
# Coordination Sequence:
#
# PCOD9078140 Si02
#       6
#     2   2   2   2   2   2
#     4   9  20  34  53  85 117 140 189 238 283 329
#     4  11  20  34  57  84 113 153 192 226 281 344
#     4  11  20  33  56  88 112 147 189 233 283 339
#     4   9  19  35  55  80 112 149 193 229 275 338
#     4   8  16  34  53  75 109 148 178 231 279 322
#     4  10  18  35  59  81 113 154 182 236 287 330
#
# _framework density 23.231881000000001
#
# number of rings (size 3 to 8) (size 9 to 14) (size 15 to 20)
#    0.000    2.667    1.667    3.500    0.000    0.667 
#    0.000    3.333    0.000    4.000    0.000    0.000 
#    0.000    0.000    0.000    0.000    0.000    0.000 
#
# Total GULP energy -66838.341143 kJ/mol
# GULP energy per Si atom -5569.861762 kJ/mol
# Density = 2.317900 g / cm^3
# Si number density = 23.231881 Si / 1000 Ang^3
#
#
#
# Elastic Constant Matrix: (Units=GPa)
#
#
# Indices 1 2 3 4 5 6 
#
# 1 96.6496 36.6682 22.1649 -0.9450 -6.6265 2.9208
# 2 36.6682 195.7172 9.1128 -0.6413 2.4582 18.7629
# 3 22.1649 9.1128 53.5785 -13.6566 -3.0709 -6.1982
# 4 -0.9450 -0.6413 -13.6566 20.4520 -2.4433 -0.4952
# 5 -6.6265 2.4582 -3.0709 -2.4433 33.2325 0.5682
# 6 2.9208 18.7629 -6.1982 -0.4952 0.5682 34.3784
#
#
#
# Elastic Compliance Matrix: (Units=1/GPa)
#
#
# Indices 1 2 3 4 5 6 
#
# 1 0.012538 -0.002020 -0.005629 -0.003039 0.001924 -0.001053
# 2 -0.002020 0.005831 -0.000715 -0.000570 -0.000888 -0.003133
# 3 -0.005629 -0.000715 0.026493 0.017859 0.002591 0.005859
# 4 -0.003039 -0.000570 0.017859 0.061433 0.005525 0.004583
# 5 0.001924 -0.000888 0.002591 0.005525 0.031180 0.000353
# 6 -0.001053 -0.003133 0.005859 0.004583 0.000353 0.032004
#
#
# Mechanical properties :
#
#
# Convention : Reuss Voigt Hill
#
# Bulk Modulus (GPa) = 35.54438 53.53745 44.54091
# Shear Modulus (GPa) = 25.56431 36.14586 30.85509
#
# Velocity S-wave (km/s) = 3.32082 3.94874 3.64831
# Velocity P-wave (km/s) = 5.48059 6.62456 6.07954
#
# Compressibility (1/GPa) = 0.02813384
#
# Stress axis : x y z
#
# Youngs Moduli (GPa) = 79.75697 171.50293 37.74569
#
# Poissons Ratio (x) = 0.34645 0.21249
# Poissons Ratio (y) = 0.16112 0.02697
# Poissons Ratio (z) = 0.44898 0.12255
#
# Static dielectric constant tensor:
#      x y z
#    x 1.895930 0.036610 -0.035310 
#    y 0.036610 1.970390 -0.039020 
#    z -0.035310 -0.039020 1.997690 
# 
# From -- ./inp_files/182831.got.cif
#   From: 2010.05.17/outbox.cif.g08.bks.cpg/sg2_92_cif.got.tgz:182831.got - 2010.06.03 11:33:40.
