data_PCOD9078512
_publ_section_title
;
Structure prediction by ZEFSAII (Michael W. Deem and Ramdas Pophale) SiO2 
 PCOD9078512
Probable space group: P -1
;
_chemical_formula_sum "Si O2"
_cell_formula_units_Z 14
_cell_length_a 11.994464
_cell_length_b 24.832583
_cell_length_c 6.895763
_cell_angle_alpha 74.549341
_cell_angle_beta 83.529002
_cell_angle_gamma 150.917956
_cell_volume 649.843402
_symmetry_space_group_name_H-M "P -1"
_symmetry_group_IT_number 2
_symmetry_cell_setting 'triclinic'
loop_
_space_group_symop_operation_xyz
x,y,z
-x,-y,-z
loop_
_atom_site_type_symbol
_atom_site_label
_atom_site_fract_x
_atom_site_fract_y
_atom_site_fract_z
Si Si1 0.729102 0.752689 0.436598
Si Si2 0.073882 0.699620 0.327242
Si Si3 0.286563 0.588133 0.372736
Si Si4 0.520788 0.990970 0.775264
Si Si5 0.276838 0.366834 0.332872
Si Si6 0.666582 0.979104 0.248809
Si Si7 0.920234 0.898532 0.660269
O O1 0.480213 0.679173 0.452734
O O2 0.559567 0.612362 0.635272
O O3 0.860196 0.838756 0.528405
O O4 0.037867 0.886340 0.099657
O O5 0.881800 0.552009 0.474087
O O6 0.819702 0.630925 0.495554
O O7 0.318004 0.804760 0.367172
O O8 0.307911 0.833866 0.976814
O O9 0.000000 0.500000 0.500000
O O10 0.576744 0.732188 0.015077
O O11 0.639267 0.030471 0.278699
O O12 0.922341 0.178745 0.488784
O O13 0.500000 0.000000 0.000000
O O14 0.500000 0.500000 0.000000
O O15 0.779631 0.989879 0.382643
O O16 0.000000 0.000000 0.500000
#
# Coordination Sequence:
#
# PCOD9078512 Si02
#       7
#     2   2   2   2   2   2   2
#     4  11  22  44  66  95 132 168 218 266 324 388
#     4  10  19  41  68  95 127 175 214 256 328 393
#     4  11  28  45  65  94 131 177 217 268 322 383
#     4   8  15  35  64  93 124 170 204 256 322 387
#     4  10  18  35  64 101 133 161 209 271 322 377
#     4   9  19  42  71  91 130 171 213 266 322 383
#     4  11  27  44  66  98 124 174 224 269 319 385
#
# _framework density 21.543652000000002
#
# number of rings (size 3 to 8) (size 9 to 14) (size 15 to 20)
#    0.000    2.286    4.286    0.857    4.000    2.286 
#    7.714    2.857    0.000    0.000    0.000    0.000 
#    0.000    0.000    0.000    0.000    0.000    0.000 
#
# Total GULP energy -78206.530004 kJ/mol
# GULP energy per Si atom -5586.180715 kJ/mol
# Density = 2.149462 g / cm^3
# Si number density = 21.543652 Si / 1000 Ang^3
#
#
#
# Elastic Constant Matrix: (Units=GPa)
#
#
# Indices 1 2 3 4 5 6 
#
# 1 175.6381 49.5886 44.9641 1.8625 21.2113 9.0290
# 2 49.5886 70.6006 28.2264 4.8705 15.8120 1.9328
# 3 44.9641 28.2264 97.7714 -18.6607 18.8820 -5.2368
# 4 1.8625 4.8705 -18.6607 31.8395 -4.1421 10.1919
# 5 21.2113 15.8120 18.8820 -4.1421 37.6260 -5.8091
# 6 9.0290 1.9328 -5.2368 10.1919 -5.8091 43.7656
#
#
#
# Elastic Compliance Matrix: (Units=1/GPa)
#
#
# Indices 1 2 3 4 5 6 
#
# 1 0.007735 -0.003978 -0.002304 -0.000884 -0.001899 -0.001742
# 2 -0.003978 0.020099 -0.004190 -0.005975 -0.004729 0.000195
# 3 -0.002304 -0.004190 0.014889 0.009098 -0.003431 -0.000132
# 4 -0.000884 -0.005975 0.009098 0.040374 0.001709 -0.007640
# 5 -0.001899 -0.004729 -0.003431 0.001709 0.032172 0.004062
# 6 -0.001742 0.000195 -0.000132 -0.007640 0.004062 0.025502
#
#
# Mechanical properties :
#
#
# Convention : Reuss Voigt Hill
#
# Bulk Modulus (GPa) = 45.91433 65.50758 55.71096
# Shear Modulus (GPa) = 29.59028 37.39494 33.49261
#
# Velocity S-wave (km/s) = 3.71010 4.17078 3.94717
# Velocity P-wave (km/s) = 6.30172 7.32577 6.83295
#
# Compressibility (1/GPa) = 0.02177969
#
# Stress axis : x y z
#
# Youngs Moduli (GPa) = 129.28926 49.75323 67.16272
#
# Poissons Ratio (x) = 0.19790 0.15475
# Poissons Ratio (y) = 0.51426 0.28142
# Poissons Ratio (z) = 0.29789 0.20847
#
# Static dielectric constant tensor:
#      x y z
#    x 1.812410 0.011210 0.004600 
#    y 0.011210 1.826780 0.017740 
#    z 0.004600 0.017740 1.817960 
# 
# From -- ./inp_files/84339.got.cif
#   From: 2010.05.17/outbox.cif.g08.bks.cpg/sg2_43_cif.got.tgz:84339.got - 2010.06.03 11:33:40.
