data_PCOD9078001
_publ_section_title
;
Structure prediction by ZEFSAII (Michael W. Deem and Ramdas Pophale) SiO2 
 PCOD9078001
Probable space group: P -1
;
_chemical_formula_sum "Si O2"
_cell_formula_units_Z 16
_cell_length_a 10.444901
_cell_length_b 11.371575
_cell_length_c 16.595590
_cell_angle_alpha 93.114024
_cell_angle_beta 142.447664
_cell_angle_gamma 59.328003
_cell_volume 769.088779
_symmetry_space_group_name_H-M "P -1"
_symmetry_group_IT_number 2
_symmetry_cell_setting 'triclinic'
loop_
_space_group_symop_operation_xyz
x,y,z
-x,-y,-z
loop_
_atom_site_type_symbol
_atom_site_label
_atom_site_fract_x
_atom_site_fract_y
_atom_site_fract_z
Si Si1 0.696617 0.853844 0.803883
Si Si2 0.328379 0.348399 0.471663
Si Si3 0.151445 0.638371 0.481859
Si Si4 0.432626 0.224768 0.704040
Si Si5 0.205347 0.964266 0.675665
Si Si6 0.429600 0.573588 0.171762
Si Si7 0.792044 0.002933 0.581593
Si Si8 0.829483 0.376949 0.208058
O O1 0.460905 0.923741 0.613385
O O2 0.639484 0.015894 0.802718
O O3 0.561233 0.837312 0.811904
O O4 0.080558 0.674237 0.973974
O O5 0.271356 0.510886 0.461492
O O6 0.381344 0.275255 0.586016
O O7 0.622373 0.175034 0.557475
O O8 0.001852 0.426367 0.279072
O O9 0.456624 0.527504 0.689675
O O10 0.899644 0.665138 0.409468
O O11 0.961639 0.839567 0.377805
O O12 0.581332 0.279417 0.818490
O O13 0.126989 0.910059 0.706738
O O14 0.000000 0.000000 0.500000
O O15 0.715010 0.423075 0.245420
O O16 0.900580 0.840506 0.678159
O O17 0.500000 0.500000 0.000000
#
# Coordination Sequence:
#
# PCOD9078001 Si02
#       8
#     2   2   2   2   2   2   2   2
#     4  10  20  35  59  85 113 151 191 236 280 341
#     4  11  20  36  59  84 119 151 186 236 292 344
#     4  10  19  38  62  86 116 152 192 235 280 341
#     4  10  18  35  57  83 119 148 184 236 290 341
#     4   9  20  40  61  79 112 161 195 228 280 342
#     4  11  19  33  56  92 113 140 192 239 289 330
#     4  11  23  40  56  80 119 158 193 229 289 343
#     4  12  23  36  57  86 119 147 190 242 291 343
#
# _framework density 20.803839
#
# number of rings (size 3 to 8) (size 9 to 14) (size 15 to 20)
#    0.000    1.500    3.750    3.750    1.750    0.500 
#    0.000    6.875    0.000    3.750    0.000    0.000 
#    0.000    0.000    0.000    0.000    0.000    0.000 
#
# Total GULP energy -89345.197144 kJ/mol
# GULP energy per Si atom -5584.074822 kJ/mol
# Density = 2.075649 g / cm^3
# Si number density = 20.803839 Si / 1000 Ang^3
#
#
#
# Elastic Constant Matrix: (Units=GPa)
#
#
# Indices 1 2 3 4 5 6 
#
# 1 45.0200 12.5109 7.8805 3.9683 13.5960 -3.1749
# 2 12.5109 94.6839 -6.5093 4.1530 2.0017 -18.8497
# 3 7.8805 -6.5093 67.4863 0.5769 10.7808 -2.1624
# 4 3.9683 4.1530 0.5769 23.0208 -6.6605 6.9992
# 5 13.5960 2.0017 10.7808 -6.6605 20.3146 -2.1552
# 6 -3.1749 -18.8497 -2.1624 6.9992 -2.1552 24.2205
#
#
#
# Elastic Compliance Matrix: (Units=1/GPa)
#
#
# Indices 1 2 3 4 5 6 
#
# 1 0.031951 -0.002218 0.000369 -0.013751 -0.025423 0.004206
# 2 -0.002218 0.013803 0.002352 -0.006486 -0.001938 0.012363
# 3 0.000369 0.002352 0.016887 -0.005213 -0.010732 0.003938
# 4 -0.013751 -0.006486 -0.005213 0.062952 0.030834 -0.022764
# 5 -0.025423 -0.001938 -0.010732 0.030834 0.081445 -0.007463
# 6 0.004206 0.012363 0.003938 -0.022764 -0.007463 0.057727
#
#
# Mechanical properties :
#
#
# Convention : Reuss Voigt Hill
#
# Bulk Modulus (GPa) = 15.71230 26.10604 20.90917
# Shear Modulus (GPa) = 17.54540 26.39839 21.97190
#
# Velocity S-wave (km/s) = 2.90724 3.56605 3.25337
# Velocity P-wave (km/s) = 4.34032 5.43429 4.91782
#
# Compressibility (1/GPa) = 0.06364439
#
# Stress axis : x y z
#
# Youngs Moduli (GPa) = 31.29817 72.44772 59.21825
#
# Poissons Ratio (x) = 0.16072 -0.02183
# Poissons Ratio (y) = 0.06943 -0.13926
# Poissons Ratio (z) = -0.01154 -0.17037
#
# Static dielectric constant tensor:
#      x y z
#    x 1.776310 -0.012040 0.007340 
#    y -0.012040 1.769720 0.011800 
#    z 0.007340 0.011800 1.728360 
# 
# From -- ./inp_files/218081.got.cif
#   From: 2010.05.17/outbox.cif.g08.bks.cpg/sg2_110_cif.got.tgz:218081.got - 2010.06.03 11:33:40.
