data_PCOD9078269
_publ_section_title
;
Structure prediction by ZEFSAII (Michael W. Deem and Ramdas Pophale) SiO2 
 PCOD9078269
Probable space group: P -1
;
_chemical_formula_sum "Si O2"
_cell_formula_units_Z 16
_cell_length_a 8.667056
_cell_length_b 15.577703
_cell_length_c 11.345230
_cell_angle_alpha 135.897465
_cell_angle_beta 123.401730
_cell_angle_gamma 89.472661
_cell_volume 664.988462
_symmetry_space_group_name_H-M "P -1"
_symmetry_group_IT_number 2
_symmetry_cell_setting 'triclinic'
loop_
_space_group_symop_operation_xyz
x,y,z
-x,-y,-z
loop_
_atom_site_type_symbol
_atom_site_label
_atom_site_fract_x
_atom_site_fract_y
_atom_site_fract_z
Si Si1 0.966912 0.379645 0.657068
Si Si2 0.074245 0.290658 0.835828
Si Si3 0.751622 0.818614 0.569860
Si Si4 0.767624 0.100813 0.117644
Si Si5 0.109611 0.176326 0.964450
Si Si6 0.356326 0.082830 0.799567
Si Si7 0.491953 0.344340 0.936725
Si Si8 0.511333 0.724378 0.613701
O O1 0.012073 0.377936 0.812855
O O2 0.837656 0.202891 0.367845
O O3 0.767519 0.398920 0.581809
O O4 0.221066 0.511052 0.825205
O O5 0.047952 0.262047 0.936500
O O6 0.351385 0.376057 0.995753
O O7 0.874748 0.102921 0.518488
O O8 0.649228 0.712743 0.303592
O O9 0.541295 0.739393 0.500665
O O10 0.961478 0.829936 0.734618
O O11 0.882919 0.004315 0.764131
O O12 0.591834 0.112579 0.979786
O O13 0.623367 0.908311 0.877194
O O14 0.240511 0.133247 0.889523
O O15 0.315239 0.295052 0.266136
O O16 0.447407 0.193925 0.831299
#
# Coordination Sequence:
#
# PCOD9078269 Si02
#       8
#     2   2   2   2   2   2   2   2
#     4  12  23  38  63  93 122 157 203 251 296 356
#     4  11  19  37  63  91 117 153 203 256 291 343
#     4  11  22  39  62  87 127 159 198 243 306 365
#     4  11  21  38  62  90 117 153 212 248 289 348
#     4  10  18  35  60  88 115 153 198 253 293 338
#     4  11  19  37  65  92 119 150 204 264 289 342
#     4  11  23  38  60  95 126 156 194 248 314 352
#     4  11  23  39  60  91 123 163 197 247 303 356
#
# _framework density 24.060569000000001
#
# number of rings (size 3 to 8) (size 9 to 14) (size 15 to 20)
#    0.000    1.000    6.250    3.750    0.000    1.000 
#    0.000    3.750    0.000    1.500    0.000    0.000 
#    0.000    0.000    0.000    0.000    0.000    0.000 
#
# Total GULP energy -89383.268576 kJ/mol
# GULP energy per Si atom -5586.454286 kJ/mol
# Density = 2.400581 g / cm^3
# Si number density = 24.060569 Si / 1000 Ang^3
#
#
#
# Elastic Constant Matrix: (Units=GPa)
#
#
# Indices 1 2 3 4 5 6 
#
# 1 45.5159 13.8991 38.6733 7.0631 8.3307 16.9244
# 2 13.8991 88.3000 33.7904 -16.8405 -11.3878 21.3034
# 3 38.6733 33.7904 73.7875 -7.6208 10.2735 0.4675
# 4 7.0631 -16.8405 -7.6208 29.7196 -7.3498 -0.8575
# 5 8.3307 -11.3878 10.2735 -7.3498 29.9021 -0.4481
# 6 16.9244 21.3034 0.4675 -0.8575 -0.4481 25.6048
#
#
#
# Elastic Compliance Matrix: (Units=1/GPa)
#
#
# Indices 1 2 3 4 5 6 
#
# 1 0.152651 0.034810 -0.098812 -0.047872 -0.009035 -0.129820
# 2 0.034810 0.034719 -0.035576 0.004811 0.016168 -0.050802
# 3 -0.098812 -0.035576 0.084740 0.025952 -0.007345 0.094106
# 4 -0.047872 0.004811 0.025952 0.060598 0.021591 0.029573
# 5 -0.009035 0.016168 -0.007345 0.021591 0.049861 -0.005751
# 6 -0.129820 -0.050802 0.094106 0.029573 -0.005751 0.166303
#
#
# Mechanical properties :
#
#
# Convention : Reuss Voigt Hill
#
# Bulk Modulus (GPa) = 13.70727 42.25878 27.98302
# Shear Modulus (GPa) = 6.47376 25.12800 15.80088
#
# Velocity S-wave (km/s) = 1.64209 3.23517 2.56542
# Velocity P-wave (km/s) = 3.05035 5.61754 4.52003
#
# Compressibility (1/GPa) = 0.07295401
#
# Stress axis : x y z
#
# Youngs Moduli (GPa) = 6.55088 28.80252 11.80080
#
# Poissons Ratio (x) = -1.00261 1.16606
# Poissons Ratio (y) = -0.22803 0.41983
# Poissons Ratio (z) = 0.64730 1.02468
#
# Static dielectric constant tensor:
#      x y z
#    x 1.941000 -0.031280 -0.015130 
#    y -0.031280 1.944730 -0.010190 
#    z -0.015130 -0.010190 1.949480 
# 
# From -- ./inp_files/305845.got.cif
#   From: 2010.05.17/outbox.cif.g08.bks.cpg/sg2_153_cif.got.tgz:305845.got - 2010.06.03 11:33:40.
