data_PCOD9078188
_publ_section_title
;
Structure prediction by ZEFSAII (Michael W. Deem and Ramdas Pophale) SiO2 
 PCOD9078188
Probable space group: P -1
;
_chemical_formula_sum "Si O2"
_cell_formula_units_Z 16
_cell_length_a 14.656875
_cell_length_b 13.584085
_cell_length_c 6.726848
_cell_angle_alpha 76.159049
_cell_angle_beta 116.863750
_cell_angle_gamma 148.650553
_cell_volume 589.735660
_symmetry_space_group_name_H-M "P -1"
_symmetry_group_IT_number 2
_symmetry_cell_setting 'triclinic'
loop_
_space_group_symop_operation_xyz
x,y,z
-x,-y,-z
loop_
_atom_site_type_symbol
_atom_site_label
_atom_site_fract_x
_atom_site_fract_y
_atom_site_fract_z
Si Si1 0.435330 0.336541 0.107089
Si Si2 0.903165 0.064466 0.277874
Si Si3 0.829439 0.791623 0.817481
Si Si4 0.692003 0.466928 0.998130
Si Si5 0.647133 0.124068 0.273772
Si Si6 0.303784 0.959903 0.199475
Si Si7 0.979165 0.523920 0.191311
Si Si8 0.341996 0.106028 0.533140
O O1 0.368731 0.311877 0.277734
O O2 0.500000 0.500000 0.000000
O O3 0.612715 0.413288 0.170444
O O4 0.252544 0.145504 0.876801
O O5 0.113627 0.195863 0.353686
O O6 0.861011 0.036201 0.482895
O O7 0.834832 0.114497 0.083954
O O8 0.814387 0.670974 0.967946
O O9 0.000000 0.000000 0.000000
O O10 0.515670 0.305375 0.738306
O O11 0.821185 0.478455 0.087684
O O12 0.872892 0.348111 0.312446
O O13 0.521847 0.101181 0.290119
O O14 0.626870 0.988050 0.364229
O O15 0.500000 0.000000 0.000000
O O16 0.188149 0.767203 0.290104
O O17 0.324874 0.081237 0.291397
O O18 0.000000 0.500000 0.000000
#
# Coordination Sequence:
#
# PCOD9078188 Si02
#       8
#     2   2   2   2   2   2   2   2
#     4   8  16  30  58  90 109 153 209 244 305 373
#     4  10  18  36  60  83 122 154 198 256 314 360
#     4   9  17  31  60  92 112 155 209 251 306 376
#     4  10  18  35  59  87 122 162 202 253 308 366
#     4  12  21  40  61  85 126 167 211 256 304 360
#     4  12  24  40  61  91 124 168 211 255 311 369
#     4  12  22  37  65  93 123 169 212 251 309 372
#     4  11  23  39  60  88 126 165 206 259 306 372
#
# _framework density 27.130799
#
# number of rings (size 3 to 8) (size 9 to 14) (size 15 to 20)
#    0.000    1.500    5.000    1.125    0.000    0.500 
#    2.250    0.000    0.000   24.000    0.000    0.000 
#    0.000    0.000    0.000    0.000    0.000    0.000 
#
# Total GULP energy -89301.793768 kJ/mol
# GULP energy per Si atom -5581.362111 kJ/mol
# Density = 2.706905 g / cm^3
# Si number density = 27.130799 Si / 1000 Ang^3
#
#
#
# Elastic Constant Matrix: (Units=GPa)
#
#
# Indices 1 2 3 4 5 6 
#
# 1 191.9236 20.5000 31.9319 -15.6487 -40.3641 38.0011
# 2 20.5000 125.1642 17.2521 1.7831 -20.1761 4.4975
# 3 31.9319 17.2521 60.5563 -0.1349 -18.8201 11.0559
# 4 -15.6487 1.7831 -0.1349 30.1331 8.0091 -18.3483
# 5 -40.3641 -20.1761 -18.8201 8.0091 48.2213 -16.8377
# 6 38.0011 4.4975 11.0559 -18.3483 -16.8377 67.6417
#
#
#
# Elastic Compliance Matrix: (Units=1/GPa)
#
#
# Indices 1 2 3 4 5 6 
#
# 1 0.006934 -0.000158 -0.001956 0.001167 0.003994 -0.002255
# 2 -0.000158 0.008751 -0.001433 -0.001361 0.003260 0.000183
# 3 -0.001956 -0.001433 0.019957 -0.003275 0.005546 -0.001576
# 4 0.001167 -0.001361 -0.003275 0.041107 -0.004178 0.010081
# 5 0.003994 0.003260 0.005546 -0.004178 0.029277 0.002787
# 6 -0.002255 0.000183 -0.001576 0.010081 0.002787 0.019724
#
#
# Mechanical properties :
#
#
# Convention : Reuss Voigt Hill
#
# Bulk Modulus (GPa) = 35.02828 57.44578 46.23703
# Shear Modulus (GPa) = 35.12204 49.72988 42.42596
#
# Velocity S-wave (km/s) = 3.60188 4.28596 3.95873
# Velocity P-wave (km/s) = 5.49882 6.76108 6.16235
#
# Compressibility (1/GPa) = 0.02854836
#
# Stress axis : x y z
#
# Youngs Moduli (GPa) = 144.21147 114.26946 50.10710
#
# Poissons Ratio (x) = 0.01805 0.09801
# Poissons Ratio (y) = 0.02278 0.07181
# Poissons Ratio (z) = 0.28209 0.16377
#
# Static dielectric constant tensor:
#      x y z
#    x 2.273640 0.110740 0.454510 
#    y 0.110740 2.343910 0.038970 
#    z 0.454510 0.038970 3.315310 
# 
# From -- ./inp_files/313559.got.cif
#   From: 2010.05.17/outbox.cif.g08.bks.cpg/sg2_157_cif.got.tgz:313559.got - 2010.06.03 11:33:40.
