data_PCOD9078561
_publ_section_title
;
Structure prediction by ZEFSAII (Michael W. Deem and Ramdas Pophale) SiO2 
 PCOD9078561
Probable space group: P -1
;
_chemical_formula_sum "Si O2"
_cell_formula_units_Z 16
_cell_length_a 7.682163
_cell_length_b 8.600892
_cell_length_c 11.968046
_cell_angle_alpha 115.448556
_cell_angle_beta 93.300426
_cell_angle_gamma 90.541902
_cell_volume 712.345474
_symmetry_space_group_name_H-M "P -1"
_symmetry_group_IT_number 2
_symmetry_cell_setting 'triclinic'
loop_
_space_group_symop_operation_xyz
x,y,z
-x,-y,-z
loop_
_atom_site_type_symbol
_atom_site_label
_atom_site_fract_x
_atom_site_fract_y
_atom_site_fract_z
Si Si1 0.560308 0.673590 0.953589
Si Si2 0.741710 0.099200 0.719762
Si Si3 0.562511 0.799435 0.764243
Si Si4 0.427519 0.323853 0.787964
Si Si5 0.111860 0.434861 0.331018
Si Si6 0.200519 0.731419 0.607161
Si Si7 0.700022 0.956649 0.452836
Si Si8 0.105529 0.564333 0.129581
O O1 0.553810 0.816388 0.902855
O O2 0.411713 0.527989 0.866806
O O3 0.723563 0.550487 0.912769
O O4 0.565680 0.736270 0.100423
O O5 0.610296 0.251165 0.725446
O O6 0.800999 0.989052 0.582279
O O7 0.884707 0.227285 0.818151
O O8 0.636514 0.968478 0.755675
O O9 0.709429 0.660562 0.710236
O O10 0.381316 0.728423 0.682184
O O11 0.299008 0.226774 0.666074
O O12 0.162811 0.580619 0.468825
O O13 0.047187 0.518740 0.239354
O O14 0.964691 0.296990 0.326538
O O15 0.229209 0.905838 0.591662
O O16 0.500000 0.000000 0.500000
O O17 0.000000 0.500000 0.000000
#
# Coordination Sequence:
#
# PCOD9078561 Si02
#       8
#     2   2   2   2   2   2   2   2
#     4   9  21  37  59  92 122 158 219 252 295 385
#     4  10  20  37  63  89 122 162 211 252 320 372
#     4  11  22  39  64  96 125 164 201 266 317 360
#     4   9  18  36  58  86 119 159 208 253 299 376
#     4  10  24  40  62  96 129 158 219 255 301 387
#     4  11  21  40  66  91 129 170 201 260 321 361
#     4  10  18  35  65  90 116 166 204 253 315 367
#     4  10  21  43  63  80 126 178 201 255 316 372
#
# _framework density 22.461012
#
# number of rings (size 3 to 8) (size 9 to 14) (size 15 to 20)
#    0.000    2.000    3.750    0.375    1.750    4.500 
#    4.500    3.125    0.000    0.000    0.000    0.000 
#    0.000    0.000    0.000    0.000    0.000    0.000 
#
# Total GULP energy -89133.232574 kJ/mol
# GULP energy per Si atom -5570.827036 kJ/mol
# Density = 2.240989 g / cm^3
# Si number density = 22.461012 Si / 1000 Ang^3
#
#
#
# Elastic Constant Matrix: (Units=GPa)
#
#
# Indices 1 2 3 4 5 6 
#
# 1 61.1767 18.5507 27.6786 -12.4638 9.1562 6.6103
# 2 18.5507 61.1847 38.4629 -12.8365 13.4125 13.1091
# 3 27.6786 38.4629 179.2468 0.5957 16.5974 10.0423
# 4 -12.4638 -12.8365 0.5957 27.9094 2.3639 -6.6444
# 5 9.1562 13.4125 16.5974 2.3639 30.7131 2.3305
# 6 6.6103 13.1091 10.0423 -6.6444 2.3305 25.7686
#
#
#
# Elastic Compliance Matrix: (Units=1/GPa)
#
#
# Indices 1 2 3 4 5 6 
#
# 1 0.020470 -0.001731 -0.002339 0.008597 -0.004682 -0.000819
# 2 -0.001731 0.024756 -0.003887 0.009646 -0.008376 -0.007390
# 3 -0.002339 -0.003887 0.006928 -0.003087 -0.001049 -0.000824
# 4 0.008597 0.009646 -0.003087 0.046606 -0.009221 0.006942
# 5 -0.004682 -0.008376 -0.001049 -0.009221 0.038891 -0.000024
# 6 -0.000819 -0.007390 -0.000824 0.006942 -0.000024 0.044890
#
#
# Mechanical properties :
#
#
# Convention : Reuss Voigt Hill
#
# Bulk Modulus (GPa) = 27.59377 52.33250 39.96314
# Shear Modulus (GPa) = 23.74930 31.33928 27.54429
#
# Velocity S-wave (km/s) = 3.25523 3.73939 3.50568
# Velocity P-wave (km/s) = 5.14204 6.48027 5.84955
#
# Compressibility (1/GPa) = 0.03624006
#
# Stress axis : x y z
#
# Youngs Moduli (GPa) = 48.85251 40.39499 144.34841
#
# Poissons Ratio (x) = 0.06990 0.33758
# Poissons Ratio (y) = 0.08454 0.56113
# Poissons Ratio (z) = 0.11425 0.15703
#
# Static dielectric constant tensor:
#      x y z
#    x 2.059890 0.073450 0.097680 
#    y 0.073450 1.867400 0.018840 
#    z 0.097680 0.018840 1.922580 
# 
# From -- ./inp_files/380402.got.cif
#   From: 2010.05.17/outbox.cif.g08.bks.cpg/sg2_191_cif.got.tgz:380402.got - 2010.06.03 11:33:40.
