data_PCOD9078019
_publ_section_title
;
Structure prediction by ZEFSAII (Michael W. Deem and Ramdas Pophale) SiO2 
 PCOD9078019
Probable space group: P -1
;
_chemical_formula_sum "Si O2"
_cell_formula_units_Z 16
_cell_length_a 11.137261
_cell_length_b 8.278764
_cell_length_c 10.755955
_cell_angle_alpha 137.948531
_cell_angle_beta 75.858669
_cell_angle_gamma 91.179054
_cell_volume 624.066192
_symmetry_space_group_name_H-M "P -1"
_symmetry_group_IT_number 2
_symmetry_cell_setting 'triclinic'
loop_
_space_group_symop_operation_xyz
x,y,z
-x,-y,-z
loop_
_atom_site_type_symbol
_atom_site_label
_atom_site_fract_x
_atom_site_fract_y
_atom_site_fract_z
Si Si1 0.897455 0.931307 0.076807
Si Si2 0.591604 0.812837 0.204490
Si Si3 0.769936 0.713898 0.502736
Si Si4 0.337147 0.846816 0.411434
Si Si5 0.521118 0.748665 0.706268
Si Si6 0.279777 0.760297 0.886014
Si Si7 0.069335 0.995146 0.278888
Si Si8 0.173024 0.565284 0.188761
O O1 0.901848 0.644647 0.896570
O O2 0.941242 0.998856 0.238632
O O3 0.765137 0.081591 0.138390
O O4 0.000000 0.000000 0.000000
O O5 0.481606 0.727872 0.260983
O O6 0.704061 0.578752 0.006008
O O7 0.649631 0.991332 0.380728
O O8 0.527530 0.996328 0.214323
O O9 0.673890 0.706980 0.638002
O O10 0.753684 0.498713 0.289625
O O11 0.720839 0.963512 0.576739
O O12 0.906014 0.743039 0.534063
O O13 0.244647 0.663303 0.339603
O O14 0.500000 0.500000 0.500000
O O15 0.429576 0.756679 0.853504
O O16 0.189538 0.882553 0.091270
O O17 0.084093 0.795931 0.271152
#
# Coordination Sequence:
#
# PCOD9078019 Si02
#       8
#     2   2   2   2   2   2   2   2
#     4  10  22  40  58  82 116 153 196 243 279 329
#     4  10  18  35  57  86 116 153 181 228 293 339
#     4   9  19  36  57  84 114 147 191 233 282 345
#     4   9  20  34  57  89 119 143 188 234 279 349
#     4   9  18  34  54  82 117 146 183 229 282 343
#     4  10  19  38  57  81 116 152 186 239 281 338
#     4  10  22  37  59  82 110 153 193 236 286 326
#     4  11  20  38  60  84 112 151 193 236 284 338
#
# _framework density 25.638306
#
# number of rings (size 3 to 8) (size 9 to 14) (size 15 to 20)
#    0.000    2.250    1.250    1.500    0.000    2.000 
#    9.000    2.500    0.000    9.000    0.000    0.000 
#    0.000    0.000    0.000    0.000    0.000    0.000 
#
# Total GULP energy -89462.532331 kJ/mol
# GULP energy per Si atom -5591.408271 kJ/mol
# Density = 2.557995 g / cm^3
# Si number density = 25.638306 Si / 1000 Ang^3
#
#
#
# Elastic Constant Matrix: (Units=GPa)
#
#
# Indices 1 2 3 4 5 6 
#
# 1 72.6043 36.2970 43.1016 1.6506 34.4688 15.6303
# 2 36.2970 70.6071 11.4116 13.2798 20.5359 -0.4999
# 3 43.1016 11.4116 98.6583 -6.5464 10.8751 13.3041
# 4 1.6506 13.2798 -6.5464 14.9999 14.7737 1.4349
# 5 34.4688 20.5359 10.8751 14.7737 52.1034 13.3929
# 6 15.6303 -0.4999 13.3041 1.4349 13.3929 34.5542
#
#
#
# Elastic Compliance Matrix: (Units=1/GPa)
#
#
# Indices 1 2 3 4 5 6 
#
# 1 0.042855 -0.019157 -0.010343 0.034725 -0.026752 -0.006753
# 2 -0.019157 0.027011 0.001407 -0.030372 0.008699 0.006404
# 3 -0.010343 0.001407 0.014753 0.003924 0.002654 -0.002173
# 4 0.034725 -0.030372 0.003924 0.142222 -0.051190 -0.003723
# 5 -0.026752 0.008699 0.002654 -0.051190 0.048864 -0.005609
# 6 -0.006753 0.006404 -0.002173 -0.003723 -0.005609 0.035253
#
#
# Mechanical properties :
#
#
# Convention : Reuss Voigt Hill
#
# Bulk Modulus (GPa) = 35.17026 47.05444 41.11235
# Shear Modulus (GPa) = 13.27594 30.40215 21.83905
#
# Velocity S-wave (km/s) = 2.27803 3.44729 2.92175
# Velocity P-wave (km/s) = 4.54608 5.85134 5.23951
#
# Compressibility (1/GPa) = 0.02843311
#
# Stress axis : x y z
#
# Youngs Moduli (GPa) = 23.33434 37.02173 67.78427
#
# Poissons Ratio (x) = 0.70923 0.70109
# Poissons Ratio (y) = 0.44702 -0.09539
# Poissons Ratio (z) = 0.24135 -0.05210
#
# Static dielectric constant tensor:
#      x y z
#    x 2.090390 0.019840 -0.002490 
#    y 0.019840 2.015350 -0.006210 
#    z -0.002490 -0.006210 2.031610 
# 
# From -- ./inp_files/221535.got.cif
#   From: 2010.05.17/outbox.cif.g08.bks.cpg/sg2_111_cif.got.tgz:221535.got - 2010.06.03 11:33:40.
