data_PCOD9078490
_publ_section_title
;
Structure prediction by ZEFSAII (Michael W. Deem and Ramdas Pophale) SiO2 
 PCOD9078490
Probable space group: P -1
;
_chemical_formula_sum "Si O2"
_cell_formula_units_Z 14
_cell_length_a 12.637133
_cell_length_b 11.657045
_cell_length_c 10.050480
_cell_angle_alpha 130.694600
_cell_angle_beta 41.271353
_cell_angle_gamma 147.393495
_cell_volume 525.519100
_symmetry_space_group_name_H-M "P -1"
_symmetry_group_IT_number 2
_symmetry_cell_setting 'triclinic'
loop_
_space_group_symop_operation_xyz
x,y,z
-x,-y,-z
loop_
_atom_site_type_symbol
_atom_site_label
_atom_site_fract_x
_atom_site_fract_y
_atom_site_fract_z
Si Si1 0.484198 0.157655 0.191777
Si Si2 0.190076 0.302749 0.293315
Si Si3 0.342473 0.984067 0.465099
Si Si4 0.206611 0.567329 0.280962
Si Si5 0.754081 0.718850 0.474283
Si Si6 0.208399 0.390785 0.901712
Si Si7 0.277659 0.176307 0.877141
O O1 0.254437 0.106082 0.361539
O O2 0.654349 0.377394 0.116868
O O3 0.509445 0.164604 0.333043
O O4 0.500000 0.000000 0.000000
O O5 0.301179 0.508713 0.252542
O O6 0.218148 0.331593 0.445583
O O7 0.919304 0.142578 0.411858
O O8 0.292684 0.225889 0.059082
O O9 0.355327 0.813049 0.297967
O O10 0.365731 0.076517 0.657060
O O11 0.000000 0.500000 0.500000
O O12 0.094583 0.405405 0.140339
O O13 0.500000 0.500000 0.500000
O O14 0.896094 0.759830 0.242554
O O15 0.330004 0.340410 0.837473
O O16 0.000000 0.000000 0.000000
#
# Coordination Sequence:
#
# PCOD9078490 Si02
#       7
#     2   2   2   2   2   2   2
#     4  11  21  36  61  84 124 168 204 243 314 358
#     4   9  20  38  62  94 118 157 215 249 304 369
#     4  10  18  35  63  91 124 161 197 257 303 365
#     4   9  18  35  61  89 123 157 197 255 309 355
#     4  10  22  40  62  87 121 166 207 254 305 364
#     4  10  19  36  61  84 120 168 199 243 308 361
#     4   9  18  35  59  90 119 155 199 254 304 358
#
# _framework density 26.640326000000002
#
# number of rings (size 3 to 8) (size 9 to 14) (size 15 to 20)
#    0.000    2.286    2.857    0.857    0.000    0.571 
#    0.000   17.143    0.000    4.286    0.000    0.000 
#    0.000    0.000    0.000    0.000    0.000    0.000 
#
# Total GULP energy -78018.591189 kJ/mol
# GULP energy per Si atom -5572.756513 kJ/mol
# Density = 2.657969 g / cm^3
# Si number density = 26.640326 Si / 1000 Ang^3
#
#
#
# Elastic Constant Matrix: (Units=GPa)
#
#
# Indices 1 2 3 4 5 6 
#
# 1 68.2691 14.8249 64.9885 3.1266 36.0432 -6.5525
# 2 14.8249 102.7976 28.7558 -3.4790 11.3629 -28.6751
# 3 64.9885 28.7558 279.4286 24.8523 29.0963 -19.8604
# 4 3.1266 -3.4790 24.8523 49.5113 -12.4838 5.9091
# 5 36.0432 11.3629 29.0963 -12.4838 56.5695 9.9027
# 6 -6.5525 -28.6751 -19.8604 5.9091 9.9027 34.6719
#
#
#
# Elastic Compliance Matrix: (Units=1/GPa)
#
#
# Indices 1 2 3 4 5 6 
#
# 1 0.030860 0.002529 -0.003504 -0.007261 -0.022340 0.013534
# 2 0.002529 0.014322 0.000095 -0.002984 -0.007843 0.015126
# 3 -0.003504 0.000095 0.005074 -0.003139 -0.001674 0.003336
# 4 -0.007261 -0.002984 -0.003139 0.027708 0.015546 -0.014801
# 5 -0.022340 -0.007843 -0.001674 0.015546 0.042404 -0.026428
# 6 0.013534 0.015126 0.003336 -0.014801 -0.026428 0.055891
#
#
# Mechanical properties :
#
#
# Convention : Reuss Voigt Hill
#
# Bulk Modulus (GPa) = 20.61991 74.18150 47.40071
# Shear Modulus (GPa) = 25.74863 50.94560 38.34712
#
# Velocity S-wave (km/s) = 3.11228 4.37779 3.79811
# Velocity P-wave (km/s) = 4.54664 7.31159 6.08816
#
# Compressibility (1/GPa) = 0.04849682
#
# Stress axis : x y z
#
# Youngs Moduli (GPa) = 32.40418 69.82348 197.06729
#
# Poissons Ratio (x) = -0.17656 0.69046
# Poissons Ratio (y) = -0.08194 -0.01876
# Poissons Ratio (z) = 0.11353 -0.00665
#
# Static dielectric constant tensor:
#      x y z
#    x 2.837170 0.889930 -0.253700 
#    y 0.889930 3.378360 -0.322010 
#    z -0.253700 -0.322010 2.219180 
# 
# From -- ./inp_files/282019.got.cif
#   From: 2010.05.17/outbox.cif.g08.bks.cpg/sg2_142_cif.got.tgz:282019.got - 2010.06.03 11:33:40.
