data_PCOD9078175
_publ_section_title
;
Structure prediction by ZEFSAII (Michael W. Deem and Ramdas Pophale) SiO2 
 PCOD9078175
Probable space group: P -1
;
_chemical_formula_sum "Si O2"
_cell_formula_units_Z 16
_cell_length_a 10.813256
_cell_length_b 10.399796
_cell_length_c 8.638214
_cell_angle_alpha 83.164448
_cell_angle_beta 123.276261
_cell_angle_gamma 75.402634
_cell_volume 745.118259
_symmetry_space_group_name_H-M "P -1"
_symmetry_group_IT_number 2
_symmetry_cell_setting 'triclinic'
loop_
_space_group_symop_operation_xyz
x,y,z
-x,-y,-z
loop_
_atom_site_type_symbol
_atom_site_label
_atom_site_fract_x
_atom_site_fract_y
_atom_site_fract_z
Si Si1 0.061498 0.779557 0.332115
Si Si2 0.250255 0.334396 0.324886
Si Si3 0.059799 0.274918 0.455736
Si Si4 0.185514 0.781971 0.911116
Si Si5 0.227977 0.937188 0.627915
Si Si6 0.676897 0.410564 0.694503
Si Si7 0.876908 0.886261 0.890250
Si Si8 0.422316 0.886169 0.477483
O O1 0.102650 0.885368 0.459374
O O2 0.219798 0.689645 0.357704
O O3 0.996242 0.689260 0.412699
O O4 0.925674 0.856968 0.104381
O O5 0.164308 0.345744 0.429199
O O6 0.230402 0.484588 0.224119
O O7 0.181871 0.235783 0.192955
O O8 0.441787 0.250364 0.476948
O O9 0.899274 0.297837 0.244508
O O10 0.167939 0.105540 0.552981
O O11 0.245038 0.872507 0.820413
O O12 0.035587 0.868972 0.905509
O O13 0.313410 0.677601 0.130588
O O14 0.382224 0.874032 0.631465
O O15 0.500000 0.500000 0.500000
O O16 0.743007 0.037563 0.738645
O O17 0.500000 0.000000 0.500000
#
# Coordination Sequence:
#
# PCOD9078175 Si02
#       8
#     2   2   2   2   2   2   2   2
#     4  10  22  36  60  93 120 152 202 247 290 351
#     4  10  21  41  61  80 128 161 195 241 294 361
#     4  10  20  39  62  94 119 154 194 250 310 342
#     4   9  19  36  61  87 115 157 193 238 298 344
#     4  11  19  38  62  91 127 145 197 251 301 353
#     4  11  24  44  58  86 121 162 206 237 288 359
#     4   9  19  36  59  94 114 154 201 240 307 345
#     4  10  18  35  59  86 116 158 195 235 296 356
#
# _framework density 21.473101
#
# number of rings (size 3 to 8) (size 9 to 14) (size 15 to 20)
#    0.000    2.000    3.750    2.250    0.000    5.500 
#    6.750   10.000    0.000    0.000    0.000    0.000 
#    0.000    0.000    0.000    0.000    0.000    0.000 
#
# Total GULP energy -89327.137266 kJ/mol
# GULP energy per Si atom -5582.946079 kJ/mol
# Density = 2.142423 g / cm^3
# Si number density = 21.473101 Si / 1000 Ang^3
#
#
#
# Elastic Constant Matrix: (Units=GPa)
#
#
# Indices 1 2 3 4 5 6 
#
# 1 113.3985 10.0168 56.6038 -0.2048 -22.0789 0.2937
# 2 10.0168 75.8448 24.8402 -0.4251 -1.8777 13.9950
# 3 56.6038 24.8402 146.1912 -9.9502 -23.3070 -8.7852
# 4 -0.2048 -0.4251 -9.9502 18.7389 -4.3238 -2.3255
# 5 -22.0789 -1.8777 -23.3070 -4.3238 37.6142 -4.0509
# 6 0.2937 13.9950 -8.7852 -2.3255 -4.0509 33.6830
#
#
#
# Elastic Compliance Matrix: (Units=1/GPa)
#
#
# Indices 1 2 3 4 5 6 
#
# 1 0.011597 -0.000016 -0.003940 -0.001091 0.004165 -0.000697
# 2 -0.000016 0.015876 -0.003874 -0.003379 -0.002887 -0.008187
# 3 -0.003940 -0.003874 0.010784 0.007604 0.005660 0.005662
# 4 -0.001091 -0.003379 0.007604 0.061186 0.011911 0.009054
# 5 0.004165 -0.002887 0.005660 0.011911 0.034584 0.007621
# 6 -0.000697 -0.008187 0.005662 0.009054 0.007621 0.036115
#
#
# Mechanical properties :
#
#
# Convention : Reuss Voigt Hill
#
# Bulk Modulus (GPa) = 44.25022 57.59510 50.92266
# Shear Modulus (GPa) = 25.86212 34.27214 30.06713
#
# Velocity S-wave (km/s) = 3.47421 3.99939 3.74601
# Velocity P-wave (km/s) = 6.06181 6.94313 6.51738
#
# Compressibility (1/GPa) = 0.02259876
#
# Stress axis : x y z
#
# Youngs Moduli (GPa) = 86.22804 62.98868 92.72801
#
# Poissons Ratio (x) = 0.00099 0.36532
# Poissons Ratio (y) = 0.00136 0.35920
# Poissons Ratio (z) = 0.33971 0.24400
#
# Static dielectric constant tensor:
#      x y z
#    x 1.821730 0.011340 0.002430 
#    y 0.011340 1.869400 0.007800 
#    z 0.002430 0.007800 1.787880 
# 
# From -- ./inp_files/253179.got.cif
#   From: 2010.05.17/outbox.cif.g08.bks.cpg/sg2_127_cif.got.tgz:253179.got - 2010.06.03 11:33:40.
