data_PCOD9078574
_publ_section_title
;
Structure prediction by ZEFSAII (Michael W. Deem and Ramdas Pophale) SiO2 
 PCOD9078574
Probable space group: P -1
;
_chemical_formula_sum "Si O2"
_cell_formula_units_Z 16
_cell_length_a 15.436175
_cell_length_b 13.790048
_cell_length_c 6.798475
_cell_angle_alpha 78.569512
_cell_angle_beta 53.305531
_cell_angle_gamma 37.599870
_cell_volume 585.313938
_symmetry_space_group_name_H-M "P -1"
_symmetry_group_IT_number 2
_symmetry_cell_setting 'triclinic'
loop_
_space_group_symop_operation_xyz
x,y,z
-x,-y,-z
loop_
_atom_site_type_symbol
_atom_site_label
_atom_site_fract_x
_atom_site_fract_y
_atom_site_fract_z
Si Si1 0.181168 0.132964 0.196799
Si Si2 0.042952 0.759271 0.925691
Si Si3 0.443104 0.543564 0.292155
Si Si4 0.555975 0.806948 0.305039
Si Si5 0.648265 0.832270 0.582712
Si Si6 0.695299 0.182078 0.222962
Si Si7 0.209218 0.896220 0.320003
Si Si8 0.067709 0.562106 0.278505
O O1 0.108465 0.173580 0.055761
O O2 0.013547 0.335569 0.444034
O O3 0.159899 0.046554 0.378540
O O4 0.425919 0.970561 0.919216
O O5 0.250161 0.624146 0.574950
O O6 0.086495 0.646972 0.082599
O O7 0.921814 0.957620 0.060265
O O8 0.634551 0.347224 0.238461
O O9 0.345045 0.731075 0.362895
O O10 0.500000 0.500000 0.000000
O O11 0.656182 0.778908 0.375071
O O12 0.464163 0.772534 0.493340
O O13 0.380337 0.026306 0.411055
O O14 0.716921 0.663382 0.968003
O O15 0.879954 0.639441 0.428208
O O16 0.672305 0.185342 0.015087
O O17 0.000000 0.000000 0.500000
#
# Coordination Sequence:
#
# PCOD9078574 Si02
#       8
#     2   2   2   2   2   2   2   2
#     4  11  24  42  68  98 132 177 222 269 335 392
#     4  11  20  42  68  89 135 174 208 274 328 384
#     4  10  20  33  67  99 121 172 223 262 326 389
#     4  11  21  40  68 100 127 173 226 262 336 403
#     4  11  22  43  65  93 136 177 214 274 332 393
#     4  10  18  35  65  93 122 166 218 261 319 391
#     4  10  18  37  65  90 125 174 213 264 323 382
#     4  12  25  41  68 100 133 173 222 274 330 394
#
# _framework density 27.335760000000001
#
# number of rings (size 3 to 8) (size 9 to 14) (size 15 to 20)
#    0.000    1.250    7.500    1.500    0.000    0.500 
#    0.000    5.625    0.000    2.250    0.000    0.000 
#    0.000    0.000    0.000    0.000    0.000    0.000 
#
# Total GULP energy -89558.342560 kJ/mol
# GULP energy per Si atom -5597.396410 kJ/mol
# Density = 2.727354 g / cm^3
# Si number density = 27.335760 Si / 1000 Ang^3
#
#
#
# Elastic Constant Matrix: (Units=GPa)
#
#
# Indices 1 2 3 4 5 6 
#
# 1 67.8281 26.5319 27.5528 7.5859 -2.2049 16.5873
# 2 26.5319 203.3068 40.6315 5.9950 -3.7975 20.0138
# 3 27.5528 40.6315 183.1302 8.0764 -20.7346 12.1938
# 4 7.5859 5.9950 8.0764 54.8519 7.5826 1.0049
# 5 -2.2049 -3.7975 -20.7346 7.5826 33.4650 2.2131
# 6 16.5873 20.0138 12.1938 1.0049 2.2131 41.7277
#
#
#
# Elastic Compliance Matrix: (Units=1/GPa)
#
#
# Indices 1 2 3 4 5 6 
#
# 1 0.017669 -0.001293 -0.001807 -0.002032 0.000746 -0.005866
# 2 -0.001293 0.005453 -0.000858 -0.000283 0.000189 -0.001854
# 3 -0.001807 -0.000858 0.006508 -0.001170 0.004145 -0.000964
# 4 -0.002032 -0.000283 -0.001170 0.019437 -0.005368 0.001102
# 5 0.000746 0.000189 0.004145 -0.005368 0.033953 -0.003270
# 6 -0.005866 -0.001854 -0.000964 0.001102 -0.003270 0.027614
#
#
# Mechanical properties :
#
#
# Convention : Reuss Voigt Hill
#
# Bulk Modulus (GPa) = 46.05381 71.52195 58.78788
# Shear Modulus (GPa) = 39.74916 49.97884 44.86400
#
# Velocity S-wave (km/s) = 3.81741 4.28054 4.05559
# Velocity P-wave (km/s) = 6.02613 7.11700 6.59416
#
# Compressibility (1/GPa) = 0.02171373
#
# Stress axis : x y z
#
# Youngs Moduli (GPa) = 56.59618 183.37448 153.66119
#
# Poissons Ratio (x) = 0.23719 0.27762
# Poissons Ratio (y) = 0.07320 0.13185
# Poissons Ratio (z) = 0.10225 0.15735
#
# Static dielectric constant tensor:
#      x y z
#    x 2.106400 0.015320 0.063760 
#    y 0.015320 2.240720 0.014860 
#    z 0.063760 0.014860 2.147070 
# 
# From -- ./inp_files/347204.got.cif
#   From: 2010.05.17/outbox.cif.g08.bks.cpg/sg2_174_cif.got.tgz:347204.got - 2010.06.03 11:33:40.
