data_PCOD9078349
_publ_section_title
;
Structure prediction by ZEFSAII (Michael W. Deem and Ramdas Pophale) SiO2 
 PCOD9078349
Probable space group: P -1
;
_chemical_formula_sum "Si O2"
_cell_formula_units_Z 13
_cell_length_a 9.271707
_cell_length_b 6.846515
_cell_length_c 12.976347
_cell_angle_alpha 78.844990
_cell_angle_beta 48.710989
_cell_angle_gamma 56.372224
_cell_volume 495.512278
_symmetry_space_group_name_H-M "P -1"
_symmetry_group_IT_number 2
_symmetry_cell_setting 'triclinic'
loop_
_space_group_symop_operation_xyz
x,y,z
-x,-y,-z
loop_
_atom_site_type_symbol
_atom_site_label
_atom_site_fract_x
_atom_site_fract_y
_atom_site_fract_z
Si Si1 0.000000 0.000000 0.500000
Si Si2 0.298306 0.838771 0.570484
Si Si3 0.186450 0.697483 0.837202
Si Si4 0.273961 0.082511 0.857121
Si Si5 0.190496 0.337299 0.658879
Si Si6 0.651560 0.701172 0.855338
Si Si7 0.410565 0.702108 0.172201
O O1 0.770989 0.156942 0.514516
O O2 0.825836 0.105368 0.674694
O O3 0.202939 0.733501 0.705769
O O4 0.576856 0.684776 0.481670
O O5 0.204895 0.117335 0.613655
O O6 0.374594 0.452554 0.833782
O O7 0.228588 0.892178 0.846968
O O8 0.928688 0.776918 0.977912
O O9 0.235016 0.255485 0.764960
O O10 0.524125 0.920668 0.811088
O O11 0.928709 0.576663 0.744287
O O12 0.632954 0.489861 0.838299
O O13 0.506199 0.775126 0.023286
#
# Coordination Sequence:
#
# PCOD9078349 Si02
#       7
#     1   2   2   2   2   2   2
#     4  12  22  38  54  88 116 162 184 242 284 362
#     4  10  22  36  57  81 125 148 191 234 301 330
#     4   9  17  34  54  87 110 155 188 243 274 355
#     4   9  17  30  61  86 114 137 205 236 286 322
#     4  10  19  39  57  89 114 154 185 250 279 344
#     4  10  18  35  61  90 108 154 194 246 272 349
#     4  10  20  33  60  86 117 147 202 235 287 334
#
# _framework density 26.235475999999998
#
# number of rings (size 3 to 8) (size 9 to 14) (size 15 to 20)
#    0.000    2.154    3.077    0.923    4.308    0.615 
#    2.769    3.846    0.000    1.846    0.000    0.000 
#    0.000    0.000    0.000    0.000    0.000    0.000 
#
# Total GULP energy -72657.842203 kJ/mol
# GULP energy per Si atom -5589.064785 kJ/mol
# Density = 2.617576 g / cm^3
# Si number density = 26.235476 Si / 1000 Ang^3
#
#
#
# Elastic Constant Matrix: (Units=GPa)
#
#
# Indices 1 2 3 4 5 6 
#
# 1 139.8326 57.6759 40.5157 -2.4583 -6.2028 -30.6851
# 2 57.6759 129.7175 50.0407 -2.3462 -9.3373 -32.6035
# 3 40.5157 50.0407 163.8648 10.4703 -6.6045 -18.0422
# 4 -2.4583 -2.3462 10.4703 42.8295 -12.4517 -1.8121
# 5 -6.2028 -9.3373 -6.6045 -12.4517 50.6030 9.5769
# 6 -30.6851 -32.6035 -18.0422 -1.8121 9.5769 54.7745
#
#
#
# Elastic Compliance Matrix: (Units=1/GPa)
#
#
# Indices 1 2 3 4 5 6 
#
# 1 0.009398 -0.002928 -0.001130 0.000808 0.000064 0.003165
# 2 -0.002928 0.010985 -0.002239 0.001432 0.000964 0.004040
# 3 -0.001130 -0.002239 0.007228 -0.001987 -0.000169 0.000379
# 4 0.000808 0.001432 -0.001987 0.025832 0.006387 0.000388
# 5 0.000064 0.000964 -0.000169 0.006387 0.022083 -0.003096
# 6 0.003165 0.004040 0.000379 0.000388 -0.003096 0.023114
#
#
# Mechanical properties :
#
#
# Convention : Reuss Voigt Hill
#
# Bulk Modulus (GPa) = 66.58792 81.09774 73.84283
# Shear Modulus (GPa) = 43.01497 48.65357 45.83427
#
# Velocity S-wave (km/s) = 4.05356 4.31106 4.18429
# Velocity P-wave (km/s) = 6.88073 7.46719 7.17995
#
# Compressibility (1/GPa) = 0.01501774
#
# Stress axis : x y z
#
# Youngs Moduli (GPa) = 106.40365 91.03222 138.36027
#
# Poissons Ratio (x) = 0.26653 0.15636
# Poissons Ratio (y) = 0.31154 0.30972
# Poissons Ratio (z) = 0.12025 0.20378
#
# Static dielectric constant tensor:
#      x y z
#    x 2.092990 0.149200 0.045860 
#    y 0.149200 2.202630 0.027610 
#    z 0.045860 0.027610 2.029220 
# 
# From -- ./inp_files/173132.got.cif
#   From: 2010.05.17/outbox.cif.g08.bks.cpg/sg2_87_cif.got.tgz:173132.got - 2010.06.03 11:33:40.
