data_PCOD9078496
_publ_section_title
;
Structure prediction by ZEFSAII (Michael W. Deem and Ramdas Pophale) SiO2 
 PCOD9078496
Probable space group: P -1
;
_chemical_formula_sum "Si O2"
_cell_formula_units_Z 12
_cell_length_a 18.125339
_cell_length_b 12.859988
_cell_length_c 6.878985
_cell_angle_alpha 50.729603
_cell_angle_beta 42.426361
_cell_angle_gamma 23.871047
_cell_volume 432.543061
_symmetry_space_group_name_H-M "P -1"
_symmetry_group_IT_number 2
_symmetry_cell_setting 'triclinic'
loop_
_space_group_symop_operation_xyz
x,y,z
-x,-y,-z
loop_
_atom_site_type_symbol
_atom_site_label
_atom_site_fract_x
_atom_site_fract_y
_atom_site_fract_z
Si Si1 0.965888 0.516083 0.277179
Si Si2 0.733714 0.202539 0.947193
Si Si3 0.723696 0.577082 0.153961
Si Si4 0.138350 0.875160 0.638496
Si Si5 0.676221 0.056329 0.739154
Si Si6 0.584223 0.082653 0.335584
O O1 0.090031 0.249096 0.392098
O O2 0.104882 0.488683 0.138127
O O3 0.719109 0.807508 0.443585
O O4 0.000000 0.500000 0.000000
O O5 0.845663 0.081617 0.662475
O O6 0.500000 0.500000 0.000000
O O7 0.704332 0.080554 0.209991
O O8 0.885843 0.133612 0.866703
O O9 0.795437 0.350288 0.233722
O O10 0.504704 0.824741 0.173196
O O11 0.649387 0.667265 0.417250
O O12 0.296332 0.813274 0.506262
O O13 0.606058 0.096237 0.050449
#
# Coordination Sequence:
#
# PCOD9078496 Si02
#       6
#     2   2   2   2   2   2
#     4  10  23  43  64  91 131 168 215 261 309 377
#     4  10  18  35  63  92 120 164 209 255 311 369
#     4  12  22  42  69  91 129 171 206 263 321 371
#     4  10  21  37  64  93 128 163 208 267 311 371
#     4  10  24  41  63  98 132 162 213 264 311 380
#     4  10  22  41  66  91 124 171 215 253 317 375
#
# _framework density 27.742902999999998
#
# number of rings (size 3 to 8) (size 9 to 14) (size 15 to 20)
#    0.000    1.667    3.333    1.000    2.333    3.333 
#    0.000    9.167    0.000    0.000    0.000    0.000 
#    0.000    0.000    0.000    0.000    0.000    0.000 
#
# Total GULP energy -67181.056616 kJ/mol
# GULP energy per Si atom -5598.421385 kJ/mol
# Density = 2.767976 g / cm^3
# Si number density = 27.742903 Si / 1000 Ang^3
#
#
#
# Elastic Constant Matrix: (Units=GPa)
#
#
# Indices 1 2 3 4 5 6 
#
# 1 113.6225 9.4441 20.7808 -0.4742 -13.9106 5.2371
# 2 9.4441 134.2501 9.6491 12.1563 -6.8037 23.9257
# 3 20.7808 9.6491 118.0927 10.0989 -8.5554 14.2530
# 4 -0.4742 12.1563 10.0989 34.1889 2.8463 -4.1446
# 5 -13.9106 -6.8037 -8.5554 2.8463 55.2299 -3.1101
# 6 5.2371 23.9257 14.2530 -4.1446 -3.1101 42.9495
#
#
#
# Elastic Compliance Matrix: (Units=1/GPa)
#
#
# Indices 1 2 3 4 5 6 
#
# 1 0.009372 -0.000464 -0.001487 0.000542 0.002034 -0.000191
# 2 -0.000464 0.008804 0.000410 -0.003979 0.000938 -0.005300
# 3 -0.001487 0.000410 0.009493 -0.003483 0.001132 -0.003451
# 4 0.000542 -0.003979 -0.003483 0.032648 -0.002221 0.006296
# 5 0.002034 0.000938 0.001132 -0.002221 0.019025 0.000017
# 6 -0.000191 -0.005300 -0.003451 0.006296 0.000017 0.028013
#
#
# Mechanical properties :
#
#
# Convention : Reuss Voigt Hill
#
# Bulk Modulus (GPa) = 40.67337 49.52371 45.09854
# Shear Modulus (GPa) = 42.14683 48.21307 45.17995
#
# Velocity S-wave (km/s) = 3.90191 4.17328 4.03987
# Velocity P-wave (km/s) = 5.91545 6.41181 6.16863
#
# Compressibility (1/GPa) = 0.02458611
#
# Stress axis : x y z
#
# Youngs Moduli (GPa) = 106.70351 113.58033 105.34628
#
# Poissons Ratio (x) = 0.05274 0.15666
# Poissons Ratio (y) = 0.04954 -0.04321
# Poissons Ratio (z) = 0.15868 -0.04659
#
# Static dielectric constant tensor:
#      x y z
#    x 2.274670 -0.015530 0.050660 
#    y -0.015530 2.143060 0.037230 
#    z 0.050660 0.037230 2.149190 
# 
# From -- ./inp_files/131595.got.cif
#   From: 2010.05.17/outbox.cif.g08.bks.cpg/sg2_66_cif.got.tgz:131595.got - 2010.06.03 11:33:40.
