data_PCOD9078150
_publ_section_title
;
Structure prediction by ZEFSAII (Michael W. Deem and Ramdas Pophale) SiO2 
 PCOD9078150
Probable space group: P -1
;
_chemical_formula_sum "Si O2"
_cell_formula_units_Z 10
_cell_length_a 9.011397
_cell_length_b 15.725557
_cell_length_c 6.972192
_cell_angle_alpha 124.915229
_cell_angle_beta 133.104370
_cell_angle_gamma 34.758706
_cell_volume 411.123770
_symmetry_space_group_name_H-M "P -1"
_symmetry_group_IT_number 2
_symmetry_cell_setting 'triclinic'
loop_
_space_group_symop_operation_xyz
x,y,z
-x,-y,-z
loop_
_atom_site_type_symbol
_atom_site_label
_atom_site_fract_x
_atom_site_fract_y
_atom_site_fract_z
Si Si1 0.793161 0.885959 0.986866
Si Si2 0.657997 0.696967 0.088541
Si Si3 0.161405 0.592306 0.139014
Si Si4 0.242708 0.992171 0.276314
Si Si5 0.195476 0.801515 0.523514
O O1 0.945450 0.719996 0.951397
O O2 0.040025 0.876525 0.277675
O O3 0.724690 0.937511 0.775637
O O4 0.500000 0.000000 0.000000
O O5 0.673932 0.570240 0.995670
O O6 0.437472 0.780644 0.816341
O O7 0.962921 0.626619 0.186030
O O8 0.528353 0.815118 0.293951
O O9 0.326228 0.637180 0.403988
O O10 0.087386 0.099538 0.459622
O O11 0.000000 0.000000 0.000000
#
# Coordination Sequence:
#
# PCOD9078150 Si02
#       5
#     2   2   2   2   2
#     4  10  20  37  57  84 112 148 186 227 276 336
#     4  10  18  35  59  83 109 148 185 229 278 325
#     4   9  20  35  59  80 112 148 185 227 276 332
#     4  10  20  36  58  86 110 144 190 231 273 329
#     4   9  21  36  61  78 112 152 182 224 284 330
#
# _framework density 24.323575999999999
#
# number of rings (size 3 to 8) (size 9 to 14) (size 15 to 20)
#    1.200    1.200    2.000    0.600    0.000    6.400 
#    0.000    4.000    4.400    3.600    0.000    0.000 
#    0.000    0.000    0.000    0.000    0.000    0.000 
#
# Total GULP energy -55768.104066 kJ/mol
# GULP energy per Si atom -5576.810407 kJ/mol
# Density = 2.426821 g / cm^3
# Si number density = 24.323576 Si / 1000 Ang^3
#
#
#
# Elastic Constant Matrix: (Units=GPa)
#
#
# Indices 1 2 3 4 5 6 
#
# 1 58.6348 13.3766 -4.1334 6.3655 -8.9399 3.2629
# 2 13.3766 139.9469 15.4470 23.0603 -19.7686 12.4780
# 3 -4.1334 15.4470 81.8704 4.5420 8.0188 -0.6636
# 4 6.3655 23.0603 4.5420 37.6041 3.1002 4.4193
# 5 -8.9399 -19.7686 8.0188 3.1002 35.1251 -6.8369
# 6 3.2629 12.4780 -0.6636 4.4193 -6.8369 27.5882
#
#
#
# Elastic Compliance Matrix: (Units=1/GPa)
#
#
# Indices 1 2 3 4 5 6 
#
# 1 0.018275 -0.000696 0.000802 -0.003086 0.004297 -0.000268
# 2 -0.000696 0.009331 -0.002056 -0.005602 0.005672 -0.001885
# 3 0.000802 -0.002056 0.013032 -0.000155 -0.003873 0.000213
# 4 -0.003086 -0.005602 -0.000155 0.031660 -0.007482 -0.004031
# 5 0.004297 0.005672 -0.003873 -0.007482 0.035636 0.006863
# 6 -0.000268 -0.001885 0.000213 -0.004031 0.006863 0.039483
#
#
# Mechanical properties :
#
#
# Convention : Reuss Voigt Hill
#
# Bulk Modulus (GPa) = 27.21829 36.64806 31.93318
# Shear Modulus (GPa) = 30.56916 37.11425 33.84170
#
# Velocity S-wave (km/s) = 3.54894 3.91046 3.73408
# Velocity P-wave (km/s) = 5.29223 5.95722 5.63455
#
# Compressibility (1/GPa) = 0.03674000
#
# Stress axis : x y z
#
# Youngs Moduli (GPa) = 54.71915 107.16586 76.73152
#
# Poissons Ratio (x) = 0.07458 -0.06155
# Poissons Ratio (y) = 0.03808 0.15774
# Poissons Ratio (z) = -0.04389 0.22030
#
# Static dielectric constant tensor:
#      x y z
#    x 1.909670 0.023130 0.050590 
#    y 0.023130 1.990300 -0.019450 
#    z 0.050590 -0.019450 2.038180 
# 
# From -- ./inp_files/20664.got.cif
#   From: 2010.05.17/outbox.cif.g08.bks.cpg/sg2_11_cif.got.tgz:20664.got - 2010.06.03 11:33:40.
