data_PCOD9078362
_publ_section_title
;
Structure prediction by ZEFSAII (Michael W. Deem and Ramdas Pophale) SiO2 
 PCOD9078362
Probable space group: P -1
;
_chemical_formula_sum "Si O2"
_cell_formula_units_Z 16
_cell_length_a 10.439875
_cell_length_b 8.642208
_cell_length_c 11.482360
_cell_angle_alpha 99.142621
_cell_angle_beta 140.716494
_cell_angle_gamma 89.744877
_cell_volume 635.856632
_symmetry_space_group_name_H-M "P -1"
_symmetry_group_IT_number 2
_symmetry_cell_setting 'triclinic'
loop_
_space_group_symop_operation_xyz
x,y,z
-x,-y,-z
loop_
_atom_site_type_symbol
_atom_site_label
_atom_site_fract_x
_atom_site_fract_y
_atom_site_fract_z
Si Si1 0.674558 0.627632 0.572362
Si Si2 0.375366 0.112984 0.856284
Si Si3 0.266966 0.129337 0.170863
Si Si4 0.722108 0.483052 0.005296
Si Si5 0.045000 0.173478 0.804042
Si Si6 0.274763 0.688144 0.535380
Si Si7 0.553913 0.172130 0.739764
Si Si8 0.674402 0.408629 0.208272
O O1 0.500000 0.500000 0.500000
O O2 0.797546 0.750977 0.765777
O O3 0.779533 0.496872 0.566305
O O4 0.569381 0.743733 0.430825
O O5 0.156683 0.108381 0.763634
O O6 0.407377 0.104779 0.739544
O O7 0.506205 0.282044 0.007106
O O8 0.500000 0.000000 0.000000
O O9 0.481767 0.234898 0.283318
O O10 0.340042 0.970200 0.248360
O O11 0.100462 0.080571 0.945200
O O12 0.846580 0.645474 0.060953
O O13 0.791293 0.494399 0.191038
O O14 0.729121 0.316021 0.930763
O O15 0.476823 0.490146 0.823886
O O16 0.826851 0.200232 0.607970
O O17 0.211276 0.677375 0.625744
#
# Coordination Sequence:
#
# PCOD9078362 Si02
#       8
#     2   2   2   2   2   2   2   2
#     4  10  22  39  64  88 116 162 211 255 299 350
#     4  10  18  35  61  91 124 162 190 239 309 371
#     4  11  22  41  61  87 123 160 207 249 302 354
#     4   9  17  32  57  85 117 156 196 240 297 357
#     4  11  22  37  63  90 123 164 198 246 305 366
#     4  11  21  39  61  89 122 160 207 249 298 362
#     4  11  19  37  68  89 121 162 201 246 310 363
#     4   9  16  31  55  82 118 154 197 241 289 361
#
# _framework density 25.162907000000001
#
# number of rings (size 3 to 8) (size 9 to 14) (size 15 to 20)
#    0.000    1.750    5.000    1.875    0.000    1.000 
#    0.000    3.750    0.000    4.500    0.000    0.000 
#    0.000    0.000    0.000    0.000    0.000    0.000 
#
# Total GULP energy -89302.393279 kJ/mol
# GULP energy per Si atom -5581.399580 kJ/mol
# Density = 2.510564 g / cm^3
# Si number density = 25.162907 Si / 1000 Ang^3
#
#
#
# Elastic Constant Matrix: (Units=GPa)
#
#
# Indices 1 2 3 4 5 6 
#
# 1 47.8950 18.2179 42.4209 -11.0473 -3.2879 -5.9085
# 2 18.2179 105.3504 15.2744 -11.7826 3.1185 -5.4102
# 3 42.4209 15.2744 122.6016 -35.9567 -4.3566 -2.5111
# 4 -11.0473 -11.7826 -35.9567 50.4188 0.9678 -13.9564
# 5 -3.2879 3.1185 -4.3566 0.9678 26.7667 -7.0612
# 6 -5.9085 -5.4102 -2.5111 -13.9564 -7.0612 30.5545
#
#
#
# Elastic Compliance Matrix: (Units=1/GPa)
#
#
# Indices 1 2 3 4 5 6 
#
# 1 0.032754 -0.003930 -0.010462 0.000359 0.004333 0.005943
# 2 -0.003930 0.010510 0.000903 0.002881 -0.001073 0.002243
# 3 -0.010462 0.000903 0.014556 0.009377 0.001697 0.004008
# 4 0.000359 0.002881 0.009377 0.031882 0.004558 0.016966
# 5 0.004333 -0.001073 0.001697 0.004558 0.041410 0.012439
# 6 0.005943 0.002243 0.004008 0.016966 0.012439 0.045229
#
#
# Mechanical properties :
#
#
# Convention : Reuss Voigt Hill
#
# Bulk Modulus (GPa) = 32.42387 47.51926 39.97156
# Shear Modulus (GPa) = 23.40825 34.87692 29.14258
#
# Velocity S-wave (km/s) = 3.05334 3.72700 3.40686
# Velocity P-wave (km/s) = 5.03429 6.11934 5.60314
#
# Compressibility (1/GPa) = 0.03084148
#
# Stress axis : x y z
#
# Youngs Moduli (GPa) = 30.53065 95.14822 68.69796
#
# Poissons Ratio (x) = 0.37394 0.71875
# Poissons Ratio (y) = 0.11999 -0.06204
# Poissons Ratio (z) = 0.31943 -0.08592
#
# Static dielectric constant tensor:
#      x y z
#    x 2.361680 0.161300 -0.247650 
#    y 0.161300 2.274560 -0.207600 
#    z -0.247650 -0.207600 2.273520 
# 
# From -- ./inp_files/401935.got.cif
#   From: 2010.05.17/outbox.cif.g08.bks.cpg/sg2_201_cif.got.tgz:401935.got - 2010.06.03 11:33:40.
