data_PCOD9078374
_publ_section_title
;
Structure prediction by ZEFSAII (Michael W. Deem and Ramdas Pophale) SiO2 
 PCOD9078374
Probable space group: P -1
;
_chemical_formula_sum "Si O2"
_cell_formula_units_Z 16
_cell_length_a 14.785310
_cell_length_b 13.661010
_cell_length_c 12.983262
_cell_angle_alpha 49.383359
_cell_angle_beta 152.110797
_cell_angle_gamma 139.802324
_cell_volume 789.188128
_symmetry_space_group_name_H-M "P -1"
_symmetry_group_IT_number 2
_symmetry_cell_setting 'triclinic'
loop_
_space_group_symop_operation_xyz
x,y,z
-x,-y,-z
loop_
_atom_site_type_symbol
_atom_site_label
_atom_site_fract_x
_atom_site_fract_y
_atom_site_fract_z
Si Si1 0.455337 0.574479 0.544822
Si Si2 0.129065 0.313285 0.234004
Si Si3 0.151164 0.007213 0.741945
Si Si4 0.040299 0.570168 0.200837
Si Si5 0.501478 0.437104 0.888573
Si Si6 0.002732 0.190272 0.598286
Si Si7 0.051150 0.381103 0.692390
Si Si8 0.335982 0.762550 0.893145
O O1 0.279271 0.445665 0.376528
O O2 0.675223 0.700999 0.617656
O O3 0.301886 0.622514 0.415292
O O4 0.535071 0.500671 0.762323
O O5 0.934073 0.163234 0.195441
O O6 0.022045 0.363553 0.003802
O O7 0.000000 0.000000 0.500000
O O8 0.083013 0.077264 0.721466
O O9 0.415150 0.110390 0.902686
O O10 0.021859 0.624723 0.258624
O O11 0.860301 0.385977 0.141749
O O12 0.232915 0.354266 0.692519
O O13 0.681225 0.561960 0.061537
O O14 0.583551 0.317217 0.054282
O O15 0.794992 0.163501 0.337187
O O16 0.945437 0.223369 0.631600
O O17 0.000000 0.500000 0.500000
#
# Coordination Sequence:
#
# PCOD9078374 Si02
#       8
#     2   2   2   2   2   2   2   2
#     4  11  21  39  67  92 125 159 209 264 315 368
#     4  11  24  42  62  92 130 163 213 255 314 381
#     4  11  27  43  62  89 131 171 209 253 315 385
#     4  11  22  39  65  98 124 157 210 268 319 357
#     4  10  18  35  61  96 125 156 204 263 311 360
#     4  11  21  38  61  92 128 166 207 253 316 368
#     4  11  19  35  62  99 128 158 209 266 312 364
#     4  10  20  38  62  91 126 154 208 256 308 367
#
# _framework density 20.274000000000001
#
# number of rings (size 3 to 8) (size 9 to 14) (size 15 to 20)
#    0.000    1.250    6.250    2.250    1.750    1.500 
#    0.000    0.625    0.000    1.500    0.000    0.000 
#    0.000    0.000    0.000    0.000    0.000    0.000 
#
# Total GULP energy -89115.631474 kJ/mol
# GULP energy per Si atom -5569.726967 kJ/mol
# Density = 2.022786 g / cm^3
# Si number density = 20.274000 Si / 1000 Ang^3
#
#
#
# Elastic Constant Matrix: (Units=GPa)
#
#
# Indices 1 2 3 4 5 6 
#
# 1 66.5354 -4.4214 3.7074 -1.0985 1.4299 -4.7891
# 2 -4.4214 27.0264 -10.7467 1.8924 -6.1657 4.2983
# 3 3.7074 -10.7467 89.4703 2.7146 0.4730 -2.2795
# 4 -1.0985 1.8924 2.7146 24.5483 7.3725 2.6102
# 5 1.4299 -6.1657 0.4730 7.3725 44.3058 4.5084
# 6 -4.7891 4.2983 -2.2795 2.6102 4.5084 26.6526
#
#
#
# Elastic Compliance Matrix: (Units=1/GPa)
#
#
# Indices 1 2 3 4 5 6 
#
# 1 0.015370 0.001806 -0.000369 0.000498 -0.000577 0.002488
# 2 0.001806 0.042397 0.004963 -0.005219 0.007351 -0.006821
# 3 -0.000369 0.004963 0.011849 -0.001997 0.000889 0.000192
# 4 0.000498 -0.005219 -0.001997 0.043964 -0.007810 -0.002224
# 5 -0.000577 0.007351 0.000889 -0.007810 0.025385 -0.004742
# 6 0.002488 -0.006821 0.000192 -0.002224 -0.004742 0.040103
#
#
# Mechanical properties :
#
#
# Convention : Reuss Voigt Hill
#
# Bulk Modulus (GPa) = 12.13342 17.79007 14.96175
# Shear Modulus (GPa) = 25.80790 32.06752 28.93771
#
# Velocity S-wave (km/s) = 3.57172 3.98138 3.78210
# Velocity P-wave (km/s) = 4.79659 5.47075 5.14472
#
# Compressibility (1/GPa) = 0.08241700
#
# Stress axis : x y z
#
# Youngs Moduli (GPa) = 65.06258 23.58648 84.39445
#
# Poissons Ratio (x) = -0.04259 0.03111
# Poissons Ratio (y) = -0.11748 -0.41888
# Poissons Ratio (z) = 0.02399 -0.11707
#
# Static dielectric constant tensor:
#      x y z
#    x 1.809050 -0.021210 0.026190 
#    y -0.021210 1.734480 0.012360 
#    z 0.026190 0.012360 1.741940 
# 
# From -- ./inp_files/454683.got.cif
#   From: 2010.05.17/outbox.cif.g08.bks.cpg/sg2_228_cif.got.tgz:454683.got - 2010.06.03 11:33:40.
