data_PCOD9078168
_publ_section_title
;
Structure prediction by ZEFSAII (Michael W. Deem and Ramdas Pophale) SiO2 
 PCOD9078168
Probable space group: P -1
;
_chemical_formula_sum "Si O2"
_cell_formula_units_Z 16
_cell_length_a 11.203431
_cell_length_b 9.040924
_cell_length_c 12.411020
_cell_angle_alpha 49.426204
_cell_angle_beta 106.400398
_cell_angle_gamma 133.513325
_cell_volume 660.488809
_symmetry_space_group_name_H-M "P -1"
_symmetry_group_IT_number 2
_symmetry_cell_setting 'triclinic'
loop_
_space_group_symop_operation_xyz
x,y,z
-x,-y,-z
loop_
_atom_site_type_symbol
_atom_site_label
_atom_site_fract_x
_atom_site_fract_y
_atom_site_fract_z
Si Si1 0.244254 0.376260 0.982989
Si Si2 0.825095 0.848663 0.590930
Si Si3 0.307708 0.165408 0.646647
Si Si4 0.317008 0.889915 0.040067
Si Si5 0.541722 0.035992 0.749056
Si Si6 0.668158 0.639494 0.213107
Si Si7 0.312010 0.090700 0.296344
Si Si8 0.934836 0.647739 0.864578
O O1 0.284393 0.210843 0.130612
O O2 0.084434 0.288817 0.050810
O O3 0.400293 0.704327 0.885140
O O4 0.217971 0.330601 0.869072
O O5 0.832131 0.035375 0.588891
O O6 0.804816 0.646062 0.762248
O O7 0.686913 0.726180 0.519438
O O8 0.000000 0.000000 0.500000
O O9 0.440462 0.128288 0.693525
O O10 0.118296 0.864257 0.753394
O O11 0.303239 0.316802 0.671870
O O12 0.159695 0.656998 0.034848
O O13 0.306642 0.810637 0.197189
O O14 0.500000 0.000000 0.000000
O O15 0.334232 0.137008 0.922351
O O16 0.639989 0.075240 0.647718
O O17 0.481287 0.351169 0.277184
#
# Coordination Sequence:
#
# PCOD9078168 Si02
#       8
#     2   2   2   2   2   2   2   2
#     4  10  18  35  59  85 117 150 185 225 286 344
#     4   9  21  42  61  75 111 157 199 228 278 337
#     4  11  24  37  55  86 117 151 192 238 279 327
#     4  12  18  34  58  90 113 150 187 226 287 348
#     4  11  20  33  59  90 119 139 186 242 279 340
#     4  11  20  32  58  90 118 141 186 235 280 345
#     4  10  19  37  62  85 111 155 188 228 283 334
#     4  10  22  39  60  79 115 158 189 230 289 337
#
# _framework density 24.224485000000001
#
# number of rings (size 3 to 8) (size 9 to 14) (size 15 to 20)
#    0.000    1.500    5.000    1.500    0.000    3.500 
#    0.000    1.250    0.000    1.500    0.000    0.000 
#    0.000    0.000    0.000    0.000    0.000    0.000 
#
# Total GULP energy -89286.801466 kJ/mol
# GULP energy per Si atom -5580.425092 kJ/mol
# Density = 2.416935 g / cm^3
# Si number density = 24.224485 Si / 1000 Ang^3
#
#
#
# Elastic Constant Matrix: (Units=GPa)
#
#
# Indices 1 2 3 4 5 6 
#
# 1 117.2456 19.7219 38.0714 7.4455 -29.9902 -27.5296
# 2 19.7219 88.5074 12.5645 11.9009 -16.0801 -25.7906
# 3 38.0714 12.5645 79.9410 34.2449 -15.8767 -13.8118
# 4 7.4455 11.9009 34.2449 41.0840 -1.7551 -12.8133
# 5 -29.9902 -16.0801 -15.8767 -1.7551 44.1899 11.3690
# 6 -27.5296 -25.7906 -13.8118 -12.8133 11.3690 32.8939
#
#
#
# Elastic Compliance Matrix: (Units=1/GPa)
#
#
# Indices 1 2 3 4 5 6 
#
# 1 0.013771 0.000896 -0.006581 0.006101 0.004943 0.010133
# 2 0.000896 0.015037 0.000266 -0.001147 0.003282 0.011071
# 3 -0.006581 0.000266 0.024599 -0.020643 0.004855 -0.004690
# 4 0.006101 -0.001147 -0.020643 0.045258 -0.005800 0.015173
# 5 0.004943 0.003282 0.004855 -0.005800 0.029660 -0.003762
# 6 0.010133 0.011071 -0.004690 0.015173 -0.003762 0.052803
#
#
# Mechanical properties :
#
#
# Convention : Reuss Voigt Hill
#
# Bulk Modulus (GPa) = 23.49106 47.37884 35.43495
# Shear Modulus (GPa) = 24.25337 37.98931 31.12134
#
# Velocity S-wave (km/s) = 3.16759 3.96437 3.58817
# Velocity P-wave (km/s) = 4.80588 6.36834 5.64146
#
# Compressibility (1/GPa) = 0.04256939
#
# Stress axis : x y z
#
# Youngs Moduli (GPa) = 72.61376 66.50059 40.65277
#
# Poissons Ratio (x) = -0.05958 0.26752
# Poissons Ratio (y) = -0.06506 -0.01079
# Poissons Ratio (z) = 0.47784 -0.01766
#
# Static dielectric constant tensor:
#      x y z
#    x 2.025430 -0.018530 -0.008470 
#    y -0.018530 1.988160 0.055350 
#    z -0.008470 0.055350 2.052520 
# 
# From -- ./inp_files/175122.got.cif
#   From: 2010.05.17/outbox.cif.g08.bks.cpg/sg2_88_cif.got.tgz:175122.got - 2010.06.03 11:33:40.
