data_PCOD9078794
_publ_section_title
;
Structure prediction by ZEFSAII (Michael W. Deem and Ramdas Pophale) SiO2 
 PCOD9078794
Probable space group: P -1
;
_chemical_formula_sum "Si O2"
_cell_formula_units_Z 16
_cell_length_a 18.319630
_cell_length_b 12.417427
_cell_length_c 24.832412
_cell_angle_alpha 151.819857
_cell_angle_beta 17.792512
_cell_angle_gamma 150.950468
_cell_volume 790.976195
_symmetry_space_group_name_H-M "P -1"
_symmetry_group_IT_number 2
_symmetry_cell_setting 'triclinic'
loop_
_space_group_symop_operation_xyz
x,y,z
-x,-y,-z
loop_
_atom_site_type_symbol
_atom_site_label
_atom_site_fract_x
_atom_site_fract_y
_atom_site_fract_z
Si Si1 0.622288 0.584069 0.509111
Si Si2 0.860196 0.997148 0.459959
Si Si3 0.716051 0.212609 0.963169
Si Si4 0.870449 0.985257 0.270588
Si Si5 0.756324 0.294818 0.087962
Si Si6 0.313878 0.308935 0.837473
Si Si7 0.895287 0.488841 0.506986
Si Si8 0.556843 0.089051 0.370391
O O1 0.500000 0.500000 0.500000
O O2 0.815087 0.828652 0.469072
O O3 0.414051 0.641671 0.718884
O O4 0.700833 0.359405 0.379985
O O5 0.607226 0.983788 0.599897
O O6 0.989045 0.267779 0.496053
O O7 0.041491 0.887937 0.247270
O O8 0.629872 0.269551 0.107765
O O9 0.796578 0.461009 0.984016
O O10 0.500000 0.000000 0.000000
O O11 0.933576 0.266272 0.348895
O O12 0.768012 0.839667 0.224973
O O13 0.649099 0.920426 0.441816
O O14 0.126580 0.921826 0.076799
O O15 0.000000 0.500000 0.000000
O O16 0.601991 0.439809 0.694647
O O17 0.290773 0.103171 0.807385
O O18 0.000000 0.500000 0.500000
#
# Coordination Sequence:
#
# PCOD9078794 Si02
#       8
#     2   2   2   2   2   2   2   2
#     4  10  22  37  63  90 127 167 207 248 316 382
#     4  11  21  39  62  90 125 166 203 250 314 376
#     4  12  23  38  64  97 124 156 214 264 308 364
#     4  11  21  34  64  92 121 151 215 262 309 355
#     4  12  20  39  64  93 121 162 213 260 297 373
#     4  11  22  33  60  94 123 151 208 270 303 355
#     4  11  19  36  60  90 123 163 203 254 313 367
#     4  10  18  36  58  89 117 160 200 251 306 364
#
# _framework density 20.228168
#
# number of rings (size 3 to 8) (size 9 to 14) (size 15 to 20)
#    0.000    1.000    7.500    2.250    0.000    0.000 
#    0.000    1.875    0.000    0.000    0.000    0.000 
#    0.000    0.000    0.000    0.000    0.000    0.000 
#
# Total GULP energy -89221.845216 kJ/mol
# GULP energy per Si atom -5576.365326 kJ/mol
# Density = 2.018213 g / cm^3
# Si number density = 20.228168 Si / 1000 Ang^3
#
#
#
# Elastic Constant Matrix: (Units=GPa)
#
#
# Indices 1 2 3 4 5 6 
#
# 1 72.6968 41.3875 19.4586 7.0679 -2.6017 0.6020
# 2 41.3875 187.6377 22.7134 28.6306 3.4956 -19.7226
# 3 19.4586 22.7134 38.4985 15.2953 10.1545 -4.2262
# 4 7.0679 28.6306 15.2953 34.7062 -7.9388 -3.9047
# 5 -2.6017 3.4956 10.1545 -7.9388 28.3634 3.3991
# 6 0.6020 -19.7226 -4.2262 -3.9047 3.3991 33.3709
#
#
#
# Elastic Compliance Matrix: (Units=1/GPa)
#
#
# Indices 1 2 3 4 5 6 
#
# 1 0.019519 -0.004497 -0.013139 0.007188 0.009637 -0.004815
# 2 -0.004497 0.007678 0.002233 -0.006953 -0.004651 0.004562
# 3 -0.013139 0.002233 0.050098 -0.026752 -0.027815 0.007604
# 4 0.007188 -0.006953 -0.026752 0.050260 0.025684 -0.004362
# 5 0.009637 -0.004651 -0.027815 0.025684 0.054944 -0.009037
# 6 -0.004815 0.004562 0.007604 -0.004362 -0.009037 0.034122
#
#
# Mechanical properties :
#
#
# Convention : Reuss Voigt Hill
#
# Bulk Modulus (GPa) = 21.51001 51.77244 36.64122
# Shear Modulus (GPa) = 19.01697 33.63968 26.32833
#
# Velocity S-wave (km/s) = 3.06947 4.08243 3.61164
# Velocity P-wave (km/s) = 4.81861 6.91892 5.96198
#
# Compressibility (1/GPa) = 0.04648998
#
# Stress axis : x y z
#
# Youngs Moduli (GPa) = 51.23268 130.23978 19.96073
#
# Poissons Ratio (x) = 0.58572 0.26225
# Poissons Ratio (y) = 0.23041 -0.04457
# Poissons Ratio (z) = 0.67312 -0.29084
#
# Static dielectric constant tensor:
#      x y z
#    x 1.695730 -0.049450 0.102170 
#    y -0.049450 1.780910 0.041190 
#    z 0.102170 0.041190 1.456110 
# 
# From -- ./inp_files/402092.got.cif
#   From: 2010.05.17/outbox.cif.g08.bks.cpg/sg2_202_cif.got.tgz:402092.got - 2010.06.03 11:33:40.
