data_PCOD9078169
_publ_section_title
;
Structure prediction by ZEFSAII (Michael W. Deem and Ramdas Pophale) SiO2 
 PCOD9078169
Probable space group: P -1
;
_chemical_formula_sum "Si O2"
_cell_formula_units_Z 16
_cell_length_a 15.069036
_cell_length_b 8.082417
_cell_length_c 9.057466
_cell_angle_alpha 62.319195
_cell_angle_beta 124.478283
_cell_angle_gamma 78.856295
_cell_volume 628.630118
_symmetry_space_group_name_H-M "P -1"
_symmetry_group_IT_number 2
_symmetry_cell_setting 'triclinic'
loop_
_space_group_symop_operation_xyz
x,y,z
-x,-y,-z
loop_
_atom_site_type_symbol
_atom_site_label
_atom_site_fract_x
_atom_site_fract_y
_atom_site_fract_z
Si Si1 0.917757 0.782288 0.075130
Si Si2 0.975347 0.314637 0.357906
Si Si3 0.251414 0.972851 0.469171
Si Si4 0.657225 0.173660 0.838847
Si Si5 0.491294 0.235320 0.400972
Si Si6 0.295717 0.535002 0.838741
Si Si7 0.094822 0.899314 0.859941
Si Si8 0.438508 0.881685 0.923495
O O1 0.006324 0.499040 0.294933
O O2 0.977414 0.908181 0.152254
O O3 0.871845 0.848350 0.833623
O O4 0.774920 0.911752 0.982310
O O5 0.839647 0.443600 0.279823
O O6 0.946345 0.246465 0.200458
O O7 0.082349 0.066147 0.646409
O O8 0.380121 0.817166 0.544620
O O9 0.239271 0.793716 0.621062
O O10 0.313167 0.046025 0.620666
O O11 0.521568 0.277681 0.574151
O O12 0.747020 0.265396 0.868642
O O13 0.617507 0.175510 0.968213
O O14 0.500000 0.000000 0.500000
O O15 0.360379 0.443693 0.099993
O O16 0.428515 0.348145 0.939782
O O17 0.500000 0.000000 0.000000
#
# Coordination Sequence:
#
# PCOD9078169 Si02
#       8
#     2   2   2   2   2   2   2   2
#     4   9  20  41  63  88 121 159 209 251 302 356
#     4  11  20  41  67  94 117 164 207 258 306 359
#     4  10  21  39  53  83 132 159 195 252 314 367
#     4   9  19  36  58  91 120 158 207 252 292 362
#     4  10  18  35  59  85 119 162 211 248 298 366
#     4  11  23  37  59  90 126 167 190 251 326 357
#     4   9  22  38  67  94 119 149 223 261 291 360
#     4  11  20  34  55  89 124 159 199 242 309 370
#
# _framework density 25.452169000000001
#
# number of rings (size 3 to 8) (size 9 to 14) (size 15 to 20)
#    0.750    1.250    0.000    6.375    0.000    0.000 
#    4.500    3.125    0.000    6.750    0.000    0.000 
#    0.000    0.000    0.000    0.000    0.000    0.000 
#
# Total GULP energy -89225.384698 kJ/mol
# GULP energy per Si atom -5576.586544 kJ/mol
# Density = 2.539424 g / cm^3
# Si number density = 25.452169 Si / 1000 Ang^3
#
#
#
# Elastic Constant Matrix: (Units=GPa)
#
#
# Indices 1 2 3 4 5 6 
#
# 1 84.1476 29.9156 13.6687 -2.7581 -10.2148 -17.5786
# 2 29.9156 141.5052 39.6181 25.4991 -17.6514 9.4069
# 3 13.6687 39.6181 94.9856 29.2238 -7.1000 -6.2536
# 4 -2.7581 25.4991 29.2238 50.7422 -0.9282 2.1085
# 5 -10.2148 -17.6514 -7.1000 -0.9282 27.8682 -0.4524
# 6 -17.5786 9.4069 -6.2536 2.1085 -0.4524 38.9666
#
#
#
# Elastic Compliance Matrix: (Units=1/GPa)
#
#
# Indices 1 2 3 4 5 6 
#
# 1 0.015391 -0.003623 -0.000844 0.002891 0.003350 0.007565
# 2 -0.003623 0.009969 -0.002526 -0.003501 0.004158 -0.004209
# 3 -0.000844 -0.002526 0.014170 -0.007030 0.001514 0.002901
# 4 0.002891 -0.003501 -0.007030 0.025651 -0.002101 -0.000391
# 5 0.003350 0.004158 0.001514 -0.002101 0.040082 0.001330
# 6 0.007565 -0.004209 0.002901 -0.000391 0.001330 0.030594
#
#
# Mechanical properties :
#
#
# Convention : Reuss Voigt Hill
#
# Bulk Modulus (GPa) = 39.14923 54.11593 46.63258
# Shear Modulus (GPa) = 31.57386 39.34445 35.45915
#
# Velocity S-wave (km/s) = 3.52592 3.93596 3.73657
# Velocity P-wave (km/s) = 5.65606 6.47793 6.08090
#
# Compressibility (1/GPa) = 0.02554329
#
# Stress axis : x y z
#
# Youngs Moduli (GPa) = 64.97342 100.30661 70.57100
#
# Poissons Ratio (x) = 0.36343 0.05959
# Poissons Ratio (y) = 0.23541 0.17826
# Poissons Ratio (z) = 0.05487 0.25337
#
# Static dielectric constant tensor:
#      x y z
#    x 2.054530 -0.013510 0.010770 
#    y -0.013510 2.097110 0.007960 
#    z 0.010770 0.007960 2.119740 
# 
# From -- ./inp_files/297714.got.cif
#   From: 2010.05.17/outbox.cif.g08.bks.cpg/sg2_149_cif.got.tgz:297714.got - 2010.06.03 11:33:40.
