data_PCOD9078413
_publ_section_title
;
Structure prediction by ZEFSAII (Michael W. Deem and Ramdas Pophale) SiO2 
 PCOD9078413
Probable space group: P -1
;
_chemical_formula_sum "Si O2"
_cell_formula_units_Z 14
_cell_length_a 9.132732
_cell_length_b 10.888829
_cell_length_c 10.022008
_cell_angle_alpha 82.928267
_cell_angle_beta 115.001617
_cell_angle_gamma 61.714354
_cell_volume 727.170293
_symmetry_space_group_name_H-M "P -1"
_symmetry_group_IT_number 2
_symmetry_cell_setting 'triclinic'
loop_
_space_group_symop_operation_xyz
x,y,z
-x,-y,-z
loop_
_atom_site_type_symbol
_atom_site_label
_atom_site_fract_x
_atom_site_fract_y
_atom_site_fract_z
Si Si1 0.733352 0.869118 0.638424
Si Si2 0.194103 0.002634 0.088640
Si Si3 0.020213 0.239106 0.777357
Si Si4 0.981704 0.155802 0.475267
Si Si5 0.604273 0.297897 0.667436
Si Si6 0.142578 0.459109 0.183940
Si Si7 0.554929 0.383208 0.344828
O O1 0.782822 0.703427 0.705051
O O2 0.867808 0.855530 0.570673
O O3 0.500000 0.000000 0.500000
O O4 0.806252 0.912430 0.791126
O O5 0.378058 0.827317 0.213141
O O6 0.192647 0.094896 0.949103
O O7 0.000000 0.000000 0.000000
O O8 0.027986 0.195741 0.632340
O O9 0.818517 0.267722 0.753251
O O10 0.977203 0.401276 0.774683
O O11 0.746832 0.283163 0.341273
O O12 0.000000 0.000000 0.500000
O O13 0.577277 0.288884 0.500205
O O14 0.450072 0.471765 0.628658
O O15 0.338108 0.442382 0.204298
O O16 0.000000 0.500000 0.000000
#
# Coordination Sequence:
#
# PCOD9078413 Si02
#       7
#     2   2   2   2   2   2   2
#     4  12  25  40  66  94 123 168 213 257 319 377
#     4  10  18  35  62  89 119 164 210 251 306 380
#     4   9  19  36  61  87 124 162 201 253 313 360
#     4  11  22  40  64  92 124 159 209 268 303 370
#     4   8  15  30  59  88 113 154 211 249 294 372
#     4  11  21  39  63  90 132 167 201 253 314 378
#     4   9  18  35  59  89 119 161 205 255 307 363
#
# _framework density 19.252713
#
# number of rings (size 3 to 8) (size 9 to 14) (size 15 to 20)
#    0.000    2.000    1.429    5.143    0.000    0.571 
#    0.000    1.429    6.286    0.000    0.000    0.000 
#    0.000    0.000    0.000    0.000    0.000    0.000 
#
# Total GULP energy -77970.316348 kJ/mol
# GULP energy per Si atom -5569.308311 kJ/mol
# Density = 1.920889 g / cm^3
# Si number density = 19.252713 Si / 1000 Ang^3
#
#
#
# Elastic Constant Matrix: (Units=GPa)
#
#
# Indices 1 2 3 4 5 6 
#
# 1 88.3693 46.6752 38.4311 1.6477 -0.3104 -8.3452
# 2 46.6752 112.7985 50.8977 0.2766 -9.8667 16.1765
# 3 38.4311 50.8977 103.2439 -2.3018 7.0038 8.4218
# 4 1.6477 0.2766 -2.3018 37.9582 5.3024 1.2264
# 5 -0.3104 -9.8667 7.0038 5.3024 21.6838 -2.6571
# 6 -8.3452 16.1765 8.4218 1.2264 -2.6571 30.3225
#
#
#
# Elastic Compliance Matrix: (Units=1/GPa)
#
#
# Indices 1 2 3 4 5 6 
#
# 1 0.017619 -0.006893 -0.003970 -0.001252 -0.000111 0.009670
# 2 -0.006893 0.015949 -0.005197 -0.000995 0.008074 -0.008215
# 3 -0.003970 -0.005197 0.014585 0.002327 -0.008090 -0.003174
# 4 -0.001252 -0.000995 0.002327 0.027781 -0.008299 -0.002311
# 5 -0.000111 0.008074 -0.008090 -0.008299 0.054806 0.003047
# 6 0.009670 -0.008215 -0.003174 -0.002311 0.003047 0.041264
#
#
# Mechanical properties :
#
#
# Convention : Reuss Voigt Hill
#
# Bulk Modulus (GPa) = 62.36361 64.04665 63.20513
# Shear Modulus (GPa) = 23.86990 29.22007 26.54499
#
# Velocity S-wave (km/s) = 3.52493 3.90001 3.71720
# Velocity P-wave (km/s) = 7.00209 7.32247 7.16407
#
# Compressibility (1/GPa) = 0.01603499
#
# Stress axis : x y z
#
# Youngs Moduli (GPa) = 56.75561 62.69885 68.56365
#
# Poissons Ratio (x) = 0.43218 0.27217
# Poissons Ratio (y) = 0.39121 0.35631
# Poissons Ratio (z) = 0.22530 0.32583
#
# Static dielectric constant tensor:
#      x y z
#    x 1.660260 0.026760 0.037570 
#    y 0.026760 1.712550 -0.026540 
#    z 0.037570 -0.026540 1.721350 
# 
# From -- ./inp_files/178039.got.cif
#   From: 2010.05.17/outbox.cif.g08.bks.cpg/sg2_90_cif.got.tgz:178039.got - 2010.06.03 11:33:40.
