data_PCOD9078585
_publ_section_title
;
Structure prediction by ZEFSAII (Michael W. Deem and Ramdas Pophale) SiO2 
 PCOD9078585
Probable space group: P -1
;
_chemical_formula_sum "Si O2"
_cell_formula_units_Z 16
_cell_length_a 15.463457
_cell_length_b 16.080676
_cell_length_c 8.976756
_cell_angle_alpha 41.963450
_cell_angle_beta 122.868890
_cell_angle_gamma 145.874560
_cell_volume 821.410913
_symmetry_space_group_name_H-M "P -1"
_symmetry_group_IT_number 2
_symmetry_cell_setting 'triclinic'
loop_
_space_group_symop_operation_xyz
x,y,z
-x,-y,-z
loop_
_atom_site_type_symbol
_atom_site_label
_atom_site_fract_x
_atom_site_fract_y
_atom_site_fract_z
Si Si1 0.185757 0.260555 0.395294
Si Si2 0.637577 0.898292 0.471334
Si Si3 0.933944 0.535196 0.270187
Si Si4 0.271207 0.509866 0.648453
Si Si5 0.849853 0.537014 0.719810
Si Si6 0.133282 0.941146 0.786599
Si Si7 0.681751 0.676324 0.889701
Si Si8 0.181960 0.723039 0.780770
O O1 0.226962 0.415625 0.330385
O O2 0.282623 0.335687 0.230649
O O3 0.010394 0.139933 0.341619
O O4 0.189128 0.127469 0.654395
O O5 0.455653 0.700594 0.540747
O O6 0.717988 0.854581 0.687555
O O7 0.725951 0.984772 0.280092
O O8 0.670741 0.051593 0.392591
O O9 0.781681 0.458319 0.302602
O O10 0.879620 0.412764 0.235318
O O11 0.000000 0.500000 0.500000
O O12 0.057021 0.759541 0.051980
O O13 0.175451 0.463055 0.477205
O O14 0.234279 0.335498 0.897725
O O15 0.034143 0.678866 0.738162
O O16 0.779758 0.342416 0.968905
O O17 0.500000 0.500000 0.000000
#
# Coordination Sequence:
#
# PCOD9078585 Si02
#       8
#     2   2   2   2   2   2   2   2
#     4  10  18  35  66  85 110 158 208 235 290 362
#     4  10  22  39  63  89 121 160 199 244 300 358
#     4  12  23  40  60  88 123 158 199 249 304 350
#     4  11  23  39  62  91 124 155 198 256 303 341
#     4  11  21  37  60  92 117 159 204 244 293 360
#     4  10  19  37  63  86 112 156 202 242 288 364
#     4   9  19  39  61  87 123 159 190 246 308 350
#     4  11  21  38  60  83 123 161 202 241 294 367
#
# _framework density 19.478679
#
# number of rings (size 3 to 8) (size 9 to 14) (size 15 to 20)
#    0.000    1.500    5.000    0.750    0.000    1.000 
#    2.250    6.875    0.000    0.000    0.000    0.000 
#    0.000    0.000    0.000    0.000    0.000    0.000 
#
# Total GULP energy -89105.138726 kJ/mol
# GULP energy per Si atom -5569.071170 kJ/mol
# Density = 1.943435 g / cm^3
# Si number density = 19.478679 Si / 1000 Ang^3
#
#
#
# Elastic Constant Matrix: (Units=GPa)
#
#
# Indices 1 2 3 4 5 6 
#
# 1 99.1715 9.7088 32.1017 -14.2765 -6.5036 -7.0280
# 2 9.7088 16.2412 29.5652 -7.8211 8.1406 -10.8732
# 3 32.1017 29.5652 143.4769 -4.1076 18.0299 -17.2249
# 4 -14.2765 -7.8211 -4.1076 26.2722 3.3387 0.3110
# 5 -6.5036 8.1406 18.0299 3.3387 33.8555 -8.8723
# 6 -7.0280 -10.8732 -17.2249 0.3110 -8.8723 25.1310
#
#
#
# Elastic Compliance Matrix: (Units=1/GPa)
#
#
# Indices 1 2 3 4 5 6 
#
# 1 0.012261 0.000943 -0.002877 0.005960 0.003904 0.003169
# 2 0.000943 0.180128 -0.027076 0.051861 -0.020237 0.051854
# 3 -0.002877 -0.027076 0.012619 -0.007459 -0.001121 -0.004173
# 4 0.005960 0.051861 -0.007459 0.056534 -0.008963 0.015128
# 5 0.003904 -0.020237 -0.001121 -0.008963 0.037966 0.005082
# 6 0.003169 0.051854 -0.004173 0.015128 0.005082 0.061860
#
#
# Mechanical properties :
#
#
# Convention : Reuss Voigt Hill
#
# Bulk Modulus (GPa) = 6.80321 44.62679 25.71500
# Shear Modulus (GPa) = 10.67501 29.55266 20.11384
#
# Velocity S-wave (km/s) = 2.34356 3.89933 3.21691
# Velocity P-wave (km/s) = 3.28987 6.57520 5.19887
#
# Compressibility (1/GPa) = 0.14698947
#
# Stress axis : x y z
#
# Youngs Moduli (GPa) = 81.55864 5.55160 79.24515
#
# Poissons Ratio (x) = -0.00524 0.22800
# Poissons Ratio (y) = -0.07694 2.14563
# Poissons Ratio (z) = 0.23465 0.15031
#
# Static dielectric constant tensor:
#      x y z
#    x 1.726170 -0.023270 0.022330 
#    y -0.023270 1.674470 -0.035120 
#    z 0.022330 -0.035120 1.734790 
# 
# From -- ./inp_files/308331.got.cif
#   From: 2010.05.17/outbox.cif.g08.bks.cpg/sg2_155_cif.got.tgz:308331.got - 2010.06.03 11:33:40.
