data_PCOD9078974
_publ_section_title
;
Structure prediction by ZEFSAII (Michael W. Deem and Ramdas Pophale) SiO2 
 PCOD9078974
Probable space group: P -1
;
_chemical_formula_sum "Si O2"
_cell_formula_units_Z 16
_cell_length_a 24.709908
_cell_length_b 8.280192
_cell_length_c 10.166309
_cell_angle_alpha 136.427447
_cell_angle_beta 36.752601
_cell_angle_gamma 130.873278
_cell_volume 844.002072
_symmetry_space_group_name_H-M "P -1"
_symmetry_group_IT_number 2
_symmetry_cell_setting 'triclinic'
loop_
_space_group_symop_operation_xyz
x,y,z
-x,-y,-z
loop_
_atom_site_type_symbol
_atom_site_label
_atom_site_fract_x
_atom_site_fract_y
_atom_site_fract_z
Si Si1 0.818773 0.464050 0.234130
Si Si2 0.148810 0.506563 0.504140
Si Si3 0.119531 0.012434 0.128068
Si Si4 0.688447 0.832956 0.294525
Si Si5 0.325411 0.847654 0.261981
Si Si6 0.658602 0.624327 0.500350
Si Si7 0.993743 0.821937 0.028115
Si Si8 0.460572 0.503886 0.726820
O O1 0.816444 0.489125 0.410952
O O2 0.720146 0.473883 0.371425
O O3 0.859779 0.225722 0.983407
O O4 0.891233 0.683303 0.165977
O O5 0.230299 0.658741 0.346662
O O6 0.061939 0.638457 0.755511
O O7 0.118611 0.238411 0.354469
O O8 0.032476 0.946878 0.162879
O O9 0.208914 0.085660 0.904592
O O10 0.687145 0.636102 0.296523
O O11 0.619441 0.728401 0.251819
O O12 0.655659 0.045788 0.564214
O O13 0.320539 0.092155 0.337066
O O14 0.407540 0.722337 0.980914
O O15 0.549559 0.528661 0.660178
O O16 0.000000 0.000000 0.000000
O O17 0.500000 0.500000 0.500000
#
# Coordination Sequence:
#
# PCOD9078974 Si02
#       8
#     2   2   2   2   2   2   2   2
#     4  11  22  41  56  84 125 151 193 233 289 353
#     4  11  22  38  62  86 116 162 189 230 297 346
#     4  11  21  39  62  84 119 156 190 234 290 350
#     4   9  18  35  61  82 114 153 195 242 290 334
#     4  10  18  36  61  83 116 152 199 239 291 338
#     4   9  20  36  56  86 116 153 195 243 290 327
#     4  11  23  41  65  88 115 148 192 245 288 341
#     4  10  19  33  59  91 115 150 199 247 290 337
#
# _framework density 18.9573
#
# number of rings (size 3 to 8) (size 9 to 14) (size 15 to 20)
#    0.750    1.000    3.750    3.375    0.000    2.500 
#    4.500    1.250    0.000    0.000    0.000    0.000 
#    0.000    0.000    0.000    0.000    0.000    0.000 
#
# Total GULP energy -89157.393756 kJ/mol
# GULP energy per Si atom -5572.337110 kJ/mol
# Density = 1.891415 g / cm^3
# Si number density = 18.957300 Si / 1000 Ang^3
#
#
#
# Elastic Constant Matrix: (Units=GPa)
#
#
# Indices 1 2 3 4 5 6 
#
# 1 64.5070 10.3377 41.0143 29.0815 -13.3131 4.7731
# 2 10.3377 18.8699 0.6641 31.7102 7.1842 8.6119
# 3 41.0143 0.6641 64.4939 13.3519 3.0570 3.4880
# 4 29.0815 31.7102 13.3519 28.9701 5.4663 6.4260
# 5 -13.3131 7.1842 3.0570 5.4663 24.4264 1.3285
# 6 4.7731 8.6119 3.4880 6.4260 1.3285 26.3546
#
#
#
# Elastic Compliance Matrix: (Units=1/GPa)
#
#
# Indices 1 2 3 4 5 6 
#
# 1 0.061516 -0.043465 -0.040059 -0.007291 0.052549 0.007492
# 2 -0.043465 -0.020925 0.015898 0.066058 -0.034211 -0.001777
# 3 -0.040059 0.015898 0.040254 0.011632 -0.033911 -0.004394
# 4 -0.007291 0.066058 0.011632 -0.029478 -0.017514 -0.013734
# 5 0.052549 -0.034211 -0.033911 -0.017514 0.087478 0.006011
# 6 0.007492 -0.001777 -0.004394 -0.013734 0.006011 0.040795
#
#
# Mechanical properties :
#
#
# Convention : Reuss Voigt Hill
#
# Bulk Modulus (GPa) = -18.38024 27.98922 4.80449
# Shear Modulus (GPa) = 16.84886 22.34054 19.59470
#
# Velocity S-wave (km/s) = 2.98447 3.43660 3.21849
# Velocity P-wave (km/s) = 1.46951 5.52661 4.04369
#
# Compressibility (1/GPa) = -0.05440626
#
# Stress axis : x y z
#
# Youngs Moduli (GPa) = 16.25601 -47.79016 24.84236
#
# Poissons Ratio (x) = -2.07718 0.99517
# Poissons Ratio (y) = 0.70656 -0.39495
# Poissons Ratio (z) = 0.65120 0.75979
#
# Static dielectric constant tensor:
#      x y z
#    x 1.682050 0.024250 0.011410 
#    y 0.024250 1.716400 0.002060 
#    z 0.011410 0.002060 1.653870 
# 
# From -- ./inp_files/476287.got.cif
#   From: 2010.05.17/outbox.cif.g08.bks.cpg/sg2_239_cif.got.tgz:476287.got - 2010.06.03 11:33:40.
