data_PCOD9078258
_publ_section_title
;
Structure prediction by ZEFSAII (Michael W. Deem and Ramdas Pophale) SiO2 
 PCOD9078258
Probable space group: P -1
;
_chemical_formula_sum "Si O2"
_cell_formula_units_Z 15
_cell_length_a 11.090198
_cell_length_b 8.365633
_cell_length_c 13.894608
_cell_angle_alpha 78.362993
_cell_angle_beta 53.717535
_cell_angle_gamma 39.488307
_cell_volume 573.265853
_symmetry_space_group_name_H-M "P -1"
_symmetry_group_IT_number 2
_symmetry_cell_setting 'triclinic'
loop_
_space_group_symop_operation_xyz
x,y,z
-x,-y,-z
loop_
_atom_site_type_symbol
_atom_site_label
_atom_site_fract_x
_atom_site_fract_y
_atom_site_fract_z
Si Si1 0.893549 0.658969 0.799904
Si Si2 0.310117 0.825032 0.512788
Si Si3 0.500000 0.000000 0.500000
Si Si4 0.214139 0.741391 0.006899
Si Si5 0.243986 0.086769 0.753925
Si Si6 0.641703 0.888723 0.099009
Si Si7 0.557326 0.597021 0.237691
Si Si8 0.043600 0.049496 0.215986
O O1 0.645592 0.810663 0.843678
O O2 0.165015 0.317276 0.693791
O O3 0.916652 0.828965 0.751993
O O4 0.833053 0.707288 0.937639
O O5 0.500000 0.500000 0.500000
O O6 0.388547 0.940121 0.487953
O O7 0.312099 0.807289 0.399046
O O8 0.040305 0.024049 0.669987
O O9 0.477201 0.171466 0.399427
O O10 0.030335 0.766398 0.139438
O O11 0.444995 0.482854 0.856419
O O12 0.272925 0.811250 0.057567
O O13 0.000000 0.000000 0.000000
O O14 0.281783 0.072702 0.850999
O O15 0.627019 0.720181 0.167568
O O16 0.798841 0.311361 0.225436
#
# Coordination Sequence:
#
# PCOD9078258 Si02
#       8
#     2   2   1   2   2   2   2   2
#     4  11  23  38  64  93 125 163 211 265 316 386
#     4  10  20  36  59  92 128 161 215 262 314 385
#     4  12  22  36  68  96 118 178 216 258 324 388
#     4  10  20  32  61  89 120 160 207 257 315 374
#     4  12  21  40  65  89 124 165 210 264 321 378
#     4  11  21  37  64  94 122 164 212 257 325 383
#     4  10  18  35  60  86 122 164 202 258 314 376
#     4  10  19  37  58  89 124 164 208 262 316 375
#
# _framework density 26.165870000000002
#
# number of rings (size 3 to 8) (size 9 to 14) (size 15 to 20)
#    0.000    1.333    5.333    2.800    0.000    0.000 
#    0.000    2.000    5.867    0.000    0.000    0.000 
#    0.000    0.000    0.000    0.000    0.000    0.000 
#
# Total GULP energy -83502.240132 kJ/mol
# GULP energy per Si atom -5566.816009 kJ/mol
# Density = 2.610632 g / cm^3
# Si number density = 26.165870 Si / 1000 Ang^3
#
#
#
# Elastic Constant Matrix: (Units=GPa)
#
#
# Indices 1 2 3 4 5 6 
#
# 1 111.0682 12.2830 54.9570 8.3862 19.8178 -2.5903
# 2 12.2830 53.0735 29.5848 -3.9629 -0.9895 -0.2962
# 3 54.9570 29.5848 172.0381 -23.6027 16.4881 10.2375
# 4 8.3862 -3.9629 -23.6027 27.0458 3.2445 2.9260
# 5 19.8178 -0.9895 16.4881 3.2445 50.8060 -1.4688
# 6 -2.5903 -0.2962 10.2375 2.9260 -1.4688 29.6578
#
#
#
# Elastic Compliance Matrix: (Units=1/GPa)
#
#
# Indices 1 2 3 4 5 6 
#
# 1 0.012830 -0.000803 -0.005094 -0.008604 -0.002714 0.003586
# 2 -0.000803 0.021112 -0.003696 -0.000288 0.001987 0.001543
# 3 -0.005094 -0.003696 0.010044 0.010616 -0.002170 -0.005104
# 4 -0.008604 -0.000288 0.010616 0.050329 -0.003585 -0.009562
# 5 -0.002714 0.001987 -0.002170 -0.003585 0.021770 0.001964
# 6 0.003586 0.001543 -0.005104 -0.009562 0.001964 0.036849
#
#
# Mechanical properties :
#
#
# Convention : Reuss Voigt Hill
#
# Bulk Modulus (GPa) = 40.32240 58.86995 49.59618
# Shear Modulus (GPa) = 27.71834 37.45892 32.58863
#
# Velocity S-wave (km/s) = 3.25827 3.78775 3.53294
# Velocity P-wave (km/s) = 5.44048 6.45577 5.96975
#
# Compressibility (1/GPa) = 0.02480011
#
# Stress axis : x y z
#
# Youngs Moduli (GPa) = 77.93948 47.36655 99.56539
#
# Poissons Ratio (x) = 0.03802 0.50722
# Poissons Ratio (y) = 0.06256 0.36799
# Poissons Ratio (z) = 0.39705 0.17506
#
# Static dielectric constant tensor:
#      x y z
#    x 2.162420 0.067890 -0.080720 
#    y 0.067890 2.242890 0.200510 
#    z -0.080720 0.200510 2.536270 
# 
# From -- ./inp_files/513113.got.cif
#   From: 2010.05.17/outbox.cif.g08.bks.cpg/sg2_257_cif.got.tgz:513113.got - 2010.06.03 11:33:40.
