data_PCOD9078064
_publ_section_title
;
Structure prediction by ZEFSAII (Michael W. Deem and Ramdas Pophale) SiO2 
 PCOD9078064
Probable space group: P -1
;
_chemical_formula_sum "Si O2"
_cell_formula_units_Z 14
_cell_length_a 27.687243
_cell_length_b 12.643233
_cell_length_c 12.499149
_cell_angle_alpha 31.800927
_cell_angle_beta 14.172859
_cell_angle_gamma 26.263673
_cell_volume 466.246788
_symmetry_space_group_name_H-M "P -1"
_symmetry_group_IT_number 2
_symmetry_cell_setting 'triclinic'
loop_
_space_group_symop_operation_xyz
x,y,z
-x,-y,-z
loop_
_atom_site_type_symbol
_atom_site_label
_atom_site_fract_x
_atom_site_fract_y
_atom_site_fract_z
Si Si1 0.327033 0.017235 0.767451
Si Si2 0.256338 0.839244 0.524799
Si Si3 0.085703 0.574633 0.566799
Si Si4 0.262340 0.614822 0.341669
Si Si5 0.741698 0.634393 0.067010
Si Si6 0.962872 0.991165 0.828367
Si Si7 0.510349 0.738472 0.267308
O O1 0.505982 0.885604 0.398283
O O2 0.500000 0.000000 0.500000
O O3 0.250691 0.839191 0.118364
O O4 0.104893 0.285099 0.046402
O O5 0.306483 0.574127 0.638853
O O6 0.467659 0.810121 0.171311
O O7 0.171366 0.951762 0.492715
O O8 0.000000 0.000000 0.000000
O O9 0.296998 0.436918 0.321103
O O10 0.117185 0.770840 0.271589
O O11 0.958880 0.538321 0.769074
O O12 0.500000 0.500000 0.000000
O O13 0.055082 0.759240 0.754315
O O14 0.730571 0.676867 0.924272
O O15 0.737539 0.050274 0.329202
O O16 0.500000 0.500000 0.500000
#
# Coordination Sequence:
#
# PCOD9078064 Si02
#       7
#     2   2   2   2   2   2   2
#     4   9  18  34  57  83 111 143 181 216 265 337
#     4   9  19  35  54  78 104 142 188 226 267 317
#     4  10  21  35  54  84 114 145 178 221 280 334
#     4  11  21  35  54  83 116 148 180 217 273 337
#     4  10  18  35  58  82 111 144 182 228 273 326
#     4  10  19  36  58  78 111 146 180 229 273 319
#     4   9  18  34  58  80 101 142 190 227 270 322
#
# _framework density 30.027016
#
# number of rings (size 3 to 8) (size 9 to 14) (size 15 to 20)
#    0.000    2.286    0.000    4.286    0.000    1.143 
#    0.000   23.571    0.000    0.000    0.000    0.000 
#    0.000    0.000    0.000    0.000    0.000    0.000 
#
# Total GULP energy -78145.703398 kJ/mol
# GULP energy per Si atom -5581.835957 kJ/mol
# Density = 2.995867 g / cm^3
# Si number density = 30.027016 Si / 1000 Ang^3
#
#
#
# Elastic Constant Matrix: (Units=GPa)
#
#
# Indices 1 2 3 4 5 6 
#
# 1 309.2687 29.5960 66.7385 -7.0804 -67.8782 25.1077
# 2 29.5960 97.7664 35.8957 8.3312 2.1197 5.2298
# 3 66.7385 35.8957 88.9895 5.8778 -23.8398 14.3037
# 4 -7.0804 8.3312 5.8778 30.6251 3.3280 -1.8698
# 5 -67.8782 2.1197 -23.8398 3.3280 64.8819 3.5825
# 6 25.1077 5.2298 14.3037 -1.8698 3.5825 58.7498
#
#
#
# Elastic Compliance Matrix: (Units=1/GPa)
#
#
# Indices 1 2 3 4 5 6 
#
# 1 0.004880 -0.000881 -0.001893 0.001136 0.004479 -0.001783
# 2 -0.000881 0.012649 -0.005251 -0.002251 -0.003184 0.000651
# 3 -0.001893 -0.005251 0.016727 -0.002920 0.004662 -0.003173
# 4 0.001136 -0.002251 -0.002920 0.034368 -0.001664 0.001621
# 5 0.004479 -0.003184 0.004662 -0.001664 0.022231 -0.004174
# 6 -0.001783 0.000651 -0.003173 0.001621 -0.004174 0.018804
#
#
# Mechanical properties :
#
#
# Convention : Reuss Voigt Hill
#
# Bulk Modulus (GPa) = 54.92511 84.49834 69.71172
# Shear Modulus (GPa) = 37.94280 55.10430 46.52355
#
# Velocity S-wave (km/s) = 3.55860 4.28852 3.94050
# Velocity P-wave (km/s) = 5.93435 7.26111 6.63100
#
# Compressibility (1/GPa) = 0.01820661
#
# Stress axis : x y z
#
# Youngs Moduli (GPa) = 204.91809 79.05782 59.78391
#
# Poissons Ratio (x) = 0.06963 0.11318
# Poissons Ratio (y) = 0.18047 0.31392
# Poissons Ratio (z) = 0.38793 0.41512
#
# Static dielectric constant tensor:
#      x y z
#    x 2.292490 -0.125560 0.181670 
#    y -0.125560 2.272170 0.303210 
#    z 0.181670 0.303210 2.574750 
# 
# From -- ./inp_files/224803.got.cif
#   From: 2010.05.17/outbox.cif.g08.bks.cpg/sg2_113_cif.got.tgz:224803.got - 2010.06.03 11:33:40.
