data_PCOD9078121
_publ_section_title
;
Structure prediction by ZEFSAII (Michael W. Deem and Ramdas Pophale) SiO2 
 PCOD9078121
Probable space group: P -1
;
_chemical_formula_sum "Si O2"
_cell_formula_units_Z 16
_cell_length_a 15.522563
_cell_length_b 21.697590
_cell_length_c 10.608284
_cell_angle_alpha 146.735913
_cell_angle_beta 145.031145
_cell_angle_gamma 22.015479
_cell_volume 717.377888
_symmetry_space_group_name_H-M "P -1"
_symmetry_group_IT_number 2
_symmetry_cell_setting 'triclinic'
loop_
_space_group_symop_operation_xyz
x,y,z
-x,-y,-z
loop_
_atom_site_type_symbol
_atom_site_label
_atom_site_fract_x
_atom_site_fract_y
_atom_site_fract_z
Si Si1 0.721292 0.821411 0.326074
Si Si2 0.272930 0.565815 0.888185
Si Si3 0.542993 0.321758 0.002836
Si Si4 0.233844 0.980533 0.444935
Si Si5 0.230428 0.668114 0.510076
Si Si6 0.777281 0.845609 0.729717
Si Si7 0.724616 0.695600 0.633141
Si Si8 0.133447 0.489299 0.972160
O O1 0.776127 0.905863 0.465609
O O2 0.748090 0.827447 0.518389
O O3 0.870106 0.624653 0.152586
O O4 0.457291 0.949142 0.178378
O O5 0.332070 0.513516 0.014899
O O6 0.250513 0.452999 0.610893
O O7 0.024090 0.765455 0.906500
O O8 0.500000 0.500000 0.000000
O O9 0.388818 0.339089 0.947002
O O10 0.674937 0.171868 0.798488
O O11 0.726050 0.302427 0.250236
O O12 0.970135 0.131844 0.443034
O O13 0.443180 0.876093 0.618949
O O14 0.500000 0.500000 0.500000
O O15 0.140012 0.596536 0.246807
O O16 0.777566 0.738088 0.641990
O O17 0.910919 0.622182 0.837408
#
# Coordination Sequence:
#
# PCOD9078121 Si02
#       8
#     2   2   2   2   2   2   2   2
#     4  10  20  32  61  95 116 151 198 264 294 349
#     4  11  21  32  56  93 126 157 195 258 305 351
#     4  10  21  39  63  88 123 160 202 249 299 362
#     4  10  22  38  63  94 114 154 208 257 296 349
#     4  10  24  41  57  85 123 167 199 241 307 367
#     4  10  18  35  58  90 126 152 203 244 310 350
#     4  10  20  37  62  87 123 160 201 247 305 362
#     4  11  20  39  64  88 122 164 199 242 303 368
#
# _framework density 22.303446999999998
#
# number of rings (size 3 to 8) (size 9 to 14) (size 15 to 20)
#    0.000    1.750    2.500    3.750    1.750    1.000 
#    9.000    0.000    0.000    2.250    0.000    0.000 
#    0.000    0.000    0.000    0.000    0.000    0.000 
#
# Total GULP energy -89125.597030 kJ/mol
# GULP energy per Si atom -5570.349814 kJ/mol
# Density = 2.225268 g / cm^3
# Si number density = 22.303447 Si / 1000 Ang^3
#
#
#
# Elastic Constant Matrix: (Units=GPa)
#
#
# Indices 1 2 3 4 5 6 
#
# 1 46.8122 32.7061 10.3815 -3.1512 13.4473 0.7504
# 2 32.7061 165.9567 44.9625 -30.6741 -8.5756 -3.7204
# 3 10.3815 44.9625 97.1944 -31.0443 -1.6618 14.5707
# 4 -3.1512 -30.6741 -31.0443 39.3940 -14.1637 4.3978
# 5 13.4473 -8.5756 -1.6618 -14.1637 -1.2488 7.5491
# 6 0.7504 -3.7204 14.5707 4.3978 7.5491 36.1762
#
#
#
# Elastic Compliance Matrix: (Units=1/GPa)
#
#
# Indices 1 2 3 4 5 6 
#
# 1 0.016914 -0.001524 0.003817 0.010906 0.019213 -0.007380
# 2 -0.001524 0.006835 -0.004430 -0.001887 -0.008594 0.004542
# 3 0.003817 -0.004430 0.013490 0.003667 -0.011848 -0.003941
# 4 0.010906 -0.001887 0.003667 0.015572 -0.032725 0.003039
# 5 0.019213 -0.008594 -0.011848 -0.032725 -0.045452 0.016953
# 6 -0.007380 0.004542 -0.003941 0.003039 0.016953 0.025943
#
#
# Mechanical properties :
#
#
# Convention : Reuss Voigt Hill
#
# Bulk Modulus (GPa) = 30.33623 54.00706 42.17165
# Shear Modulus (GPa) = 102.95667 29.65851 66.30759
#
# Velocity S-wave (km/s) = 6.80162 3.65056 5.45841
# Velocity P-wave (km/s) = 8.67835 6.48352 7.65995
#
# Compressibility (1/GPa) = 0.03296388
#
# Stress axis : x y z
#
# Youngs Moduli (GPa) = 59.12406 146.30429 74.13040
#
# Poissons Ratio (x) = 0.22300 -0.28293
# Poissons Ratio (y) = 0.09012 0.32838
# Poissons Ratio (z) = -0.22566 0.64809
#
# Static dielectric constant tensor:
#      x y z
#    x 1.970060 -0.076860 0.026110 
#    y -0.076860 1.912510 -0.011250 
#    z 0.026110 -0.011250 1.832340 
# 
# From -- ./inp_files/467491.got.cif
#   From: 2010.05.17/outbox.cif.g08.bks.cpg/sg2_234_cif.got.tgz:467491.got - 2010.06.03 11:33:40.
