data_PCOD9078519
_publ_section_title
;
Structure prediction by ZEFSAII (Michael W. Deem and Ramdas Pophale) SiO2 
 PCOD9078519
Probable space group: P -1
;
_chemical_formula_sum "Si O2"
_cell_formula_units_Z 16
_cell_length_a 9.951933
_cell_length_b 9.152218
_cell_length_c 11.177294
_cell_angle_alpha 105.010948
_cell_angle_beta 126.362576
_cell_angle_gamma 56.108975
_cell_volume 676.616225
_symmetry_space_group_name_H-M "P -1"
_symmetry_group_IT_number 2
_symmetry_cell_setting 'triclinic'
loop_
_space_group_symop_operation_xyz
x,y,z
-x,-y,-z
loop_
_atom_site_type_symbol
_atom_site_label
_atom_site_fract_x
_atom_site_fract_y
_atom_site_fract_z
Si Si1 0.428438 0.143469 0.618392
Si Si2 0.720523 0.813679 0.846337
Si Si3 0.862685 0.971453 0.569510
Si Si4 0.500821 0.740198 0.913780
Si Si5 0.820488 0.651419 0.239307
Si Si6 0.746685 0.578828 0.600098
Si Si7 0.747079 0.283102 0.404499
Si Si8 0.883230 0.904787 0.147628
O O1 0.297544 0.068938 0.480035
O O2 0.300793 0.264517 0.687851
O O3 0.420893 0.270615 0.538515
O O4 0.620813 0.984237 0.745185
O O5 0.578066 0.832117 0.882770
O O6 0.746444 0.650334 0.746755
O O7 0.899285 0.804753 0.011033
O O8 0.049064 0.795281 0.575348
O O9 0.766525 0.109789 0.438721
O O10 0.948093 0.055893 0.722715
O O11 0.421295 0.643230 0.767871
O O12 0.315233 0.901161 0.916930
O O13 0.680173 0.622257 0.070928
O O14 0.861046 0.790137 0.217489
O O15 0.033785 0.484380 0.341609
O O16 0.722686 0.413710 0.524947
#
# Coordination Sequence:
#
# PCOD9078519 Si02
#       8
#     2   2   2   2   2   2   2   2
#     4  12  21  41  60  84 117 163 193 226 286 361
#     4  11  22  39  59  86 120 157 187 236 296 346
#     4  10  18  35  64  85 110 148 205 238 274 335
#     4  10  19  36  65  84 113 148 202 241 279 338
#     4  11  19  37  60  87 112 150 197 241 280 333
#     4  12  26  36  56  91 127 148 188 238 297 344
#     4  10  19  37  57  93 113 145 194 248 282 331
#     4  10  18  36  65  89 108 148 204 243 276 336
#
# _framework density 23.647084
#
# number of rings (size 3 to 8) (size 9 to 14) (size 15 to 20)
#    0.000    1.250    6.250    2.250    0.000    2.500 
#    0.000    2.500    0.000    0.000    0.000    0.000 
#    0.000    0.000    0.000    0.000    0.000    0.000 
#
# Total GULP energy -89428.669164 kJ/mol
# GULP energy per Si atom -5589.291823 kJ/mol
# Density = 2.359326 g / cm^3
# Si number density = 23.647084 Si / 1000 Ang^3
#
#
#
# Elastic Constant Matrix: (Units=GPa)
#
#
# Indices 1 2 3 4 5 6 
#
# 1 9.3247 -0.0003 5.2770 2.3516 -5.7436 -1.0161
# 2 -0.0003 64.3819 30.1139 15.4860 -2.3989 -12.3299
# 3 5.2770 30.1139 157.6753 37.0157 5.0637 -9.5805
# 4 2.3516 15.4860 37.0157 42.1364 -0.1386 -0.6628
# 5 -5.7436 -2.3989 5.0637 -0.1386 32.0758 4.7510
# 6 -1.0161 -12.3299 -9.5805 -0.6628 4.7510 18.3989
#
#
#
# Elastic Compliance Matrix: (Units=1/GPa)
#
#
# Indices 1 2 3 4 5 6 
#
# 1 0.125503 0.004350 -0.004672 -0.004402 0.023335 0.001229
# 2 0.004350 0.020225 -0.001919 -0.005793 0.000733 0.012397
# 3 -0.004672 -0.001919 0.008736 -0.006663 -0.002909 0.003516
# 4 -0.004402 -0.005793 -0.006663 0.031858 0.000960 -0.006695
# 5 0.023335 0.000733 -0.002909 0.000960 0.037253 -0.009320
# 6 0.001229 0.012397 0.003516 -0.006695 -0.009320 0.066723
#
#
# Mechanical properties :
#
#
# Convention : Reuss Voigt Hill
#
# Bulk Modulus (GPa) = 6.66748 33.57370 20.12059
# Shear Modulus (GPa) = 14.50225 31.58832 23.04528
#
# Velocity S-wave (km/s) = 2.47913 3.65886 3.12517
# Velocity P-wave (km/s) = 3.31971 5.66377 4.64213
#
# Compressibility (1/GPa) = 0.14998181
#
# Stress axis : x y z
#
# Youngs Moduli (GPa) = 7.96792 49.44493 114.46631
#
# Poissons Ratio (x) = -0.21508 0.53482
# Poissons Ratio (y) = -0.03466 0.21961
# Poissons Ratio (z) = 0.03723 0.09486
#
# Static dielectric constant tensor:
#      x y z
#    x 1.921050 -0.026620 0.014070 
#    y -0.026620 1.926100 0.031160 
#    z 0.014070 0.031160 1.930720 
# 
# From -- ./inp_files/205069.got.cif
#   From: 2010.05.17/outbox.cif.g08.bks.cpg/sg2_103_cif.got.tgz:205069.got - 2010.06.03 11:33:40.
