data_PCOD9078040
_publ_section_title
;
Structure prediction by ZEFSAII (Michael W. Deem and Ramdas Pophale) SiO2 
 PCOD9078040
Probable space group: P -1
;
_chemical_formula_sum "Si O2"
_cell_formula_units_Z 16
_cell_length_a 14.258169
_cell_length_b 11.818337
_cell_length_c 15.230945
_cell_angle_alpha 145.830402
_cell_angle_beta 151.873341
_cell_angle_gamma 51.571589
_cell_volume 620.288328
_symmetry_space_group_name_H-M "P -1"
_symmetry_group_IT_number 2
_symmetry_cell_setting 'triclinic'
loop_
_space_group_symop_operation_xyz
x,y,z
-x,-y,-z
loop_
_atom_site_type_symbol
_atom_site_label
_atom_site_fract_x
_atom_site_fract_y
_atom_site_fract_z
Si Si1 0.895550 0.698009 0.367428
Si Si2 0.215975 0.673033 0.743863
Si Si3 0.310339 0.165971 0.156489
Si Si4 0.510063 0.591465 0.240811
Si Si5 0.232342 0.707402 0.325144
Si Si6 0.828227 0.988987 0.659524
Si Si7 0.791609 0.137748 0.411302
Si Si8 0.538028 0.693234 0.816888
O O1 0.837339 0.826649 0.481946
O O2 0.114442 0.681278 0.571255
O O3 0.981279 0.810834 0.416572
O O4 0.704687 0.467806 0.033760
O O5 0.389670 0.570978 0.822614
O O6 0.000000 0.500000 0.500000
O O7 0.305648 0.922115 0.010381
O O8 0.546774 0.324106 0.489454
O O9 0.303969 0.219120 0.081704
O O10 0.080101 0.136710 0.987324
O O11 0.684481 0.836325 0.520499
O O12 0.473599 0.505659 0.256248
O O13 0.200680 0.851540 0.471301
O O14 0.263627 0.844284 0.349666
O O15 0.000000 0.500000 0.000000
O O16 0.686889 0.315665 0.416558
O O17 0.622576 0.903064 0.086956
#
# Coordination Sequence:
#
# PCOD9078040 Si02
#       8
#     2   2   2   2   2   2   2   2
#     4  11  21  32  57  96 124 153 188 234 309 366
#     4  11  19  34  53  90 135 158 179 228 312 367
#     4  10  21  39  63  86 124 156 193 244 290 362
#     4  12  22  30  55  92 132 153 182 235 303 375
#     4  11  26  43  61  83 115 162 212 249 282 337
#     4  11  23  37  58  91 119 153 197 240 301 352
#     4  10  19  36  61  87 120 157 193 244 292 356
#     4  10  18  35  57  93 123 151 185 236 313 358
#
# _framework density 25.794457000000001
#
# number of rings (size 3 to 8) (size 9 to 14) (size 15 to 20)
#    0.000    1.250    6.250    3.375    3.500    1.500 
#    0.000    0.000    0.000    3.750    0.000    0.000 
#    0.000    0.000    0.000    0.000    0.000    0.000 
#
# Total GULP energy -89416.451771 kJ/mol
# GULP energy per Si atom -5588.528236 kJ/mol
# Density = 2.573575 g / cm^3
# Si number density = 25.794457 Si / 1000 Ang^3
#
#
#
# Elastic Constant Matrix: (Units=GPa)
#
#
# Indices 1 2 3 4 5 6 
#
# 1 50.2250 -4.8970 30.4723 17.3211 11.0556 18.9995
# 2 -4.8970 105.7575 34.7284 3.4938 4.8018 22.7184
# 3 30.4723 34.7284 144.1240 -4.4040 18.9648 12.2015
# 4 17.3211 3.4938 -4.4040 45.1157 3.7242 15.2297
# 5 11.0556 4.8018 18.9648 3.7242 32.0137 8.2349
# 6 18.9995 22.7184 12.2015 15.2297 8.2349 33.8480
#
#
#
# Elastic Compliance Matrix: (Units=1/GPa)
#
#
# Indices 1 2 3 4 5 6 
#
# 1 0.036575 0.008821 -0.008114 -0.008931 -0.003297 -0.018706
# 2 0.008821 0.013979 -0.004277 -0.000671 0.000727 -0.012667
# 3 -0.008114 -0.004277 0.010028 0.003703 -0.003712 0.003047
# 4 -0.008931 -0.000671 0.003703 0.029022 -0.000094 -0.008907
# 5 -0.003297 0.000727 -0.003712 -0.000094 0.036025 -0.006022
# 6 -0.018706 -0.012667 0.003047 -0.008907 -0.006022 0.052920
#
#
# Mechanical properties :
#
#
# Convention : Reuss Voigt Hill
#
# Bulk Modulus (GPa) = 18.71200 46.74596 32.72898
# Shear Modulus (GPa) = 24.56961 38.18232 31.37597
#
# Velocity S-wave (km/s) = 3.08963 3.85158 3.49145
# Velocity P-wave (km/s) = 4.47189 6.15966 5.38234
#
# Compressibility (1/GPa) = 0.05344163
#
# Stress axis : x y z
#
# Youngs Moduli (GPa) = 27.34101 71.53672 99.71811
#
# Poissons Ratio (x) = -0.63103 0.80913
# Poissons Ratio (y) = -0.24118 0.42651
# Poissons Ratio (z) = 0.22185 0.30598
#
# Static dielectric constant tensor:
#      x y z
#    x 2.150480 0.089440 -0.018400 
#    y 0.089440 2.245960 0.001410 
#    z -0.018400 0.001410 2.031500 
# 
# From -- ./inp_files/532747.got.cif
#   From: 2010.05.17/outbox.cif.g08.bks.cpg/sg2_267_cif.got.tgz:532747.got - 2010.06.03 11:33:40.
