data_PCOD9078508
_publ_section_title
;
Structure prediction by ZEFSAII (Michael W. Deem and Ramdas Pophale) SiO2 
 PCOD9078508
Probable space group: P -1
;
_chemical_formula_sum "Si O2"
_cell_formula_units_Z 14
_cell_length_a 11.883612
_cell_length_b 14.399360
_cell_length_c 16.853331
_cell_angle_alpha 25.672935
_cell_angle_beta 133.131322
_cell_angle_gamma 149.487169
_cell_volume 575.145529
_symmetry_space_group_name_H-M "P -1"
_symmetry_group_IT_number 2
_symmetry_cell_setting 'triclinic'
loop_
_space_group_symop_operation_xyz
x,y,z
-x,-y,-z
loop_
_atom_site_type_symbol
_atom_site_label
_atom_site_fract_x
_atom_site_fract_y
_atom_site_fract_z
Si Si1 0.092477 0.900438 0.919181
Si Si2 0.923027 0.578680 0.624936
Si Si3 0.157626 0.458464 0.088399
Si Si4 0.541831 0.916116 0.502660
Si Si5 0.384691 0.631175 0.223138
Si Si6 0.008970 0.149389 0.811299
Si Si7 0.386135 0.939504 0.256984
O O1 0.979240 0.778269 0.871541
O O2 0.379751 0.255015 0.770013
O O3 0.967500 0.949141 0.872485
O O4 0.077022 0.660422 0.148087
O O5 0.760793 0.551361 0.624834
O O6 0.794084 0.416375 0.602643
O O7 0.208170 0.945777 0.473000
O O8 0.197088 0.399390 0.239004
O O9 0.000000 0.500000 0.000000
O O10 0.435406 0.791155 0.934785
O O11 0.285343 0.531363 0.653635
O O12 0.570635 0.075928 0.311040
O O13 0.500000 0.000000 0.500000
O O14 0.500000 0.000000 0.000000
O O15 0.801746 0.102222 0.759181
O O16 0.000000 0.000000 0.000000
#
# Coordination Sequence:
#
# PCOD9078508 Si02
#       7
#     2   2   2   2   2   2   2
#     4  11  21  39  59  98 130 162 205 268 312 362
#     4  11  20  40  68  95 124 167 219 259 305 385
#     4  12  19  34  65  96 124 165 216 256 307 376
#     4  12  25  44  65  91 127 173 219 255 314 391
#     4  10  18  35  63  97 125 162 211 264 302 371
#     4  12  25  44  62  93 136 162 208 276 319 371
#     4  12  23  40  67  96 126 172 213 254 320 382
#
# _framework density 24.341664999999999
#
# number of rings (size 3 to 8) (size 9 to 14) (size 15 to 20)
#    0.000    0.571   10.000    0.429    0.000    0.571 
#    2.571    0.714    0.000    6.000    0.000    0.000 
#    0.000    0.000    0.000    0.000    0.000    0.000 
#
# Total GULP energy -78253.523293 kJ/mol
# GULP energy per Si atom -5589.537378 kJ/mol
# Density = 2.428626 g / cm^3
# Si number density = 24.341665 Si / 1000 Ang^3
#
#
#
# Elastic Constant Matrix: (Units=GPa)
#
#
# Indices 1 2 3 4 5 6 
#
# 1 170.4286 49.9071 7.1582 0.5633 -17.3539 -21.3004
# 2 49.9071 169.6092 -0.2294 -0.2377 1.3710 -24.0186
# 3 7.1582 -0.2294 34.0660 6.4962 -8.3821 3.0913
# 4 0.5633 -0.2377 6.4962 26.3780 1.4000 -18.7490
# 5 -17.3539 1.3710 -8.3821 1.4000 19.8543 -9.6221
# 6 -21.3004 -24.0186 3.0913 -18.7490 -9.6221 62.5231
#
#
#
# Elastic Compliance Matrix: (Units=1/GPa)
#
#
# Indices 1 2 3 4 5 6 
#
# 1 0.007762 -0.001788 -0.000337 0.002268 0.008528 0.003967
# 2 -0.001788 0.006779 -0.000477 0.002014 -0.001193 0.002439
# 3 -0.000337 -0.000477 0.035423 -0.011944 0.013838 -0.003502
# 4 0.002268 0.002014 -0.011944 0.053954 0.002024 0.018628
# 5 0.008528 -0.001193 0.013838 0.002024 0.069970 0.013138
# 6 0.003967 0.002439 -0.003502 0.018628 0.013138 0.026063
#
#
# Mechanical properties :
#
#
# Convention : Reuss Voigt Hill
#
# Bulk Modulus (GPa) = 22.34217 54.19730 38.26974
# Shear Modulus (GPa) = 22.71927 42.90228 32.81077
#
# Velocity S-wave (km/s) = 3.05839 4.20277 3.67539
# Velocity P-wave (km/s) = 4.65512 6.77234 5.81097
#
# Compressibility (1/GPa) = 0.04475841
#
# Stress axis : x y z
#
# Youngs Moduli (GPa) = 128.83170 147.50672 28.23037
#
# Poissons Ratio (x) = 0.26381 0.00952
# Poissons Ratio (y) = 0.23041 0.01348
# Poissons Ratio (z) = 0.04343 0.07042
#
# Static dielectric constant tensor:
#      x y z
#    x 1.809750 -0.022360 0.082940 
#    y -0.022360 1.825150 0.024290 
#    z 0.082940 0.024290 2.024540 
# 
# From -- ./inp_files/241496.got.cif
#   From: 2010.05.17/outbox.cif.g08.bks.cpg/sg2_121_cif.got.tgz:241496.got - 2010.06.03 11:33:40.
