data_PCOD9078283
_publ_section_title
;
Structure prediction by ZEFSAII (Michael W. Deem and Ramdas Pophale) SiO2 
 PCOD9078283
Probable space group: P -1
;
_chemical_formula_sum "Si O2"
_cell_formula_units_Z 16
_cell_length_a 16.053512
_cell_length_b 8.125311
_cell_length_c 10.996723
_cell_angle_alpha 98.899313
_cell_angle_beta 32.241091
_cell_angle_gamma 95.331469
_cell_volume 754.061252
_symmetry_space_group_name_H-M "P -1"
_symmetry_group_IT_number 2
_symmetry_cell_setting 'triclinic'
loop_
_space_group_symop_operation_xyz
x,y,z
-x,-y,-z
loop_
_atom_site_type_symbol
_atom_site_label
_atom_site_fract_x
_atom_site_fract_y
_atom_site_fract_z
Si Si1 0.010193 0.800370 0.356786
Si Si2 0.372758 0.455874 0.038532
Si Si3 0.851569 0.468168 0.460417
Si Si4 0.898183 0.998289 0.947799
Si Si5 0.834260 0.199611 0.268237
Si Si6 0.120093 0.253876 0.234146
Si Si7 0.578338 0.105296 0.753404
Si Si8 0.644655 0.177964 0.954356
O O1 0.953920 0.627305 0.353436
O O2 0.906267 0.826020 0.610228
O O3 0.992458 0.929983 0.283202
O O4 0.189144 0.807790 0.182555
O O5 0.303832 0.489428 0.263382
O O6 0.219139 0.411660 0.148828
O O7 0.476249 0.282196 0.887230
O O8 0.426518 0.629816 0.942474
O O9 0.819921 0.388078 0.359474
O O10 0.953521 0.325646 0.394886
O O11 0.799352 0.876437 0.975418
O O12 0.995532 0.876806 0.906621
O O13 0.820714 0.151523 0.138511
O O14 0.707745 0.104619 0.489520
O O15 0.470155 0.950415 0.860914
O O16 0.655051 0.112472 0.794060
#
# Coordination Sequence:
#
# PCOD9078283 Si02
#       8
#     2   2   2   2   2   2   2   2
#     4  11  19  35  61  92 113 144 202 254 294 340
#     4  11  19  37  60  92 120 158 186 245 308 340
#     4  10  19  35  62  85 120 149 190 250 299 337
#     4  10  22  37  64  83 113 158 197 248 297 343
#     4  10  22  43  54  84 121 157 196 239 296 359
#     4  10  18  35  60  90 117 149 190 252 297 336
#     4  11  24  36  60  88 125 160 192 237 303 364
#     4  11  21  37  58  93 122 149 198 247 290 361
#
# _framework density 21.218437000000002
#
# number of rings (size 3 to 8) (size 9 to 14) (size 15 to 20)
#    0.000    1.500    3.750    3.000    0.000    5.500 
#    0.000    2.500    0.000    1.500    0.000    0.000 
#    0.000    0.000    0.000    0.000    0.000    0.000 
#
# Total GULP energy -89257.589802 kJ/mol
# GULP energy per Si atom -5578.599363 kJ/mol
# Density = 2.117014 g / cm^3
# Si number density = 21.218437 Si / 1000 Ang^3
#
#
#
# Elastic Constant Matrix: (Units=GPa)
#
#
# Indices 1 2 3 4 5 6 
#
# 1 54.7878 35.2787 19.3373 5.1256 8.9825 22.6741
# 2 35.2787 144.7041 26.6509 -10.7765 0.0570 38.9320
# 3 19.3373 26.6509 45.6852 4.2460 6.3559 22.9394
# 4 5.1256 -10.7765 4.2460 37.9489 13.3765 -2.5783
# 5 8.9825 0.0570 6.3559 13.3765 31.8924 11.2625
# 6 22.6741 38.9320 22.9394 -2.5783 11.2625 44.4047
#
#
#
# Elastic Compliance Matrix: (Units=1/GPa)
#
#
# Indices 1 2 3 4 5 6 
#
# 1 0.026042 -0.003859 -0.004459 -0.003802 -0.002283 -0.007253
# 2 -0.003859 0.010083 -0.001468 0.002085 0.002858 -0.006715
# 3 -0.004459 -0.001468 0.031623 -0.004898 0.001781 -0.013509
# 4 -0.003802 0.002085 -0.004898 0.033929 -0.015176 0.008463
# 5 -0.002283 0.002858 0.001781 -0.015176 0.042961 -0.014038
# 6 -0.007253 -0.006715 -0.013509 0.008463 -0.014038 0.043141
#
#
# Mechanical properties :
#
#
# Convention : Reuss Voigt Hill
#
# Bulk Modulus (GPa) = 20.75726 45.30122 33.02924
# Shear Modulus (GPa) = 22.38027 33.77653 28.07840
#
# Velocity S-wave (km/s) = 3.25122 3.99413 3.64167
# Velocity P-wave (km/s) = 4.88854 6.53200 5.76909
#
# Compressibility (1/GPa) = 0.04817591
#
# Stress axis : x y z
#
# Youngs Moduli (GPa) = 38.39881 99.18060 31.62229
#
# Poissons Ratio (x) = 0.38272 0.14101
# Poissons Ratio (y) = 0.14817 0.04643
# Poissons Ratio (z) = 0.17123 0.14561
#
# Static dielectric constant tensor:
#      x y z
#    x 1.830390 0.015350 -0.028770 
#    y 0.015350 1.824280 0.022520 
#    z -0.028770 0.022520 1.761370 
# 
# From -- ./inp_files/353190.got.cif
#   From: 2010.05.17/outbox.cif.g08.bks.cpg/sg2_177_cif.got.tgz:353190.got - 2010.06.03 11:33:40.
