data_PCOD9078902
_publ_section_title
;
Structure prediction by ZEFSAII (Michael W. Deem and Ramdas Pophale) SiO2 
 PCOD9078902
Probable space group: P -1
;
_chemical_formula_sum "Si O2"
_cell_formula_units_Z 16
_cell_length_a 12.353599
_cell_length_b 17.976402
_cell_length_c 24.265336
_cell_angle_alpha 28.938783
_cell_angle_beta 20.503025
_cell_angle_gamma 39.153675
_cell_volume 881.605403
_symmetry_space_group_name_H-M "P -1"
_symmetry_group_IT_number 2
_symmetry_cell_setting 'triclinic'
loop_
_space_group_symop_operation_xyz
x,y,z
-x,-y,-z
loop_
_atom_site_type_symbol
_atom_site_label
_atom_site_fract_x
_atom_site_fract_y
_atom_site_fract_z
Si Si1 0.181245 0.873516 0.473860
Si Si2 0.195519 0.507982 0.818616
Si Si3 0.503621 0.340173 0.050709
Si Si4 0.619960 0.126384 0.035194
Si Si5 0.670433 0.357290 0.081872
Si Si6 0.189520 0.277782 0.070960
Si Si7 0.662587 0.827435 0.370359
Si Si8 0.575283 0.997609 0.530396
O O1 0.426353 0.857493 0.415382
O O2 0.877608 0.720996 0.712041
O O3 0.380441 0.952179 0.274392
O O4 0.000000 0.000000 0.500000
O O5 0.530201 0.637513 0.565648
O O6 0.966245 0.614088 0.884126
O O7 0.236809 0.377796 0.927476
O O8 0.004391 0.419813 0.914320
O O9 0.604477 0.222523 0.036599
O O10 0.698471 0.346259 0.009931
O O11 0.531631 0.511930 0.899425
O O12 0.488585 0.229209 0.985957
O O13 0.974570 0.120222 0.856209
O O14 0.487236 0.184616 0.303485
O O15 0.929563 0.110032 0.296079
O O16 0.621534 0.919989 0.386204
O O17 0.500000 0.000000 0.500000
#
# Coordination Sequence:
#
# PCOD9078902 Si02
#       8
#     2   2   2   2   2   2   2   2
#     4  10  18  36  60  85 111 148 197 236 272 337
#     4  10  19  37  60  81 113 150 201 236 270 340
#     4  10  20  34  62  87 112 150 191 242 283 335
#     4  11  21  37  59  87 120 149 192 234 294 343
#     4  11  19  35  60  87 114 140 196 243 281 327
#     4  10  20  37  60  84 109 154 197 237 278 337
#     4  11  23  37  58  88 117 153 189 237 291 345
#     4  11  21  36  61  85 110 150 197 238 281 336
#
# _framework density 18.148709
#
# number of rings (size 3 to 8) (size 9 to 14) (size 15 to 20)
#    0.000    1.500    3.750    4.875    0.000    0.500 
#    0.000    1.250    8.250    0.000    0.000    0.000 
#    0.000    0.000    0.000    0.000    0.000    0.000 
#
# Total GULP energy -89203.018026 kJ/mol
# GULP energy per Si atom -5575.188627 kJ/mol
# Density = 1.810740 g / cm^3
# Si number density = 18.148709 Si / 1000 Ang^3
#
#
#
# Elastic Constant Matrix: (Units=GPa)
#
#
# Indices 1 2 3 4 5 6 
#
# 1 125.3119 32.0277 40.7980 -1.0872 -5.6712 -1.4493
# 2 32.0277 43.1486 47.5706 -12.8863 3.4444 0.3528
# 3 40.7980 47.5706 122.5722 -9.9422 7.1104 -6.9315
# 4 -1.0872 -12.8863 -9.9422 40.0602 -5.5870 -0.2176
# 5 -5.6712 3.4444 7.1104 -5.5870 25.7111 -8.7256
# 6 -1.4493 0.3528 -6.9315 -0.2176 -8.7256 17.0011
#
#
#
# Elastic Compliance Matrix: (Units=1/GPa)
#
#
# Indices 1 2 3 4 5 6 
#
# 1 0.010417 -0.007978 -0.000595 -0.001842 0.004115 0.002899
# 2 -0.007978 0.051425 -0.016701 0.011375 -0.005344 -0.011153
# 3 -0.000595 -0.016701 0.015076 -0.001654 -0.000295 0.006270
# 4 -0.001842 0.011375 -0.001654 0.028946 0.005547 0.002150
# 5 0.004115 -0.005344 -0.000295 0.005547 0.050790 0.026480
# 6 0.002899 -0.011153 0.006270 0.002150 0.026480 0.075472
#
#
# Mechanical properties :
#
#
# Convention : Reuss Voigt Hill
#
# Bulk Modulus (GPa) = 37.92282 59.09170 48.50726
# Shear Modulus (GPa) = 17.15483 27.93024 22.54254
#
# Velocity S-wave (km/s) = 3.07781 3.92722 3.52817
# Velocity P-wave (km/s) = 5.79409 7.29346 6.58658
#
# Compressibility (1/GPa) = 0.02636935
#
# Stress axis : x y z
#
# Youngs Moduli (GPa) = 96.00019 19.44595 66.33260
#
# Poissons Ratio (x) = 0.15514 0.03946
# Poissons Ratio (y) = 0.76591 1.10779
# Poissons Ratio (z) = 0.05711 0.32476
#
# Static dielectric constant tensor:
#      x y z
#    x 1.666890 0.013450 0.006900 
#    y 0.013450 1.623120 -0.042090 
#    z 0.006900 -0.042090 1.648950 
# 
# From -- ./inp_files/195761.got.cif
#   From: 2010.05.17/outbox.cif.g08.bks.cpg/sg2_98_cif.got.tgz:195761.got - 2010.06.03 11:33:40.
