data_PCOD9078986
_publ_section_title
;
Structure prediction by ZEFSAII (Michael W. Deem and Ramdas Pophale) SiO2 
 PCOD9078986
Probable space group: P -1
;
_chemical_formula_sum "Si O2"
_cell_formula_units_Z 14
_cell_length_a 7.517713
_cell_length_b 11.968033
_cell_length_c 9.477088
_cell_angle_alpha 63.973755
_cell_angle_beta 118.073984
_cell_angle_gamma 126.701742
_cell_volume 588.057834
_symmetry_space_group_name_H-M "P -1"
_symmetry_group_IT_number 2
_symmetry_cell_setting 'triclinic'
loop_
_space_group_symop_operation_xyz
x,y,z
-x,-y,-z
loop_
_atom_site_type_symbol
_atom_site_label
_atom_site_fract_x
_atom_site_fract_y
_atom_site_fract_z
Si Si1 0.164712 0.727409 0.858935
Si Si2 0.449064 0.993688 0.149795
Si Si3 0.715533 0.638890 0.074904
Si Si4 0.838660 0.852234 0.757215
Si Si5 0.962133 0.158510 0.724196
Si Si6 0.585892 0.239666 0.550130
Si Si7 0.125067 0.567483 0.216493
O O1 0.031743 0.813072 0.801216
O O2 0.992838 0.598033 0.769456
O O3 0.407545 0.847695 0.823877
O O4 0.216070 0.655168 0.054603
O O5 0.182055 0.916594 0.141520
O O6 0.530932 0.893814 0.312150
O O7 0.500000 0.000000 0.000000
O O8 0.919485 0.599586 0.160665
O O9 0.500000 0.500000 0.000000
O O10 0.756608 0.768695 0.919327
O O11 0.610098 0.776082 0.617858
O O12 0.935839 0.022287 0.706097
O O13 0.795260 0.219614 0.571176
O O14 0.220177 0.285047 0.787869
O O15 0.701024 0.376594 0.619006
#
# Coordination Sequence:
#
# PCOD9078986 Si02
#       7
#     2   2   2   2   2   2   2
#     4  10  20  35  60  82 118 153 196 238 279 350
#     4  10  18  36  61  86 105 157 195 229 288 345
#     4  10  21  37  60  84 111 154 201 237 279 345
#     4  11  21  38  56  92 119 149 190 244 293 336
#     4   9  21  39  60  83 121 151 190 240 292 349
#     4   9  20  36  62  81 123 150 189 240 296 339
#     4   9  19  39  54  84 117 157 192 234 292 340
#
# _framework density 23.807182999999998
#
# number of rings (size 3 to 8) (size 9 to 14) (size 15 to 20)
#    0.857    1.429    1.429    1.714    2.000    1.143 
#    0.000    4.286    0.000    0.000    0.000    0.000 
#    0.000    0.000    0.000    0.000    0.000    0.000 
#
# Total GULP energy -78082.889039 kJ/mol
# GULP energy per Si atom -5577.349217 kJ/mol
# Density = 2.375300 g / cm^3
# Si number density = 23.807183 Si / 1000 Ang^3
#
#
#
# Elastic Constant Matrix: (Units=GPa)
#
#
# Indices 1 2 3 4 5 6 
#
# 1 52.9797 18.6873 13.0406 7.1070 16.5238 -8.7834
# 2 18.6873 153.2691 11.2322 50.0467 15.8092 -0.2074
# 3 13.0406 11.2322 92.6314 32.4366 25.7095 7.4572
# 4 7.1070 50.0467 32.4366 35.8685 9.2777 4.8657
# 5 16.5238 15.8092 25.7095 9.2777 19.0484 8.4913
# 6 -8.7834 -0.2074 7.4572 4.8657 8.4913 33.6452
#
#
#
# Elastic Compliance Matrix: (Units=1/GPa)
#
#
# Indices 1 2 3 4 5 6 
#
# 1 0.038591 0.006208 0.014903 -0.017271 -0.061387 0.024800
# 2 0.006208 0.021878 0.020294 -0.042546 -0.035752 0.012434
# 3 0.014903 0.020294 0.043511 -0.055074 -0.070664 0.020171
# 4 -0.017271 -0.042546 -0.055074 0.124537 0.077391 -0.030106
# 5 -0.061387 -0.035752 -0.070664 0.077391 0.223494 -0.068181
# 6 0.024800 0.012434 0.020171 -0.030106 -0.068181 0.053363
#
#
# Mechanical properties :
#
#
# Convention : Reuss Voigt Hill
#
# Bulk Modulus (GPa) = 5.35364 42.75561 24.05463
# Shear Modulus (GPa) = 10.31294 34.77378 22.54336
#
# Velocity S-wave (km/s) = 2.08357 3.82598 3.08054
# Velocity P-wave (km/s) = 2.83584 6.12500 4.77271
#
# Compressibility (1/GPa) = 0.18678870
#
# Stress axis : x y z
#
# Youngs Moduli (GPa) = 25.91248 45.70896 22.98295
#
# Poissons Ratio (x) = -0.28374 -0.34252
# Poissons Ratio (y) = -0.16085 -0.46641
# Poissons Ratio (z) = -0.38618 -0.92760
#
# Static dielectric constant tensor:
#      x y z
#    x 1.985410 -0.034950 -0.022120 
#    y -0.034950 1.986900 0.019400 
#    z -0.022120 0.019400 1.961000 
# 
# From -- ./inp_files/389817.got.cif
#   From: 2010.05.17/outbox.cif.g08.bks.cpg/sg2_195_cif.got.tgz:389817.got - 2010.06.03 11:33:40.
