data_PCOD9078782
_publ_section_title
;
Structure prediction by ZEFSAII (Michael W. Deem and Ramdas Pophale) SiO2 
 PCOD9078782
Probable space group: P -1
;
_chemical_formula_sum "Si O2"
_cell_formula_units_Z 12
_cell_length_a 8.463527
_cell_length_b 14.600123
_cell_length_c 11.723601
_cell_angle_alpha 54.977871
_cell_angle_beta 48.881988
_cell_angle_gamma 99.468168
_cell_volume 427.220431
_symmetry_space_group_name_H-M "P -1"
_symmetry_group_IT_number 2
_symmetry_cell_setting 'triclinic'
loop_
_space_group_symop_operation_xyz
x,y,z
-x,-y,-z
loop_
_atom_site_type_symbol
_atom_site_label
_atom_site_fract_x
_atom_site_fract_y
_atom_site_fract_z
Si Si1 0.054940 0.734877 0.455246
Si Si2 0.086673 0.009025 0.581059
Si Si3 0.288683 0.378317 0.541951
Si Si4 0.483637 0.713613 0.268983
Si Si5 0.444479 0.228653 0.483501
Si Si6 0.313844 0.891018 0.457537
O O1 0.115150 0.631178 0.527264
O O2 0.735017 0.602073 0.596454
O O3 0.003483 0.762323 0.585875
O O4 0.500000 0.000000 0.000000
O O5 0.409335 0.221547 0.366594
O O6 0.240999 0.952478 0.541376
O O7 0.000000 0.000000 0.500000
O O8 0.613232 0.798426 0.015391
O O9 0.445422 0.563009 0.399582
O O10 0.548919 0.383621 0.402044
O O11 0.802191 0.131898 0.999866
O O12 0.927899 0.961575 0.941162
O O13 0.707713 0.242142 0.383559
#
# Coordination Sequence:
#
# PCOD9078782 Si02
#       6
#     2   2   2   2   2   2
#     4  10  18  36  58  85 112 150 192 233 280 335
#     4  10  20  39  61  83 115 154 192 233 290 342
#     4  11  21  38  63  85 115 152 196 238 278 339
#     4  10  22  37  61  88 114 149 199 233 285 340
#     4  10  22  39  59  84 122 151 187 236 294 340
#     4  11  20  37  63  84 118 156 186 236 292 338
#
# _framework density 28.088542
#
# number of rings (size 3 to 8) (size 9 to 14) (size 15 to 20)
#    1.000    0.667    3.333    4.500    0.000    0.667 
#    0.000    5.833    0.000    0.000    0.000    0.000 
#    0.000    0.000    0.000    0.000    0.000    0.000 
#
# Total GULP energy -67115.607907 kJ/mol
# GULP energy per Si atom -5592.967326 kJ/mol
# Density = 2.802461 g / cm^3
# Si number density = 28.088542 Si / 1000 Ang^3
#
#
#
# Elastic Constant Matrix: (Units=GPa)
#
#
# Indices 1 2 3 4 5 6 
#
# 1 100.2475 42.0988 1.3184 0.0608 20.2361 -3.8601
# 2 42.0988 249.3916 21.3287 6.8003 7.7374 -13.5857
# 3 1.3184 21.3287 72.8013 2.6373 3.9282 11.8777
# 4 0.0608 6.8003 2.6373 37.7711 7.9422 10.2548
# 5 20.2361 7.7374 3.9282 7.9422 32.8071 6.8762
# 6 -3.8601 -13.5857 11.8777 10.2548 6.8762 62.5851
#
#
#
# Elastic Compliance Matrix: (Units=1/GPa)
#
#
# Indices 1 2 3 4 5 6 
#
# 1 0.012378 -0.001895 0.000557 0.001706 -0.007841 0.000828
# 2 -0.001895 0.004550 -0.001486 -0.001125 0.000272 0.001307
# 3 0.000557 -0.001486 0.014704 0.000306 -0.001200 -0.002997
# 4 0.001706 -0.001125 0.000306 0.029277 -0.007027 -0.004222
# 5 -0.007841 0.000272 -0.001200 -0.007027 0.037768 -0.003195
# 6 0.000828 0.001307 -0.002997 -0.004222 -0.003195 0.017925
#
#
# Mechanical properties :
#
#
# Convention : Reuss Voigt Hill
#
# Bulk Modulus (GPa) = 38.48548 61.32578 49.90563
# Shear Modulus (GPa) = 38.19386 50.47895 44.33641
#
# Velocity S-wave (km/s) = 3.69150 4.24386 3.97728
# Velocity P-wave (km/s) = 5.64808 6.77453 6.23679
#
# Compressibility (1/GPa) = 0.02598382
#
# Stress axis : x y z
#
# Youngs Moduli (GPa) = 80.79141 219.77050 68.00906
#
# Poissons Ratio (x) = 0.41651 -0.03790
# Poissons Ratio (y) = 0.15312 0.10106
# Poissons Ratio (z) = -0.04502 0.32657
#
# Static dielectric constant tensor:
#      x y z
#    x 2.215860 -0.015910 0.061460 
#    y -0.015910 2.169690 -0.057660 
#    z 0.061460 -0.057660 2.283100 
# 
# From -- ./inp_files/151320.got.cif
#   From: 2010.05.17/outbox.cif.g08.bks.cpg/sg2_76_cif.got.tgz:151320.got - 2010.06.03 11:33:40.
