data_PCOD9078445
_publ_section_title
;
Structure prediction by ZEFSAII (Michael W. Deem and Ramdas Pophale) SiO2 
 PCOD9078445
Probable space group: P -1
;
_chemical_formula_sum "Si O2"
_cell_formula_units_Z 16
_cell_length_a 13.327110
_cell_length_b 22.348058
_cell_length_c 5.375662
_cell_angle_alpha 85.433021
_cell_angle_beta 83.864207
_cell_angle_gamma 23.205558
_cell_volume 626.545207
_symmetry_space_group_name_H-M "P -1"
_symmetry_group_IT_number 2
_symmetry_cell_setting 'triclinic'
loop_
_space_group_symop_operation_xyz
x,y,z
-x,-y,-z
loop_
_atom_site_type_symbol
_atom_site_label
_atom_site_fract_x
_atom_site_fract_y
_atom_site_fract_z
Si Si1 0.323366 0.547902 0.782937
Si Si2 0.575260 0.209469 0.980437
Si Si3 0.025799 0.927411 0.270722
Si Si4 0.139396 0.744093 0.137975
Si Si5 0.679200 0.048549 0.661694
Si Si6 0.176687 0.154969 0.458486
Si Si7 0.896127 0.450706 0.935635
Si Si8 0.227616 0.259416 0.408129
O O1 0.620105 0.383972 0.690893
O O2 0.261205 0.525117 0.984956
O O3 0.105514 0.664700 0.596682
O O4 0.259807 0.643880 0.910756
O O5 0.564900 0.149551 0.880994
O O6 0.304819 0.385176 0.061425
O O7 0.717846 0.174401 0.750675
O O8 0.783858 0.097281 0.182559
O O9 0.066104 0.852513 0.083117
O O10 0.934814 0.940719 0.530685
O O11 0.898402 0.838854 0.272385
O O12 0.473277 0.163903 0.452368
O O13 0.731844 0.948623 0.714408
O O14 0.325771 0.136172 0.416862
O O15 0.084576 0.352061 0.158457
O O16 0.045215 0.365571 0.663871
#
# Coordination Sequence:
#
# PCOD9078445 Si02
#       8
#     2   2   2   2   2   2   2   2
#     4  10  19  35  60  97 131 175 219 282 340 405
#     4  11  24  44  67  96 137 178 234 282 348 396
#     4  10  23  42  65  99 132 179 225 289 340 409
#     4  10  18  35  62  94 133 169 228 272 348 402
#     4  11  25  43  67  96 135 184 229 281 338 417
#     4  10  21  40  62  98 132 174 224 282 343 403
#     4  11  25  46  71 100 139 183 230 286 334 406
#     4  11  26  47  71 102 138 183 231 280 343 401
#
# _framework density 25.536864999999999
#
# number of rings (size 3 to 8) (size 9 to 14) (size 15 to 20)
#    0.000    1.500    2.500    1.875    3.500    1.000 
#    0.000    1.875    0.000    0.000    0.000    0.000 
#    0.000    0.000    0.000    0.000    0.000    0.000 
#
# Total GULP energy -89472.065312 kJ/mol
# GULP energy per Si atom -5592.004082 kJ/mol
# Density = 2.547874 g / cm^3
# Si number density = 25.536865 Si / 1000 Ang^3
#
#
#
# Elastic Constant Matrix: (Units=GPa)
#
#
# Indices 1 2 3 4 5 6 
#
# 1 92.4461 30.4976 26.0341 24.3902 -2.2962 0.4235
# 2 30.4976 121.5443 35.7992 16.5056 8.6757 32.0983
# 3 26.0341 35.7992 98.4571 14.4505 9.8177 10.3530
# 4 24.3902 16.5056 14.4505 36.6332 -5.4624 1.7446
# 5 -2.2962 8.6757 9.8177 -5.4624 26.5585 11.2420
# 6 0.4235 32.0983 10.3530 1.7446 11.2420 42.0520
#
#
#
# Elastic Compliance Matrix: (Units=1/GPa)
#
#
# Indices 1 2 3 4 5 6 
#
# 1 0.014255 -0.002675 -0.001974 -0.007613 0.000143 0.002662
# 2 -0.002675 0.012217 -0.002471 -0.002369 -0.000179 -0.008544
# 3 -0.001974 -0.002471 0.012499 -0.003221 -0.004744 0.000231
# 4 -0.007613 -0.002369 -0.003221 0.036152 0.009295 -0.001307
# 5 0.000143 -0.000179 -0.004744 0.009295 0.046232 -0.011442
# 6 0.002662 -0.008544 0.000231 -0.001307 -0.011442 0.033331
#
#
# Mechanical properties :
#
#
# Convention : Reuss Voigt Hill
#
# Bulk Modulus (GPa) = 40.43336 55.23439 47.83387
# Shear Modulus (GPa) = 28.22148 35.72317 31.97233
#
# Velocity S-wave (km/s) = 3.32795 3.74423 3.54221
# Velocity P-wave (km/s) = 5.53486 6.35362 5.95832
#
# Compressibility (1/GPa) = 0.02473205
#
# Stress axis : x y z
#
# Youngs Moduli (GPa) = 70.14987 81.85141 80.00904
#
# Poissons Ratio (x) = 0.21895 0.15791
# Poissons Ratio (y) = 0.18765 0.19770
# Poissons Ratio (z) = 0.13845 0.20225
#
# Static dielectric constant tensor:
#      x y z
#    x 2.092980 -0.037490 0.009550 
#    y -0.037490 2.054020 -0.078310 
#    z 0.009550 -0.078310 2.058900 
# 
# From -- ./inp_files/70881.got.cif
#   From: 2010.05.17/outbox.cif.g08.bks.cpg/sg2_36_cif.got.tgz:70881.got - 2010.06.03 11:33:40.
