data_PCOD9078338
_publ_section_title
;
Structure prediction by ZEFSAII (Michael W. Deem and Ramdas Pophale) SiO2 
 PCOD9078338
Probable space group: P -1
;
_chemical_formula_sum "Si O2"
_cell_formula_units_Z 16
_cell_length_a 9.304876
_cell_length_b 13.790475
_cell_length_c 8.237423
_cell_angle_alpha 129.272163
_cell_angle_beta 116.625983
_cell_angle_gamma 88.664982
_cell_volume 677.751656
_symmetry_space_group_name_H-M "P -1"
_symmetry_group_IT_number 2
_symmetry_cell_setting 'triclinic'
loop_
_space_group_symop_operation_xyz
x,y,z
-x,-y,-z
loop_
_atom_site_type_symbol
_atom_site_label
_atom_site_fract_x
_atom_site_fract_y
_atom_site_fract_z
Si Si1 0.269242 0.901051 0.675435
Si Si2 0.103485 0.301258 0.842004
Si Si3 0.100294 0.811800 0.955164
Si Si4 0.406384 0.545749 0.651369
Si Si5 0.196341 0.361886 0.615230
Si Si6 0.964798 0.534119 0.773521
Si Si7 0.452871 0.842355 0.998845
Si Si8 0.932716 0.932602 0.220230
O O1 0.099839 0.781794 0.395819
O O2 0.392229 0.847845 0.786013
O O3 0.187377 0.994377 0.834046
O O4 0.388311 0.016852 0.737231
O O5 0.215945 0.307626 0.745650
O O6 0.154534 0.223180 0.932417
O O7 0.110102 0.442995 0.066307
O O8 0.285362 0.842311 0.006562
O O9 0.939295 0.755324 0.687890
O O10 0.071095 0.684951 0.924581
O O11 0.079544 0.933360 0.172490
O O12 0.500000 0.500000 0.500000
O O13 0.364832 0.447298 0.684492
O O14 0.209959 0.527017 0.483214
O O15 0.485661 0.705589 0.897503
O O16 0.084405 0.451598 0.707821
O O17 0.000000 0.000000 0.500000
#
# Coordination Sequence:
#
# PCOD9078338 Si02
#       8
#     2   2   2   2   2   2   2   2
#     4  10  22  39  60  88 126 162 202 255 298 366
#     4  10  20  37  61  92 125 157 206 250 310 368
#     4  10  18  35  61  88 119 155 210 251 296 365
#     4  11  23  38  63  93 125 157 204 263 314 361
#     4  11  19  37  63  92 117 159 211 255 299 374
#     4  10  19  36  62  90 119 162 199 257 308 366
#     4  11  21  38  61  91 125 156 208 254 309 361
#     4   9  21  39  57  85 122 161 204 249 303 358
#
# _framework density 23.607468000000001
#
# number of rings (size 3 to 8) (size 9 to 14) (size 15 to 20)
#    0.000    1.750    3.750    1.125    5.250    0.500 
#    0.000    6.250    0.000    0.000    0.000    0.000 
#    0.000    0.000    0.000    0.000    0.000    0.000 
#
# Total GULP energy -89240.810231 kJ/mol
# GULP energy per Si atom -5577.550639 kJ/mol
# Density = 2.355374 g / cm^3
# Si number density = 23.607468 Si / 1000 Ang^3
#
#
#
# Elastic Constant Matrix: (Units=GPa)
#
#
# Indices 1 2 3 4 5 6 
#
# 1 115.9315 20.6669 35.6365 10.3288 -5.1674 25.5620
# 2 20.6669 63.5120 15.7577 4.0827 0.6227 12.7640
# 3 35.6365 15.7577 68.0656 1.8656 -9.1235 7.8708
# 4 10.3288 4.0827 1.8656 24.7570 4.0733 -1.7325
# 5 -5.1674 0.6227 -9.1235 4.0733 45.3173 -0.2173
# 6 25.5620 12.7640 7.8708 -1.7325 -0.2173 45.8252
#
#
#
# Elastic Compliance Matrix: (Units=1/GPa)
#
#
# Indices 1 2 3 4 5 6 
#
# 1 0.012190 -0.001205 -0.005194 -0.005028 0.000785 -0.005758
# 2 -0.001205 0.017839 -0.003098 -0.002342 -0.000814 -0.003857
# 3 -0.005194 -0.003098 0.018447 0.000824 0.003093 0.000638
# 4 -0.005028 -0.002342 0.000824 0.043868 -0.004295 0.004953
# 5 0.000785 -0.000814 0.003093 -0.004295 0.023172 -0.000795
# 6 -0.005758 -0.003857 0.000638 0.004953 -0.000795 0.026182
#
#
# Mechanical properties :
#
#
# Convention : Reuss Voigt Hill
#
# Bulk Modulus (GPa) = 33.91979 43.51461 38.71720
# Shear Modulus (GPa) = 29.32206 34.87643 32.09924
#
# Velocity S-wave (km/s) = 3.52812 3.84780 3.69142
# Velocity P-wave (km/s) = 5.56743 6.18169 5.88258
#
# Compressibility (1/GPa) = 0.02948132
#
# Stress axis : x y z
#
# Youngs Moduli (GPa) = 82.03538 56.05540 54.21023
#
# Poissons Ratio (x) = 0.06756 0.28158
# Poissons Ratio (y) = 0.09886 0.16794
# Poissons Ratio (z) = 0.42611 0.17366
#
# Static dielectric constant tensor:
#      x y z
#    x 1.928410 0.026380 0.007370 
#    y 0.026380 2.099670 -0.004360 
#    z 0.007370 -0.004360 1.942700 
# 
# From -- ./inp_files/204435.got.cif
#   From: 2010.05.17/outbox.cif.g08.bks.cpg/sg2_103_cif.got.tgz:204435.got - 2010.06.03 11:33:40.
