data_PCOD9078232
_publ_section_title
;
Structure prediction by ZEFSAII (Michael W. Deem and Ramdas Pophale) SiO2 
 PCOD9078232
Probable space group: P -1
;
_chemical_formula_sum "Si O2"
_cell_formula_units_Z 12
_cell_length_a 9.643123
_cell_length_b 10.155521
_cell_length_c 7.035550
_cell_angle_alpha 44.586651
_cell_angle_beta 79.261886
_cell_angle_gamma 73.257709
_cell_volume 462.983228
_symmetry_space_group_name_H-M "P -1"
_symmetry_group_IT_number 2
_symmetry_cell_setting 'triclinic'
loop_
_space_group_symop_operation_xyz
x,y,z
-x,-y,-z
loop_
_atom_site_type_symbol
_atom_site_label
_atom_site_fract_x
_atom_site_fract_y
_atom_site_fract_z
Si Si1 0.518639 0.919171 0.288546
Si Si2 0.345595 0.779134 0.897706
Si Si3 0.931978 0.567696 0.700195
Si Si4 0.921465 0.221237 0.288401
Si Si5 0.668668 0.718823 0.903634
Si Si6 0.296303 0.455715 0.507289
O O1 0.571354 0.693964 0.475727
O O2 0.372680 0.048961 0.285872
O O3 0.500000 0.000000 0.000000
O O4 0.648373 0.006167 0.256222
O O5 0.307014 0.662938 0.210872
O O6 0.238573 0.758912 0.776042
O O7 0.513279 0.697413 0.886823
O O8 0.047738 0.690230 0.606331
O O9 0.309857 0.396266 0.784591
O O10 0.854106 0.579955 0.504837
O O11 0.202936 0.352858 0.200904
O O12 0.985779 0.348258 0.985184
O O13 0.000000 0.000000 0.500000
#
# Coordination Sequence:
#
# PCOD9078232 Si02
#       6
#     2   2   2   2   2   2
#     4   8  17  31  53  85 115 138 178 229 282 329
#     4   9  19  35  58  84 110 149 190 229 282 336
#     4  10  22  39  59  84 114 152 187 232 284 332
#     4  10  21  40  58  79 118 155 188 228 281 340
#     4   9  20  37  56  92 112 137 197 236 276 336
#     4  10  18  35  60  82 119 149 175 239 291 324
#
# _framework density 25.918865
#
# number of rings (size 3 to 8) (size 9 to 14) (size 15 to 20)
#    1.000    1.667    0.000    1.500    0.000    3.333 
#    3.000    7.500    0.000    9.000    0.000    0.000 
#    0.000    0.000    0.000    0.000    0.000    0.000 
#
# Total GULP energy -67018.518521 kJ/mol
# GULP energy per Si atom -5584.876543 kJ/mol
# Density = 2.585987 g / cm^3
# Si number density = 25.918865 Si / 1000 Ang^3
#
#
#
# Elastic Constant Matrix: (Units=GPa)
#
#
# Indices 1 2 3 4 5 6 
#
# 1 117.3023 13.3520 14.2032 12.9062 27.6089 1.9033
# 2 13.3520 62.7089 30.6506 -11.5590 -2.3052 -0.4300
# 3 14.2032 30.6506 108.4164 -1.2746 20.1180 -4.8259
# 4 12.9062 -11.5590 -1.2746 59.8744 11.7100 9.7306
# 5 27.6089 -2.3052 20.1180 11.7100 53.0937 6.6291
# 6 1.9033 -0.4300 -4.8259 9.7306 6.6291 44.0897
#
#
#
# Elastic Compliance Matrix: (Units=1/GPa)
#
#
# Indices 1 2 3 4 5 6 
#
# 1 0.010249 -0.002958 0.000497 -0.001855 -0.005336 0.000795
# 2 -0.002958 0.020477 -0.006205 0.003949 0.004138 -0.001846
# 3 0.000497 -0.006205 0.011976 -0.000365 -0.005247 0.002098
# 4 -0.001855 0.003949 -0.000365 0.018940 -0.002436 -0.003735
# 5 -0.005336 0.004138 -0.005247 -0.002436 0.024750 -0.003487
# 6 0.000795 -0.001846 0.002098 -0.003735 -0.003487 0.024207
#
#
# Mechanical properties :
#
#
# Convention : Reuss Voigt Hill
#
# Bulk Modulus (GPa) = 39.41686 44.98214 42.19950
# Shear Modulus (GPa) = 36.66070 46.75967 41.71019
#
# Velocity S-wave (km/s) = 3.76499 4.25205 4.01591
# Velocity P-wave (km/s) = 5.84303 6.44199 6.14981
#
# Compressibility (1/GPa) = 0.02536986
#
# Stress axis : x y z
#
# Youngs Moduli (GPa) = 97.57389 48.83572 83.50323
#
# Poissons Ratio (x) = 0.14445 -0.04154
# Poissons Ratio (y) = 0.28862 0.51814
# Poissons Ratio (z) = -0.04853 0.30303
#
# Static dielectric constant tensor:
#      x y z
#    x 2.113060 0.004120 -0.009760 
#    y 0.004120 2.118730 -0.019040 
#    z -0.009760 -0.019040 2.064430 
# 
# From -- ./inp_files/167114.got.cif
#   From: 2010.05.17/outbox.cif.g08.bks.cpg/sg2_84_cif.got.tgz:167114.got - 2010.06.03 11:33:40.
