data_PCOD9078588
_publ_section_title
;
Structure prediction by ZEFSAII (Michael W. Deem and Ramdas Pophale) SiO2 
 PCOD9078588
Probable space group: P -1
;
_chemical_formula_sum "Si O2"
_cell_formula_units_Z 16
_cell_length_a 10.600954
_cell_length_b 12.566666
_cell_length_c 13.850719
_cell_angle_alpha 146.660270
_cell_angle_beta 123.711182
_cell_angle_gamma 44.248181
_cell_volume 703.062375
_symmetry_space_group_name_H-M "P -1"
_symmetry_group_IT_number 2
_symmetry_cell_setting 'triclinic'
loop_
_space_group_symop_operation_xyz
x,y,z
-x,-y,-z
loop_
_atom_site_type_symbol
_atom_site_label
_atom_site_fract_x
_atom_site_fract_y
_atom_site_fract_z
Si Si1 0.152729 0.504710 0.126554
Si Si2 0.316667 0.866836 0.637394
Si Si3 0.678982 0.759508 0.427014
Si Si4 0.264635 0.698331 0.832824
Si Si5 0.472619 0.340086 0.244205
Si Si6 0.906129 0.126268 0.745193
Si Si7 0.826492 0.812149 0.352387
Si Si8 0.143864 0.042017 0.210070
O O1 0.333878 0.300332 0.097447
O O2 0.208273 0.619820 0.156616
O O3 0.027708 0.664352 0.282347
O O4 0.000000 0.500000 0.000000
O O5 0.366708 0.620625 0.427856
O O6 0.465350 0.784845 0.721745
O O7 0.305054 0.039570 0.680491
O O8 0.115584 0.003069 0.704703
O O9 0.640212 0.571515 0.304788
O O10 0.788491 0.667447 0.301443
O O11 0.777384 0.823403 0.599465
O O12 0.500000 0.000000 0.500000
O O13 0.355364 0.727312 0.799112
O O14 0.055698 0.782982 0.787030
O O15 0.264513 0.858319 0.038860
O O16 0.827327 0.994991 0.560435
O O17 0.887790 0.100106 0.829579
#
# Coordination Sequence:
#
# PCOD9078588 Si02
#       8
#     2   2   2   2   2   2   2   2
#     4  11  23  36  61  94 127 164 209 267 330 387
#     4  10  18  35  66  89 122 164 219 263 324 385
#     4  11  25  41  69 104 129 174 229 274 329 391
#     4  11  24  44  69  95 139 176 221 274 334 395
#     4  11  21  37  64 100 122 169 216 270 332 387
#     4  10  18  40  63  86 124 170 215 258 326 394
#     4  10  20  40  60  89 127 165 212 261 323 395
#     4  10  24  44  67  95 132 185 219 268 333 399
#
# _framework density 22.757581999999999
#
# number of rings (size 3 to 8) (size 9 to 14) (size 15 to 20)
#    0.000    1.500    3.750    1.875    3.500    1.500 
#    0.000    3.750    0.000    0.000    0.000    0.000 
#    0.000    0.000    0.000    0.000    0.000    0.000 
#
# Total GULP energy -89291.122494 kJ/mol
# GULP energy per Si atom -5580.695156 kJ/mol
# Density = 2.270579 g / cm^3
# Si number density = 22.757582 Si / 1000 Ang^3
#
#
#
# Elastic Constant Matrix: (Units=GPa)
#
#
# Indices 1 2 3 4 5 6 
#
# 1 39.4803 5.4714 18.9436 -8.6507 -6.9077 6.2734
# 2 5.4714 86.5959 30.2848 -21.9039 -3.8511 -7.3175
# 3 18.9436 30.2848 76.5772 -6.5484 -6.8095 1.2226
# 4 -8.6507 -21.9039 -6.5484 31.1830 -2.5660 -3.4524
# 5 -6.9077 -3.8511 -6.8095 -2.5660 24.9231 -5.9849
# 6 6.2734 -7.3175 1.2226 -3.4524 -5.9849 30.5064
#
#
#
# Elastic Compliance Matrix: (Units=1/GPa)
#
#
# Indices 1 2 3 4 5 6 
#
# 1 0.032632 0.003295 -0.007780 0.010045 0.007754 -0.002950
# 2 0.003295 0.017578 -0.006333 0.013005 0.004725 0.006191
# 3 -0.007780 -0.006333 0.017347 -0.002952 0.001126 -0.000728
# 4 0.010045 0.013005 -0.002952 0.045174 0.010649 0.008374
# 5 0.007754 0.004725 0.001126 0.010649 0.046778 0.009876
# 6 -0.002950 0.006191 -0.000728 0.008374 0.009876 0.037786
#
#
# Mechanical properties :
#
#
# Convention : Reuss Voigt Hill
#
# Bulk Modulus (GPa) = 21.77665 34.67255 28.22460
# Shear Modulus (GPa) = 21.34575 27.18606 24.26591
#
# Velocity S-wave (km/s) = 3.06594 3.46004 3.26893
# Velocity P-wave (km/s) = 4.70351 5.58849 5.16499
#
# Compressibility (1/GPa) = 0.04592074
#
# Stress axis : x y z
#
# Youngs Moduli (GPa) = 30.64481 56.89079 57.64552
#
# Poissons Ratio (x) = -0.18748 0.44849
# Poissons Ratio (y) = -0.10099 0.36509
# Poissons Ratio (z) = 0.23842 0.36031
#
# Static dielectric constant tensor:
#      x y z
#    x 2.766870 0.021650 -0.274870 
#    y 0.021650 1.857730 -0.016440 
#    z -0.274870 -0.016440 2.028880 
# 
# From -- ./inp_files/522673.got.cif
#   From: 2010.05.17/outbox.cif.g08.bks.cpg/sg2_262_cif.got.tgz:522673.got - 2010.06.03 11:33:40.
