data_PCOD9078724
_publ_section_title
;
Structure prediction by ZEFSAII (Michael W. Deem and Ramdas Pophale) SiO2 
 PCOD9078724
Probable space group: P -1
;
_chemical_formula_sum "Si O2"
_cell_formula_units_Z 16
_cell_length_a 11.374649
_cell_length_b 16.892224
_cell_length_c 11.442592
_cell_angle_alpha 143.666577
_cell_angle_beta 72.409008
_cell_angle_gamma 133.161234
_cell_volume 776.873173
_symmetry_space_group_name_H-M "P -1"
_symmetry_group_IT_number 2
_symmetry_cell_setting 'triclinic'
loop_
_space_group_symop_operation_xyz
x,y,z
-x,-y,-z
loop_
_atom_site_type_symbol
_atom_site_label
_atom_site_fract_x
_atom_site_fract_y
_atom_site_fract_z
Si Si1 0.435429 0.409161 0.780584
Si Si2 0.243169 0.642116 0.832408
Si Si3 0.951082 0.584044 0.983211
Si Si4 0.383181 0.653837 0.036585
Si Si5 0.781174 0.555369 0.763654
Si Si6 0.569981 0.101736 0.284610
Si Si7 0.032348 0.675773 0.645674
Si Si8 0.339101 0.051820 0.489406
O O1 0.326931 0.449200 0.816542
O O2 0.628139 0.546506 0.806482
O O3 0.335847 0.181106 0.560984
O O4 0.500000 0.500000 0.000000
O O5 0.380547 0.694717 0.952598
O O6 0.140783 0.454872 0.552607
O O7 0.058208 0.556170 0.849148
O O8 0.378099 0.873277 0.010118
O O9 0.786228 0.408716 0.917675
O O10 0.122434 0.809817 0.264264
O O11 0.847056 0.580712 0.907141
O O12 0.575393 0.840803 0.281251
O O13 0.654617 0.317841 0.478180
O O14 0.974313 0.725777 0.827558
O O15 0.484684 0.068561 0.400140
O O16 0.752534 0.154327 0.274822
O O17 0.000000 0.500000 0.500000
#
# Coordination Sequence:
#
# PCOD9078724 Si02
#       8
#     2   2   2   2   2   2   2   2
#     4   9  17  37  56  73 108 139 174 220 255 304
#     4  11  22  33  54  83 107 143 171 209 270 322
#     4  11  19  34  55  83 107 136 175 215 271 311
#     4  11  21  36  52  77 115 141 169 215 265 314
#     4  10  18  36  57  79 105 135 177 227 255 298
#     4   9  18  34  53  78 112 129 177 211 265 309
#     4  10  19  35  55  77 106 138 175 220 262 302
#     4   9  19  33  53  81 105 138 176 218 258 309
#
# _framework density 20.595383000000002
#
# number of rings (size 3 to 8) (size 9 to 14) (size 15 to 20)
#    0.000    2.000    6.250    0.375    0.000    5.500 
#    2.250    0.625    0.000    0.750    0.000    0.000 
#    0.000    0.000    0.000    0.000    0.000    0.000 
#
# Total GULP energy -89105.816877 kJ/mol
# GULP energy per Si atom -5569.113555 kJ/mol
# Density = 2.054851 g / cm^3
# Si number density = 20.595383 Si / 1000 Ang^3
#
#
#
# Elastic Constant Matrix: (Units=GPa)
#
#
# Indices 1 2 3 4 5 6 
#
# 1 44.9190 12.5221 0.0833 0.1177 -5.7802 2.0745
# 2 12.5221 52.2531 14.7141 -3.4641 2.5703 14.6744
# 3 0.0833 14.7141 46.8574 3.3025 8.5543 4.3814
# 4 0.1177 -3.4641 3.3025 17.7481 2.8858 1.1826
# 5 -5.7802 2.5703 8.5543 2.8858 18.0671 -4.1021
# 6 2.0745 14.6744 4.3814 1.1826 -4.1021 32.5783
#
#
#
# Elastic Compliance Matrix: (Units=1/GPa)
#
#
# Indices 1 2 3 4 5 6 
#
# 1 0.025698 -0.008009 0.000506 -0.003756 0.010484 0.003360
# 2 -0.008009 0.027279 -0.006672 0.008633 -0.007416 -0.012127
# 3 0.000506 -0.006672 0.025877 -0.004241 -0.010854 -0.001720
# 4 -0.003756 0.008633 -0.004241 0.061203 -0.011736 -0.006778
# 5 0.010484 -0.007416 -0.010854 -0.011736 0.069803 0.013348
# 6 0.003360 -0.012127 -0.001720 -0.006778 0.013348 0.038102
#
#
# Mechanical properties :
#
#
# Convention : Reuss Voigt Hill
#
# Bulk Modulus (GPa) = 19.80103 22.07428 20.93766
# Shear Modulus (GPa) = 17.05636 21.45936 19.25786
#
# Velocity S-wave (km/s) = 2.88091 3.23143 3.06119
# Velocity P-wave (km/s) = 4.54987 4.96630 4.76264
#
# Compressibility (1/GPa) = 0.05050242
#
# Stress axis : x y z
#
# Youngs Moduli (GPa) = 38.91382 36.65879 38.64456
#
# Poissons Ratio (x) = 0.29360 -0.01955
# Poissons Ratio (y) = 0.31166 0.25785
# Poissons Ratio (z) = -0.01969 0.24460
#
# Static dielectric constant tensor:
#      x y z
#    x 1.771630 -0.013790 0.009110 
#    y -0.013790 1.807300 0.008500 
#    z 0.009110 0.008500 1.772660 
# 
# From -- ./inp_files/436060.got.cif
#   From: 2010.05.17/outbox.cif.g08.bks.cpg/sg2_219_cif.got.tgz:436060.got - 2010.06.03 11:33:40.
