data_PCOD9078426
_publ_section_title
;
Structure prediction by ZEFSAII (Michael W. Deem and Ramdas Pophale) SiO2 
 PCOD9078426
Probable space group: P -1
;
_chemical_formula_sum "Si O2"
_cell_formula_units_Z 12
_cell_length_a 12.838720
_cell_length_b 11.031190
_cell_length_c 7.709644
_cell_angle_alpha 54.729595
_cell_angle_beta 48.800443
_cell_angle_gamma 40.743531
_cell_volume 529.334518
_symmetry_space_group_name_H-M "P -1"
_symmetry_group_IT_number 2
_symmetry_cell_setting 'triclinic'
loop_
_space_group_symop_operation_xyz
x,y,z
-x,-y,-z
loop_
_atom_site_type_symbol
_atom_site_label
_atom_site_fract_x
_atom_site_fract_y
_atom_site_fract_z
Si Si1 0.578058 0.105236 0.392239
Si Si2 0.994128 0.186878 0.251824
Si Si3 0.958275 0.485337 0.855005
Si Si4 0.760579 0.472873 0.561481
Si Si5 0.309671 0.105546 0.205023
Si Si6 0.137379 0.888038 0.093548
O O1 0.500000 0.000000 0.500000
O O2 0.676631 0.998660 0.549842
O O3 0.705968 0.098634 0.120302
O O4 0.030347 0.000549 0.291961
O O5 0.825781 0.347746 0.416435
O O6 0.424697 0.325096 0.416298
O O7 0.168415 0.123649 0.216781
O O8 0.977275 0.298145 0.001560
O O9 0.772190 0.677115 0.851453
O O10 0.101928 0.483499 0.593644
O O11 0.000000 0.500000 0.000000
O O12 0.783275 0.328742 0.796328
O O13 0.500000 0.000000 0.000000
O O14 0.000000 0.000000 0.000000
#
# Coordination Sequence:
#
# PCOD9078426 Si02
#       6
#     2   2   2   2   2   2
#     4  12  25  42  64  95 129 163 206 261 313 368
#     4  10  21  41  65  90 123 169 214 253 301 378
#     4   8  16  33  59  88 114 153 208 255 291 352
#     4  10  21  41  62  88 125 167 209 252 307 376
#     4  10  18  35  62  91 119 160 210 254 299 365
#     4  12  25  42  63  94 130 164 203 263 324 363
#
# _framework density 22.669972999999999
#
# number of rings (size 3 to 8) (size 9 to 14) (size 15 to 20)
#    0.000    2.000    0.000    8.000    0.000    1.333 
#    0.000   12.500    0.000    0.000    0.000    0.000 
#    0.000    0.000    0.000    0.000    0.000    0.000 
#
# Total GULP energy -67024.348017 kJ/mol
# GULP energy per Si atom -5585.362335 kJ/mol
# Density = 2.261838 g / cm^3
# Si number density = 22.669973 Si / 1000 Ang^3
#
#
#
# Elastic Constant Matrix: (Units=GPa)
#
#
# Indices 1 2 3 4 5 6 
#
# 1 71.9443 38.4377 12.6722 -1.3833 11.3501 -1.2920
# 2 38.4377 200.2828 39.6024 -13.4846 10.2862 -3.1453
# 3 12.6722 39.6024 107.3258 -6.2231 -0.3435 -6.3567
# 4 -1.3833 -13.4846 -6.2231 53.6106 1.3106 5.3599
# 5 11.3501 10.2862 -0.3435 1.3106 26.6414 -2.5137
# 6 -1.2920 -3.1453 -6.3567 5.3599 -2.5137 29.8328
#
#
#
# Elastic Compliance Matrix: (Units=1/GPa)
#
#
# Indices 1 2 3 4 5 6 
#
# 1 0.016439 -0.002665 -0.001003 -0.000190 -0.006002 -0.000254
# 2 -0.002665 0.006020 -0.001849 0.001284 -0.001296 -0.000215
# 3 -0.001003 -0.001849 0.010267 0.000467 0.001438 0.001987
# 4 -0.000190 0.001284 0.000467 0.019407 -0.001684 -0.003402
# 5 -0.006002 -0.001296 0.001438 -0.001684 0.041041 0.003670
# 6 -0.000254 -0.000215 0.001987 -0.003402 0.003670 0.034830
#
#
# Mechanical properties :
#
#
# Convention : Reuss Voigt Hill
#
# Bulk Modulus (GPa) = 46.09989 62.33084 54.21537
# Shear Modulus (GPa) = 34.18378 41.27300 37.72839
#
# Velocity S-wave (km/s) = 3.88737 4.27148 4.08394
# Velocity P-wave (km/s) = 6.36618 7.20291 6.79743
#
# Compressibility (1/GPa) = 0.02169203
#
# Stress axis : x y z
#
# Youngs Moduli (GPa) = 60.83138 166.12250 97.39533
#
# Poissons Ratio (x) = 0.44274 0.09767
# Poissons Ratio (y) = 0.16213 0.18008
# Poissons Ratio (z) = 0.06101 0.30715
#
# Static dielectric constant tensor:
#      x y z
#    x 1.869020 0.050160 0.016290 
#    y 0.050160 1.850160 -0.037380 
#    z 0.016290 -0.037380 1.957820 
# 
# From -- ./inp_files/266596.got.cif
#   From: 2010.05.17/outbox.cif.g08.bks.cpg/sg2_134_cif.got.tgz:266596.got - 2010.06.03 11:33:40.
