data_PCOD9078589
_publ_section_title
;
Structure prediction by ZEFSAII (Michael W. Deem and Ramdas Pophale) SiO2 
 PCOD9078589
Probable space group: P -1
;
_chemical_formula_sum "Si O2"
_cell_formula_units_Z 16
_cell_length_a 15.124503
_cell_length_b 12.815591
_cell_length_c 7.085155
_cell_angle_alpha 132.307805
_cell_angle_beta 88.816975
_cell_angle_gamma 56.781449
_cell_volume 660.252031
_symmetry_space_group_name_H-M "P -1"
_symmetry_group_IT_number 2
_symmetry_cell_setting 'triclinic'
loop_
_space_group_symop_operation_xyz
x,y,z
-x,-y,-z
loop_
_atom_site_type_symbol
_atom_site_label
_atom_site_fract_x
_atom_site_fract_y
_atom_site_fract_z
Si Si1 0.855285 0.249381 0.789669
Si Si2 0.854611 0.564002 0.257706
Si Si3 0.616823 0.996386 0.295396
Si Si4 0.567926 0.513511 0.617227
Si Si5 0.556335 0.511604 0.146563
Si Si6 0.129773 0.739551 0.638075
Si Si7 0.568282 0.026017 0.780720
Si Si8 0.902222 0.544506 0.776090
O O1 0.845803 0.295240 0.627587
O O2 0.854198 0.396335 0.085223
O O3 0.720820 0.322690 0.921514
O O4 0.000000 0.000000 0.500000
O O5 0.962766 0.525397 0.319121
O O6 0.707813 0.807023 0.596926
O O7 0.882420 0.545651 0.006960
O O8 0.547598 0.946447 0.141983
O O9 0.533389 0.235694 0.537376
O O10 0.594639 0.000067 0.523783
O O11 0.777263 0.792707 0.014391
O O12 0.457477 0.511745 0.643437
O O13 0.728843 0.359647 0.417564
O O14 0.550680 0.499054 0.875362
O O15 0.482064 0.759615 0.908834
O O16 0.101175 0.605531 0.507165
O O17 0.000000 0.000000 0.000000
#
# Coordination Sequence:
#
# PCOD9078589 Si02
#       8
#     2   2   2   2   2   2   2   2
#     4  11  24  40  65  98 130 162 210 271 321 369
#     4   9  19  33  58  94 121 154 210 266 308 369
#     4  10  18  35  66  90 117 159 214 272 311 358
#     4  12  27  42  65  95 131 174 215 257 325 388
#     4  12  23  41  66  98 126 164 218 272 319 368
#     4  11  24  43  62  92 135 173 209 254 317 393
#     4  10  18  36  62  89 123 160 211 263 314 368
#     4   9  19  34  60  89 121 164 210 252 314 372
#
# _framework density 24.233173000000001
#
# number of rings (size 3 to 8) (size 9 to 14) (size 15 to 20)
#    0.000    1.500    5.000    0.000    5.250    1.000 
#    0.000    0.625    2.750    1.500    0.000    0.000 
#    0.000    0.000    0.000    0.000    0.000    0.000 
#
# Total GULP energy -89307.901568 kJ/mol
# GULP energy per Si atom -5581.743848 kJ/mol
# Density = 2.417802 g / cm^3
# Si number density = 24.233173 Si / 1000 Ang^3
#
#
#
# Elastic Constant Matrix: (Units=GPa)
#
#
# Indices 1 2 3 4 5 6 
#
# 1 202.7458 84.6002 119.0398 30.0298 -1.0314 -38.4487
# 2 84.6002 101.1876 48.4277 3.6095 -8.8134 -33.8330
# 3 119.0398 48.4277 163.8378 36.0370 -3.4130 -21.0584
# 4 30.0298 3.6095 36.0370 66.1948 -0.8368 -4.6982
# 5 -1.0314 -8.8134 -3.4130 -0.8368 50.1700 -0.9291
# 6 -38.4487 -33.8330 -21.0584 -4.6982 -0.9291 52.2659
#
#
#
# Elastic Compliance Matrix: (Units=1/GPa)
#
#
# Indices 1 2 3 4 5 6 
#
# 1 0.011729 -0.006296 -0.006102 -0.001535 -0.001270 0.001934
# 2 -0.006296 0.017837 -0.000290 0.002584 0.003159 0.007087
# 3 -0.006102 -0.000290 0.011331 -0.003407 0.000530 -0.000408
# 4 -0.001535 0.002584 -0.003407 0.017577 0.000498 0.000760
# 5 -0.001270 0.003159 0.000530 0.000498 0.020538 0.001734
# 6 0.001934 0.007087 -0.000408 0.000760 0.001734 0.025078
#
#
# Mechanical properties :
#
#
# Convention : Reuss Voigt Hill
#
# Bulk Modulus (GPa) = 64.41994 107.98961 86.20477
# Shear Modulus (GPa) = 37.13624 48.10637 42.62130
#
# Velocity S-wave (km/s) = 3.91891 4.46033 4.19835
# Velocity P-wave (km/s) = 6.86427 8.43715 7.69102
#
# Compressibility (1/GPa) = 0.01552314
#
# Stress axis : x y z
#
# Youngs Moduli (GPa) = 85.25543 56.06171 88.25690
#
# Poissons Ratio (x) = 0.35294 0.53851
# Poissons Ratio (y) = 0.53673 0.02560
# Poissons Ratio (z) = 0.52020 0.01626
#
# Static dielectric constant tensor:
#      x y z
#    x 1.902790 0.139830 -0.124110 
#    y 0.139830 3.414760 -0.925200 
#    z -0.124110 -0.925200 2.485820 
# 
# From -- ./inp_files/314238.got.cif
#   From: 2010.05.17/outbox.cif.g08.bks.cpg/sg2_158_cif.got.tgz:314238.got - 2010.06.03 11:33:40.
