data_PCOD9078411
_publ_section_title
;
Structure prediction by ZEFSAII (Michael W. Deem and Ramdas Pophale) SiO2 
 PCOD9078411
Probable space group: P -1
;
_chemical_formula_sum "Si O2"
_cell_formula_units_Z 16
_cell_length_a 8.291438
_cell_length_b 17.332769
_cell_length_c 11.689293
_cell_angle_alpha 27.945406
_cell_angle_beta 64.800738
_cell_angle_gamma 56.482199
_cell_volume 648.019536
_symmetry_space_group_name_H-M "P -1"
_symmetry_group_IT_number 2
_symmetry_cell_setting 'triclinic'
loop_
_space_group_symop_operation_xyz
x,y,z
-x,-y,-z
loop_
_atom_site_type_symbol
_atom_site_label
_atom_site_fract_x
_atom_site_fract_y
_atom_site_fract_z
Si Si1 0.511182 0.471683 0.169676
Si Si2 0.580438 0.650675 0.246560
Si Si3 0.749805 0.074244 0.623632
Si Si4 0.290457 0.944514 0.081785
Si Si5 0.690352 0.173755 0.112827
Si Si6 0.058826 0.141889 0.694095
Si Si7 0.144187 0.131074 0.366577
Si Si8 0.132165 0.504805 0.819614
O O1 0.555209 0.261479 0.439036
O O2 0.696979 0.475230 0.180853
O O3 0.500000 0.500000 0.000000
O O4 0.330276 0.644123 0.053771
O O5 0.500000 0.500000 0.500000
O O6 0.507976 0.800104 0.172542
O O7 0.797175 0.551170 0.260900
O O8 0.474590 0.758780 0.022152
O O9 0.746374 0.003196 0.844302
O O10 0.939736 0.116135 0.479016
O O11 0.771094 0.937208 0.695953
O O12 0.160600 0.828738 0.248121
O O13 0.200627 0.105904 0.806211
O O14 0.871207 0.048779 0.144601
O O15 0.696056 0.023865 0.399220
O O16 0.045503 0.300386 0.405231
O O17 0.098602 0.341787 0.100325
#
# Coordination Sequence:
#
# PCOD9078411 Si02
#       8
#     2   2   2   2   2   2   2   2
#     4  11  21  37  59  88 126 161 202 242 307 375
#     4  10  19  34  59  90 119 154 208 257 303 362
#     4  11  22  42  63  91 125 166 206 257 318 371
#     4  10  18  35  62  89 117 161 213 255 306 365
#     4  10  20  35  59  89 122 156 207 249 307 370
#     4  10  19  34  62  92 119 157 212 260 300 360
#     4  11  24  40  63  90 130 165 204 257 318 374
#     4  11  23  40  61  96 127 161 210 259 307 369
#
# _framework density 24.690612999999999
#
# number of rings (size 3 to 8) (size 9 to 14) (size 15 to 20)
#    0.000    1.500    5.000    0.750    0.000    4.000 
#    0.000    2.500    0.000    0.000    0.000    0.000 
#    0.000    0.000    0.000    0.000    0.000    0.000 
#
# Total GULP energy -89165.717846 kJ/mol
# GULP energy per Si atom -5572.857365 kJ/mol
# Density = 2.463442 g / cm^3
# Si number density = 24.690613 Si / 1000 Ang^3
#
#
#
# Elastic Constant Matrix: (Units=GPa)
#
#
# Indices 1 2 3 4 5 6 
#
# 1 37.9972 20.4696 41.0782 0.0595 -16.4836 3.0008
# 2 20.4696 174.3976 56.0989 5.5864 6.0614 16.0402
# 3 41.0782 56.0989 186.1367 0.3055 -0.3517 19.4392
# 4 0.0595 5.5864 0.3055 56.2777 9.1043 7.0255
# 5 -16.4836 6.0614 -0.3517 9.1043 28.5814 4.4825
# 6 3.0008 16.0402 19.4392 7.0255 4.4825 18.5636
#
#
#
# Elastic Compliance Matrix: (Units=1/GPa)
#
#
# Indices 1 2 3 4 5 6 
#
# 1 0.054986 -0.003953 -0.010823 -0.005067 0.034102 -0.000456
# 2 -0.003953 0.006916 -0.000820 0.000326 -0.003263 -0.003813
# 3 -0.010823 -0.000820 0.008605 0.001678 -0.005581 -0.005840
# 4 -0.005067 0.000326 0.001678 0.019912 -0.008253 -0.006763
# 5 0.034102 -0.003263 -0.005581 -0.008253 0.059164 -0.008013
# 6 -0.000456 -0.003813 -0.005840 -0.006763 -0.008013 0.067847
#
#
# Mechanical properties :
#
#
# Convention : Reuss Voigt Hill
#
# Bulk Modulus (GPa) = 25.43687 70.42499 47.93093
# Shear Modulus (GPa) = 19.10388 39.41018 29.25703
#
# Velocity S-wave (km/s) = 2.78462 3.99953 3.44604
# Velocity P-wave (km/s) = 4.54570 7.06493 5.94040
#
# Compressibility (1/GPa) = 0.03931302
#
# Stress axis : x y z
#
# Youngs Moduli (GPa) = 18.18649 144.60132 116.21614
#
# Poissons Ratio (x) = 0.57168 1.25779
# Poissons Ratio (y) = 0.07190 0.09533
# Poissons Ratio (z) = 0.19683 0.11861
#
# Static dielectric constant tensor:
#      x y z
#    x 2.074040 -0.076740 0.026980 
#    y -0.076740 2.136340 -0.028480 
#    z 0.026980 -0.028480 2.010200 
# 
# From -- ./inp_files/467512.got.cif
#   From: 2010.05.17/outbox.cif.g08.bks.cpg/sg2_234_cif.got.tgz:467512.got - 2010.06.03 11:33:40.
