data_PCOD9078976
_publ_section_title
;
Structure prediction by ZEFSAII (Michael W. Deem and Ramdas Pophale) SiO2 
 PCOD9078976
Probable space group: P -1
;
_chemical_formula_sum "Si O2"
_cell_formula_units_Z 16
_cell_length_a 12.834223
_cell_length_b 16.572026
_cell_length_c 12.407854
_cell_angle_alpha 149.813121
_cell_angle_beta 135.809934
_cell_angle_gamma 28.989721
_cell_volume 634.799149
_symmetry_space_group_name_H-M "P -1"
_symmetry_group_IT_number 2
_symmetry_cell_setting 'triclinic'
loop_
_space_group_symop_operation_xyz
x,y,z
-x,-y,-z
loop_
_atom_site_type_symbol
_atom_site_label
_atom_site_fract_x
_atom_site_fract_y
_atom_site_fract_z
Si Si1 0.608139 0.488624 0.843182
Si Si2 0.558546 0.883977 0.753041
Si Si3 0.366466 0.779087 0.627419
Si Si4 0.045873 0.519156 0.676068
Si Si5 0.196851 0.098957 0.424635
Si Si6 0.212345 0.330196 0.889925
Si Si7 0.440197 0.368084 0.739475
Si Si8 0.765359 0.249274 0.289475
O O1 0.714984 0.278358 0.593688
O O2 0.555502 0.432857 0.848539
O O3 0.372620 0.707253 0.863962
O O4 0.748276 0.540864 0.002751
O O5 0.407223 0.921611 0.774640
O O6 0.567682 0.743140 0.500892
O O7 0.807706 0.717371 0.780589
O O8 0.428734 0.134247 0.895926
O O9 0.613120 0.517657 0.526993
O O10 0.232884 0.865467 0.737383
O O11 0.186655 0.259594 0.525206
O O12 0.192871 0.561897 0.821860
O O13 0.000000 0.500000 0.500000
O O14 0.175559 0.202387 0.643071
O O15 0.996058 0.138744 0.300055
O O16 0.415303 0.828826 0.288681
O O17 0.000000 0.500000 0.000000
#
# Coordination Sequence:
#
# PCOD9078976 Si02
#       8
#     2   2   2   2   2   2   2   2
#     4   9  18  37  52  77 112 150 182 223 272 341
#     4   9  18  35  55  82 109 151 188 221 272 340
#     4   8  15  30  57  74 101 144 199 226 257 312
#     4  10  18  36  61  84 106 140 190 242 273 321
#     4  11  20  35  59  90 111 139 187 236 274 327
#     4  11  24  36  54  83 125 150 175 224 285 328
#     4   9  19  33  59  83 107 140 185 237 285 315
#     4   9  16  30  58  75 106 145 193 224 264 316
#
# _framework density 25.204820999999999
#
# number of rings (size 3 to 8) (size 9 to 14) (size 15 to 20)
#    0.750    1.750    1.250    1.875    0.000    1.000 
#    0.000    8.750    0.000    0.000    0.000    0.000 
#    0.000    0.000    0.000    0.000    0.000    0.000 
#
# Total GULP energy -89423.456834 kJ/mol
# GULP energy per Si atom -5588.966052 kJ/mol
# Density = 2.514745 g / cm^3
# Si number density = 25.204821 Si / 1000 Ang^3
#
#
#
# Elastic Constant Matrix: (Units=GPa)
#
#
# Indices 1 2 3 4 5 6 
#
# 1 115.4446 27.7139 26.9910 3.8312 32.7355 0.1947
# 2 27.7139 76.2235 31.9332 -13.1212 11.0896 -11.3026
# 3 26.9910 31.9332 84.5256 -3.9040 13.5071 -13.8862
# 4 3.8312 -13.1212 -3.9040 31.5119 -2.4221 13.2319
# 5 32.7355 11.0896 13.5071 -2.4221 36.8267 -1.6700
# 6 0.1947 -11.3026 -13.8862 13.2319 -1.6700 39.8247
#
#
#
# Elastic Compliance Matrix: (Units=1/GPa)
#
#
# Indices 1 2 3 4 5 6 
#
# 1 0.012783 -0.003267 -0.001525 -0.003559 -0.010088 -0.000762
# 2 -0.003267 0.017802 -0.005194 0.006734 -0.000063 0.001017
# 3 -0.001525 -0.005194 0.015341 -0.002166 -0.002645 0.004491
# 4 -0.003559 0.006734 -0.002166 0.040033 0.004021 -0.011959
# 5 -0.010088 -0.000063 -0.002645 0.004021 0.037346 -0.000661
# 6 -0.000762 0.001017 0.004491 -0.011959 -0.000661 0.030914
#
#
# Mechanical properties :
#
#
# Convention : Reuss Voigt Hill
#
# Bulk Modulus (GPa) = 38.53018 49.94110 44.23564
# Shear Modulus (GPa) = 27.34589 34.26967 30.80778
#
# Velocity S-wave (km/s) = 3.29743 3.69134 3.49993
# Velocity P-wave (km/s) = 5.46053 6.16645 5.82419
#
# Compressibility (1/GPa) = 0.02595368
#
# Stress axis : x y z
#
# Youngs Moduli (GPa) = 78.22867 56.17221 65.18619
#
# Poissons Ratio (x) = 0.18349 0.09943
# Poissons Ratio (y) = 0.25554 0.33860
# Poissons Ratio (z) = 0.11932 0.29178
#
# Static dielectric constant tensor:
#      x y z
#    x 1.989490 0.052590 -0.012820 
#    y 0.052590 2.081830 -0.046970 
#    z -0.012820 -0.046970 2.064630 
# 
# From -- ./inp_files/570184.got.cif
#   From: 2010.05.17/outbox.cif.g08.bks.cpg/sg2_286_cif.got.tgz:570184.got - 2010.06.03 11:33:40.
