data_PCOD9078607
_publ_section_title
;
Structure prediction by ZEFSAII (Michael W. Deem and Ramdas Pophale) SiO2 
 PCOD9078607
Probable space group: P -1
;
_chemical_formula_sum "Si O2"
_cell_formula_units_Z 16
_cell_length_a 8.512984
_cell_length_b 8.328728
_cell_length_c 10.280069
_cell_angle_alpha 72.658446
_cell_angle_beta 85.545974
_cell_angle_gamma 90.199883
_cell_volume 693.376519
_symmetry_space_group_name_H-M "P -1"
_symmetry_group_IT_number 2
_symmetry_cell_setting 'triclinic'
loop_
_space_group_symop_operation_xyz
x,y,z
-x,-y,-z
loop_
_atom_site_type_symbol
_atom_site_label
_atom_site_fract_x
_atom_site_fract_y
_atom_site_fract_z
Si Si1 0.826546 0.455185 0.082596
Si Si2 0.112806 0.186480 0.954415
Si Si3 0.443565 0.315602 0.517728
Si Si4 0.545387 0.053121 0.783278
Si Si5 0.858479 0.850767 0.468614
Si Si6 0.753949 0.165560 0.976169
Si Si7 0.335358 0.826753 0.685137
Si Si8 0.890878 0.949320 0.723038
O O1 0.791781 0.318671 0.231759
O O2 0.785806 0.639897 0.093067
O O3 0.736393 0.348323 0.001188
O O4 0.000000 0.500000 0.000000
O O5 0.079328 0.143420 0.120769
O O6 0.206977 0.028475 0.930833
O O7 0.937164 0.198313 0.903444
O O8 0.500000 0.500000 0.500000
O O9 0.482986 0.202337 0.665529
O O10 0.256871 0.304639 0.512454
O O11 0.535396 0.241705 0.405303
O O12 0.607938 0.125017 0.899603
O O13 0.424211 0.897452 0.793704
O O14 0.709601 0.993053 0.728249
O O15 0.914326 0.845273 0.614639
O O16 0.750416 0.015512 0.412078
O O17 0.000741 0.886256 0.353048
#
# Coordination Sequence:
#
# PCOD9078607 Si02
#       8
#     2   2   2   2   2   2   2   2
#     4  10  21  39  61  88 125 164 208 256 307 368
#     4   9  19  37  59  89 129 158 204 258 306 366
#     4  11  23  42  59  93 127 163 206 258 315 378
#     4  10  20  41  66  87 129 160 208 260 310 380
#     4  10  19  36  66  88 118 160 206 252 315 376
#     4   9  19  37  60  90 118 165 205 249 310 367
#     4  11  21  42  64  88 123 170 205 255 322 369
#     4  10  18  35  67  92 116 161 207 255 310 371
#
# _framework density 23.075486999999999
#
# number of rings (size 3 to 8) (size 9 to 14) (size 15 to 20)
#    0.000    2.000    2.500    2.250    0.000    1.500 
#   15.750    4.375    0.000    0.000    0.000    0.000 
#    0.000    0.000    0.000    0.000    0.000    0.000 
#
# Total GULP energy -89102.837830 kJ/mol
# GULP energy per Si atom -5568.927364 kJ/mol
# Density = 2.302297 g / cm^3
# Si number density = 23.075487 Si / 1000 Ang^3
#
#
#
# Elastic Constant Matrix: (Units=GPa)
#
#
# Indices 1 2 3 4 5 6 
#
# 1 69.2976 40.0308 13.1710 0.4941 -3.7405 29.9483
# 2 40.0308 193.4660 33.2958 -14.6006 -4.4060 37.5427
# 3 13.1710 33.2958 71.4695 -2.4188 -1.2736 26.6149
# 4 0.4941 -14.6006 -2.4188 35.6717 15.6860 -8.7402
# 5 -3.7405 -4.4060 -1.2736 15.6860 26.6248 1.8503
# 6 29.9483 37.5427 26.6149 -8.7402 1.8503 39.9367
#
#
#
# Elastic Compliance Matrix: (Units=1/GPa)
#
#
# Indices 1 2 3 4 5 6 
#
# 1 0.025810 -0.002210 0.004948 -0.012182 0.012329 -0.023812
# 2 -0.002210 0.006634 -0.001436 0.001964 -0.000217 -0.003183
# 3 0.004948 -0.001436 0.020161 -0.006390 0.006402 -0.017491
# 4 -0.012182 0.001964 -0.006390 0.048346 -0.031816 0.023602
# 5 0.012329 -0.000217 0.006402 -0.031816 0.059907 -0.023046
# 6 -0.023812 -0.003183 -0.017491 0.023602 -0.023046 0.063778
#
#
# Mechanical properties :
#
#
# Convention : Reuss Voigt Hill
#
# Bulk Modulus (GPa) = 18.11280 56.35872 37.23576
# Shear Modulus (GPa) = 20.79572 36.96232 28.87902
#
# Velocity S-wave (km/s) = 3.00526 4.00659 3.54150
# Velocity P-wave (km/s) = 4.46190 6.77350 5.73537
#
# Compressibility (1/GPa) = 0.05520959
#
# Stress axis : x y z
#
# Youngs Moduli (GPa) = 38.74485 150.73729 49.60194
#
# Poissons Ratio (x) = 0.33309 -0.24543
# Poissons Ratio (y) = 0.08562 0.07121
# Poissons Ratio (z) = -0.19171 0.21640
#
# Static dielectric constant tensor:
#      x y z
#    x 1.927880 0.009800 -0.050710 
#    y 0.009800 1.938270 0.017050 
#    z -0.050710 0.017050 2.021570 
# 
# From -- ./inp_files/381709.got.cif
#   From: 2010.05.17/outbox.cif.g08.bks.cpg/sg2_191_cif.got.tgz:381709.got - 2010.06.03 11:33:40.
