data_PCOD9078648
_publ_section_title
;
Structure prediction by ZEFSAII (Michael W. Deem and Ramdas Pophale) SiO2 
 PCOD9078648
Probable space group: P -1
;
_chemical_formula_sum "Si O2"
_cell_formula_units_Z 15
_cell_length_a 10.229995
_cell_length_b 7.100573
_cell_length_c 11.319203
_cell_angle_alpha 88.030053
_cell_angle_beta 80.537566
_cell_angle_gamma 128.690319
_cell_volume 622.911219
_symmetry_space_group_name_H-M "P -1"
_symmetry_group_IT_number 2
_symmetry_cell_setting 'triclinic'
loop_
_space_group_symop_operation_xyz
x,y,z
-x,-y,-z
loop_
_atom_site_type_symbol
_atom_site_label
_atom_site_fract_x
_atom_site_fract_y
_atom_site_fract_z
Si Si1 0.539561 0.328219 0.414399
Si Si2 0.257733 0.387103 0.016495
Si Si3 0.000000 0.500000 0.500000
Si Si4 0.918290 0.059585 0.690261
Si Si5 0.111815 0.987387 0.849167
Si Si6 0.730117 0.115934 0.366872
Si Si7 0.434472 0.292495 0.180257
Si Si8 0.183025 0.375435 0.454427
O O1 0.640442 0.234116 0.355488
O O2 0.494566 0.397580 0.300818
O O3 0.669028 0.550030 0.479886
O O4 0.384943 0.106955 0.519932
O O5 0.358398 0.399870 0.115465
O O6 0.066662 0.281451 0.082162
O O7 0.400757 0.633243 0.917314
O O8 0.208255 0.165728 0.942536
O O9 0.088410 0.684116 0.601743
O O10 0.203063 0.609733 0.416137
O O11 0.742726 0.984615 0.768575
O O12 0.867704 0.828911 0.624877
O O13 0.043175 0.097993 0.773310
O O14 0.017325 0.274507 0.572438
O O15 0.233991 0.968136 0.754617
#
# Coordination Sequence:
#
# PCOD9078648 Si02
#       8
#     2   2   1   2   2   2   2   2
#     4  10  22  36  55  86 124 149 183 230 298 357
#     4   9  21  37  58  81 107 152 201 244 281 318
#     4  10  18  36  54  76 124 150 178 228 280 360
#     4  10  20  32  56  85 111 147 190 233 288 338
#     4  10  19  38  59  80 112 148 197 247 276 334
#     4  10  21  37  58  87 117 154 188 228 297 358
#     4  10  20  37  55  80 117 147 188 245 283 334
#     4  10  20  32  51  88 115 148 186 223 290 358
#
# _framework density 24.080476999999998
#
# number of rings (size 3 to 8) (size 9 to 14) (size 15 to 20)
#    0.000    2.133    1.333    1.600    3.733    0.533 
#    0.000    1.333    0.000    0.000    0.000    0.000 
#    0.000    0.000    0.000    0.000    0.000    0.000 
#
# Total GULP energy -83606.902130 kJ/mol
# GULP energy per Si atom -5573.793475 kJ/mol
# Density = 2.402567 g / cm^3
# Si number density = 24.080477 Si / 1000 Ang^3
#
#
#
# Elastic Constant Matrix: (Units=GPa)
#
#
# Indices 1 2 3 4 5 6 
#
# 1 79.6760 33.0503 38.9050 10.1961 1.2728 4.5694
# 2 33.0503 60.8248 32.4442 -3.9809 1.7024 6.6297
# 3 38.9050 32.4442 137.1302 -3.7288 5.6850 6.6045
# 4 10.1961 -3.9809 -3.7288 53.2726 20.7203 -4.6923
# 5 1.2728 1.7024 5.6850 20.7203 39.8942 0.1222
# 6 4.5694 6.6297 6.6045 -4.6923 0.1222 33.5029
#
#
#
# Elastic Compliance Matrix: (Units=1/GPa)
#
#
# Indices 1 2 3 4 5 6 
#
# 1 0.018561 -0.008596 -0.003480 -0.005802 0.003287 -0.000969
# 2 -0.008596 0.023135 -0.002721 0.003889 -0.002338 -0.002316
# 3 -0.003480 -0.002721 0.009082 0.001839 -0.002021 -0.000512
# 4 -0.005802 0.003889 0.001839 0.025933 -0.013722 0.003341
# 5 0.003287 -0.002338 -0.002021 -0.013722 0.032481 -0.001628
# 6 -0.000969 -0.002316 -0.000512 0.003341 -0.001628 0.031014
#
#
# Mechanical properties :
#
#
# Convention : Reuss Voigt Hill
#
# Bulk Modulus (GPa) = 47.20140 54.04779 50.62460
# Shear Modulus (GPa) = 28.27116 36.88271 32.57693
#
# Velocity S-wave (km/s) = 3.43013 3.91787 3.68208
# Velocity P-wave (km/s) = 5.94405 6.55436 6.25665
#
# Compressibility (1/GPa) = 0.02118581
#
# Stress axis : x y z
#
# Youngs Moduli (GPa) = 53.87648 43.22481 110.11153
#
# Poissons Ratio (x) = 0.37154 0.38315
# Poissons Ratio (y) = 0.46310 0.29958
# Poissons Ratio (z) = 0.18747 0.11760
#
# Static dielectric constant tensor:
#      x y z
#    x 2.120560 0.038550 -0.000440 
#    y 0.038550 2.000670 -0.068120 
#    z -0.000440 -0.068120 1.981640 
# 
# From -- ./inp_files/277734.got.cif
#   From: 2010.05.17/outbox.cif.g08.bks.cpg/sg2_139_cif.got.tgz:277734.got - 2010.06.03 11:33:40.
