data_PCOD9078503
_publ_section_title
;
Structure prediction by ZEFSAII (Michael W. Deem and Ramdas Pophale) SiO2 
 PCOD9078503
Probable space group: P -1
;
_chemical_formula_sum "Si O2"
_cell_formula_units_Z 16
_cell_length_a 15.681853
_cell_length_b 9.144952
_cell_length_c 11.519058
_cell_angle_alpha 75.913612
_cell_angle_beta 150.561235
_cell_angle_gamma 115.177938
_cell_volume 704.135718
_symmetry_space_group_name_H-M "P -1"
_symmetry_group_IT_number 2
_symmetry_cell_setting 'triclinic'
loop_
_space_group_symop_operation_xyz
x,y,z
-x,-y,-z
loop_
_atom_site_type_symbol
_atom_site_label
_atom_site_fract_x
_atom_site_fract_y
_atom_site_fract_z
Si Si1 0.989708 0.175133 0.472310
Si Si2 0.076870 0.180090 0.995012
Si Si3 0.576459 0.738447 0.784412
Si Si4 0.196957 0.799339 0.520096
Si Si5 0.399065 0.937741 0.108100
Si Si6 0.368021 0.817556 0.328828
Si Si7 0.061851 0.361788 0.145842
Si Si8 0.727264 0.517621 0.385395
O O1 0.944651 0.204833 0.544621
O O2 0.188504 0.327534 0.633185
O O3 0.798939 0.158742 0.178658
O O4 0.000000 0.000000 0.500000
O O5 0.895761 0.191468 0.715485
O O6 0.233844 0.218726 0.073246
O O7 0.170227 0.316957 0.181150
O O8 0.000000 0.000000 0.000000
O O9 0.411530 0.704069 0.495485
O O10 0.490398 0.580962 0.801579
O O11 0.607505 0.903018 0.863623
O O12 0.228883 0.631995 0.584754
O O13 0.401238 0.966882 0.744532
O O14 0.421245 0.818073 0.256802
O O15 0.500000 0.000000 0.500000
O O16 0.150962 0.795886 0.070443
O O17 0.149034 0.400773 0.367921
O O18 0.000000 0.500000 0.000000
#
# Coordination Sequence:
#
# PCOD9078503 Si02
#       8
#     2   2   2   2   2   2   2   2
#     4  12  26  44  68  97 126 166 225 284 321 371
#     4  12  24  39  68 103 136 167 210 271 327 376
#     4  10  21  38  63  98 136 169 207 266 329 376
#     4  11  24  45  67  94 128 177 219 257 326 396
#     4  10  20  40  66  93 128 170 218 261 317 393
#     4  10  18  35  63  94 127 170 208 253 318 389
#     4  12  21  40  64  93 132 172 214 257 321 397
#     4  11  24  45  65  91 132 177 215 263 325 398
#
# _framework density 22.722892999999999
#
# number of rings (size 3 to 8) (size 9 to 14) (size 15 to 20)
#    0.000    1.000    3.750    5.250    1.750    0.500 
#    0.000    8.125    0.000    0.000    0.000    0.000 
#    0.000    0.000    0.000    0.000    0.000    0.000 
#
# Total GULP energy -89364.530806 kJ/mol
# GULP energy per Si atom -5585.283175 kJ/mol
# Density = 2.267117 g / cm^3
# Si number density = 22.722893 Si / 1000 Ang^3
#
#
#
# Elastic Constant Matrix: (Units=GPa)
#
#
# Indices 1 2 3 4 5 6 
#
# 1 144.8518 51.7761 11.9286 9.0489 9.9804 16.2785
# 2 51.7761 86.8315 -2.7702 2.6888 10.8134 21.0246
# 3 11.9286 -2.7702 77.4849 9.7168 -11.8256 12.0980
# 4 9.0489 2.6888 9.7168 21.3652 4.1123 3.4400
# 5 9.9804 10.8134 -11.8256 4.1123 46.5763 9.3022
# 6 16.2785 21.0246 12.0980 3.4400 9.3022 40.4703
#
#
#
# Elastic Compliance Matrix: (Units=1/GPa)
#
#
# Indices 1 2 3 4 5 6 
#
# 1 0.009127 -0.005281 -0.001410 -0.002378 -0.000856 -0.000107
# 2 -0.005281 0.016521 0.002341 0.000366 -0.000740 -0.007019
# 3 -0.001410 0.002341 0.015901 -0.007032 0.005635 -0.006100
# 4 -0.002378 0.000366 -0.007032 0.052137 -0.005924 -0.000202
# 5 -0.000856 -0.000740 0.005635 -0.005924 0.025018 -0.006202
# 6 -0.000107 -0.007019 -0.006100 -0.000202 -0.006202 0.031665
#
#
# Mechanical properties :
#
#
# Convention : Reuss Voigt Hill
#
# Bulk Modulus (GPa) = 30.44284 47.89303 39.16793
# Shear Modulus (GPa) = 29.40881 38.23126 33.82004
#
# Velocity S-wave (km/s) = 3.60145 4.10628 3.86212
# Velocity P-wave (km/s) = 5.54261 6.60339 6.09612
#
# Compressibility (1/GPa) = 0.03284845
#
# Stress axis : x y z
#
# Youngs Moduli (GPa) = 109.56601 60.53072 62.89090
#
# Poissons Ratio (x) = 0.31966 0.08865
# Poissons Ratio (y) = 0.57861 -0.14721
# Poissons Ratio (z) = 0.15444 -0.14169
#
# Static dielectric constant tensor:
#      x y z
#    x 1.665210 0.002360 -0.184490 
#    y 0.002360 1.871400 -0.015870 
#    z -0.184490 -0.015870 1.752590 
# 
# From -- ./inp_files/297540.got.cif
#   From: 2010.05.17/outbox.cif.g08.bks.cpg/sg2_149_cif.got.tgz:297540.got - 2010.06.03 11:33:40.
