data_PCOD9078073
_publ_section_title
;
Structure prediction by ZEFSAII (Michael W. Deem and Ramdas Pophale) SiO2 
 PCOD9078073
Probable space group: P -1
;
_chemical_formula_sum "Si O2"
_cell_formula_units_Z 16
_cell_length_a 25.307881
_cell_length_b 8.792260
_cell_length_c 9.365876
_cell_angle_alpha 67.551987
_cell_angle_beta 27.630520
_cell_angle_gamma 61.599623
_cell_volume 846.181163
_symmetry_space_group_name_H-M "P -1"
_symmetry_group_IT_number 2
_symmetry_cell_setting 'triclinic'
loop_
_space_group_symop_operation_xyz
x,y,z
-x,-y,-z
loop_
_atom_site_type_symbol
_atom_site_label
_atom_site_fract_x
_atom_site_fract_y
_atom_site_fract_z
Si Si1 0.880564 0.381605 0.450136
Si Si2 0.511118 0.338129 0.715386
Si Si3 0.633788 0.302921 0.127918
Si Si4 0.090785 0.100624 0.193875
Si Si5 0.117313 0.856530 0.713816
Si Si6 0.272635 0.240070 0.262315
Si Si7 0.240488 0.056388 0.132765
Si Si8 0.262860 0.912488 0.588581
O O1 0.898066 0.306737 0.273996
O O2 0.836130 0.587937 0.497859
O O3 0.002327 0.279916 0.277512
O O4 0.765966 0.327306 0.802875
O O5 0.582872 0.328077 0.399628
O O6 0.452307 0.542911 0.817777
O O7 0.606039 0.212027 0.638298
O O8 0.396968 0.274564 0.984927
O O9 0.645174 0.109945 0.119900
O O10 0.169348 0.123037 0.133054
O O11 0.000000 0.000000 0.500000
O O12 0.179023 0.987989 0.900075
O O13 0.204327 0.807857 0.658380
O O14 0.164564 0.963861 0.444346
O O15 0.000000 0.000000 0.000000
O O16 0.266244 0.194828 0.126637
O O17 0.267656 0.078051 0.426636
#
# Coordination Sequence:
#
# PCOD9078073 Si02
#       8
#     2   2   2   2   2   2   2   2
#     4  10  20  37  59  84 116 147 185 232 288 326
#     4  10  19  37  60  81 113 149 191 235 280 320
#     4   9  18  35  61  84 106 143 194 238 271 324
#     4  12  19  35  65  83 111 143 194 237 272 332
#     4  10  18  35  58  83 108 145 187 232 280 329
#     4  10  24  38  54  80 124 154 179 227 288 340
#     4  10  20  36  55  88 110 148 189 226 286 333
#     4  11  21  36  58  87 111 148 191 226 285 340
#
# _framework density 18.908481999999999
#
# number of rings (size 3 to 8) (size 9 to 14) (size 15 to 20)
#    0.000    1.750    5.000    0.375    0.000    1.500 
#    0.000   11.250    8.250    0.000    0.000    0.000 
#    0.000    0.000    0.000    0.000    0.000    0.000 
#
# Total GULP energy -89217.585443 kJ/mol
# GULP energy per Si atom -5576.099090 kJ/mol
# Density = 1.886545 g / cm^3
# Si number density = 18.908482 Si / 1000 Ang^3
#
#
#
# Elastic Constant Matrix: (Units=GPa)
#
#
# Indices 1 2 3 4 5 6 
#
# 1 167.4777 78.3630 38.2676 34.8727 -6.7870 -8.6993
# 2 78.3630 107.6985 16.3601 44.0835 -19.2673 -5.3026
# 3 38.2676 16.3601 60.2471 22.8892 -4.4313 -5.1799
# 4 34.8727 44.0835 22.8892 37.0738 -6.6964 -0.6773
# 5 -6.7870 -19.2673 -4.4313 -6.6964 21.2095 7.5683
# 6 -8.6993 -5.3026 -5.1799 -0.6773 7.5683 26.7520
#
#
#
# Elastic Compliance Matrix: (Units=1/GPa)
#
#
# Indices 1 2 3 4 5 6 
#
# 1 0.010885 -0.009490 -0.005986 0.003691 -0.006044 0.002303
# 2 -0.009490 0.029932 0.010527 -0.030087 0.017110 -0.000717
# 3 -0.005986 0.010527 0.026713 -0.022423 0.004956 0.003342
# 4 0.003691 -0.030087 -0.022423 0.071908 -0.006154 -0.005543
# 5 -0.006044 0.017110 0.004956 -0.006154 0.065686 -0.016353
# 6 0.002303 -0.000717 0.003342 -0.005543 -0.016353 0.043120
#
#
# Mechanical properties :
#
#
# Convention : Reuss Voigt Hill
#
# Bulk Modulus (GPa) = 17.35124 66.82273 42.08699
# Shear Modulus (GPa) = 18.02772 30.50257 24.26514
#
# Velocity S-wave (km/s) = 3.09110 4.02078 3.58620
# Velocity P-wave (km/s) = 4.68361 7.54801 6.28127
#
# Compressibility (1/GPa) = 0.05763276
#
# Stress axis : x y z
#
# Youngs Moduli (GPa) = 91.86974 33.40931 37.43543
#
# Poissons Ratio (x) = 0.31704 0.22408
# Poissons Ratio (y) = 0.87180 -0.39409
# Poissons Ratio (z) = 0.54992 -0.35170
#
# Static dielectric constant tensor:
#      x y z
#    x 1.719040 0.026190 0.044780 
#    y 0.026190 1.699310 0.033730 
#    z 0.044780 0.033730 1.728370 
# 
# From -- ./inp_files/196547.got.cif
#   From: 2010.05.17/outbox.cif.g08.bks.cpg/sg2_99_cif.got.tgz:196547.got - 2010.06.03 11:33:40.
