data_PCOD9078014
_publ_section_title
;
Structure prediction by ZEFSAII (Michael W. Deem and Ramdas Pophale) SiO2 
 PCOD9078014
Probable space group: P -1
;
_chemical_formula_sum "Si O2"
_cell_formula_units_Z 14
_cell_length_a 9.890158
_cell_length_b 11.213263
_cell_length_c 14.234324
_cell_angle_alpha 135.246341
_cell_angle_beta 31.820922
_cell_angle_gamma 138.317444
_cell_volume 540.508846
_symmetry_space_group_name_H-M "P -1"
_symmetry_group_IT_number 2
_symmetry_cell_setting 'triclinic'
loop_
_space_group_symop_operation_xyz
x,y,z
-x,-y,-z
loop_
_atom_site_type_symbol
_atom_site_label
_atom_site_fract_x
_atom_site_fract_y
_atom_site_fract_z
Si Si1 0.501035 0.805685 0.422004
Si Si2 0.124409 0.667261 0.090624
Si Si3 0.814600 0.440406 0.689123
Si Si4 0.862673 0.788973 0.581066
Si Si5 0.141022 0.957583 0.109127
Si Si6 0.589190 0.738401 0.007009
Si Si7 0.688494 0.821159 0.517297
O O1 0.274248 0.642906 0.408477
O O2 0.185071 0.171594 0.777396
O O3 0.500000 0.000000 0.500000
O O4 0.524811 0.217665 0.463523
O O5 0.890093 0.715227 0.310653
O O6 0.260775 0.840654 0.038006
O O7 0.339935 0.649166 0.028460
O O8 0.000000 0.500000 0.000000
O O9 0.807372 0.640297 0.815138
O O10 0.063319 0.387106 0.550035
O O11 0.553013 0.311107 0.835993
O O12 0.836932 0.867532 0.741661
O O13 0.623943 0.767658 0.633852
O O14 0.129444 0.959987 0.477347
O O15 0.276989 0.047780 0.981773
#
# Coordination Sequence:
#
# PCOD9078014 Si02
#       7
#     2   2   2   2   2   2   2
#     4  10  18  35  57  86 109 152 194 235 287 339
#     4  10  19  37  60  84 116 155 190 232 293 354
#     4  11  21  37  61  81 119 159 195 229 292 352
#     4   9  17  35  57  84 105 155 193 235 279 341
#     4  10  22  36  60  88 116 149 197 246 285 332
#     4  11  23  36  56  91 118 152 194 240 290 344
#     4   9  17  31  60  82 105 144 201 230 271 345
#
# _framework density 25.901517999999999
#
# number of rings (size 3 to 8) (size 9 to 14) (size 15 to 20)
#    0.000    2.286    4.286    2.143    0.000    1.143 
#    0.000    0.000    0.000    3.429    0.000    0.000 
#    0.000    0.000    0.000    0.000    0.000    0.000 
#
# Total GULP energy -78349.019520 kJ/mol
# GULP energy per Si atom -5596.358537 kJ/mol
# Density = 2.584256 g / cm^3
# Si number density = 25.901518 Si / 1000 Ang^3
#
#
#
# Elastic Constant Matrix: (Units=GPa)
#
#
# Indices 1 2 3 4 5 6 
#
# 1 156.9244 27.7055 14.2231 4.6489 -7.0473 -16.0924
# 2 27.7055 72.6046 10.6604 14.2212 5.5268 -9.3305
# 3 14.2231 10.6604 64.0647 18.1331 -6.7888 -11.1105
# 4 4.6489 14.2212 18.1331 36.7397 -9.2057 -2.4599
# 5 -7.0473 5.5268 -6.7888 -9.2057 35.2745 1.4345
# 6 -16.0924 -9.3305 -11.1105 -2.4599 1.4345 46.4811
#
#
#
# Elastic Compliance Matrix: (Units=1/GPa)
#
#
# Indices 1 2 3 4 5 6 
#
# 1 0.007174 -0.002766 -0.000986 0.001248 0.001933 0.001699
# 2 -0.002766 0.016969 -0.000351 -0.007217 -0.005250 0.002145
# 3 -0.000986 -0.000351 0.019083 -0.008630 0.001130 0.003658
# 4 0.001248 -0.007217 -0.008630 0.036337 0.009261 -0.001442
# 5 0.001933 -0.005250 0.001130 0.009261 0.032217 -0.000619
# 6 0.001699 0.002145 0.003658 -0.001442 -0.000619 0.023350
#
#
# Mechanical properties :
#
#
# Convention : Reuss Voigt Hill
#
# Bulk Modulus (GPa) = 28.55514 44.30797 36.43155
# Shear Modulus (GPa) = 32.25557 39.76602 36.01080
#
# Velocity S-wave (km/s) = 3.53273 3.92251 3.73271
# Velocity P-wave (km/s) = 5.26200 6.13663 5.71607
#
# Compressibility (1/GPa) = 0.03501997
#
# Stress axis : x y z
#
# Youngs Moduli (GPa) = 139.38527 58.93052 52.40157
#
# Poissons Ratio (x) = 0.16301 0.05167
# Poissons Ratio (y) = 0.38556 0.01840
# Poissons Ratio (z) = 0.13745 0.02070
#
# Static dielectric constant tensor:
#      x y z
#    x 2.068630 0.008260 0.005550 
#    y 0.008260 2.036510 -0.075460 
#    z 0.005550 -0.075460 2.097380 
# 
# From -- ./inp_files/568225.got.cif
#   From: 2010.05.17/outbox.cif.g08.bks.cpg/sg2_285_cif.got.tgz:568225.got - 2010.06.03 11:33:40.
