data_PCOD9078908
_publ_section_title
;
Structure prediction by ZEFSAII (Michael W. Deem and Ramdas Pophale) SiO2 
 PCOD9078908
Probable space group: P -1
;
_chemical_formula_sum "Si O2"
_cell_formula_units_Z 15
_cell_length_a 6.280050
_cell_length_b 9.922955
_cell_length_c 19.097331
_cell_angle_alpha 118.584360
_cell_angle_beta 100.072667
_cell_angle_gamma 43.969371
_cell_volume 696.946269
_symmetry_space_group_name_H-M "P -1"
_symmetry_group_IT_number 2
_symmetry_cell_setting 'triclinic'
loop_
_space_group_symop_operation_xyz
x,y,z
-x,-y,-z
loop_
_atom_site_type_symbol
_atom_site_label
_atom_site_fract_x
_atom_site_fract_y
_atom_site_fract_z
Si Si1 0.521259 0.345957 0.554977
Si Si2 0.337401 0.794999 0.123608
Si Si3 0.953310 0.170632 0.403448
Si Si4 0.168396 0.733235 0.310307
Si Si5 0.500000 0.000000 0.500000
Si Si6 0.152129 0.708340 0.824830
Si Si7 0.415286 0.410108 0.061911
Si Si8 0.942765 0.551859 0.187710
O O1 0.682010 0.264627 0.467964
O O2 0.219837 0.617588 0.604219
O O3 0.795715 0.262784 0.603524
O O4 0.437931 0.218149 0.540632
O O5 0.256719 0.658314 0.097348
O O6 0.596323 0.706784 0.173775
O O7 0.505564 0.713307 0.036496
O O8 0.044137 0.062632 0.170412
O O9 0.244338 0.093818 0.443662
O O10 0.062112 0.949509 0.324514
O O11 0.518652 0.506343 0.247263
O O12 0.951709 0.702854 0.270249
O O13 0.260600 0.719325 0.909266
O O14 0.970956 0.643134 0.810875
O O15 0.188617 0.439923 0.109737
#
# Coordination Sequence:
#
# PCOD9078908 Si02
#       8
#     2   2   2   2   1   2   2   2
#     4  10  22  39  62  86 110 147 188 229 280 333
#     4  10  20  37  60  84 111 148 192 233 279 332
#     4  10  22  40  61  85 111 146 189 230 278 334
#     4  10  22  38  55  81 121 150 179 232 281 331
#     4  10  18  36  60  86 112 134 176 232 274 322
#     4  10  22  36  55  84 114 150 190 229 281 335
#     4   9  20  38  58  82 114 147 187 240 281 323
#     4  10  22  37  55  84 115 149 189 229 277 332
#
# _framework density 21.522462999999998
#
# number of rings (size 3 to 8) (size 9 to 14) (size 15 to 20)
#    0.000    2.133    0.000    2.800    0.000   11.200 
#    0.000    2.667    0.000    1.600    0.000    0.000 
#    0.000    0.000    0.000    0.000    0.000    0.000 
#
# Total GULP energy -83584.596808 kJ/mol
# GULP energy per Si atom -5572.306454 kJ/mol
# Density = 2.147348 g / cm^3
# Si number density = 21.522463 Si / 1000 Ang^3
#
#
#
# Elastic Constant Matrix: (Units=GPa)
#
#
# Indices 1 2 3 4 5 6 
#
# 1 40.2419 18.0742 20.8417 9.3973 10.1847 5.2336
# 2 18.0742 128.2869 17.4813 28.6689 9.5465 11.4313
# 3 20.8417 17.4813 57.6776 19.0993 13.3845 5.1245
# 4 9.3973 28.6689 19.0993 31.9974 -0.7666 -0.4188
# 5 10.1847 9.5465 13.3845 -0.7666 27.5200 -4.5830
# 6 5.2336 11.4313 5.1245 -0.4188 -4.5830 17.6193
#
#
#
# Elastic Compliance Matrix: (Units=1/GPa)
#
#
# Indices 1 2 3 4 5 6 
#
# 1 0.034219 -0.000871 -0.006723 -0.005659 -0.011022 -0.010645
# 2 -0.000871 0.011842 0.003786 -0.012943 -0.007796 -0.010861
# 3 -0.006723 0.003786 0.030357 -0.020116 -0.016490 -0.014056
# 4 -0.005659 -0.012943 -0.020116 0.057341 0.021789 0.022960
# 5 -0.011022 -0.007796 -0.016490 0.021789 0.056466 0.028334
# 6 -0.010645 -0.010861 -0.014056 0.022960 0.028334 0.078968
#
#
# Mechanical properties :
#
#
# Convention : Reuss Voigt Hill
#
# Bulk Modulus (GPa) = 14.53496 37.66674 26.10085
# Shear Modulus (GPa) = 16.68086 26.74795 21.71441
#
# Velocity S-wave (km/s) = 2.78698 3.52915 3.17979
# Velocity P-wave (km/s) = 4.13817 5.84343 5.06311
#
# Compressibility (1/GPa) = 0.06879962
#
# Stress axis : x y z
#
# Youngs Moduli (GPa) = 29.22390 84.44274 32.94168
#
# Poissons Ratio (x) = 0.07359 0.22148
# Poissons Ratio (y) = 0.02547 -0.12471
# Poissons Ratio (z) = 0.19648 -0.31968
#
# Static dielectric constant tensor:
#      x y z
#    x 1.819040 -0.005660 -0.060970 
#    y -0.005660 1.773920 -0.008370 
#    z -0.060970 -0.008370 1.876390 
# 
# From -- ./inp_files/44463.got.cif
#   From: 2010.05.17/outbox.cif.g08.bks.cpg/sg2_23_cif.got.tgz:44463.got - 2010.06.03 11:33:40.
