data_PCOD9078919
_publ_section_title
;
Structure prediction by ZEFSAII (Michael W. Deem and Ramdas Pophale) SiO2 
 PCOD9078919
Probable space group: P -1
;
_chemical_formula_sum "Si O2"
_cell_formula_units_Z 14
_cell_length_a 7.499797
_cell_length_b 21.100896
_cell_length_c 9.630589
_cell_angle_alpha 150.004484
_cell_angle_beta 112.764751
_cell_angle_gamma 55.670589
_cell_volume 609.907495
_symmetry_space_group_name_H-M "P -1"
_symmetry_group_IT_number 2
_symmetry_cell_setting 'triclinic'
loop_
_space_group_symop_operation_xyz
x,y,z
-x,-y,-z
loop_
_atom_site_type_symbol
_atom_site_label
_atom_site_fract_x
_atom_site_fract_y
_atom_site_fract_z
Si Si1 0.053800 0.144762 0.926601
Si Si2 0.057230 0.326070 0.848837
Si Si3 0.645203 0.160570 0.177056
Si Si4 0.784424 0.196402 0.687199
Si Si5 0.099232 0.160863 0.281965
Si Si6 0.609185 0.604910 0.228498
Si Si7 0.597647 0.844283 0.158198
O O1 0.233262 0.158215 0.911773
O O2 0.833066 0.213209 0.894323
O O3 0.127672 0.973736 0.638469
O O4 0.057083 0.205689 0.194245
O O5 0.932273 0.246556 0.735693
O O6 0.130299 0.258221 0.589889
O O7 0.265072 0.282062 0.929108
O O8 0.871391 0.494295 0.098125
O O9 0.463473 0.292001 0.462791
O O10 0.873605 0.163106 0.264664
O O11 0.585424 0.167896 0.011112
O O12 0.697551 0.003794 0.953544
O O13 0.530216 0.289526 0.739728
O O14 0.500000 0.500000 0.000000
O O15 0.500000 0.000000 0.500000
#
# Coordination Sequence:
#
# PCOD9078919 Si02
#       7
#     2   2   2   2   2   2   2
#     4  10  21  33  59  89 122 142 195 254 290 331
#     4  10  20  38  62  83 123 154 196 235 291 357
#     4  11  21  35  63  90 119 149 201 237 288 352
#     4   9  17  34  57  87 111 157 191 237 282 345
#     4  11  19  36  61  93 107 151 204 243 273 345
#     4  10  18  36  60  88 115 163 192 233 286 359
#     4  11  24  39  57  91 120 153 192 247 303 339
#
# _framework density 22.954301000000001
#
# number of rings (size 3 to 8) (size 9 to 14) (size 15 to 20)
#    0.000    1.714    5.714    0.857    4.000    1.143 
#    0.000    0.714    0.000    3.429    0.000    0.000 
#    0.000    0.000    0.000    0.000    0.000    0.000 
#
# Total GULP energy -78308.758323 kJ/mol
# GULP energy per Si atom -5593.482737 kJ/mol
# Density = 2.290206 g / cm^3
# Si number density = 22.954301 Si / 1000 Ang^3
#
#
#
# Elastic Constant Matrix: (Units=GPa)
#
#
# Indices 1 2 3 4 5 6 
#
# 1 43.7603 23.0847 15.4983 0.0311 4.9140 4.1983
# 2 23.0847 191.3961 72.4596 -29.3063 -7.5364 -19.7662
# 3 15.4983 72.4596 138.3961 -18.7589 -20.4984 -4.3065
# 4 0.0311 -29.3063 -18.7589 44.3338 3.5449 -3.0829
# 5 4.9140 -7.5364 -20.4984 3.5449 28.6404 -7.0441
# 6 4.1983 -19.7662 -4.3065 -3.0829 -7.0441 40.9295
#
#
#
# Elastic Compliance Matrix: (Units=1/GPa)
#
#
# Indices 1 2 3 4 5 6 
#
# 1 0.027664 -0.003743 -0.003211 -0.003587 -0.009270 -0.006848
# 2 -0.003743 0.007900 -0.002816 0.004241 0.001273 0.004441
# 3 -0.003211 -0.002816 0.010490 0.002091 0.007431 0.001510
# 4 -0.003587 0.004241 0.002091 0.026491 0.001136 0.004827
# 5 -0.009270 0.001273 0.007431 0.001136 0.044501 0.010092
# 6 -0.006848 0.004441 0.001510 0.004827 0.010092 0.029539
#
#
# Mechanical properties :
#
#
# Convention : Reuss Voigt Hill
#
# Bulk Modulus (GPa) = 37.71233 66.18198 51.94716
# Shear Modulus (GPa) = 28.57766 40.28139 34.42953
#
# Velocity S-wave (km/s) = 3.53226 4.19364 3.87708
# Velocity P-wave (km/s) = 5.75333 7.23488 6.53622
#
# Compressibility (1/GPa) = 0.02651652
#
# Stress axis : x y z
#
# Youngs Moduli (GPa) = 36.14855 126.57822 95.32656
#
# Poissons Ratio (x) = 0.47372 0.30606
# Poissons Ratio (y) = 0.13529 0.26840
# Poissons Ratio (z) = 0.11606 0.35639
#
# Static dielectric constant tensor:
#      x y z
#    x 1.928610 0.000620 0.004710 
#    y 0.000620 1.875020 -0.011760 
#    z 0.004710 -0.011760 1.806380 
# 
# From -- ./inp_files/202666.got.cif
#   From: 2010.05.17/outbox.cif.g08.bks.cpg/sg2_102_cif.got.tgz:202666.got - 2010.06.03 11:33:40.
