data_PCOD9078020
_publ_section_title
;
Structure prediction by ZEFSAII (Michael W. Deem and Ramdas Pophale) SiO2 
 PCOD9078020
Probable space group: P -1
;
_chemical_formula_sum "Si O2"
_cell_formula_units_Z 16
_cell_length_a 14.542929
_cell_length_b 11.742243
_cell_length_c 9.446188
_cell_angle_alpha 114.989241
_cell_angle_beta 129.636845
_cell_angle_gamma 42.134859
_cell_volume 829.388386
_symmetry_space_group_name_H-M "P -1"
_symmetry_group_IT_number 2
_symmetry_cell_setting 'triclinic'
loop_
_space_group_symop_operation_xyz
x,y,z
-x,-y,-z
loop_
_atom_site_type_symbol
_atom_site_label
_atom_site_fract_x
_atom_site_fract_y
_atom_site_fract_z
Si Si1 0.101414 0.256548 0.817989
Si Si2 0.279979 0.429131 0.428673
Si Si3 0.788527 0.735767 0.535087
Si Si4 0.837258 0.480330 0.216749
Si Si5 0.829150 0.062201 0.325201
Si Si6 0.679251 0.686130 0.886525
Si Si7 0.673940 0.987460 0.327423
Si Si8 0.662594 0.411947 0.197661
O O1 0.913214 0.404376 0.677909
O O2 0.140872 0.086513 0.814787
O O3 0.206459 0.185877 0.739037
O O4 0.176594 0.317677 0.009785
O O5 0.295584 0.276547 0.424636
O O6 0.340570 0.390038 0.307418
O O7 0.358716 0.473077 0.635044
O O8 0.801185 0.614391 0.367503
O O9 0.973063 0.645034 0.701410
O O10 0.696199 0.918931 0.470405
O O11 0.790523 0.385709 0.201965
O O12 0.730230 0.579201 0.023489
O O13 0.742637 0.073679 0.390002
O O14 0.727207 0.237457 0.235658
O O15 0.000000 0.000000 0.500000
O O16 0.511018 0.880943 0.834591
O O17 0.500000 0.500000 0.000000
#
# Coordination Sequence:
#
# PCOD9078020 Si02
#       8
#     2   2   2   2   2   2   2   2
#     4  10  20  36  64  85 114 159 197 239 284 364
#     4  11  23  38  62  89 124 155 189 254 297 364
#     4  10  18  35  57  86 117 151 202 232 300 342
#     4  10  19  34  60  83 114 157 198 243 274 367
#     4  10  19  37  62  86 112 157 214 230 271 353
#     4  12  22  37  61  96 121 146 196 251 322 327
#     4  10  21  34  60  90 117 156 198 254 279 352
#     4  11  22  38  61  87 115 159 204 240 288 349
#
# _framework density 19.291325000000001
#
# number of rings (size 3 to 8) (size 9 to 14) (size 15 to 20)
#    0.750    0.750    3.750    3.750    0.000    1.500 
#    0.000    2.500    0.000    0.750    0.000    0.000 
#    0.000    0.000    0.000    0.000    0.000    0.000 
#
# Total GULP energy -89159.222384 kJ/mol
# GULP energy per Si atom -5572.451399 kJ/mol
# Density = 1.924742 g / cm^3
# Si number density = 19.291325 Si / 1000 Ang^3
#
#
#
# Elastic Constant Matrix: (Units=GPa)
#
#
# Indices 1 2 3 4 5 6 
#
# 1 50.5486 28.2323 16.3993 -5.1472 0.0147 21.5898
# 2 28.2323 67.6751 15.5851 -20.0747 -7.4370 25.5444
# 3 16.3993 15.5851 70.4182 -2.9780 -4.5704 2.4345
# 4 -5.1472 -20.0747 -2.9780 31.7320 4.4914 -4.9164
# 5 0.0147 -7.4370 -4.5704 4.4914 32.3511 -3.7490
# 6 21.5898 25.5444 2.4345 -4.9164 -3.7490 44.0536
#
#
#
# Elastic Compliance Matrix: (Units=1/GPa)
#
#
# Indices 1 2 3 4 5 6 
#
# 1 0.030422 -0.008717 -0.005130 -0.002116 -0.003621 -0.010115
# 2 -0.008717 0.026955 -0.002854 0.013506 0.002827 -0.009452
# 3 -0.005130 -0.002854 0.016010 -0.000915 0.002125 0.003363
# 4 -0.002116 0.013506 -0.000915 0.039632 -0.002822 -0.002561
# 5 -0.003621 0.002827 0.002125 -0.002822 0.032541 0.002472
# 6 -0.010115 -0.009452 0.003363 -0.002561 0.002472 0.032876
#
#
# Mechanical properties :
#
#
# Convention : Reuss Voigt Hill
#
# Bulk Modulus (GPa) = 25.01009 34.34168 29.67588
# Shear Modulus (GPa) = 22.20554 30.18902 26.19728
#
# Velocity S-wave (km/s) = 3.39641 3.96017 3.68908
# Velocity P-wave (km/s) = 5.32667 6.22502 5.79329
#
# Compressibility (1/GPa) = 0.03998386
#
# Stress axis : x y z
#
# Youngs Moduli (GPa) = 32.87085 37.09832 62.45988
#
# Poissons Ratio (x) = 0.32340 0.32044
# Poissons Ratio (y) = 0.28655 0.17827
# Poissons Ratio (z) = 0.16864 0.10589
#
# Static dielectric constant tensor:
#      x y z
#    x 1.708660 0.004540 -0.018580 
#    y 0.004540 1.676020 0.026040 
#    z -0.018580 0.026040 1.690040 
# 
# From -- ./inp_files/303747.got.cif
#   From: 2010.05.17/outbox.cif.g08.bks.cpg/sg2_152_cif.got.tgz:303747.got - 2010.06.03 11:33:40.
