data_PCOD9078505
_publ_section_title
;
Structure prediction by ZEFSAII (Michael W. Deem and Ramdas Pophale) SiO2 
 PCOD9078505
Probable space group: P -1
;
_chemical_formula_sum "Si O2"
_cell_formula_units_Z 16
_cell_length_a 9.078705
_cell_length_b 11.735354
_cell_length_c 9.454042
_cell_angle_alpha 82.576760
_cell_angle_beta 116.007530
_cell_angle_gamma 124.017114
_cell_volume 741.166943
_symmetry_space_group_name_H-M "P -1"
_symmetry_group_IT_number 2
_symmetry_cell_setting 'triclinic'
loop_
_space_group_symop_operation_xyz
x,y,z
-x,-y,-z
loop_
_atom_site_type_symbol
_atom_site_label
_atom_site_fract_x
_atom_site_fract_y
_atom_site_fract_z
Si Si1 0.686588 0.096281 0.889392
Si Si2 0.539117 0.559169 0.350444
Si Si3 0.985108 0.206425 0.727390
Si Si4 0.178879 0.139584 0.477422
Si Si5 0.341199 0.515677 0.848270
Si Si6 0.638781 0.022806 0.425207
Si Si7 0.064655 0.993100 0.869035
Si Si8 0.762949 0.389392 0.949537
O O1 0.833157 0.144902 0.806094
O O2 0.467109 0.980004 0.760755
O O3 0.706105 0.235321 0.921432
O O4 0.763183 0.031773 0.041418
O O5 0.500000 0.500000 0.500000
O O6 0.733298 0.716483 0.428983
O O7 0.579830 0.465148 0.281565
O O8 0.365805 0.571044 0.207072
O O9 0.131050 0.368459 0.779778
O O10 0.107587 0.135537 0.800442
O O11 0.851800 0.155484 0.538474
O O12 0.348335 0.109836 0.550048
O O13 0.000000 0.000000 0.500000
O O14 0.102916 0.126697 0.286051
O O15 0.500000 0.500000 0.000000
O O16 0.301045 0.608512 0.915390
O O17 0.500000 0.000000 0.500000
O O18 0.000000 0.000000 0.000000
O O19 0.000000 0.500000 0.000000
#
# Coordination Sequence:
#
# PCOD9078505 Si02
#       8
#     2   2   2   2   2   2   2   2
#     4  10  18  35  63  95 127 163 216 260 329 384
#     4  11  25  42  65  96 128 172 227 265 320 392
#     4   9  17  35  62  93 126 166 216 260 324 389
#     4  11  22  41  66  90 128 169 213 266 325 393
#     4  10  22  40  66  90 125 174 220 262 322 394
#     4   9  18  34  61  90 121 161 204 257 316 383
#     4   9  20  34  62  94 122 160 209 262 313 376
#     4  11  22  40  68  94 132 177 214 264 332 397
#
# _framework density 21.587578000000001
#
# number of rings (size 3 to 8) (size 9 to 14) (size 15 to 20)
#    0.000    2.000    2.500    2.250    1.750    1.000 
#    0.000    1.250    2.750    0.000    0.000    0.000 
#    0.000    0.000    0.000    0.000    0.000    0.000 
#
# Total GULP energy -89206.194498 kJ/mol
# GULP energy per Si atom -5575.387156 kJ/mol
# Density = 2.153844 g / cm^3
# Si number density = 21.587578 Si / 1000 Ang^3
#
#
#
# Elastic Constant Matrix: (Units=GPa)
#
#
# Indices 1 2 3 4 5 6 
#
# 1 117.1633 34.7931 61.1497 -0.0613 -10.1544 -19.5778
# 2 34.7931 61.8570 35.4435 10.7160 4.0496 -6.1019
# 3 61.1497 35.4435 131.5846 11.5435 6.3613 -4.4887
# 4 -0.0613 10.7160 11.5435 29.3778 1.5251 -1.4460
# 5 -10.1544 4.0496 6.3613 1.5251 48.4852 1.4313
# 6 -19.5778 -6.1019 -4.4887 -1.4460 1.4313 38.9160
#
#
#
# Elastic Compliance Matrix: (Units=1/GPa)
#
#
# Indices 1 2 3 4 5 6 
#
# 1 0.014319 -0.005266 -0.005598 0.004232 0.003870 0.005747
# 2 -0.005266 0.022093 -0.002778 -0.006839 -0.002378 0.000328
# 3 -0.005598 -0.002778 0.011290 -0.003416 -0.002255 -0.001993
# 4 0.004232 -0.006839 -0.003416 0.037952 0.000651 0.002049
# 5 0.003870 -0.002378 -0.002255 0.000651 0.021894 0.000533
# 6 0.005747 0.000328 -0.001993 0.002049 0.000533 0.028466
#
#
# Mechanical properties :
#
#
# Convention : Reuss Voigt Hill
#
# Bulk Modulus (GPa) = 48.97613 63.70860 56.34237
# Shear Modulus (GPa) = 29.39428 35.30370 32.34899
#
# Velocity S-wave (km/s) = 3.69403 4.04836 3.87525
# Velocity P-wave (km/s) = 6.39773 7.17134 6.79555
#
# Compressibility (1/GPa) = 0.02041811
#
# Stress axis : x y z
#
# Youngs Moduli (GPa) = 69.83967 45.26419 88.57389
#
# Poissons Ratio (x) = 0.23836 0.49584
# Poissons Ratio (y) = 0.36777 0.24602
# Poissons Ratio (z) = 0.39096 0.12573
#
# Static dielectric constant tensor:
#      x y z
#    x 1.870400 0.015290 -0.022660 
#    y 0.015290 1.689860 0.057330 
#    z -0.022660 0.057330 1.777410 
# 
# From -- ./inp_files/186974.got.cif
#   From: 2010.05.17/outbox.cif.g08.bks.cpg/sg2_94_cif.got.tgz:186974.got - 2010.06.03 11:33:40.
