data_PCOD9078439
_publ_section_title
;
Structure prediction by ZEFSAII (Michael W. Deem and Ramdas Pophale) SiO2 
 PCOD9078439
Probable space group: P -1
;
_chemical_formula_sum "Si O2"
_cell_formula_units_Z 16
_cell_length_a 7.018524
_cell_length_b 11.270501
_cell_length_c 13.284373
_cell_angle_alpha 49.609402
_cell_angle_beta 66.882895
_cell_angle_gamma 100.242894
_cell_volume 579.249982
_symmetry_space_group_name_H-M "P -1"
_symmetry_group_IT_number 2
_symmetry_cell_setting 'triclinic'
loop_
_space_group_symop_operation_xyz
x,y,z
-x,-y,-z
loop_
_atom_site_type_symbol
_atom_site_label
_atom_site_fract_x
_atom_site_fract_y
_atom_site_fract_z
Si Si1 0.759451 0.908622 0.805827
Si Si2 0.323955 0.583246 0.208626
Si Si3 0.819074 0.767519 0.686940
Si Si4 0.250985 0.301034 0.709444
Si Si5 0.972303 0.630253 0.100341
Si Si6 0.277239 0.825378 0.216330
Si Si7 0.292302 0.776978 0.628919
Si Si8 0.713731 0.960171 0.282512
O O1 0.643621 0.764019 0.812226
O O2 0.067654 0.016237 0.701384
O O3 0.704018 0.068041 0.741877
O O4 0.609624 0.758161 0.011343
O O5 0.273410 0.378419 0.308281
O O6 0.283694 0.642449 0.294109
O O7 0.133920 0.598850 0.165181
O O8 0.018271 0.738786 0.711857
O O9 0.000000 0.000000 0.500000
O O10 0.500000 0.500000 0.500000
O O11 0.194408 0.328797 0.818585
O O12 0.997820 0.241627 0.733011
O O13 0.274927 0.128916 0.775851
O O14 0.772796 0.419966 0.201882
O O15 0.173081 0.816195 0.886205
O O16 0.500000 0.000000 0.000000
O O17 0.500000 0.000000 0.500000
O O18 0.429103 0.805564 0.477008
#
# Coordination Sequence:
#
# PCOD9078439 Si02
#       8
#     2   2   2   2   2   2   2   2
#     4  10  20  39  60  87 117 156 201 246 300 361
#     4   9  20  40  60  85 117 153 203 248 293 366
#     4  11  24  39  59  84 119 159 201 250 305 356
#     4  10  18  35  62  93 125 156 200 257 305 363
#     4  10  22  38  63  92 119 161 202 246 309 364
#     4   8  17  35  61  83 119 159 194 249 309 358
#     4  11  23  42  57  86 126 156 202 257 298 359
#     4  11  22  38  64  90 121 162 199 248 311 366
#
# _framework density 27.621925999999998
#
# number of rings (size 3 to 8) (size 9 to 14) (size 15 to 20)
#    0.000    2.000    2.500    0.750    1.750    1.500 
#    0.000    0.625    0.000    0.000    0.000    0.000 
#    0.000    0.000    0.000    0.000    0.000    0.000 
#
# Total GULP energy -89465.580820 kJ/mol
# GULP energy per Si atom -5591.598801 kJ/mol
# Density = 2.755906 g / cm^3
# Si number density = 27.621926 Si / 1000 Ang^3
#
#
#
# Elastic Constant Matrix: (Units=GPa)
#
#
# Indices 1 2 3 4 5 6 
#
# 1 70.1624 33.7466 24.4206 0.9331 -3.5223 -2.0834
# 2 33.7466 245.1816 42.2308 -37.6430 2.8852 -21.4599
# 3 24.4206 42.2308 123.8448 -18.3720 -3.3712 -10.6118
# 4 0.9331 -37.6430 -18.3720 54.2860 -9.7213 -8.1589
# 5 -3.5223 2.8852 -3.3712 -9.7213 35.0599 -3.4290
# 6 -2.0834 -21.4599 -10.6118 -8.1589 -3.4290 34.6794
#
#
#
# Elastic Compliance Matrix: (Units=1/GPa)
#
#
# Indices 1 2 3 4 5 6 
#
# 1 0.016499 -0.002438 -0.003082 -0.003266 0.000442 -0.002185
# 2 -0.002438 0.005549 -0.000327 0.004610 0.000972 0.004368
# 3 -0.003082 -0.000327 0.009784 0.004094 0.002163 0.003783
# 4 -0.003266 0.004610 0.004094 0.026119 0.007989 0.010844
# 5 0.000442 0.000972 0.002163 0.007989 0.031525 0.006287
# 6 -0.002185 0.004368 0.003783 0.010844 0.006287 0.035738
#
#
# Mechanical properties :
#
#
# Convention : Reuss Voigt Hill
#
# Bulk Modulus (GPa) = 49.65584 71.10943 60.38264
# Shear Modulus (GPa) = 34.81403 47.39111 41.10257
#
# Velocity S-wave (km/s) = 3.55403 4.14660 3.86170
# Velocity P-wave (km/s) = 5.90402 6.98036 6.46463
#
# Compressibility (1/GPa) = 0.02013862
#
# Stress axis : x y z
#
# Youngs Moduli (GPa) = 60.61103 180.20961 102.20665
#
# Poissons Ratio (x) = 0.43935 0.31497
# Poissons Ratio (y) = 0.14777 0.03341
# Poissons Ratio (z) = 0.18679 0.05891
#
# Static dielectric constant tensor:
#      x y z
#    x 1.858230 1.012710 0.229530 
#    y 1.012710 -0.706520 -1.028160 
#    z 0.229530 -1.028160 1.705770 
# 
# From -- ./inp_files/314117.got.cif
#   From: 2010.05.17/outbox.cif.g08.bks.cpg/sg2_158_cif.got.tgz:314117.got - 2010.06.03 11:33:40.
