data_PCOD9078922
_publ_section_title
;
Structure prediction by ZEFSAII (Michael W. Deem and Ramdas Pophale) SiO2 
 PCOD9078922
Probable space group: P -1
;
_chemical_formula_sum "Si O2"
_cell_formula_units_Z 12
_cell_length_a 9.515213
_cell_length_b 14.446999
_cell_length_c 9.003925
_cell_angle_alpha 140.170936
_cell_angle_beta 133.699941
_cell_angle_gamma 73.736821
_cell_volume 482.026772
_symmetry_space_group_name_H-M "P -1"
_symmetry_group_IT_number 2
_symmetry_cell_setting 'triclinic'
loop_
_space_group_symop_operation_xyz
x,y,z
-x,-y,-z
loop_
_atom_site_type_symbol
_atom_site_label
_atom_site_fract_x
_atom_site_fract_y
_atom_site_fract_z
Si Si1 0.203339 0.264976 0.891636
Si Si2 0.339069 0.665074 0.088622
Si Si3 0.795552 0.718147 0.447068
Si Si4 0.712586 0.163013 0.025492
Si Si5 0.090012 0.495684 0.220529
Si Si6 0.665273 0.998379 0.242834
O O1 0.243746 0.295440 0.779578
O O2 0.317647 0.167422 0.921063
O O3 0.254604 0.426458 0.227441
O O4 0.926050 0.139591 0.560491
O O5 0.257481 0.464465 0.754224
O O6 0.323927 0.759431 0.051911
O O7 0.140304 0.635068 0.017827
O O8 0.608666 0.747445 0.422720
O O9 0.065834 0.852141 0.841890
O O10 0.796092 0.318305 0.395598
O O11 0.469396 0.003828 0.709127
O O12 0.000000 0.500000 0.000000
O O13 0.500000 0.000000 0.000000
#
# Coordination Sequence:
#
# PCOD9078922 Si02
#       6
#     2   2   2   2   2   2
#     4  11  22  38  63  90 118 160 203 245 300 353
#     4  10  21  36  60  90 127 156 189 246 309 361
#     4  10  18  36  60  88 118 159 196 236 304 363
#     4  11  21  38  64  90 122 159 199 243 301 361
#     4  11  20  38  62  97 123 147 199 261 299 345
#     4  11  22  40  60  86 121 165 205 241 293 362
#
# _framework density 24.894881999999999
#
# number of rings (size 3 to 8) (size 9 to 14) (size 15 to 20)
#    0.000    1.333    6.667    2.000    0.000    0.667 
#    0.000    5.833    0.000    2.000    0.000    0.000 
#    0.000    0.000    0.000    0.000    0.000    0.000 
#
# Total GULP energy -67082.443115 kJ/mol
# GULP energy per Si atom -5590.203593 kJ/mol
# Density = 2.483822 g / cm^3
# Si number density = 24.894882 Si / 1000 Ang^3
#
#
#
# Elastic Constant Matrix: (Units=GPa)
#
#
# Indices 1 2 3 4 5 6 
#
# 1 119.8080 49.0448 27.6146 -16.1869 51.9982 -5.5354
# 2 49.0448 138.8727 25.8587 -22.7835 6.3262 9.3669
# 3 27.6146 25.8587 81.7247 4.5783 35.2770 -5.0615
# 4 -16.1869 -22.7835 4.5783 36.8748 -0.8255 14.1997
# 5 51.9982 6.3262 35.2770 -0.8255 54.9543 -4.3877
# 6 -5.5354 9.3669 -5.0615 14.1997 -4.3877 67.3413
#
#
#
# Elastic Compliance Matrix: (Units=1/GPa)
#
#
# Indices 1 2 3 4 5 6 
#
# 1 0.018868 -0.005958 0.003767 0.003440 -0.019480 0.000668
# 2 -0.005958 0.011249 -0.005417 0.006459 0.007651 -0.003325
# 3 0.003767 -0.005417 0.019876 -0.005554 -0.015567 0.002714
# 4 0.003440 0.006459 -0.005554 0.036688 -0.000585 -0.008807
# 5 -0.019480 0.007651 -0.015567 -0.000585 0.045674 -0.000736
# 6 0.000668 -0.003325 0.002714 -0.008807 -0.000736 0.017380
#
#
# Mechanical properties :
#
#
# Convention : Reuss Voigt Hill
#
# Bulk Modulus (GPa) = 28.75405 60.60464 44.67934
# Shear Modulus (GPa) = 28.32181 47.69321 38.00751
#
# Velocity S-wave (km/s) = 3.37657 4.38172 3.91157
# Velocity P-wave (km/s) = 5.17464 7.07081 6.19569
#
# Compressibility (1/GPa) = 0.03477771
#
# Stress axis : x y z
#
# Youngs Moduli (GPa) = 53.00049 88.89605 50.31206
#
# Poissons Ratio (x) = 0.52966 -0.18954
# Poissons Ratio (y) = 0.31579 0.27252
# Poissons Ratio (z) = -0.19967 0.48152
#
# Static dielectric constant tensor:
#      x y z
#    x 1.951420 -0.047110 -0.004760 
#    y -0.047110 1.941110 0.071670 
#    z -0.004760 0.071670 2.054530 
# 
# From -- ./inp_files/165287.got.cif
#   From: 2010.05.17/outbox.cif.g08.bks.cpg/sg2_83_cif.got.tgz:165287.got - 2010.06.03 11:33:40.
