data_PCOD9078117
_publ_section_title
;
Structure prediction by ZEFSAII (Michael W. Deem and Ramdas Pophale) SiO2 
 PCOD9078117
Probable space group: P -1
;
_chemical_formula_sum "Si O2"
_cell_formula_units_Z 16
_cell_length_a 21.193768
_cell_length_b 17.785086
_cell_length_c 8.815285
_cell_angle_alpha 145.490591
_cell_angle_beta 134.473629
_cell_angle_gamma 23.342820
_cell_volume 722.314676
_symmetry_space_group_name_H-M "P -1"
_symmetry_group_IT_number 2
_symmetry_cell_setting 'triclinic'
loop_
_space_group_symop_operation_xyz
x,y,z
-x,-y,-z
loop_
_atom_site_type_symbol
_atom_site_label
_atom_site_fract_x
_atom_site_fract_y
_atom_site_fract_z
Si Si1 0.172002 0.999089 0.506459
Si Si2 0.893909 0.258607 0.691761
Si Si3 0.242620 0.779478 0.788960
Si Si4 0.382683 0.775918 0.768281
Si Si5 0.546420 0.116364 0.690939
Si Si6 0.034037 0.737541 0.689177
Si Si7 0.223177 0.379941 0.661031
Si Si8 0.663373 0.446556 0.133605
O O1 0.013935 0.177486 0.642276
O O2 0.089586 0.154801 0.471076
O O3 0.299316 0.907079 0.683876
O O4 0.259752 0.750223 0.189552
O O5 0.752381 0.361854 0.533552
O O6 0.833574 0.434008 0.009955
O O7 0.000000 0.000000 0.500000
O O8 0.260938 0.877393 0.865838
O O9 0.364530 0.599498 0.835298
O O10 0.071237 0.023736 0.992322
O O11 0.500000 0.500000 0.500000
O O12 0.464032 0.797816 0.021382
O O13 0.393335 0.209639 0.584726
O O14 0.499397 0.279925 0.753128
O O15 0.721206 0.821995 0.492921
O O16 0.093298 0.545726 0.581571
O O17 0.194356 0.620124 0.710376
#
# Coordination Sequence:
#
# PCOD9078117 Si02
#       8
#     2   2   2   2   2   2   2   2
#     4  11  19  32  58  86 114 135 186 243 278 314
#     4  12  17  32  58  92 104 138 196 241 275 312
#     4  11  20  31  59  89 114 140 187 239 283 324
#     4  12  23  36  54  85 120 151 182 229 283 345
#     4  10  22  40  55  80 116 157 188 218 286 349
#     4  10  18  35  58  90 108 142 189 243 279 313
#     4  10  21  38  64  76 110 153 194 234 275 332
#     4  10  18  36  59  86 115 143 185 242 276 327
#
# _framework density 22.151009999999999
#
# number of rings (size 3 to 8) (size 9 to 14) (size 15 to 20)
#    0.000    1.250    6.250    2.250    0.000    0.500 
#    0.000    3.750    2.750    0.000    0.000    0.000 
#    0.000    0.000    0.000    0.000    0.000    0.000 
#
# Total GULP energy -89242.961728 kJ/mol
# GULP energy per Si atom -5577.685108 kJ/mol
# Density = 2.210059 g / cm^3
# Si number density = 22.151010 Si / 1000 Ang^3
#
#
#
# Elastic Constant Matrix: (Units=GPa)
#
#
# Indices 1 2 3 4 5 6 
#
# 1 40.0903 28.2211 7.5695 6.1659 -9.6913 12.7402
# 2 28.2211 173.9130 53.3582 -6.2084 3.6214 55.5051
# 3 7.5695 53.3582 58.5279 7.3176 -6.0733 24.4325
# 4 6.1659 -6.2084 7.3176 41.7129 4.3700 2.7447
# 5 -9.6913 3.6214 -6.0733 4.3700 19.8478 -3.5345
# 6 12.7402 55.5051 24.4325 2.7447 -3.5345 39.0579
#
#
#
# Elastic Compliance Matrix: (Units=1/GPa)
#
#
# Indices 1 2 3 4 5 6 
#
# 1 0.037857 -0.008942 0.007796 -0.010771 0.024600 -0.001535
# 2 -0.008942 0.015349 -0.008968 0.007672 -0.014292 -0.015118
# 3 0.007796 -0.008968 0.029579 -0.008868 0.015326 -0.006292
# 4 -0.010771 0.007672 -0.008868 0.030413 -0.017052 -0.005522
# 5 0.024600 -0.014292 0.015326 -0.017052 0.075355 0.010717
# 6 -0.001535 -0.015118 -0.006292 -0.005522 0.010717 0.052882
#
#
# Mechanical properties :
#
#
# Convention : Reuss Voigt Hill
#
# Bulk Modulus (GPa) = 15.98523 50.09211 33.03867
# Shear Modulus (GPa) = 17.69818 32.34922 25.02370
#
# Velocity S-wave (km/s) = 2.82969 3.82566 3.36473
# Velocity P-wave (km/s) = 4.23182 6.49440 5.48113
#
# Compressibility (1/GPa) = 0.06255774
#
# Stress axis : x y z
#
# Youngs Moduli (GPa) = 26.41499 65.15087 33.80801
#
# Poissons Ratio (x) = 0.58257 -0.26357
# Poissons Ratio (y) = 0.23620 0.30318
# Poissons Ratio (z) = -0.20593 0.58426
#
# Static dielectric constant tensor:
#      x y z
#    x 1.911950 -0.000200 0.024460 
#    y -0.000200 1.925330 -0.019650 
#    z 0.024460 -0.019650 1.802680 
# 
# From -- ./inp_files/205574.got.cif
#   From: 2010.05.17/outbox.cif.g08.bks.cpg/sg2_103_cif.got.tgz:205574.got - 2010.06.03 11:33:40.
