data_PCOD9078715
_publ_section_title
;
Structure prediction by ZEFSAII (Michael W. Deem and Ramdas Pophale) SiO2 
 PCOD9078715
Probable space group: P -1
;
_chemical_formula_sum "Si O2"
_cell_formula_units_Z 14
_cell_length_a 15.814441
_cell_length_b 13.359456
_cell_length_c 12.558367
_cell_angle_alpha 57.441466
_cell_angle_beta 26.963287
_cell_angle_gamma 37.862344
_cell_volume 593.606114
_symmetry_space_group_name_H-M "P -1"
_symmetry_group_IT_number 2
_symmetry_cell_setting 'triclinic'
loop_
_space_group_symop_operation_xyz
x,y,z
-x,-y,-z
loop_
_atom_site_type_symbol
_atom_site_label
_atom_site_fract_x
_atom_site_fract_y
_atom_site_fract_z
Si Si1 0.111007 0.812258 0.947431
Si Si2 0.039603 0.437755 0.190566
Si Si3 0.732027 0.822686 0.234921
Si Si4 0.612741 0.854867 0.859781
Si Si5 0.950631 0.253545 0.282156
Si Si6 0.072692 0.151000 0.657862
Si Si7 0.373164 0.767899 0.470232
O O1 0.362863 0.705409 0.630918
O O2 0.830504 0.882669 0.163476
O O3 0.183303 0.712238 0.037421
O O4 0.000000 0.000000 0.000000
O O5 0.220444 0.340219 0.156083
O O6 0.794208 0.670238 0.317020
O O7 0.901614 0.378503 0.355274
O O8 0.313932 0.321682 0.861358
O O9 0.399775 0.991679 0.450378
O O10 0.983380 0.708627 0.922192
O O11 0.876234 0.778838 0.531084
O O12 0.500000 0.000000 0.000000
O O13 0.281707 0.013173 0.076809
O O14 0.693785 0.288387 0.518131
O O15 0.095144 0.010631 0.656310
#
# Coordination Sequence:
#
# PCOD9078715 Si02
#       7
#     2   2   2   2   2   2   2
#     4   9  20  34  53  82 103 141 186 220 260 316
#     4  11  20  35  52  85 116 133 175 224 275 322
#     4  10  19  34  56  80 108 142 174 226 275 304
#     4   9  17  34  53  77 109 144 178 215 262 323
#     4   9  19  32  52  79 107 144 176 209 270 316
#     4  10  18  36  57  75 108 143 187 217 254 327
#     4  10  19  33  56  82 108 136 179 228 264 310
#
# _framework density 23.584662000000002
#
# number of rings (size 3 to 8) (size 9 to 14) (size 15 to 20)
#    0.000    2.286    4.286    0.857    0.000    2.857 
#    2.571    0.714    0.000    0.000    0.000   15.000 
#    0.000    0.000    0.000    0.000    0.000    0.000 
#
# Total GULP energy -78093.568465 kJ/mol
# GULP energy per Si atom -5578.112033 kJ/mol
# Density = 2.353098 g / cm^3
# Si number density = 23.584662 Si / 1000 Ang^3
#
#
#
# Elastic Constant Matrix: (Units=GPa)
#
#
# Indices 1 2 3 4 5 6 
#
# 1 105.6904 46.7313 36.7023 -15.0678 -9.9108 12.0426
# 2 46.7313 80.6553 16.7737 -5.9185 -1.7129 -21.2394
# 3 36.7023 16.7737 94.3217 -17.0268 14.4517 -0.8400
# 4 -15.0678 -5.9185 -17.0268 23.9658 -4.0233 2.7648
# 5 -9.9108 -1.7129 14.4517 -4.0233 43.5889 -21.3156
# 6 12.0426 -21.2394 -0.8400 2.7648 -21.3156 37.0452
#
#
#
# Elastic Compliance Matrix: (Units=1/GPa)
#
#
# Indices 1 2 3 4 5 6 
#
# 1 0.020186 -0.014990 -0.003493 0.008075 -0.002562 -0.017312
# 2 -0.014990 0.028850 -0.001724 -0.004835 0.011800 0.028525
# 3 -0.003493 -0.001724 0.014581 0.007026 -0.007056 -0.004107
# 4 0.008075 -0.004835 0.007026 0.051598 -0.000509 -0.009381
# 5 -0.002562 0.011800 -0.007056 -0.000509 0.040036 0.030513
# 6 -0.017312 0.028525 -0.004107 -0.009381 0.030513 0.067140
#
#
# Mechanical properties :
#
#
# Convention : Reuss Voigt Hill
#
# Bulk Modulus (GPa) = 43.10008 53.45353 48.27681
# Shear Modulus (GPa) = 18.48160 32.95067 25.71614
#
# Velocity S-wave (km/s) = 2.80237 3.74187 3.30567
# Velocity P-wave (km/s) = 5.36520 6.43292 5.92317
#
# Compressibility (1/GPa) = 0.02320182
#
# Stress axis : x y z
#
# Youngs Moduli (GPa) = 49.53904 34.66248 68.58378
#
# Poissons Ratio (x) = 0.51960 0.23956
# Poissons Ratio (y) = 0.74260 0.11825
# Poissons Ratio (z) = 0.17304 0.05977
#
# Static dielectric constant tensor:
#      x y z
#    x 1.896980 0.018160 0.048250 
#    y 0.018160 1.959060 0.057790 
#    z 0.048250 0.057790 2.007570 
# 
# From -- ./inp_files/384085.got.cif
#   From: 2010.05.17/outbox.cif.g08.bks.cpg/sg2_193_cif.got.tgz:384085.got - 2010.06.03 11:33:40.
