data_PCOD9078834
_publ_section_title
;
Structure prediction by ZEFSAII (Michael W. Deem and Ramdas Pophale) SiO2 
 PCOD9078834
Probable space group: P -1
;
_chemical_formula_sum "Si O2"
_cell_formula_units_Z 14
_cell_length_a 11.541660
_cell_length_b 17.481422
_cell_length_c 6.954379
_cell_angle_alpha 96.136256
_cell_angle_beta 72.553310
_cell_angle_gamma 154.007470
_cell_volume 540.463491
_symmetry_space_group_name_H-M "P -1"
_symmetry_group_IT_number 2
_symmetry_cell_setting 'triclinic'
loop_
_space_group_symop_operation_xyz
x,y,z
-x,-y,-z
loop_
_atom_site_type_symbol
_atom_site_label
_atom_site_fract_x
_atom_site_fract_y
_atom_site_fract_z
Si Si1 0.602647 0.527169 0.705880
Si Si2 0.816193 0.543336 0.305368
Si Si3 0.486220 0.924984 0.139828
Si Si4 0.837081 0.802446 0.885165
Si Si5 0.574124 0.814715 0.108389
Si Si6 0.101882 0.570088 0.743902
Si Si7 0.928546 0.281161 0.200347
O O1 0.285277 0.319435 0.903653
O O2 0.643087 0.514211 0.472927
O O3 0.731421 0.686389 0.732694
O O4 0.823541 0.600335 0.741715
O O5 0.691160 0.385551 0.367058
O O6 0.900793 0.608898 0.060324
O O7 0.136849 0.719658 0.298870
O O8 0.693616 0.076285 0.245165
O O9 0.500000 0.000000 0.000000
O O10 0.593783 0.905394 0.000748
O O11 0.675759 0.792640 0.964056
O O12 0.184840 0.025612 0.802408
O O13 0.215394 0.605990 0.262437
O O14 0.233632 0.730872 0.693248
O O15 0.000000 0.500000 0.000000
#
# Coordination Sequence:
#
# PCOD9078834 Si02
#       7
#     2   2   2   2   2   2   2
#     4  11  21  39  59  86 113 162 206 233 295 353
#     4   9  21  36  59  90 117 146 200 253 293 355
#     4   9  18  35  60  86 116 149 188 249 305 344
#     4  10  22  36  58  84 120 160 204 238 284 362
#     4  10  18  37  59  85 115 159 196 241 301 344
#     4   9  18  35  60  86 116 149 188 249 305 344
#     4  10  18  36  59  85 116 153 189 241 306 346
#
# _framework density 25.903690000000001
#
# number of rings (size 3 to 8) (size 9 to 14) (size 15 to 20)
#    0.000    2.286    2.857    0.857    0.000    1.143 
#    0.000    4.286    0.000    6.857    0.000    0.000 
#    0.000    0.000    0.000    0.000    0.000    0.000 
#
# Total GULP energy -78135.525555 kJ/mol
# GULP energy per Si atom -5581.108968 kJ/mol
# Density = 2.584473 g / cm^3
# Si number density = 25.903690 Si / 1000 Ang^3
#
#
#
# Elastic Constant Matrix: (Units=GPa)
#
#
# Indices 1 2 3 4 5 6 
#
# 1 155.7475 44.3254 40.0435 15.7636 -48.6397 -42.9524
# 2 44.3254 116.1982 26.7605 19.3826 -10.9443 -3.8885
# 3 40.0435 26.7605 99.8442 17.6060 -19.4410 -11.1440
# 4 15.7636 19.3826 17.6060 22.1454 -12.3133 -14.5916
# 5 -48.6397 -10.9443 -19.4410 -12.3133 46.8167 18.4783
# 6 -42.9524 -3.8885 -11.1440 -14.5916 18.4783 59.8836
#
#
#
# Elastic Compliance Matrix: (Units=1/GPa)
#
#
# Indices 1 2 3 4 5 6 
#
# 1 0.012621 -0.004205 -0.002375 0.006773 0.010228 0.006832
# 2 -0.004205 0.011799 -0.000551 -0.011408 -0.003204 -0.004144
# 3 -0.002375 -0.000551 0.012620 -0.008407 0.001140 -0.001791
# 4 0.006773 -0.011408 -0.008407 0.075907 0.014274 0.016644
# 5 0.010228 -0.003204 0.001140 0.014274 0.035521 -0.000142
# 6 0.006832 -0.004144 -0.001791 0.016644 -0.000142 0.025097
#
#
# Mechanical properties :
#
#
# Convention : Reuss Voigt Hill
#
# Bulk Modulus (GPa) = 43.90099 66.00541 54.95320
# Shear Modulus (GPa) = 25.58600 43.14652 34.36626
#
# Velocity S-wave (km/s) = 3.14624 4.08567 3.64633
# Velocity P-wave (km/s) = 5.49390 6.91327 6.24405
#
# Compressibility (1/GPa) = 0.02277853
#
# Stress axis : x y z
#
# Youngs Moduli (GPa) = 79.23440 84.74978 79.23772
#
# Poissons Ratio (x) = 0.35640 0.18818
# Poissons Ratio (y) = 0.33321 0.04364
# Poissons Ratio (z) = 0.18818 0.04667
#
# Static dielectric constant tensor:
#      x y z
#    x 2.081090 -0.003740 0.001580 
#    y -0.003740 2.144750 0.065520 
#    z 0.001580 0.065520 2.180970 
# 
# From -- ./inp_files/276730.got.cif
#   From: 2010.05.17/outbox.cif.g08.bks.cpg/sg2_139_cif.got.tgz:276730.got - 2010.06.03 11:33:40.
