data_PCOD9078170
_publ_section_title
;
Structure prediction by ZEFSAII (Michael W. Deem and Ramdas Pophale) SiO2 
 PCOD9078170
Probable space group: P -1
;
_chemical_formula_sum "Si O2"
_cell_formula_units_Z 16
_cell_length_a 7.427205
_cell_length_b 6.833827
_cell_length_c 14.696469
_cell_angle_alpha 105.536609
_cell_angle_beta 57.711832
_cell_angle_gamma 78.968688
_cell_volume 553.975534
_symmetry_space_group_name_H-M "P -1"
_symmetry_group_IT_number 2
_symmetry_cell_setting 'triclinic'
loop_
_space_group_symop_operation_xyz
x,y,z
-x,-y,-z
loop_
_atom_site_type_symbol
_atom_site_label
_atom_site_fract_x
_atom_site_fract_y
_atom_site_fract_z
Si Si1 0.503737 0.184125 0.401576
Si Si2 0.574294 0.227117 0.581504
Si Si3 0.035517 0.545941 0.747557
Si Si4 0.008181 0.047084 0.801826
Si Si5 0.274066 0.337953 0.312264
Si Si6 0.355771 0.896500 0.961049
Si Si7 0.792783 0.647273 0.010228
Si Si8 0.703143 0.162125 0.736332
O O1 0.616291 0.253421 0.466532
O O2 0.723859 0.002113 0.264734
O O3 0.357379 0.376220 0.394082
O O4 0.377173 0.035558 0.456210
O O5 0.297790 0.384767 0.682334
O O6 0.694244 0.249052 0.646657
O O7 0.015665 0.798897 0.780006
O O8 0.955847 0.514200 0.663510
O O9 0.861912 0.552141 0.877362
O O10 0.803777 0.182256 0.943969
O O11 0.918405 0.143351 0.738388
O O12 0.268737 0.095000 0.302335
O O13 0.474801 0.284242 0.175519
O O14 0.202704 0.108994 0.969164
O O15 0.500000 0.000000 0.000000
O O16 0.538429 0.699698 0.127250
O O17 0.000000 0.500000 0.000000
#
# Coordination Sequence:
#
# PCOD9078170 Si02
#       8
#     2   2   2   2   2   2   2   2
#     4  10  23  37  50  73 112 142 176 209 267 307
#     4  10  21  37  53  74 102 149 179 210 256 320
#     4  10  18  32  59  80  98 133 185 216 252 307
#     4  10  19  34  55  83 103 132 174 228 251 303
#     4   9  17  33  53  76 105 141 168 208 258 326
#     4  10  15  30  54  82 100 131 175 208 254 324
#     4  10  15  25  51  86  99 123 164 222 255 304
#     4   9  16  31  55  77 103 136 174 210 260 309
#
# _framework density 28.882145000000001
#
# number of rings (size 3 to 8) (size 9 to 14) (size 15 to 20)
#    0.000    2.250    6.250    0.000    0.000    2.000 
#    0.000    1.250    0.000    1.500    0.000    0.000 
#    0.000    0.000    0.000    0.000    0.000    0.000 
#
# Total GULP energy -89612.457652 kJ/mol
# GULP energy per Si atom -5600.778603 kJ/mol
# Density = 2.881641 g / cm^3
# Si number density = 28.882145 Si / 1000 Ang^3
#
#
#
# Elastic Constant Matrix: (Units=GPa)
#
#
# Indices 1 2 3 4 5 6 
#
# 1 94.8627 37.1882 15.8173 -10.4227 26.6770 -20.0400
# 2 37.1882 185.1619 23.0374 -30.7957 9.2465 -38.5773
# 3 15.8173 23.0374 116.5849 -23.4433 22.8285 -5.3503
# 4 -10.4227 -30.7957 -23.4433 57.4103 -6.7176 9.8174
# 5 26.6770 9.2465 22.8285 -6.7176 39.1836 -9.6642
# 6 -20.0400 -38.5773 -5.3503 9.8174 -9.6642 51.2607
#
#
#
# Elastic Compliance Matrix: (Units=1/GPa)
#
#
# Indices 1 2 3 4 5 6 
#
# 1 0.014257 -0.001911 0.000329 0.000247 -0.008797 0.002465
# 2 -0.001911 0.007138 -0.000730 0.002624 0.001562 0.004341
# 3 0.000329 -0.000730 0.010460 0.003444 -0.005823 -0.001087
# 4 0.000247 0.002624 0.003444 0.020567 0.000378 -0.001437
# 5 -0.008797 0.001562 -0.005823 0.000378 0.035525 0.003754
# 6 0.002465 0.004341 -0.001087 -0.001437 0.003754 0.024608
#
#
# Mechanical properties :
#
#
# Convention : Reuss Voigt Hill
#
# Bulk Modulus (GPa) = 36.72299 60.96614 48.84456
# Shear Modulus (GPa) = 39.60193 50.94203 45.27198
#
# Velocity S-wave (km/s) = 3.70693 4.20431 3.96343
# Velocity P-wave (km/s) = 5.57352 6.68750 6.15576
#
# Compressibility (1/GPa) = 0.02723090
#
# Stress axis : x y z
#
# Youngs Moduli (GPa) = 70.13909 140.09368 95.60251
#
# Poissons Ratio (x) = 0.26765 -0.03141
# Poissons Ratio (y) = 0.13400 0.06982
# Poissons Ratio (z) = -0.02304 0.10231
#
# Static dielectric constant tensor:
#      x y z
#    x 2.353470 0.054220 0.084720 
#    y 0.054220 2.233850 0.032820 
#    z 0.084720 0.032820 2.263460 
# 
# From -- ./inp_files/186926.got.cif
#   From: 2010.05.17/outbox.cif.g08.bks.cpg/sg2_94_cif.got.tgz:186926.got - 2010.06.03 11:33:40.
