data_PCOD9078807
_publ_section_title
;
Structure prediction by ZEFSAII (Michael W. Deem and Ramdas Pophale) SiO2 
 PCOD9078807
Probable space group: P -1
;
_chemical_formula_sum "Si O2"
_cell_formula_units_Z 16
_cell_length_a 9.498899
_cell_length_b 10.257467
_cell_length_c 19.854879
_cell_angle_alpha 33.329194
_cell_angle_beta 33.279221
_cell_angle_gamma 46.577475
_cell_volume 582.856907
_symmetry_space_group_name_H-M "P -1"
_symmetry_group_IT_number 2
_symmetry_cell_setting 'triclinic'
loop_
_space_group_symop_operation_xyz
x,y,z
-x,-y,-z
loop_
_atom_site_type_symbol
_atom_site_label
_atom_site_fract_x
_atom_site_fract_y
_atom_site_fract_z
Si Si1 0.803692 0.715601 0.474919
Si Si2 0.897903 0.010622 0.882396
Si Si3 0.733528 0.615416 0.034634
Si Si4 0.394140 0.807065 0.817628
Si Si5 0.944983 0.534288 0.310199
Si Si6 0.470608 0.419033 0.649843
Si Si7 0.821132 0.924924 0.523520
Si Si8 0.652197 0.883260 0.812916
O O1 0.945231 0.892137 0.288496
O O2 0.533885 0.591278 0.613083
O O3 0.765222 0.850709 0.501274
O O4 0.000000 0.500000 0.500000
O O5 0.861527 0.248004 0.837747
O O6 0.102936 0.876647 0.902894
O O7 0.689594 0.813640 0.024261
O O8 0.716533 0.762626 0.909031
O O9 0.576537 0.382535 0.172372
O O10 0.000000 0.500000 0.000000
O O11 0.584893 0.017587 0.621538
O O12 0.472674 0.753676 0.884953
O O13 0.698970 0.514491 0.467365
O O14 0.806812 0.569331 0.278886
O O15 0.084359 0.297808 0.375091
O O16 0.537220 0.145008 0.755653
O O17 0.071604 0.089779 0.344227
#
# Coordination Sequence:
#
# PCOD9078807 Si02
#       8
#     2   2   2   2   2   2   2   2
#     4  11  17  32  57  84 112 146 188 231 277 339
#     4  10  18  36  59  76 111 151 197 219 270 343
#     4  10  22  39  57  81 112 158 197 226 267 346
#     4  11  24  37  54  89 118 148 185 240 286 325
#     4   9  17  32  55  84 111 144 186 231 277 338
#     4   9  17  29  58  86 103 141 197 228 267 332
#     4  11  22  35  58  91 120 140 180 246 296 326
#     4  11  19  38  61  82 112 155 192 226 279 346
#
# _framework density 27.450993
#
# number of rings (size 3 to 8) (size 9 to 14) (size 15 to 20)
#    0.000    1.750    6.250    0.750    1.750    0.500 
#    0.000    0.625    0.000    0.750    0.000    0.000 
#    0.000    0.000    0.000    0.000    0.000    0.000 
#
# Total GULP energy -89519.476425 kJ/mol
# GULP energy per Si atom -5594.967277 kJ/mol
# Density = 2.738851 g / cm^3
# Si number density = 27.450993 Si / 1000 Ang^3
#
#
#
# Elastic Constant Matrix: (Units=GPa)
#
#
# Indices 1 2 3 4 5 6 
#
# 1 208.7403 39.1885 45.7938 -6.4156 -11.9131 7.9771
# 2 39.1885 77.6639 19.0558 -6.7520 3.5670 -8.4019
# 3 45.7938 19.0558 69.2918 -15.7849 3.9650 -1.0167
# 4 -6.4156 -6.7520 -15.7849 22.4288 1.7850 1.3260
# 5 -11.9131 3.5670 3.9650 1.7850 34.3622 -18.1324
# 6 7.9771 -8.4019 -1.0167 1.3260 -18.1324 43.6158
#
#
#
# Elastic Compliance Matrix: (Units=1/GPa)
#
#
# Indices 1 2 3 4 5 6 
#
# 1 0.006273 -0.002524 -0.004076 -0.002020 0.002731 -0.000531
# 2 -0.002524 0.015171 -0.001862 0.002427 -0.000816 0.002928
# 3 -0.004076 -0.001862 0.021006 0.013577 -0.005258 -0.001722
# 4 -0.002020 0.002427 0.013577 0.055079 -0.007244 -0.003533
# 5 0.002731 -0.000816 -0.005258 -0.007244 0.039483 0.015855
# 6 -0.000531 0.002928 -0.001722 -0.003533 0.015855 0.030247
#
#
# Mechanical properties :
#
#
# Convention : Reuss Voigt Hill
#
# Bulk Modulus (GPa) = 39.17355 62.64135 50.90745
# Shear Modulus (GPa) = 25.94828 36.85857 31.40343
#
# Velocity S-wave (km/s) = 3.07784 3.66827 3.38595
# Velocity P-wave (km/s) = 5.18962 6.38831 5.81991
#
# Compressibility (1/GPa) = 0.02552743
#
# Stress axis : x y z
#
# Youngs Moduli (GPa) = 159.42159 65.91332 47.60580
#
# Poissons Ratio (x) = 0.16634 0.19403
# Poissons Ratio (y) = 0.40233 0.08864
# Poissons Ratio (z) = 0.64975 0.12273
#
# Static dielectric constant tensor:
#      x y z
#    x 2.157420 0.039210 -0.067090 
#    y 0.039210 2.157180 -0.066180 
#    z -0.067090 -0.066180 2.186660 
# 
# From -- ./inp_files/274626.got.cif
#   From: 2010.05.17/outbox.cif.g08.bks.cpg/sg2_138_cif.got.tgz:274626.got - 2010.06.03 11:33:40.
