data_PCOD9078330
_publ_section_title
;
Structure prediction by ZEFSAII (Michael W. Deem and Ramdas Pophale) SiO2 
 PCOD9078330
Probable space group: P -1
;
_chemical_formula_sum "Si O2"
_cell_formula_units_Z 16
_cell_length_a 12.633016
_cell_length_b 16.592215
_cell_length_c 8.542957
_cell_angle_alpha 52.638423
_cell_angle_beta 116.172601
_cell_angle_gamma 150.676602
_cell_volume 678.982981
_symmetry_space_group_name_H-M "P -1"
_symmetry_group_IT_number 2
_symmetry_cell_setting 'triclinic'
loop_
_space_group_symop_operation_xyz
x,y,z
-x,-y,-z
loop_
_atom_site_type_symbol
_atom_site_label
_atom_site_fract_x
_atom_site_fract_y
_atom_site_fract_z
Si Si1 0.300967 0.107170 0.670957
Si Si2 0.724127 0.136978 0.078689
Si Si3 0.138727 0.483249 0.728058
Si Si4 0.395446 0.274813 0.230723
Si Si5 0.732376 0.997407 0.739385
Si Si6 0.952709 0.876824 0.988406
Si Si7 0.334822 0.686626 0.079292
Si Si8 0.931210 0.348157 0.409177
O O1 0.338562 0.225350 0.435190
O O2 0.511760 0.236185 0.765677
O O3 0.272833 0.975525 0.726496
O O4 0.101962 0.989501 0.796951
O O5 0.731056 0.242814 0.061920
O O6 0.922660 0.286888 0.907721
O O7 0.500000 0.000000 0.000000
O O8 0.345563 0.561498 0.802067
O O9 0.181536 0.624468 0.669079
O O10 0.082140 0.454477 0.542080
O O11 0.262647 0.080776 0.302106
O O12 0.296765 0.293185 0.038556
O O13 0.753127 0.128709 0.549042
O O14 0.512511 0.803056 0.919674
O O15 0.946158 0.141835 0.824489
O O16 0.000000 0.000000 0.000000
O O17 0.101987 0.465210 0.236074
#
# Coordination Sequence:
#
# PCOD9078330 Si02
#       8
#     2   2   2   2   2   2   2   2
#     4  10  18  35  61  87 111 155 199 244 294 352
#     4   9  18  33  57  88 120 153 193 233 295 363
#     4  10  20  34  58  91 120 151 199 252 290 348
#     4  11  22  37  58  90 120 151 201 257 292 339
#     4  10  22  39  61  83 122 165 197 239 308 357
#     4   9  20  39  62  81 115 162 198 242 304 354
#     4   9  18  35  59  84 118 158 196 237 289 366
#     4  10  19  36  59  86 117 160 199 236 302 364
#
# _framework density 23.564654999999998
#
# number of rings (size 3 to 8) (size 9 to 14) (size 15 to 20)
#    0.000    2.250    1.250    2.625    3.500    0.500 
#    2.250    3.750    0.000    6.750    0.000    0.000 
#    0.000    0.000    0.000    0.000    0.000    0.000 
#
# Total GULP energy -89224.102583 kJ/mol
# GULP energy per Si atom -5576.506411 kJ/mol
# Density = 2.351102 g / cm^3
# Si number density = 23.564655 Si / 1000 Ang^3
#
#
#
# Elastic Constant Matrix: (Units=GPa)
#
#
# Indices 1 2 3 4 5 6 
#
# 1 73.7165 14.8011 11.6498 3.8582 7.4748 16.1430
# 2 14.8011 98.5713 25.7430 31.8168 1.3449 32.5142
# 3 11.6498 25.7430 73.3137 8.0083 7.8059 12.5664
# 4 3.8582 31.8168 8.0083 32.8795 5.3106 10.1499
# 5 7.4748 1.3449 7.8059 5.3106 20.7706 -2.4929
# 6 16.1430 32.5142 12.5664 10.1499 -2.4929 42.9639
#
#
#
# Elastic Compliance Matrix: (Units=1/GPa)
#
#
# Indices 1 2 3 4 5 6 
#
# 1 0.015697 -0.000738 -0.000729 0.001948 -0.006541 -0.005966
# 2 -0.000738 0.019170 -0.003684 -0.015181 0.003164 -0.009382
# 3 -0.000729 -0.003684 0.015937 0.001472 -0.006142 -0.002304
# 4 0.001948 -0.015181 0.001472 0.046993 -0.012466 -0.001499
# 5 -0.006541 0.003164 -0.006142 -0.012466 0.056761 0.008098
# 6 -0.005966 -0.009382 -0.002304 -0.001499 0.008098 0.034115
#
#
# Mechanical properties :
#
#
# Convention : Reuss Voigt Hill
#
# Bulk Modulus (GPa) = 24.69101 38.88770 31.78935
# Shear Modulus (GPa) = 23.53199 32.21665 27.87432
#
# Velocity S-wave (km/s) = 3.16351 3.70152 3.44304
# Velocity P-wave (km/s) = 4.88308 5.89972 5.41531
#
# Compressibility (1/GPa) = 0.04050057
#
# Stress axis : x y z
#
# Youngs Moduli (GPa) = 63.70800 52.16577 62.74520
#
# Poissons Ratio (x) = 0.03852 0.04573
# Poissons Ratio (y) = 0.04705 0.23117
# Poissons Ratio (z) = 0.04643 0.19220
#
# Static dielectric constant tensor:
#      x y z
#    x 1.937540 -0.027480 0.011670 
#    y -0.027480 1.898320 0.143140 
#    z 0.011670 0.143140 1.594830 
# 
# From -- ./inp_files/279106.got.cif
#   From: 2010.05.17/outbox.cif.g08.bks.cpg/sg2_140_cif.got.tgz:279106.got - 2010.06.03 11:33:40.
