data_PCOD9078378
_publ_section_title
;
Structure prediction by ZEFSAII (Michael W. Deem and Ramdas Pophale) SiO2 
 PCOD9078378
Probable space group: P -1
;
_chemical_formula_sum "Si O2"
_cell_formula_units_Z 16
_cell_length_a 7.406679
_cell_length_b 12.260734
_cell_length_c 11.285490
_cell_angle_alpha 47.864287
_cell_angle_beta 100.275948
_cell_angle_gamma 69.900602
_cell_volume 577.687031
_symmetry_space_group_name_H-M "P -1"
_symmetry_group_IT_number 2
_symmetry_cell_setting 'triclinic'
loop_
_space_group_symop_operation_xyz
x,y,z
-x,-y,-z
loop_
_atom_site_type_symbol
_atom_site_label
_atom_site_fract_x
_atom_site_fract_y
_atom_site_fract_z
Si Si1 0.906013 0.805102 0.814467
Si Si2 0.318709 0.310143 0.829870
Si Si3 0.409138 0.681366 0.936357
Si Si4 0.677939 0.217183 0.513594
Si Si5 0.910435 0.196056 0.788926
Si Si6 0.137768 0.529532 0.231943
Si Si7 0.351037 0.125933 0.757555
Si Si8 0.153862 0.098745 0.528857
O O1 0.154225 0.761657 0.892304
O O2 0.865939 0.814349 0.663399
O O3 0.500000 0.500000 0.000000
O O4 0.724995 0.019675 0.681168
O O5 0.381282 0.264323 0.730593
O O6 0.038519 0.467216 0.700758
O O7 0.438174 0.362248 0.896790
O O8 0.424723 0.097330 0.039344
O O9 0.045522 0.361806 0.980203
O O10 0.342118 0.866083 0.722921
O O11 0.724856 0.268324 0.608433
O O12 0.403645 0.367027 0.336004
O O13 0.893150 0.169789 0.488429
O O14 0.831704 0.338513 0.782643
O O15 0.136331 0.153341 0.781110
O O16 0.000000 0.000000 0.000000
O O17 0.263546 0.155763 0.592552
#
# Coordination Sequence:
#
# PCOD9078378 Si02
#       8
#     2   2   2   2   2   2   2   2
#     4  11  23  38  65  99 125 171 225 266 320 383
#     4   9  19  39  65  98 128 169 218 264 337 389
#     4  10  21  38  68  91 124 173 221 269 317 391
#     4  10  20  37  60  92 136 169 221 273 317 389
#     4  10  18  35  61  99 125 171 224 271 324 381
#     4  11  23  36  65  95 133 173 211 273 337 381
#     4   8  17  37  67  89 128 176 208 270 328 380
#     4   9  20  38  64  94 131 169 225 271 312 390
#
# _framework density 27.696656000000001
#
# number of rings (size 3 to 8) (size 9 to 14) (size 15 to 20)
#    0.000    2.250    1.250    2.625    3.500    0.000 
#    0.000    3.125    8.250    2.250    0.000    0.000 
#    0.000    0.125    0.000    0.000    0.000    0.000 
#
# Total GULP energy -89576.477760 kJ/mol
# GULP energy per Si atom -5598.529860 kJ/mol
# Density = 2.763362 g / cm^3
# Si number density = 27.696656 Si / 1000 Ang^3
#
#
#
# Elastic Constant Matrix: (Units=GPa)
#
#
# Indices 1 2 3 4 5 6 
#
# 1 76.8413 51.3925 28.6703 -4.1184 21.8516 -4.9905
# 2 51.3925 179.2926 84.2639 1.6636 28.5252 32.0581
# 3 28.6703 84.2639 145.5898 -4.3234 32.9838 13.5864
# 4 -4.1184 1.6636 -4.3234 74.5964 4.0708 17.7055
# 5 21.8516 28.5252 32.9838 4.0708 40.3275 0.3219
# 6 -4.9905 32.0581 13.5864 17.7055 0.3219 33.4996
#
#
#
# Elastic Compliance Matrix: (Units=1/GPa)
#
#
# Indices 1 2 3 4 5 6 
#
# 1 0.019555 -0.006452 0.000452 -0.000604 -0.006416 0.009285
# 2 -0.006452 0.011553 -0.003936 0.001959 -0.001563 -0.011441
# 3 0.000452 -0.003936 0.010624 0.001337 -0.006276 -0.001121
# 4 -0.000604 0.001959 0.001337 0.016231 -0.003702 -0.011049
# 5 -0.006416 -0.001563 -0.006276 -0.003702 0.034848 0.004707
# 6 0.009285 -0.011441 -0.001121 -0.011049 0.004707 0.048432
#
#
# Mechanical properties :
#
#
# Convention : Reuss Voigt Hill
#
# Bulk Modulus (GPa) = 45.74393 81.15301 63.44847
# Shear Modulus (GPa) = 29.69118 45.51117 37.60118
#
# Velocity S-wave (km/s) = 3.27771 4.05804 3.68857
# Velocity P-wave (km/s) = 5.55666 7.16388 6.41083
#
# Compressibility (1/GPa) = 0.02186082
#
# Stress axis : x y z
#
# Youngs Moduli (GPa) = 51.13766 86.55944 94.12776
#
# Poissons Ratio (x) = 0.55845 -0.04257
# Poissons Ratio (y) = 0.32992 0.37049
# Poissons Ratio (z) = -0.02313 0.34070
#
# Static dielectric constant tensor:
#      x y z
#    x 2.211440 0.016510 -0.153050 
#    y 0.016510 2.197180 0.018250 
#    z -0.153050 0.018250 2.314970 
# 
# From -- ./inp_files/431339.got.cif
#   From: 2010.05.17/outbox.cif.g08.bks.cpg/sg2_216_cif.got.tgz:431339.got - 2010.06.03 11:33:40.
