data_PCOD9078825
_publ_section_title
;
Structure prediction by ZEFSAII (Michael W. Deem and Ramdas Pophale) SiO2 
 PCOD9078825
Probable space group: P -1
;
_chemical_formula_sum "Si O2"
_cell_formula_units_Z 16
_cell_length_a 17.456834
_cell_length_b 9.031722
_cell_length_c 11.384400
_cell_angle_alpha 72.493241
_cell_angle_beta 151.404972
_cell_angle_gamma 111.462339
_cell_volume 798.666604
_symmetry_space_group_name_H-M "P -1"
_symmetry_group_IT_number 2
_symmetry_cell_setting 'triclinic'
loop_
_space_group_symop_operation_xyz
x,y,z
-x,-y,-z
loop_
_atom_site_type_symbol
_atom_site_label
_atom_site_fract_x
_atom_site_fract_y
_atom_site_fract_z
Si Si1 0.915953 0.480574 0.036260
Si Si2 0.150800 0.043349 0.099832
Si Si3 0.217988 0.785054 0.403181
Si Si4 0.103864 0.940178 0.439398
Si Si5 0.091511 0.357041 0.636246
Si Si6 0.311467 0.384227 0.153356
Si Si7 0.343897 0.540144 0.510510
Si Si8 0.824794 0.706874 0.492767
O O1 0.770202 0.482585 0.930886
O O2 0.820917 0.470393 0.787361
O O3 0.045046 0.650678 0.194134
O O4 0.010676 0.340807 0.220911
O O5 0.259933 0.222912 0.201222
O O6 0.243990 0.911322 0.300731
O O7 0.056435 0.028300 0.853270
O O8 0.000000 0.000000 0.000000
O O9 0.206927 0.873112 0.491424
O O10 0.350485 0.680822 0.580716
O O11 0.044901 0.805600 0.488773
O O12 0.180205 0.109666 0.556730
O O13 0.175238 0.361800 0.621499
O O14 0.000000 0.500000 0.500000
O O15 0.223730 0.355464 0.915960
O O16 0.502990 0.433282 0.375077
O O17 0.316578 0.382583 0.589117
#
# Coordination Sequence:
#
# PCOD9078825 Si02
#       8
#     2   2   2   2   2   2   2   2
#     4  11  19  39  58  87 116 154 195 234 281 350
#     4   9  16  31  59  80 110 151 192 231 281 338
#     4  10  18  36  59  83 117 158 189 231 284 350
#     4  10  19  34  60  88 109 145 202 242 274 328
#     4  11  20  40  64  84 112 149 203 239 278 342
#     4  11  22  37  59  87 118 154 187 243 293 339
#     4  11  24  35  56  91 123 148 190 236 299 343
#     4  11  22  36  63  88 112 156 196 238 278 342
#
# _framework density 20.033390000000001
#
# number of rings (size 3 to 8) (size 9 to 14) (size 15 to 20)
#    0.000    1.500    5.000    4.500    1.750    1.000 
#    0.000    0.000    0.000    1.500    0.000    0.000 
#    0.000    0.000    0.000    0.000    0.000    0.000 
#
# Total GULP energy -89149.051412 kJ/mol
# GULP energy per Si atom -5571.815713 kJ/mol
# Density = 1.998779 g / cm^3
# Si number density = 20.033390 Si / 1000 Ang^3
#
#
#
# Elastic Constant Matrix: (Units=GPa)
#
#
# Indices 1 2 3 4 5 6 
#
# 1 99.1283 21.7162 15.2907 10.2748 8.2623 1.1131
# 2 21.7162 111.9534 10.9836 1.4736 14.3934 8.3318
# 3 15.2907 10.9836 24.8512 -0.4682 4.4720 5.1547
# 4 10.2748 1.4736 -0.4682 11.9524 2.2981 -5.2092
# 5 8.2623 14.3934 4.4720 2.2981 34.3445 -0.2808
# 6 1.1131 8.3318 5.1547 -5.2092 -0.2808 37.9727
#
#
#
# Elastic Compliance Matrix: (Units=1/GPa)
#
#
# Indices 1 2 3 4 5 6 
#
# 1 0.012741 -0.001479 -0.007128 -0.011171 -0.000775 -0.000619
# 2 -0.001479 0.010063 -0.002516 -0.000206 -0.003535 -0.001878
# 3 -0.007128 -0.002516 0.047565 0.006979 -0.003930 -0.004768
# 4 -0.011171 -0.000206 0.006979 0.100202 -0.004733 0.013136
# 5 -0.000775 -0.003535 -0.003930 -0.004733 0.031621 0.000917
# 6 -0.000619 -0.001878 -0.004768 0.013136 0.000917 0.029221
#
#
# Mechanical properties :
#
#
# Convention : Reuss Voigt Hill
#
# Bulk Modulus (GPa) = 20.78023 36.87931 28.82977
# Shear Modulus (GPa) = 18.53916 29.38341 23.96129
#
# Velocity S-wave (km/s) = 3.04536 3.83394 3.46217
# Velocity P-wave (km/s) = 4.77084 6.16828 5.51401
#
# Compressibility (1/GPa) = 0.04812267
#
# Stress axis : x y z
#
# Youngs Moduli (GPa) = 78.48730 99.37366 21.02390
#
# Poissons Ratio (x) = 0.14701 0.14986
# Poissons Ratio (y) = 0.11611 0.05289
# Poissons Ratio (z) = 0.55947 0.24998
#
# Static dielectric constant tensor:
#      x y z
#    x 1.766840 -0.017650 0.004010 
#    y -0.017650 1.760280 -0.000450 
#    z 0.004010 -0.000450 1.755110 
# 
# From -- ./inp_files/461187.got.cif
#   From: 2010.05.17/outbox.cif.g08.bks.cpg/sg2_231_cif.got.tgz:461187.got - 2010.06.03 11:33:40.
