data_PCOD9078080
_publ_section_title
;
Structure prediction by ZEFSAII (Michael W. Deem and Ramdas Pophale) SiO2 
 PCOD9078080
Probable space group: P -1
;
_chemical_formula_sum "Si O2"
_cell_formula_units_Z 16
_cell_length_a 26.564634
_cell_length_b 17.723067
_cell_length_c 11.034280
_cell_angle_alpha 32.943196
_cell_angle_beta 146.719073
_cell_angle_gamma 164.358169
_cell_volume 747.831987
_symmetry_space_group_name_H-M "P -1"
_symmetry_group_IT_number 2
_symmetry_cell_setting 'triclinic'
loop_
_space_group_symop_operation_xyz
x,y,z
-x,-y,-z
loop_
_atom_site_type_symbol
_atom_site_label
_atom_site_fract_x
_atom_site_fract_y
_atom_site_fract_z
Si Si1 0.120801 0.708946 0.110606
Si Si2 0.134932 0.390064 0.183999
Si Si3 0.168696 0.235931 0.665896
Si Si4 0.183652 0.506400 0.629773
Si Si5 0.354269 0.109379 0.821960
Si Si6 0.872453 0.938701 0.659273
Si Si7 0.676099 0.380147 0.996216
Si Si8 0.469375 0.672354 0.875150
O O1 0.103505 0.530882 0.363545
O O2 0.683135 0.980311 0.845854
O O3 0.188235 0.817798 0.960581
O O4 0.948150 0.579655 0.969434
O O5 0.237300 0.424689 0.440159
O O6 0.264225 0.585986 0.062598
O O7 0.947184 0.050592 0.227023
O O8 0.334449 0.421432 0.844715
O O9 0.011100 0.118238 0.578813
O O10 0.361170 0.672747 0.691145
O O11 0.252049 0.623313 0.746365
O O12 0.013626 0.168757 0.740488
O O13 0.497436 0.349505 0.895256
O O14 0.280383 0.143845 0.556279
O O15 0.459493 0.135995 0.915552
O O16 0.781859 0.667848 0.843420
#
# Coordination Sequence:
#
# PCOD9078080 Si02
#       8
#     2   2   2   2   2   2   2   2
#     4  10  20  36  55  83 106 143 180 219 263 317
#     4  10  20  34  54  80 109 147 172 217 268 322
#     4   9  17  35  55  77 110 139 181 215 264 318
#     4  10  20  35  57  81 107 141 182 223 264 313
#     4   9  19  35  56  84 106 134 179 229 265 310
#     4  10  18  35  58  84 103 138 185 227 261 309
#     4  10  21  35  55  78 114 142 170 222 276 316
#     4   8  18  33  55  81 100 139 178 227 257 303
#
# _framework density 21.395178999999999
#
# number of rings (size 3 to 8) (size 9 to 14) (size 15 to 20)
#    0.750    1.750    1.250    1.125    0.000    2.500 
#    0.000    1.250    0.000    1.500    0.000    0.000 
#    0.000    0.000    0.000    0.000    0.000    0.000 
#
# Total GULP energy -89219.010022 kJ/mol
# GULP energy per Si atom -5576.188126 kJ/mol
# Density = 2.134648 g / cm^3
# Si number density = 21.395179 Si / 1000 Ang^3
#
#
#
# Elastic Constant Matrix: (Units=GPa)
#
#
# Indices 1 2 3 4 5 6 
#
# 1 100.5225 18.7480 31.3881 7.2144 -4.7935 19.3416
# 2 18.7480 53.7428 4.3176 11.8641 3.2319 4.2592
# 3 31.3881 4.3176 87.3283 10.4830 0.4986 9.6908
# 4 7.2144 11.8641 10.4830 20.4238 1.8184 -7.5878
# 5 -4.7935 3.2319 0.4986 1.8184 25.7715 2.6512
# 6 19.3416 4.2592 9.6908 -7.5878 2.6512 24.9430
#
#
#
# Elastic Compliance Matrix: (Units=1/GPa)
#
#
# Indices 1 2 3 4 5 6 
#
# 1 0.014435 -0.002534 -0.002859 -0.007177 0.004834 -0.012347
# 2 -0.002534 0.023833 0.002736 -0.017301 -0.001441 -0.008278
# 3 -0.002859 0.002736 0.014411 -0.010653 0.000331 -0.007125
# 4 -0.007177 -0.017301 -0.010653 0.082120 -0.008721 0.038567
# 5 0.004834 -0.001441 0.000331 -0.008721 0.041593 -0.010705
# 6 -0.012347 -0.008278 -0.007125 0.038567 -0.010705 0.066718
#
#
# Mechanical properties :
#
#
# Convention : Reuss Voigt Hill
#
# Bulk Modulus (GPa) = 21.11232 38.94455 30.02844
# Shear Modulus (GPa) = 18.92432 26.70364 22.81398
#
# Velocity S-wave (km/s) = 2.97730 3.53670 3.26899
# Velocity P-wave (km/s) = 4.65922 5.90929 5.32109
#
# Compressibility (1/GPa) = 0.04736571
#
# Stress axis : x y z
#
# Youngs Moduli (GPa) = 69.27838 41.95835 69.39208
#
# Poissons Ratio (x) = 0.10631 0.19838
# Poissons Ratio (y) = 0.17552 -0.18985
# Poissons Ratio (z) = 0.19805 -0.11480
#
# Static dielectric constant tensor:
#      x y z
#    x 1.775790 -0.012290 -0.014150 
#    y -0.012290 1.859450 -0.025710 
#    z -0.014150 -0.025710 1.748450 
# 
# From -- ./inp_files/477000.got.cif
#   From: 2010.05.17/outbox.cif.g08.bks.cpg/sg2_239_cif.got.tgz:477000.got - 2010.06.03 11:33:40.
