data_PCOD9078713
_publ_section_title
;
Structure prediction by ZEFSAII (Michael W. Deem and Ramdas Pophale) SiO2 
 PCOD9078713
Probable space group: P -1
;
_chemical_formula_sum "Si O2"
_cell_formula_units_Z 16
_cell_length_a 9.000276
_cell_length_b 17.325573
_cell_length_c 8.173285
_cell_angle_alpha 109.945214
_cell_angle_beta 48.695808
_cell_angle_gamma 129.369087
_cell_volume 733.531532
_symmetry_space_group_name_H-M "P -1"
_symmetry_group_IT_number 2
_symmetry_cell_setting 'triclinic'
loop_
_space_group_symop_operation_xyz
x,y,z
-x,-y,-z
loop_
_atom_site_type_symbol
_atom_site_label
_atom_site_fract_x
_atom_site_fract_y
_atom_site_fract_z
Si Si1 0.231376 0.354903 0.997596
Si Si2 0.565200 0.689802 0.760182
Si Si3 0.114856 0.165280 0.103894
Si Si4 0.835210 0.335375 0.754376
Si Si5 0.340059 0.460972 0.349887
Si Si6 0.579387 0.061246 0.280329
Si Si7 0.259707 0.754534 0.901897
Si Si8 0.508330 0.873244 0.289189
O O1 0.433430 0.427369 0.771327
O O2 0.230120 0.257532 0.958940
O O3 0.279684 0.408916 0.176275
O O4 0.962346 0.314570 0.107721
O O5 0.811009 0.781693 0.733475
O O6 0.589478 0.600980 0.635688
O O7 0.461930 0.731043 0.737433
O O8 0.358304 0.645159 0.022810
O O9 0.835627 0.100336 0.211193
O O10 0.255561 0.114217 0.946155
O O11 0.706297 0.245408 0.651465
O O12 0.087970 0.433512 0.584920
O O13 0.854510 0.281167 0.860156
O O14 0.629857 0.130232 0.138132
O O15 0.452788 0.089037 0.526202
O O16 0.453985 0.942759 0.275273
#
# Coordination Sequence:
#
# PCOD9078713 Si02
#       8
#     2   2   2   2   2   2   2   2
#     4   9  19  33  56  79 100 134 179 211 246 299
#     4   8  18  33  51  73 105 137 168 202 261 299
#     4   9  17  36  53  74 105 135 167 212 255 300
#     4   9  19  34  52  74 106 138 165 207 262 301
#     4  10  18  36  57  72 103 143 169 208 254 301
#     4  10  20  34  56  80 100 129 179 214 246 305
#     4   9  19  36  49  77 110 129 169 218 248 302
#     4  10  19  34  58  76  99 138 172 207 261 304
#
# _framework density 21.812287000000001
#
# number of rings (size 3 to 8) (size 9 to 14) (size 15 to 20)
#    0.750    2.000    0.000    2.625    0.000    1.500 
#    4.500   12.500    0.000    2.250    0.000    0.000 
#    0.000    0.000    0.000    0.000    0.000    0.000 
#
# Total GULP energy -89160.246257 kJ/mol
# GULP energy per Si atom -5572.515391 kJ/mol
# Density = 2.176264 g / cm^3
# Si number density = 21.812287 Si / 1000 Ang^3
#
#
#
# Elastic Constant Matrix: (Units=GPa)
#
#
# Indices 1 2 3 4 5 6 
#
# 1 81.5085 6.6813 -8.5273 -4.8452 -2.8609 -2.5777
# 2 6.6813 40.7214 -1.4244 -3.6925 -2.6410 -0.9872
# 3 -8.5273 -1.4244 43.5332 -9.9603 2.7055 -2.9919
# 4 -4.8452 -3.6925 -9.9603 20.1154 -0.7780 -2.5495
# 5 -2.8609 -2.6410 2.7055 -0.7780 25.4902 -5.3211
# 6 -2.5777 -0.9872 -2.9919 -2.5495 -5.3211 9.8112
#
#
#
# Elastic Compliance Matrix: (Units=1/GPa)
#
#
# Indices 1 2 3 4 5 6 
#
# 1 0.013556 -0.001114 0.004455 0.006387 0.002795 0.007983
# 2 -0.001114 0.025854 0.002388 0.006689 0.003948 0.006916
# 3 0.004455 0.002388 0.029012 0.017929 0.001499 0.015730
# 4 0.006387 0.006689 0.017929 0.065308 0.007527 0.028872
# 5 0.002795 0.003948 0.001499 0.007527 0.045968 0.028476
# 6 0.007983 0.006916 0.015730 0.028872 0.028476 0.132461
#
#
# Mechanical properties :
#
#
# Convention : Reuss Voigt Hill
#
# Bulk Modulus (GPa) = 12.51886 17.69136 15.10511
# Shear Modulus (GPa) = 15.27523 22.35225 18.81374
#
# Velocity S-wave (km/s) = 2.64920 3.20465 2.94007
# Velocity P-wave (km/s) = 3.88709 4.67134 4.29714
#
# Compressibility (1/GPa) = 0.07987948
#
# Stress axis : x y z
#
# Youngs Moduli (GPa) = 73.76625 38.67907 34.46883
#
# Poissons Ratio (x) = 0.04311 -0.15357
# Poissons Ratio (y) = 0.08221 -0.08231
# Poissons Ratio (z) = -0.32865 -0.09237
#
# Static dielectric constant tensor:
#      x y z
#    x 1.828590 0.018870 0.001000 
#    y 0.018870 1.834830 0.001930 
#    z 0.001000 0.001930 1.807550 
# 
# From -- ./inp_files/217995.got.cif
#   From: 2010.05.17/outbox.cif.g08.bks.cpg/sg2_109_cif.got.tgz:217995.got - 2010.06.03 11:33:40.
