data_PCOD9078733
_publ_section_title
;
Structure prediction by ZEFSAII (Michael W. Deem and Ramdas Pophale) SiO2 
 PCOD9078733
Probable space group: P -1
;
_chemical_formula_sum "Si O2"
_cell_formula_units_Z 14
_cell_length_a 8.209479
_cell_length_b 9.469205
_cell_length_c 10.841969
_cell_angle_alpha 61.247956
_cell_angle_beta 80.782880
_cell_angle_gamma 111.090907
_cell_volume 629.596852
_symmetry_space_group_name_H-M "P -1"
_symmetry_group_IT_number 2
_symmetry_cell_setting 'triclinic'
loop_
_space_group_symop_operation_xyz
x,y,z
-x,-y,-z
loop_
_atom_site_type_symbol
_atom_site_label
_atom_site_fract_x
_atom_site_fract_y
_atom_site_fract_z
Si Si1 0.080185 0.903974 0.622789
Si Si2 0.131057 0.001841 0.215092
Si Si3 0.490316 0.953732 0.732649
Si Si4 0.507797 0.442211 0.664118
Si Si5 0.475864 0.775912 0.562713
Si Si6 0.330964 0.020222 0.943788
Si Si7 0.950207 0.627639 0.540367
O O1 0.047140 0.724526 0.620927
O O2 0.296618 0.075151 0.539444
O O3 0.000000 0.000000 0.500000
O O4 0.957842 0.874992 0.774962
O O5 0.994630 0.798876 0.373163
O O6 0.341374 0.072348 0.219731
O O7 0.163571 0.973573 0.080192
O O8 0.414245 0.834248 0.669429
O O9 0.590597 0.169366 0.578957
O O10 0.322720 0.912901 0.864704
O O11 0.500000 0.500000 0.500000
O O12 0.435697 0.571175 0.679369
O O13 0.393586 0.227635 0.803299
O O14 0.725491 0.512869 0.643044
O O15 0.500000 0.000000 0.000000
O O16 0.000000 0.500000 0.500000
#
# Coordination Sequence:
#
# PCOD9078733 Si02
#       7
#     2   2   2   2   2   2   2
#     4  10  18  36  57  84 117 153 207 234 297 348
#     4  10  19  39  58  84 119 161 193 238 303 358
#     4  10  19  34  58  86 117 156 192 242 302 345
#     4  12  23  38  59  94 118 152 209 249 286 352
#     4  11  20  35  61  89 116 155 199 253 285 347
#     4  10  22  38  58  88 128 157 191 245 311 357
#     4  11  21  35  61  87 116 156 206 246 284 355
#
# _framework density 22.236450999999999
#
# number of rings (size 3 to 8) (size 9 to 14) (size 15 to 20)
#    0.000    1.429    7.143    1.714    0.000    0.000 
#    0.000   10.714    0.000    0.000    0.000   13.000 
#    0.000    0.000    0.000    0.000    0.000    0.000 
#
# Total GULP energy -77950.175479 kJ/mol
# GULP energy per Si atom -5567.869677 kJ/mol
# Density = 2.218584 g / cm^3
# Si number density = 22.236451 Si / 1000 Ang^3
#
#
#
# Elastic Constant Matrix: (Units=GPa)
#
#
# Indices 1 2 3 4 5 6 
#
# 1 55.1018 24.0473 9.6865 10.6167 3.6961 -6.9982
# 2 24.0473 113.4917 34.8797 25.2389 -13.2351 -45.4329
# 3 9.6865 34.8797 73.7034 28.8995 -17.3164 -22.3944
# 4 10.6167 25.2389 28.8995 44.7925 -18.7070 -8.4158
# 5 3.6961 -13.2351 -17.3164 -18.7070 34.9700 3.2008
# 6 -6.9982 -45.4329 -22.3944 -8.4158 3.2008 43.0007
#
#
#
# Elastic Compliance Matrix: (Units=1/GPa)
#
#
# Indices 1 2 3 4 5 6 
#
# 1 0.021676 -0.005142 -0.000955 -0.005179 -0.007217 -0.002878
# 2 -0.005142 0.018190 -0.000255 -0.004181 0.003493 0.017171
# 3 -0.000955 -0.000255 0.021312 -0.009933 0.004475 0.008397
# 4 -0.005179 -0.004181 -0.009933 0.037612 0.014547 -0.004155
# 5 -0.007217 0.003493 0.004475 0.014547 0.040249 0.004698
# 6 -0.002878 0.017171 0.008397 -0.004155 0.004698 0.044139
#
#
# Mechanical properties :
#
#
# Convention : Reuss Voigt Hill
#
# Bulk Modulus (GPa) = 20.62916 42.16932 31.39924
# Shear Modulus (GPa) = 23.58045 36.13154 29.85600
#
# Velocity S-wave (km/s) = 3.25997 4.03535 3.66821
# Velocity P-wave (km/s) = 4.84430 6.38101 5.66500
#
# Compressibility (1/GPa) = 0.04847508
#
# Stress axis : x y z
#
# Youngs Moduli (GPa) = 46.13304 54.97493 46.92230
#
# Poissons Ratio (x) = 0.28265 0.04481
# Poissons Ratio (y) = 0.23719 0.01197
# Poissons Ratio (z) = 0.04406 0.01403
#
# Static dielectric constant tensor:
#      x y z
#    x 2.093900 -0.118230 -0.008240 
#    y -0.118230 2.061270 0.078700 
#    z -0.008240 0.078700 1.836610 
# 
# From -- ./inp_files/358746.got.cif
#   From: 2010.05.17/outbox.cif.g08.bks.cpg/sg2_180_cif.got.tgz:358746.got - 2010.06.03 11:33:40.
