data_PCOD9078870
_publ_section_title
;
Structure prediction by ZEFSAII (Michael W. Deem and Ramdas Pophale) SiO2 
 PCOD9078870
Probable space group: P -1
;
_chemical_formula_sum "Si O2"
_cell_formula_units_Z 14
_cell_length_a 16.909228
_cell_length_b 7.760934
_cell_length_c 17.102286
_cell_angle_alpha 125.131865
_cell_angle_beta 26.372880
_cell_angle_gamma 139.656048
_cell_volume 598.722912
_symmetry_space_group_name_H-M "P -1"
_symmetry_group_IT_number 2
_symmetry_cell_setting 'triclinic'
loop_
_space_group_symop_operation_xyz
x,y,z
-x,-y,-z
loop_
_atom_site_type_symbol
_atom_site_label
_atom_site_fract_x
_atom_site_fract_y
_atom_site_fract_z
Si Si1 0.871918 0.215436 0.990521
Si Si2 0.146545 0.909111 0.372006
Si Si3 0.432157 0.667445 0.767726
Si Si4 0.847784 0.770503 0.971605
Si Si5 0.515138 0.750038 0.961406
Si Si6 0.179663 0.414516 0.296913
Si Si7 0.812323 0.889564 0.368302
O O1 0.671260 0.182166 0.113202
O O2 0.000000 0.500000 0.000000
O O3 0.064893 0.243599 0.774009
O O4 0.773153 0.951811 0.065725
O O5 0.347463 0.151734 0.318925
O O6 0.286708 0.948949 0.180086
O O7 0.000000 0.000000 0.500000
O O8 0.951416 0.613664 0.515372
O O9 0.545835 0.683499 0.588181
O O10 0.218469 0.356134 0.915526
O O11 0.678060 0.492135 0.993359
O O12 0.117026 0.975582 0.747151
O O13 0.364249 0.701194 0.157565
O O14 0.664799 0.664796 0.835156
O O15 0.977958 0.163757 0.350646
#
# Coordination Sequence:
#
# PCOD9078870 Si02
#       7
#     2   2   2   2   2   2   2
#     4  10  22  38  54  81 108 133 186 230 258 322
#     4   8  14  24  46  74  96 131 170 197 250 314
#     4  10  18  36  60  73 107 150 166 219 283 298
#     4   8  18  35  52  81 106 136 180 220 258 325
#     4   8  12  22  45  71  94 134 165 197 256 301
#     4   8  12  22  45  71  94 134 165 197 256 301
#     4   8  18  35  52  81 106 136 180 220 258 325
#
# _framework density 23.383102999999998
#
# number of rings (size 3 to 8) (size 9 to 14) (size 15 to 20)
#    0.857    2.571    0.000    0.000    0.000    1.143 
#    2.571    0.714    0.000   27.429    0.000    0.000 
#    0.000    0.000    0.000    0.000    0.000    0.000 
#
# Total GULP energy -78013.129545 kJ/mol
# GULP energy per Si atom -5572.366396 kJ/mol
# Density = 2.332988 g / cm^3
# Si number density = 23.383103 Si / 1000 Ang^3
#
#
#
# Elastic Constant Matrix: (Units=GPa)
#
#
# Indices 1 2 3 4 5 6 
#
# 1 83.4728 38.7166 56.6194 -14.3752 22.1873 -25.2390
# 2 38.7166 111.4879 49.8717 10.8142 18.7343 -11.8527
# 3 56.6194 49.8717 196.1050 -16.7474 57.9782 -38.3596
# 4 -14.3752 10.8142 -16.7474 33.6951 -21.0447 6.5582
# 5 22.1873 18.7343 57.9782 -21.0447 57.6944 -21.0241
# 6 -25.2390 -11.8527 -38.3596 6.5582 -21.0241 46.2878
#
#
#
# Elastic Compliance Matrix: (Units=1/GPa)
#
#
# Indices 1 2 3 4 5 6 
#
# 1 0.019788 -0.006376 -0.002941 0.009896 0.003551 0.006931
# 2 -0.006376 0.013460 -0.001356 -0.010525 -0.005119 -0.001988
# 3 -0.002941 -0.001356 0.008620 -0.001149 -0.006661 0.002330
# 4 0.009896 -0.010525 -0.001149 0.048322 0.019814 0.003902
# 5 0.003551 -0.005119 -0.006661 0.019814 0.034445 0.007943
# 6 0.006931 -0.001988 0.002330 0.003902 0.007943 0.029860
#
#
# Mechanical properties :
#
#
# Convention : Reuss Voigt Hill
#
# Bulk Modulus (GPa) = 48.72756 75.72011 62.22383
# Shear Modulus (GPa) = 27.36980 43.92599 35.64789
#
# Velocity S-wave (km/s) = 3.42496 4.33891 3.90874
# Velocity P-wave (km/s) = 6.04355 7.58645 6.85852
#
# Compressibility (1/GPa) = 0.02052227
#
# Stress axis : x y z
#
# Youngs Moduli (GPa) = 50.53604 74.29262 116.00340
#
# Poissons Ratio (x) = 0.47369 0.34113
# Poissons Ratio (y) = 0.32222 0.15735
# Poissons Ratio (z) = 0.14861 0.10077
#
# Static dielectric constant tensor:
#      x y z
#    x 1.855200 -0.037020 0.091450 
#    y -0.037020 1.847200 -0.043320 
#    z 0.091450 -0.043320 1.939840 
# 
# From -- ./inp_files/54554.got.cif
#   From: 2010.05.17/outbox.cif.g08.bks.cpg/sg2_28_cif.got.tgz:54554.got - 2010.06.03 11:33:40.
