data_PCOD9078332
_publ_section_title
;
Structure prediction by ZEFSAII (Michael W. Deem and Ramdas Pophale) SiO2 
 PCOD9078332
Probable space group: P -1
;
_chemical_formula_sum "Si O2"
_cell_formula_units_Z 16
_cell_length_a 15.803323
_cell_length_b 12.592245
_cell_length_c 7.639907
_cell_angle_alpha 104.614687
_cell_angle_beta 119.987624
_cell_angle_gamma 37.247622
_cell_volume 765.682360
_symmetry_space_group_name_H-M "P -1"
_symmetry_group_IT_number 2
_symmetry_cell_setting 'triclinic'
loop_
_space_group_symop_operation_xyz
x,y,z
-x,-y,-z
loop_
_atom_site_type_symbol
_atom_site_label
_atom_site_fract_x
_atom_site_fract_y
_atom_site_fract_z
Si Si1 0.922009 0.781646 0.148631
Si Si2 0.376677 0.814328 0.089595
Si Si3 0.809369 0.200615 0.912279
Si Si4 0.723982 0.445764 0.635065
Si Si5 0.918742 0.470266 0.494638
Si Si6 0.511304 0.147631 0.475551
Si Si7 0.708211 0.458515 0.205324
Si Si8 0.747671 0.786619 0.701799
O O1 0.094607 0.667384 0.206818
O O2 0.947929 0.721375 0.348221
O O3 0.862512 0.738712 0.941900
O O4 0.781027 0.998401 0.090071
O O5 0.302410 0.803235 0.158285
O O6 0.471247 0.827533 0.293274
O O7 0.515292 0.635794 0.040794
O O8 0.730560 0.335829 0.723367
O O9 0.793236 0.292667 0.104300
O O10 0.000000 0.000000 0.000000
O O11 0.583856 0.662293 0.625359
O O12 0.713361 0.430061 0.408630
O O13 0.800189 0.492047 0.283277
O O14 0.820665 0.617133 0.609233
O O15 0.000000 0.500000 0.500000
O O16 0.402815 0.137611 0.326373
O O17 0.691647 0.930735 0.563309
#
# Coordination Sequence:
#
# PCOD9078332 Si02
#       8
#     2   2   2   2   2   2   2   2
#     4  10  20  36  64  88 123 166 206 252 312 369
#     4  10  20  43  62  89 127 165 209 261 317 370
#     4  12  25  40  70  97 118 164 220 263 312 380
#     4  10  21  42  61  96 127 163 211 257 315 369
#     4  11  23  38  58  92 128 162 205 255 309 370
#     4   9  19  34  62  85 122 158 204 249 302 372
#     4  10  24  44  63  90 134 165 203 268 315 369
#     4  10  18  35  61  87 115 168 203 240 306 368
#
# _framework density 20.896395999999999
#
# number of rings (size 3 to 8) (size 9 to 14) (size 15 to 20)
#    0.000    1.750    5.000    0.750    1.750    2.500 
#    2.250    0.625    0.000    0.000    0.000    0.000 
#    0.000    0.000    0.000    0.000    0.000    0.000 
#
# Total GULP energy -89070.132693 kJ/mol
# GULP energy per Si atom -5566.883293 kJ/mol
# Density = 2.084883 g / cm^3
# Si number density = 20.896396 Si / 1000 Ang^3
#
#
#
# Elastic Constant Matrix: (Units=GPa)
#
#
# Indices 1 2 3 4 5 6 
#
# 1 97.9725 23.4600 21.0679 -16.3705 -2.1319 14.8298
# 2 23.4600 117.5785 29.4330 -20.5785 -3.3071 9.7210
# 3 21.0679 29.4330 43.1878 -18.0327 10.8548 -1.2689
# 4 -16.3705 -20.5785 -18.0327 45.1439 8.1145 -7.7047
# 5 -2.1319 -3.3071 10.8548 8.1145 26.6988 -12.5102
# 6 14.8298 9.7210 -1.2689 -7.7047 -12.5102 22.4221
#
#
#
# Elastic Compliance Matrix: (Units=1/GPa)
#
#
# Indices 1 2 3 4 5 6 
#
# 1 0.013028 -0.000275 -0.005707 0.000980 -0.001281 -0.009199
# 2 -0.000275 0.010999 -0.007863 0.000719 0.002812 -0.003216
# 3 -0.005707 -0.007863 0.044143 0.016573 -0.023300 0.002376
# 4 0.000980 0.000719 0.016573 0.032653 -0.015229 0.002702
# 5 -0.001281 0.002812 -0.023300 -0.015229 0.065747 0.029760
# 6 -0.009199 -0.003216 0.002376 0.002702 0.029760 0.069744
#
#
# Mechanical properties :
#
#
# Convention : Reuss Voigt Hill
#
# Bulk Modulus (GPa) = 24.70309 45.18451 34.94380
# Shear Modulus (GPa) = 18.01815 31.17148 24.59482
#
# Velocity S-wave (km/s) = 2.93961 3.86646 3.43445
# Velocity P-wave (km/s) = 4.83416 6.45002 5.69965
#
# Compressibility (1/GPa) = 0.04048077
#
# Stress axis : x y z
#
# Youngs Moduli (GPa) = 76.75618 90.91854 22.65345
#
# Poissons Ratio (x) = 0.02499 0.12929
# Poissons Ratio (y) = 0.02109 0.17812
# Poissons Ratio (z) = 0.43807 0.71487
#
# Static dielectric constant tensor:
#      x y z
#    x 2.113270 -0.152730 -0.024350 
#    y -0.152730 1.917960 -0.035490 
#    z -0.024350 -0.035490 1.763860 
# 
# From -- ./inp_files/305403.got.cif
#   From: 2010.05.17/outbox.cif.g08.bks.cpg/sg2_153_cif.got.tgz:305403.got - 2010.06.03 11:33:40.
