data_PCOD9078366
_publ_section_title
;
Structure prediction by ZEFSAII (Michael W. Deem and Ramdas Pophale) SiO2 
 PCOD9078366
Probable space group: P -1
;
_chemical_formula_sum "Si O2"
_cell_formula_units_Z 16
_cell_length_a 10.984445
_cell_length_b 16.272053
_cell_length_c 8.757304
_cell_angle_alpha 93.779409
_cell_angle_beta 121.012080
_cell_angle_gamma 137.079622
_cell_volume 594.395564
_symmetry_space_group_name_H-M "P -1"
_symmetry_group_IT_number 2
_symmetry_cell_setting 'triclinic'
loop_
_space_group_symop_operation_xyz
x,y,z
-x,-y,-z
loop_
_atom_site_type_symbol
_atom_site_label
_atom_site_fract_x
_atom_site_fract_y
_atom_site_fract_z
Si Si1 0.193713 0.860671 0.427389
Si Si2 0.394921 0.022672 0.081100
Si Si3 0.205243 0.311842 0.554402
Si Si4 0.148115 0.675155 0.185635
Si Si5 0.515704 0.696277 0.118561
Si Si6 0.466802 0.735674 0.621863
Si Si7 0.717317 0.717615 0.938264
Si Si8 0.792597 0.308452 0.125436
O O1 0.494741 0.996169 0.745372
O O2 0.922816 0.719228 0.368889
O O3 0.223805 0.801548 0.323040
O O4 0.064808 0.868939 0.241758
O O5 0.425239 0.126470 0.200616
O O6 0.667955 0.176605 0.146832
O O7 0.051877 0.827297 0.763066
O O8 0.279077 0.254977 0.634386
O O9 0.510781 0.528495 0.740746
O O10 0.396771 0.733528 0.406008
O O11 0.830206 0.489654 0.050842
O O12 0.108019 0.660190 0.978845
O O13 0.555479 0.677559 0.975346
O O14 0.525446 0.799061 0.113395
O O15 0.695583 0.776308 0.801655
O O16 0.115977 0.519560 0.424496
#
# Coordination Sequence:
#
# PCOD9078366 Si02
#       8
#     2   2   2   2   2   2   2   2
#     4  10  20  39  64  90 123 166 207 255 310 367
#     4  11  23  38  63  99 123 162 208 257 313 372
#     4  11  21  35  63  97 130 153 199 270 321 355
#     4  10  20  38  65  92 123 165 214 254 301 367
#     4  10  18  35  61  92 120 158 209 256 312 348
#     4  10  21  37  64  94 116 161 221 257 296 363
#     4  11  19  37  68  92 125 154 212 271 305 351
#     4  11  22  37  63  93 128 162 213 254 301 375
#
# _framework density 26.918102000000001
#
# number of rings (size 3 to 8) (size 9 to 14) (size 15 to 20)
#    0.000    1.500    3.750    3.750    1.750    0.500 
#    0.000    1.250    5.500    6.750    0.000    0.875 
#    0.000    0.000    0.000    0.000    0.000    0.000 
#
# Total GULP energy -89432.775810 kJ/mol
# GULP energy per Si atom -5589.548488 kJ/mol
# Density = 2.685684 g / cm^3
# Si number density = 26.918102 Si / 1000 Ang^3
#
#
#
# Elastic Constant Matrix: (Units=GPa)
#
#
# Indices 1 2 3 4 5 6 
#
# 1 100.6606 30.1819 55.9651 -17.3090 13.6169 -15.4010
# 2 30.1819 115.1444 58.6595 3.4775 20.7492 1.7587
# 3 55.9651 58.6595 147.8389 -15.8505 25.0226 -7.4414
# 4 -17.3090 3.4775 -15.8505 39.2362 -21.9816 0.5305
# 5 13.6169 20.7492 25.0226 -21.9816 49.5730 -21.1126
# 6 -15.4010 1.7587 -7.4414 0.5305 -21.1126 28.0902
#
#
#
# Elastic Compliance Matrix: (Units=1/GPa)
#
#
# Indices 1 2 3 4 5 6 
#
# 1 0.017474 -0.005686 -0.004276 0.014190 0.014217 0.019221
# 2 -0.005686 0.015978 -0.003730 -0.015051 -0.017606 -0.018055
# 3 -0.004276 -0.003730 0.010352 0.001268 -0.002454 -0.001237
# 4 0.014190 -0.015051 0.001268 0.058713 0.045862 0.042419
# 5 0.014217 -0.017606 -0.002454 0.045862 0.071120 0.060835
# 6 0.019221 -0.018055 -0.001237 0.042419 0.060835 0.091863
#
#
# Mechanical properties :
#
#
# Convention : Reuss Voigt Hill
#
# Bulk Modulus (GPa) = 60.89978 72.58409 66.74194
# Shear Modulus (GPa) = 16.75835 37.96903 27.36369
#
# Velocity S-wave (km/s) = 2.49784 3.75979 3.19180
# Velocity P-wave (km/s) = 5.56706 6.77284 6.19933
#
# Compressibility (1/GPa) = 0.01642042
#
# Stress axis : x y z
#
# Youngs Moduli (GPa) = 57.22629 62.58469 96.59988
#
# Poissons Ratio (x) = 0.35585 0.41310
# Poissons Ratio (y) = 0.32538 0.36031
# Poissons Ratio (z) = 0.24472 0.23344
#
# Static dielectric constant tensor:
#      x y z
#    x 2.143220 -0.049420 0.031790 
#    y -0.049420 2.206850 0.035060 
#    z 0.031790 0.035060 2.127070 
# 
# From -- ./inp_files/278039.got.cif
#   From: 2010.05.17/outbox.cif.g08.bks.cpg/sg2_140_cif.got.tgz:278039.got - 2010.06.03 11:33:40.
