data_PCOD9078113
_publ_section_title
;
Structure prediction by ZEFSAII (Michael W. Deem and Ramdas Pophale) SiO2 
 PCOD9078113
Probable space group: P -1
;
_chemical_formula_sum "Si O2"
_cell_formula_units_Z 16
_cell_length_a 8.084989
_cell_length_b 21.253158
_cell_length_c 10.979282
_cell_angle_alpha 133.601860
_cell_angle_beta 57.119491
_cell_angle_gamma 147.922010
_cell_volume 721.307405
_symmetry_space_group_name_H-M "P -1"
_symmetry_group_IT_number 2
_symmetry_cell_setting 'triclinic'
loop_
_space_group_symop_operation_xyz
x,y,z
-x,-y,-z
loop_
_atom_site_type_symbol
_atom_site_label
_atom_site_fract_x
_atom_site_fract_y
_atom_site_fract_z
Si Si1 0.308223 0.389829 0.823293
Si Si2 0.269587 0.787618 0.532667
Si Si3 0.719287 0.860290 0.650370
Si Si4 0.914474 0.544357 0.188692
Si Si5 0.857312 0.090171 0.653747
Si Si6 0.661112 0.425051 0.532177
Si Si7 0.849649 0.085697 0.940253
Si Si8 0.713218 0.642125 0.712508
O O1 0.227112 0.430755 0.808071
O O2 0.545974 0.403081 0.686742
O O3 0.984066 0.230101 0.767363
O O4 0.500000 0.500000 0.000000
O O5 0.434795 0.806670 0.613966
O O6 0.203324 0.684544 0.332679
O O7 0.940026 0.718077 0.606512
O O8 0.497824 0.937432 0.582921
O O9 0.582882 0.735095 0.618939
O O10 0.953698 0.904846 0.511284
O O11 0.863058 0.988676 0.842391
O O12 0.629487 0.431028 0.246320
O O13 0.000000 0.500000 0.000000
O O14 0.918546 0.101985 0.789838
O O15 0.679165 0.526788 0.600362
O O16 0.000000 0.500000 0.500000
O O17 0.091070 0.235867 0.103350
O O18 0.500000 0.000000 0.000000
#
# Coordination Sequence:
#
# PCOD9078113 Si02
#       8
#     2   2   2   2   2   2   2   2
#     4  10  23  41  63  91 122 157 204 259 303 362
#     4  11  21  39  58  86 125 162 205 247 312 370
#     4  10  21  33  60  92 125 160 200 259 302 360
#     4  11  27  40  61  89 121 169 204 252 312 366
#     4  10  21  36  62  90 122 161 201 254 305 363
#     4  10  18  35  58  89 118 158 201 244 300 354
#     4  11  18  34  57  94 122 151 203 253 308 355
#     4  11  22  38  61  88 125 165 204 257 301 368
#
# _framework density 22.181944000000001
#
# number of rings (size 3 to 8) (size 9 to 14) (size 15 to 20)
#    0.000    1.500    3.750    3.375    7.000    0.500 
#    0.000    0.000    0.000    0.750    0.000    0.000 
#    0.000    0.000    0.000    0.000    0.000    0.000 
#
# Total GULP energy -89232.763027 kJ/mol
# GULP energy per Si atom -5577.047689 kJ/mol
# Density = 2.213146 g / cm^3
# Si number density = 22.181944 Si / 1000 Ang^3
#
#
#
# Elastic Constant Matrix: (Units=GPa)
#
#
# Indices 1 2 3 4 5 6 
#
# 1 39.1344 20.5710 12.9328 3.3969 -11.9573 1.1227
# 2 20.5710 167.1255 61.1539 8.1128 -20.9845 2.4279
# 3 12.9328 61.1539 145.0540 23.0687 -15.8866 -0.1277
# 4 3.3969 8.1128 23.0687 27.8890 8.5069 1.0692
# 5 -11.9573 -20.9845 -15.8866 8.5069 31.3890 3.5194
# 6 1.1227 2.4279 -0.1277 1.0692 3.5194 18.9208
#
#
#
# Elastic Compliance Matrix: (Units=1/GPa)
#
#
# Indices 1 2 3 4 5 6 
#
# 1 0.031260 -0.002004 0.000782 -0.007849 0.013501 -0.003660
# 2 -0.002004 0.007658 -0.002526 -0.000901 0.003488 -0.001478
# 3 0.000782 -0.002526 0.010127 -0.009675 0.006390 -0.000296
# 4 -0.007849 -0.000901 -0.009675 0.051955 -0.022774 0.001816
# 5 0.013501 0.003488 0.006390 -0.022774 0.049768 -0.009176
# 6 -0.003660 -0.001478 -0.000296 0.001816 -0.009176 0.054861
#
#
# Mechanical properties :
#
#
# Convention : Reuss Voigt Hill
#
# Bulk Modulus (GPa) = 24.06845 60.06992 42.06918
# Shear Modulus (GPa) = 22.02893 32.75017 27.38955
#
# Velocity S-wave (km/s) = 3.15477 3.84661 3.51774
# Velocity P-wave (km/s) = 4.91367 6.84601 5.95869
#
# Compressibility (1/GPa) = 0.04154817
#
# Stress axis : x y z
#
# Youngs Moduli (GPa) = 31.99001 130.59005 98.74163
#
# Poissons Ratio (x) = 0.26174 -0.07718
# Poissons Ratio (y) = 0.06412 0.24939
# Poissons Ratio (z) = -0.02500 0.32983
#
# Static dielectric constant tensor:
#      x y z
#    x 1.847250 -0.032590 0.028000 
#    y -0.032590 1.940720 -0.013560 
#    z 0.028000 -0.013560 1.799660 
# 
# From -- ./inp_files/283105.got.cif
#   From: 2010.05.17/outbox.cif.g08.bks.cpg/sg2_142_cif.got.tgz:283105.got - 2010.06.03 11:33:40.
