data_PCOD9078059
_publ_section_title
;
Structure prediction by ZEFSAII (Michael W. Deem and Ramdas Pophale) SiO2 
 PCOD9078059
Probable space group: P -1
;
_chemical_formula_sum "Si O2"
_cell_formula_units_Z 16
_cell_length_a 16.783720
_cell_length_b 8.729497
_cell_length_c 21.570379
_cell_angle_alpha 81.063682
_cell_angle_beta 23.780589
_cell_angle_gamma 62.790818
_cell_volume 770.192323
_symmetry_space_group_name_H-M "P -1"
_symmetry_group_IT_number 2
_symmetry_cell_setting 'triclinic'
loop_
_space_group_symop_operation_xyz
x,y,z
-x,-y,-z
loop_
_atom_site_type_symbol
_atom_site_label
_atom_site_fract_x
_atom_site_fract_y
_atom_site_fract_z
Si Si1 0.004412 0.921052 0.161363
Si Si2 0.674872 0.674226 0.566924
Si Si3 0.544264 0.495179 0.244076
Si Si4 0.905628 0.709261 0.515747
Si Si5 0.282694 0.278521 0.926803
Si Si6 0.028474 0.788315 0.921720
Si Si7 0.936269 0.647736 0.261865
Si Si8 0.464815 0.524810 0.949690
O O1 0.231188 0.702007 0.960492
O O2 0.229033 0.803640 0.069755
O O3 0.880283 0.154894 0.204153
O O4 0.780529 0.913511 0.339687
O O5 0.740528 0.454993 0.553142
O O6 0.860376 0.677699 0.479302
O O7 0.739364 0.674274 0.450294
O O8 0.299476 0.938981 0.832291
O O9 0.519628 0.693604 0.239181
O O10 0.712742 0.373622 0.198451
O O11 0.000000 0.500000 0.500000
O O12 0.189430 0.659127 0.315973
O O13 0.562564 0.985803 0.765468
O O14 0.069885 0.320429 0.025037
O O15 0.040591 0.484573 0.139126
O O16 0.274688 0.491348 0.063511
O O17 0.500000 0.500000 0.000000
#
# Coordination Sequence:
#
# PCOD9078059 Si02
#       8
#     2   2   2   2   2   2   2   2
#     4   8  17  33  56  82 109 145 185 232 265 329
#     4  10  19  36  57  85 112 147 192 230 268 340
#     4  10  19  37  57  83 112 149 189 238 280 324
#     4  11  21  36  61  83 106 150 196 225 277 342
#     4  10  22  37  56  82 116 145 184 239 280 334
#     4  10  19  36  62  82 108 153 194 229 278 335
#     4   9  20  37  54  82 124 143 179 237 282 317
#     4  10  18  35  58  81 115 148 185 227 280 329
#
# _framework density 20.774034
#
# number of rings (size 3 to 8) (size 9 to 14) (size 15 to 20)
#    0.750    1.500    1.250    4.125    0.000    0.500 
#    0.000   11.875    0.000    0.000    0.000    0.000 
#    0.000    0.000    0.000    0.000    0.000    0.000 
#
# Total GULP energy -89111.008873 kJ/mol
# GULP energy per Si atom -5569.438055 kJ/mol
# Density = 2.072675 g / cm^3
# Si number density = 20.774034 Si / 1000 Ang^3
#
#
#
# Elastic Constant Matrix: (Units=GPa)
#
#
# Indices 1 2 3 4 5 6 
#
# 1 60.7279 22.5975 15.1603 1.6310 4.8430 2.1668
# 2 22.5975 94.0742 8.2293 -18.1348 16.8878 1.2360
# 3 15.1603 8.2293 25.7910 -17.3008 8.5305 6.9096
# 4 1.6310 -18.1348 -17.3008 27.9847 -6.7670 -4.8070
# 5 4.8430 16.8878 8.5305 -6.7670 24.4451 -9.6071
# 6 2.1668 1.2360 6.9096 -4.8070 -9.6071 39.0038
#
#
#
# Elastic Compliance Matrix: (Units=1/GPa)
#
#
# Indices 1 2 3 4 5 6 
#
# 1 0.030041 -0.011151 -0.037697 -0.029673 0.008152 0.003713
# 2 -0.011151 0.017997 0.020398 0.021009 -0.013186 -0.004223
# 3 -0.037697 0.020398 0.126122 0.081329 -0.035866 -0.019706
# 4 -0.029673 0.021009 0.081329 0.097828 -0.011595 -0.004224
# 5 0.008152 -0.013186 -0.035866 -0.011595 0.066021 0.021152
# 6 0.003713 -0.004223 -0.019706 -0.004224 0.021152 0.033746
#
#
# Mechanical properties :
#
#
# Convention : Reuss Voigt Hill
#
# Bulk Modulus (GPa) = 8.52802 30.28527 19.40665
# Shear Modulus (GPa) = 10.68965 27.26044 18.97504
#
# Velocity S-wave (km/s) = 2.27087 3.62641 3.02553
# Velocity P-wave (km/s) = 3.31509 5.66962 4.64405
#
# Compressibility (1/GPa) = 0.11726056
#
# Stress axis : x y z
#
# Youngs Moduli (GPa) = 33.28747 55.56627 7.92881
#
# Poissons Ratio (x) = 0.61961 0.29889
# Poissons Ratio (y) = 0.37119 -0.16173
# Poissons Ratio (z) = 1.25483 -1.13343
#
# Static dielectric constant tensor:
#      x y z
#    x 1.842260 0.006970 -0.082960 
#    y 0.006970 1.800660 -0.027780 
#    z -0.082960 -0.027780 1.773830 
# 
# From -- ./inp_files/572617.got.cif
#   From: 2010.05.17/outbox.cif.g08.bks.cpg/sg2_287_cif.got.tgz:572617.got - 2010.06.03 11:33:40.
