data_PCOD9078497
_publ_section_title
;
Structure prediction by ZEFSAII (Michael W. Deem and Ramdas Pophale) SiO2 
 PCOD9078497
Probable space group: P -1
;
_chemical_formula_sum "Si O2"
_cell_formula_units_Z 14
_cell_length_a 15.607306
_cell_length_b 7.871380
_cell_length_c 7.507884
_cell_angle_alpha 91.308638
_cell_angle_beta 48.578948
_cell_angle_gamma 59.897987
_cell_volume 501.033811
_symmetry_space_group_name_H-M "P -1"
_symmetry_group_IT_number 2
_symmetry_cell_setting 'triclinic'
loop_
_space_group_symop_operation_xyz
x,y,z
-x,-y,-z
loop_
_atom_site_type_symbol
_atom_site_label
_atom_site_fract_x
_atom_site_fract_y
_atom_site_fract_z
Si Si1 0.546805 0.451958 0.644792
Si Si2 0.440828 0.908258 0.209310
Si Si3 0.839825 0.601443 0.921190
Si Si4 0.630203 0.718121 0.497887
Si Si5 0.116688 0.924047 0.635487
Si Si6 0.028799 0.682979 0.872267
Si Si7 0.838375 0.873971 0.656319
O O1 0.500000 0.500000 0.500000
O O2 0.518532 0.682617 0.724955
O O3 0.733856 0.251672 0.438701
O O4 0.487300 0.350854 0.842147
O O5 0.427311 0.030087 0.411596
O O6 0.268599 0.053373 0.368731
O O7 0.500000 0.000000 0.000000
O O8 0.924689 0.631121 0.956175
O O9 0.771363 0.819781 0.896450
O O10 0.977787 0.367560 0.617093
O O11 0.711318 0.613943 0.190359
O O12 0.787407 0.550063 0.400110
O O13 0.013318 0.859758 0.766765
O O14 0.165249 0.921025 0.366691
O O15 0.014563 0.176511 0.880595
#
# Coordination Sequence:
#
# PCOD9078497 Si02
#       7
#     2   2   2   2   2   2   2
#     4  10  24  43  65  97 128 170 224 268 310 382
#     4  11  25  46  68  91 131 176 219 267 317 384
#     4  11  20  34  65  95 127 161 204 263 323 391
#     4  11  22  41  71  92 127 175 214 260 332 385
#     4   9  19  37  61  89 128 163 208 266 315 380
#     4  10  18  35  63  92 121 166 208 255 327 387
#     4  10  21  37  57  96 129 159 208 265 322 368
#
# _framework density 27.942229000000001
#
# number of rings (size 3 to 8) (size 9 to 14) (size 15 to 20)
#    0.000    1.714    2.857    2.143    2.000    1.714 
#    2.571    0.000    0.000    0.000    0.000    0.000 
#    0.000    0.000    0.000    0.000    0.000    0.000 
#
# Total GULP energy -77949.027765 kJ/mol
# GULP energy per Si atom -5567.787698 kJ/mol
# Density = 2.787863 g / cm^3
# Si number density = 27.942229 Si / 1000 Ang^3
#
#
#
# Elastic Constant Matrix: (Units=GPa)
#
#
# Indices 1 2 3 4 5 6 
#
# 1 73.1397 25.3692 -4.2907 4.2932 -3.1566 -8.0939
# 2 25.3692 168.8713 45.9578 -28.4544 -5.9351 0.2566
# 3 -4.2907 45.9578 65.3943 -20.5153 -11.0698 2.9803
# 4 4.2932 -28.4544 -20.5153 78.2630 2.9879 -3.4380
# 5 -3.1566 -5.9351 -11.0698 2.9879 27.1537 -6.5631
# 6 -8.0939 0.2566 2.9803 -3.4380 -6.5631 62.1082
#
#
#
# Elastic Compliance Matrix: (Units=1/GPa)
#
#
# Indices 1 2 3 4 5 6 
#
# 1 0.015476 -0.003353 0.003426 -0.001195 0.003109 0.002129
# 2 -0.003353 0.008209 -0.005629 0.001726 -0.001135 -0.000225
# 3 0.003426 -0.005629 0.021775 0.003195 0.007796 0.000426
# 4 -0.001195 0.001726 0.003195 0.014326 0.000082 0.000485
# 5 0.003109 -0.001135 0.007796 0.000082 0.041171 0.004391
# 6 0.002129 -0.000225 0.000426 0.000485 0.004391 0.016850
#
#
# Mechanical properties :
#
#
# Convention : Reuss Voigt Hill
#
# Bulk Modulus (GPa) = 29.11332 49.05310 39.08321
# Shear Modulus (GPa) = 35.62053 49.52957 42.57505
#
# Velocity S-wave (km/s) = 3.57430 4.21476 3.90767
# Velocity P-wave (km/s) = 5.24174 6.42486 5.86322
#
# Compressibility (1/GPa) = 0.03434854
#
# Stress axis : x y z
#
# Youngs Moduli (GPa) = 64.61508 121.82344 45.92380
#
# Poissons Ratio (x) = 0.40843 -0.15734
# Poissons Ratio (y) = 0.21663 0.25851
# Poissons Ratio (z) = -0.22137 0.68576
#
# Static dielectric constant tensor:
#      x y z
#    x 2.249880 0.032260 0.067100 
#    y 0.032260 2.378160 -0.086960 
#    z 0.067100 -0.086960 2.381430 
# 
# From -- ./inp_files/327514.got.cif
#   From: 2010.05.17/outbox.cif.g08.bks.cpg/sg2_164_cif.got.tgz:327514.got - 2010.06.03 11:33:40.
