data_PCOD9078052
_publ_section_title
;
Structure prediction by ZEFSAII (Michael W. Deem and Ramdas Pophale) SiO2 
 PCOD9078052
Probable space group: P -1
;
_chemical_formula_sum "Si O2"
_cell_formula_units_Z 16
_cell_length_a 8.119197
_cell_length_b 8.276060
_cell_length_c 16.326870
_cell_angle_alpha 119.761785
_cell_angle_beta 125.878285
_cell_angle_gamma 54.879664
_cell_volume 705.795857
_symmetry_space_group_name_H-M "P -1"
_symmetry_group_IT_number 2
_symmetry_cell_setting 'triclinic'
loop_
_space_group_symop_operation_xyz
x,y,z
-x,-y,-z
loop_
_atom_site_type_symbol
_atom_site_label
_atom_site_fract_x
_atom_site_fract_y
_atom_site_fract_z
Si Si1 0.367333 0.030452 0.728015
Si Si2 0.026490 0.095956 0.438047
Si Si3 0.275235 0.098318 0.908872
Si Si4 0.096659 0.775160 0.748779
Si Si5 0.739014 0.326891 0.554037
Si Si6 0.195770 0.352280 0.245096
Si Si7 0.547297 0.591764 0.163025
Si Si8 0.839198 0.458297 0.044586
O O1 0.346790 0.071908 0.828684
O O2 0.425036 0.206465 0.749482
O O3 0.141420 0.017712 0.633810
O O4 0.555982 0.809056 0.717455
O O5 0.995375 0.181394 0.359013
O O6 0.911735 0.279130 0.515348
O O7 0.253287 0.896149 0.472920
O O8 0.166035 0.339091 0.949064
O O9 0.122811 0.973394 0.842686
O O10 0.500000 0.000000 0.000000
O O11 0.340355 0.590318 0.785206
O O12 0.936105 0.710321 0.739715
O O13 0.500000 0.500000 0.500000
O O14 0.814879 0.427540 0.678134
O O15 0.083563 0.338828 0.122627
O O16 0.692644 0.517881 0.102305
O O17 0.296443 0.633243 0.074957
#
# Coordination Sequence:
#
# PCOD9078052 Si02
#       8
#     2   2   2   2   2   2   2   2
#     4  10  21  37  58  86 121 163 203 242 307 374
#     4  10  22  42  68  91 118 159 204 251 310 370
#     4  10  18  35  58  80 114 165 206 243 295 358
#     4  10  20  37  60  90 122 154 199 257 303 351
#     4  11  22  43  70  89 117 162 206 249 312 376
#     4  11  22  38  58  90 124 156 205 259 300 363
#     4   9  17  33  56  82 118 162 197 237 296 361
#     4   9  18  33  56  81 115 162 202 234 298 361
#
# _framework density 22.669443999999999
#
# number of rings (size 3 to 8) (size 9 to 14) (size 15 to 20)
#    0.000    2.000    2.500    3.000    1.750    1.000 
#    2.250    2.500    0.000    0.000    0.000    0.000 
#    0.000    0.000    0.000    0.000    0.000    0.000 
#
# Total GULP energy -89269.603077 kJ/mol
# GULP energy per Si atom -5579.350192 kJ/mol
# Density = 2.261785 g / cm^3
# Si number density = 22.669444 Si / 1000 Ang^3
#
#
#
# Elastic Constant Matrix: (Units=GPa)
#
#
# Indices 1 2 3 4 5 6 
#
# 1 17.2083 19.9238 7.7386 -0.1993 -0.1655 -0.3206
# 2 19.9238 113.5997 12.7297 -9.4677 -0.5773 -3.3414
# 3 7.7386 12.7297 44.4602 -15.7718 -9.0271 -2.1547
# 4 -0.1993 -9.4677 -15.7718 40.7068 0.7162 2.1381
# 5 -0.1655 -0.5773 -9.0271 0.7162 15.2915 -3.7741
# 6 -0.3206 -3.3414 -2.1547 2.1381 -3.7741 32.0015
#
#
#
# Elastic Compliance Matrix: (Units=1/GPa)
#
#
# Indices 1 2 3 4 5 6 
#
# 1 0.079748 -0.013105 -0.014848 -0.008154 -0.008516 -0.002029
# 2 -0.013105 0.011335 0.000073 0.002543 0.000442 0.000939
# 3 -0.014848 0.000073 0.033732 0.012468 0.020076 0.003665
# 4 -0.008154 0.002543 0.012468 0.029859 0.005902 -0.000276
# 5 -0.008516 0.000442 0.020076 0.005902 0.079434 0.010286
# 6 -0.002029 0.000939 0.003665 -0.000276 0.010286 0.032805
#
#
# Mechanical properties :
#
#
# Convention : Reuss Voigt Hill
#
# Bulk Modulus (GPa) = 14.48136 28.45026 21.46581
# Shear Modulus (GPa) = 14.46373 26.59170 20.52771
#
# Velocity S-wave (km/s) = 2.52866 3.42865 3.01246
# Velocity P-wave (km/s) = 3.86360 5.31521 4.64645
#
# Compressibility (1/GPa) = 0.06905428
#
# Stress axis : x y z
#
# Youngs Moduli (GPa) = 12.53946 88.22244 29.64521
#
# Poissons Ratio (x) = 1.15619 0.44018
# Poissons Ratio (y) = 0.16433 -0.00217
# Poissons Ratio (z) = 0.18619 -0.00646
#
# Static dielectric constant tensor:
#      x y z
#    x 1.867250 -0.036700 -0.012730 
#    y -0.036700 1.931940 -0.010980 
#    z -0.012730 -0.010980 1.935680 
# 
# From -- ./inp_files/329660.got.cif
#   From: 2010.05.17/outbox.cif.g08.bks.cpg/sg2_165_cif.got.tgz:329660.got - 2010.06.03 11:33:40.
