data_PCOD9078101
_publ_section_title
;
Structure prediction by ZEFSAII (Michael W. Deem and Ramdas Pophale) SiO2 
 PCOD9078101
Probable space group: P -1
;
_chemical_formula_sum "Si O2"
_cell_formula_units_Z 16
_cell_length_a 14.814031
_cell_length_b 11.115438
_cell_length_c 8.340066
_cell_angle_alpha 127.289184
_cell_angle_beta 87.832378
_cell_angle_gamma 128.537368
_cell_volume 716.129715
_symmetry_space_group_name_H-M "P -1"
_symmetry_group_IT_number 2
_symmetry_cell_setting 'triclinic'
loop_
_space_group_symop_operation_xyz
x,y,z
-x,-y,-z
loop_
_atom_site_type_symbol
_atom_site_label
_atom_site_fract_x
_atom_site_fract_y
_atom_site_fract_z
Si Si1 0.781611 0.811465 0.791894
Si Si2 0.925467 0.845879 0.087880
Si Si3 0.363770 0.656277 0.686635
Si Si4 0.825538 0.400710 0.571434
Si Si5 0.639896 0.096354 0.609185
Si Si6 0.800906 0.562631 0.166932
Si Si7 0.657444 0.962322 0.807247
Si Si8 0.047659 0.511421 0.822533
O O1 0.863319 0.900663 0.026516
O O2 0.675582 0.539672 0.573804
O O3 0.693100 0.846369 0.785858
O O4 0.908120 0.946374 0.765406
O O5 0.879209 0.627780 0.830079
O O6 0.857873 0.756482 0.195450
O O7 0.261693 0.655732 0.621817
O O8 0.312014 0.548135 0.780115
O O9 0.527645 0.880528 0.834261
O O10 0.715452 0.168281 0.496560
O O11 0.954143 0.454263 0.638803
O O12 0.500000 0.000000 0.500000
O O13 0.622602 0.933002 0.595983
O O14 0.730093 0.339556 0.887446
O O15 0.932026 0.642931 0.301038
O O16 0.805282 0.229217 0.014658
O O17 0.000000 0.500000 0.000000
#
# Coordination Sequence:
#
# PCOD9078101 Si02
#       8
#     2   2   2   2   2   2   2   2
#     4  10  20  36  62  82 106 150 201 230 268 328
#     4   9  18  36  61  82 105 147 196 238 266 328
#     4  11  24  36  53  86 123 150 179 232 290 338
#     4  10  18  35  58  88 108 142 194 230 279 329
#     4  10  19  35  62  85 108 147 187 232 279 338
#     4  10  22  37  58  83 119 147 181 234 297 330
#     4  11  20  35  60  85 113 144 198 228 275 331
#     4  11  18  34  63  86 105 146 195 238 273 332
#
# _framework density 22.342319
#
# number of rings (size 3 to 8) (size 9 to 14) (size 15 to 20)
#    0.000    1.750    6.250    0.375    0.000    3.000 
#    0.000    0.625    0.000    0.000    0.000    0.000 
#    0.000    0.000    0.000    0.000    0.000    0.000 
#
# Total GULP energy -89146.929231 kJ/mol
# GULP energy per Si atom -5571.683077 kJ/mol
# Density = 2.229147 g / cm^3
# Si number density = 22.342319 Si / 1000 Ang^3
#
#
#
# Elastic Constant Matrix: (Units=GPa)
#
#
# Indices 1 2 3 4 5 6 
#
# 1 109.4204 36.9941 28.3835 -7.4706 48.8707 -12.5068
# 2 36.9941 150.0502 28.4441 -12.4889 26.8707 10.4917
# 3 28.3835 28.4441 41.8746 5.3449 24.2880 4.9275
# 4 -7.4706 -12.4889 5.3449 29.1438 0.4049 12.3264
# 5 48.8707 26.8707 24.2880 0.4049 37.3369 0.1755
# 6 -12.5068 10.4917 4.9275 12.3264 0.1755 38.3589
#
#
#
# Elastic Compliance Matrix: (Units=1/GPa)
#
#
# Indices 1 2 3 4 5 6 
#
# 1 0.024720 -0.000743 0.001603 0.003136 -0.032932 0.007200
# 2 -0.000743 0.008958 -0.004315 0.006222 -0.002715 -0.004125
# 3 0.001603 -0.004315 0.042182 -0.008434 -0.026336 -0.000885
# 4 0.003136 0.006222 -0.008434 0.045367 -0.003522 -0.014158
# 5 -0.032932 -0.002715 -0.026336 -0.003522 0.089040 -0.005887
# 6 0.007200 -0.004125 -0.000885 -0.014158 -0.005887 0.034236
#
#
# Mechanical properties :
#
#
# Convention : Reuss Voigt Hill
#
# Bulk Modulus (GPa) = 14.50360 54.33210 34.41785
# Shear Modulus (GPa) = 18.22170 34.80281 26.51225
#
# Velocity S-wave (km/s) = 2.85891 3.95106 3.44850
# Velocity P-wave (km/s) = 4.17175 6.72200 5.59414
#
# Compressibility (1/GPa) = 0.06894841
#
# Stress axis : x y z
#
# Youngs Moduli (GPa) = 40.45246 111.62876 23.70691
#
# Poissons Ratio (x) = 0.08299 -0.03799
# Poissons Ratio (y) = 0.03008 0.10230
# Poissons Ratio (z) = -0.06483 0.48169
#
# Static dielectric constant tensor:
#      x y z
#    x 1.883470 0.001220 0.020690 
#    y 0.001220 1.886970 -0.048740 
#    z 0.020690 -0.048740 1.910930 
# 
# From -- ./inp_files/251645.got.cif
#   From: 2010.05.17/outbox.cif.g08.bks.cpg/sg2_126_cif.got.tgz:251645.got - 2010.06.03 11:33:40.
