data_PCOD9078893
_publ_section_title
;
Structure prediction by ZEFSAII (Michael W. Deem and Ramdas Pophale) SiO2 
 PCOD9078893
Probable space group: P -1
;
_chemical_formula_sum "Si O2"
_cell_formula_units_Z 14
_cell_length_a 7.812101
_cell_length_b 9.555922
_cell_length_c 11.472214
_cell_angle_alpha 84.258529
_cell_angle_beta 125.970401
_cell_angle_gamma 65.022725
_cell_volume 553.082219
_symmetry_space_group_name_H-M "P -1"
_symmetry_group_IT_number 2
_symmetry_cell_setting 'triclinic'
loop_
_space_group_symop_operation_xyz
x,y,z
-x,-y,-z
loop_
_atom_site_type_symbol
_atom_site_label
_atom_site_fract_x
_atom_site_fract_y
_atom_site_fract_z
Si Si1 0.576083 0.710978 0.714279
Si Si2 0.896157 0.811665 0.202360
Si Si3 0.680450 0.597075 0.106808
Si Si4 0.330172 0.848533 0.373746
Si Si5 0.256129 0.064871 0.119875
Si Si6 0.188716 0.898123 0.727969
Si Si7 0.263240 0.615312 0.062768
O O1 0.558207 0.745842 0.567967
O O2 0.681529 0.803597 0.818774
O O3 0.278865 0.814595 0.643064
O O4 0.731016 0.509953 0.829040
O O5 0.446956 0.435304 0.834423
O O6 0.804854 0.934512 0.269075
O O7 0.847094 0.666773 0.199191
O O8 0.735372 0.937860 0.015932
O O9 0.422408 0.748482 0.916879
O O10 0.811028 0.436227 0.082848
O O11 0.193897 0.750578 0.309767
O O12 0.392090 0.900118 0.273392
O O13 0.092099 0.027423 0.332093
O O14 0.941652 0.181197 0.009727
#
# Coordination Sequence:
#
# PCOD9078893 Si02
#       7
#     2   2   2   2   2   2   2
#     4  11  22  38  59  85 117 152 185 234 285 332
#     4  10  21  35  60  87 115 142 194 237 283 324
#     4  10  18  36  60  84 107 150 195 239 266 331
#     4  10  23  37  57  88 117 145 189 236 287 331
#     4  12  21  37  60  86 114 152 190 231 277 343
#     4   9  19  36  59  82 115 141 194 235 277 323
#     4  10  21  36  59  84 111 150 198 226 274 341
#
# _framework density 25.312694
#
# number of rings (size 3 to 8) (size 9 to 14) (size 15 to 20)
#    0.857    0.857    4.286    2.143    0.000    0.000 
#    0.000    1.429    0.000    0.000    0.000    0.000 
#    0.000    0.000    0.000    0.000    0.000    0.000 
#
# Total GULP energy -78247.114040 kJ/mol
# GULP energy per Si atom -5589.079574 kJ/mol
# Density = 2.525508 g / cm^3
# Si number density = 25.312694 Si / 1000 Ang^3
#
#
#
# Elastic Constant Matrix: (Units=GPa)
#
#
# Indices 1 2 3 4 5 6 
#
# 1 76.6853 24.9988 14.0507 1.3916 -13.1647 15.8776
# 2 24.9988 90.1507 18.8060 13.4484 -9.1325 14.5013
# 3 14.0507 18.8060 105.9576 8.4771 -13.3660 12.1019
# 4 1.3916 13.4484 8.4771 19.2018 -1.2802 2.5918
# 5 -13.1647 -9.1325 -13.3660 -1.2802 23.4225 0.7094
# 6 15.8776 14.5013 12.1019 2.5918 0.7094 42.4746
#
#
#
# Elastic Compliance Matrix: (Units=1/GPa)
#
#
# Indices 1 2 3 4 5 6 
#
# 1 0.016607 -0.003232 -0.000168 0.002407 0.008272 -0.005342
# 2 -0.003232 0.014223 -0.000679 -0.008831 0.002949 -0.002965
# 3 -0.000168 -0.000679 0.010899 -0.003578 0.005746 -0.002689
# 4 0.002407 -0.008831 -0.003578 0.059678 -0.000856 -0.000492
# 5 0.008272 0.002949 0.005746 -0.000856 0.051924 -0.006551
# 6 -0.005342 -0.002965 -0.002689 -0.000492 -0.006551 0.027458
#
#
# Mechanical properties :
#
#
# Convention : Reuss Voigt Hill
#
# Bulk Modulus (GPa) = 29.78639 43.16717 36.47678
# Shear Modulus (GPa) = 24.98304 31.34900 28.16602
#
# Velocity S-wave (km/s) = 3.14503 3.52301 3.33937
# Velocity P-wave (km/s) = 4.99812 5.79994 5.41390
#
# Compressibility (1/GPa) = 0.03357238
#
# Stress axis : x y z
#
# Youngs Moduli (GPa) = 60.21586 70.30677 91.75484
#
# Poissons Ratio (x) = 0.22723 0.01538
# Poissons Ratio (y) = 0.19462 0.06228
# Poissons Ratio (z) = 0.01009 0.04772
#
# Static dielectric constant tensor:
#      x y z
#    x 2.154780 -0.064220 0.018960 
#    y -0.064220 1.978320 0.002270 
#    z 0.018960 0.002270 1.989430 
# 
# From -- ./inp_files/379668.got.cif
#   From: 2010.05.17/outbox.cif.g08.bks.cpg/sg2_190_cif.got.tgz:379668.got - 2010.06.03 11:33:40.
