data_PCOD9078676
_publ_section_title
;
Structure prediction by ZEFSAII (Michael W. Deem and Ramdas Pophale) SiO2 
 PCOD9078676
Probable space group: P -1
;
_chemical_formula_sum "Si O2"
_cell_formula_units_Z 16
_cell_length_a 12.825435
_cell_length_b 13.930120
_cell_length_c 16.221368
_cell_angle_alpha 26.176771
_cell_angle_beta 145.147801
_cell_angle_gamma 128.312207
_cell_volume 647.881332
_symmetry_space_group_name_H-M "P -1"
_symmetry_group_IT_number 2
_symmetry_cell_setting 'triclinic'
loop_
_space_group_symop_operation_xyz
x,y,z
-x,-y,-z
loop_
_atom_site_type_symbol
_atom_site_label
_atom_site_fract_x
_atom_site_fract_y
_atom_site_fract_z
Si Si1 0.182111 0.337931 0.121200
Si Si2 0.016138 0.506504 0.298934
Si Si3 0.649706 0.980174 0.039167
Si Si4 0.561156 0.316684 0.426419
Si Si5 0.980879 0.185810 0.234011
Si Si6 0.319777 0.712556 0.295836
Si Si7 0.340153 0.864972 0.833775
Si Si8 0.015588 0.256424 0.742087
O O1 0.428985 0.183919 0.411983
O O2 0.047033 0.208225 0.166687
O O3 0.123013 0.446606 0.907540
O O4 0.110274 0.560814 0.968569
O O5 0.128459 0.243145 0.620742
O O6 0.202744 0.551751 0.351527
O O7 0.911852 0.711282 0.144305
O O8 0.527346 0.920485 0.932638
O O9 0.500000 0.000000 0.000000
O O10 0.625590 0.244899 0.793727
O O11 0.531208 0.354414 0.477024
O O12 0.798077 0.249721 0.616293
O O13 0.446009 0.578520 0.105217
O O14 0.816116 0.089140 0.225129
O O15 0.194153 0.016663 0.548820
O O16 0.160485 0.000593 0.990689
O O17 0.000000 0.500000 0.500000
#
# Coordination Sequence:
#
# PCOD9078676 Si02
#       8
#     2   2   2   2   2   2   2   2
#     4  10  21  38  57  89 129 165 213 250 318 372
#     4  11  23  41  62  97 127 164 209 269 309 372
#     4  12  24  36  62  96 129 161 211 260 312 376
#     4  10  20  38  66  89 118 166 213 254 306 386
#     4   9  20  35  59  80 131 181 196 252 318 377
#     4  11  23  43  66  89 125 169 211 260 322 369
#     4  10  18  36  55  89 120 166 218 243 302 378
#     4  11  21  44  70  89 122 168 216 261 322 367
#
# _framework density 24.695882000000001
#
# number of rings (size 3 to 8) (size 9 to 14) (size 15 to 20)
#    0.000    1.500    3.750    3.000    1.750    2.500 
#    0.000    3.125    0.000    0.000    0.000    0.000 
#    0.000    0.000    0.000    0.000    0.000    0.000 
#
# Total GULP energy -89307.376446 kJ/mol
# GULP energy per Si atom -5581.711028 kJ/mol
# Density = 2.463967 g / cm^3
# Si number density = 24.695882 Si / 1000 Ang^3
#
#
#
# Elastic Constant Matrix: (Units=GPa)
#
#
# Indices 1 2 3 4 5 6 
#
# 1 78.3170 14.9601 16.0817 17.2467 -23.8868 13.0688
# 2 14.9601 65.5786 23.9991 27.5025 -2.3567 16.7357
# 3 16.0817 23.9991 106.4913 23.0553 -19.3289 7.4311
# 4 17.2467 27.5025 23.0553 47.8630 4.8095 -2.7983
# 5 -23.8868 -2.3567 -19.3289 4.8095 40.4035 -8.8140
# 6 13.0688 16.7357 7.4311 -2.7983 -8.8140 32.1803
#
#
#
# Elastic Compliance Matrix: (Units=1/GPa)
#
#
# Indices 1 2 3 4 5 6 
#
# 1 0.019089 0.001304 0.001589 -0.009965 0.011912 -0.006402
# 2 0.001304 0.025805 -0.001626 -0.015394 0.000083 -0.014890
# 3 0.001589 -0.001626 0.012286 -0.006353 0.007214 -0.001214
# 4 -0.009965 -0.015394 -0.006353 0.038337 -0.011396 0.013732
# 5 0.011912 0.000083 0.007214 -0.011396 0.037183 0.002647
# 6 -0.006402 -0.014890 -0.001214 0.013732 0.002647 0.043618
#
#
# Mechanical properties :
#
#
# Convention : Reuss Voigt Hill
#
# Bulk Modulus (GPa) = 16.74579 40.05207 28.39893
# Shear Modulus (GPa) = 25.81493 37.11242 31.46368
#
# Velocity S-wave (km/s) = 3.23664 3.88077 3.57325
# Velocity P-wave (km/s) = 4.55668 6.02776 5.34309
#
# Compressibility (1/GPa) = 0.05971651
#
# Stress axis : x y z
#
# Youngs Moduli (GPa) = 52.38694 38.75202 81.39216
#
# Poissons Ratio (x) = -0.05055 -0.12937
# Poissons Ratio (y) = -0.06834 0.13232
# Poissons Ratio (z) = -0.08327 0.06300
#
# Static dielectric constant tensor:
#      x y z
#    x 2.146420 0.043060 0.015130 
#    y 0.043060 2.058070 -0.001490 
#    z 0.015130 -0.001490 2.008290 
# 
# From -- ./inp_files/513592.got.cif
#   From: 2010.05.17/outbox.cif.g08.bks.cpg/sg2_257_cif.got.tgz:513592.got - 2010.06.03 11:33:40.
