data_PCOD9078846
_publ_section_title
;
Structure prediction by ZEFSAII (Michael W. Deem and Ramdas Pophale) SiO2 
 PCOD9078846
Probable space group: P -1
;
_chemical_formula_sum "Si O2"
_cell_formula_units_Z 12
_cell_length_a 11.932276
_cell_length_b 7.166273
_cell_length_c 8.339273
_cell_angle_alpha 61.402858
_cell_angle_beta 129.789998
_cell_angle_gamma 102.849576
_cell_volume 477.353826
_symmetry_space_group_name_H-M "P -1"
_symmetry_group_IT_number 2
_symmetry_cell_setting 'triclinic'
loop_
_space_group_symop_operation_xyz
x,y,z
-x,-y,-z
loop_
_atom_site_type_symbol
_atom_site_label
_atom_site_fract_x
_atom_site_fract_y
_atom_site_fract_z
Si Si1 0.332006 0.598980 0.781046
Si Si2 0.153462 0.525425 0.928599
Si Si3 0.873295 0.943808 0.028821
Si Si4 0.672310 0.679912 0.550946
Si Si5 0.145307 0.253311 0.580843
Si Si6 0.397927 0.753547 0.461997
O O1 0.266950 0.643930 0.879712
O O2 0.222311 0.440824 0.666078
O O3 0.345620 0.779268 0.586831
O O4 0.500000 0.500000 0.000000
O O5 0.161221 0.284345 0.970175
O O6 0.995650 0.641747 0.688930
O O7 0.201311 0.474607 0.174743
O O8 0.903921 0.904463 0.262773
O O9 0.728182 0.110877 0.810602
O O10 0.000000 0.000000 0.000000
O O11 0.738706 0.825555 0.419677
O O12 0.557415 0.793268 0.527963
O O13 0.595086 0.502963 0.454865
#
# Coordination Sequence:
#
# PCOD9078846 Si02
#       6
#     2   2   2   2   2   2
#     4  10  18  36  59  87 112 152 197 234 287 348
#     4  11  21  39  64  88 116 156 200 238 291 351
#     4  11  22  39  60  86 120 155 195 249 289 335
#     4  10  21  39  60  86 117 159 193 235 298 356
#     4  10  22  38  60  86 121 156 193 240 295 353
#     4  10  21  38  61  87 122 150 195 243 293 347
#
# _framework density 25.138584999999999
#
# number of rings (size 3 to 8) (size 9 to 14) (size 15 to 20)
#    0.000    1.667    1.667    5.500    0.000    1.333 
#    0.000    5.000    0.000    0.000    0.000    0.000 
#    0.000    0.000    0.000    0.000    0.000    0.000 
#
# Total GULP energy -67015.342776 kJ/mol
# GULP energy per Si atom -5584.611898 kJ/mol
# Density = 2.508137 g / cm^3
# Si number density = 25.138585 Si / 1000 Ang^3
#
#
#
# Elastic Constant Matrix: (Units=GPa)
#
#
# Indices 1 2 3 4 5 6 
#
# 1 200.5897 21.9917 76.8304 -13.2540 -32.8624 34.1800
# 2 21.9917 68.9927 6.4413 -8.3413 -7.8602 7.6490
# 3 76.8304 6.4413 128.8085 -2.0990 -15.1553 20.6995
# 4 -13.2540 -8.3413 -2.0990 29.4995 6.8566 -3.0907
# 5 -32.8624 -7.8602 -15.1553 6.8566 61.0096 -2.0632
# 6 34.1800 7.6490 20.6995 -3.0907 -2.0632 26.5704
#
#
#
# Elastic Compliance Matrix: (Units=1/GPa)
#
#
# Indices 1 2 3 4 5 6 
#
# 1 0.008200 -0.000946 -0.003289 0.001714 0.003039 -0.007279
# 2 -0.000946 0.015648 0.000481 0.003438 0.001132 -0.003174
# 3 -0.003289 0.000481 0.010447 -0.001236 0.000885 -0.004122
# 4 0.001714 0.003438 -0.001236 0.036430 -0.002975 0.001775
# 5 0.003039 0.001132 0.000885 -0.002975 0.018599 -0.003827
# 6 -0.007279 -0.003174 -0.004122 0.001775 -0.003827 0.051034
#
#
# Mechanical properties :
#
#
# Convention : Reuss Voigt Hill
#
# Bulk Modulus (GPa) = 37.33035 67.65750 52.49393
# Shear Modulus (GPa) = 31.88889 42.95774 37.42332
#
# Velocity S-wave (km/s) = 3.56550 4.13829 3.86253
# Velocity P-wave (km/s) = 5.64202 7.05735 6.38900
#
# Compressibility (1/GPa) = 0.02678785
#
# Stress axis : x y z
#
# Youngs Moduli (GPa) = 121.94960 63.90774 95.71787
#
# Poissons Ratio (x) = 0.06048 0.31477
# Poissons Ratio (y) = 0.11541 -0.04607
# Poissons Ratio (z) = 0.40104 -0.03076
#
# Static dielectric constant tensor:
#      x y z
#    x 2.180990 -0.000950 -0.090700 
#    y -0.000950 2.045350 0.064770 
#    z -0.090700 0.064770 2.004820 
# 
# From -- ./inp_files/144589.got.cif
#   From: 2010.05.17/outbox.cif.g08.bks.cpg/sg2_73_cif.got.tgz:144589.got - 2010.06.03 11:33:40.
