data_PCOD9078385
_publ_section_title
;
Structure prediction by ZEFSAII (Michael W. Deem and Ramdas Pophale) SiO2 
 PCOD9078385
Probable space group: P -1
;
_chemical_formula_sum "Si O2"
_cell_formula_units_Z 14
_cell_length_a 9.404664
_cell_length_b 19.929895
_cell_length_c 6.504273
_cell_angle_alpha 45.352359
_cell_angle_beta 130.056072
_cell_angle_gamma 130.824214
_cell_volume 616.749568
_symmetry_space_group_name_H-M "P -1"
_symmetry_group_IT_number 2
_symmetry_cell_setting 'triclinic'
loop_
_space_group_symop_operation_xyz
x,y,z
-x,-y,-z
loop_
_atom_site_type_symbol
_atom_site_label
_atom_site_fract_x
_atom_site_fract_y
_atom_site_fract_z
Si Si1 0.447584 0.287449 0.405847
Si Si2 0.274372 0.672525 0.805385
Si Si3 0.546963 0.008501 0.290477
Si Si4 0.045648 0.401353 0.687189
Si Si5 0.770124 0.931660 0.392641
Si Si6 0.214554 0.771497 0.922411
Si Si7 0.405252 0.539700 0.510712
O O1 0.538783 0.315680 0.198816
O O2 0.256951 0.182546 0.449908
O O3 0.614892 0.252561 0.743350
O O4 0.455099 0.375830 0.383230
O O5 0.089122 0.641743 0.545371
O O6 0.258581 0.761718 0.743835
O O7 0.268644 0.589687 0.151557
O O8 0.500000 0.000000 0.500000
O O9 0.626580 0.922617 0.475588
O O10 0.352124 0.018037 0.978349
O O11 0.739343 0.113571 0.217642
O O12 0.271396 0.445853 0.726204
O O13 0.000000 0.500000 0.500000
O O14 0.984994 0.315888 0.990483
O O15 0.000000 0.000000 0.500000
O O16 0.500000 0.500000 0.500000
#
# Coordination Sequence:
#
# PCOD9078385 Si02
#       7
#     2   2   2   2   2   2   2
#     4   9  19  38  60  83 119 160 201 249 314 371
#     4  10  18  35  62  81 115 160 199 241 306 360
#     4  10  21  41  68  95 127 164 212 264 319 380
#     4  11  19  37  59  84 116 159 206 244 297 375
#     4  10  22  42  66  92 129 164 210 266 324 375
#     4   9  19  34  62  90 115 153 210 249 302 375
#     4  11  23  37  54  88 122 155 199 253 304 363
#
# _framework density 22.699653000000001
#
# number of rings (size 3 to 8) (size 9 to 14) (size 15 to 20)
#    0.000    2.000    4.286    1.286    0.000    2.286 
#    5.143    0.000    0.000    0.000    0.000    0.000 
#    0.000    0.000    0.000    0.000    0.000    0.000 
#
# Total GULP energy -78037.429621 kJ/mol
# GULP energy per Si atom -5574.102116 kJ/mol
# Density = 2.264799 g / cm^3
# Si number density = 22.699653 Si / 1000 Ang^3
#
#
#
# Elastic Constant Matrix: (Units=GPa)
#
#
# Indices 1 2 3 4 5 6 
#
# 1 122.7100 74.4710 39.2864 7.7903 -15.9297 -5.7236
# 2 74.4710 160.3534 35.3574 9.8594 -13.7730 6.1271
# 3 39.2864 35.3574 59.0804 18.4278 -16.5174 -1.9821
# 4 7.7903 9.8594 18.4278 25.0220 -3.3030 -5.1664
# 5 -15.9297 -13.7730 -16.5174 -3.3030 36.1774 3.6456
# 6 -5.7236 6.1271 -1.9821 -5.1664 3.6456 41.5364
#
#
#
# Elastic Compliance Matrix: (Units=1/GPa)
#
#
# Indices 1 2 3 4 5 6 
#
# 1 0.013282 -0.004941 -0.006525 0.003283 0.001029 0.002566
# 2 -0.004941 0.009123 -0.001697 -0.001199 0.000646 -0.002313
# 3 -0.006525 -0.001697 0.030707 -0.019216 0.008984 -0.002362
# 4 0.003283 -0.001199 -0.019216 0.054510 -0.003493 0.006799
# 5 0.001029 0.000646 0.008984 -0.003493 0.032406 -0.002803
# 6 0.002566 -0.002313 -0.002362 0.006799 -0.002803 0.025749
#
#
# Mechanical properties :
#
#
# Convention : Reuss Voigt Hill
#
# Bulk Modulus (GPa) = 37.33405 71.15261 54.24333
# Shear Modulus (GPa) = 24.87175 33.41574 29.14374
#
# Velocity S-wave (km/s) = 3.31371 3.84093 3.58702
# Velocity P-wave (km/s) = 5.57885 7.14728 6.41121
#
# Compressibility (1/GPa) = 0.02678520
#
# Stress axis : x y z
#
# Youngs Moduli (GPa) = 75.29058 109.61616 32.56611
#
# Poissons Ratio (x) = 0.54162 0.21250
# Poissons Ratio (y) = 0.37202 0.05526
# Poissons Ratio (z) = 0.49128 0.18601
#
# Static dielectric constant tensor:
#      x y z
#    x 1.926780 -0.053450 0.005200 
#    y -0.053450 2.037810 -0.044270 
#    z 0.005200 -0.044270 1.838150 
# 
# From -- ./inp_files/44846.got.cif
#   From: 2010.05.17/outbox.cif.g08.bks.cpg/sg2_23_cif.got.tgz:44846.got - 2010.06.03 11:33:40.
