data_PCOD9078685
_publ_section_title
;
Structure prediction by ZEFSAII (Michael W. Deem and Ramdas Pophale) SiO2 
 PCOD9078685
Probable space group: P -1
;
_chemical_formula_sum "Si O2"
_cell_formula_units_Z 16
_cell_length_a 13.153921
_cell_length_b 6.982236
_cell_length_c 16.659857
_cell_angle_alpha 69.728390
_cell_angle_beta 39.186491
_cell_angle_gamma 99.319794
_cell_volume 623.378559
_symmetry_space_group_name_H-M "P -1"
_symmetry_group_IT_number 2
_symmetry_cell_setting 'triclinic'
loop_
_space_group_symop_operation_xyz
x,y,z
-x,-y,-z
loop_
_atom_site_type_symbol
_atom_site_label
_atom_site_fract_x
_atom_site_fract_y
_atom_site_fract_z
Si Si1 0.714312 0.188004 0.035235
Si Si2 0.461308 0.165477 0.055277
Si Si3 0.060189 0.296361 0.571451
Si Si4 0.227130 0.258556 0.629670
Si Si5 0.295331 0.759836 0.477707
Si Si6 0.536268 0.643467 0.135202
Si Si7 0.119307 0.376646 0.011945
Si Si8 0.534512 0.218497 0.387304
O O1 0.621912 0.271700 0.017197
O O2 0.917334 0.483587 0.918423
O O3 0.528591 0.961435 0.251622
O O4 0.715179 0.983798 0.010974
O O5 0.496073 0.373920 0.938112
O O6 0.190948 0.929053 0.281867
O O7 0.500000 0.000000 0.000000
O O8 0.078529 0.146517 0.653568
O O9 0.096108 0.542176 0.564208
O O10 0.283465 0.461580 0.354910
O O11 0.471336 0.377181 0.440626
O O12 0.269245 0.534440 0.581947
O O13 0.092556 0.978125 0.809925
O O14 0.500000 0.000000 0.500000
O O15 0.334866 0.989353 0.474817
O O16 0.656605 0.549292 0.105035
O O17 0.217117 0.551606 0.843132
#
# Coordination Sequence:
#
# PCOD9078685 Si02
#       8
#     2   2   2   2   2   2   2   2
#     4   9  20  34  56  85 117 154 196 235 280 323
#     4  10  20  32  56  87 116 152 199 242 268 321
#     4   9  18  37  56  79 113 157 190 224 283 337
#     4  10  21  39  62  82 114 156 190 227 288 354
#     4   8  19  39  60  81 118 155 187 227 297 339
#     4  10  18  36  56  77 114 154 191 233 282 328
#     4  11  21  39  62  82 116 155 189 232 292 345
#     4  11  23  40  63  90 113 142 189 243 292 346
#
# _framework density 25.666585999999999
#
# number of rings (size 3 to 8) (size 9 to 14) (size 15 to 20)
#    0.750    1.500    2.500    0.000    0.000    9.000 
#    0.000    2.500    0.000    0.000    0.000    0.000 
#    0.000    0.000    0.000    0.000    0.000    0.000 
#
# Total GULP energy -89340.718157 kJ/mol
# GULP energy per Si atom -5583.794885 kJ/mol
# Density = 2.560817 g / cm^3
# Si number density = 25.666586 Si / 1000 Ang^3
#
#
#
# Elastic Constant Matrix: (Units=GPa)
#
#
# Indices 1 2 3 4 5 6 
#
# 1 102.5427 34.4958 16.4482 -0.8941 12.5632 11.6561
# 2 34.4958 81.9933 34.4817 0.0886 3.7430 -16.7491
# 3 16.4482 34.4817 133.5461 6.8263 21.5336 7.9220
# 4 -0.8941 0.0886 6.8263 20.9223 -11.5964 2.8773
# 5 12.5632 3.7430 21.5336 -11.5964 41.8802 -3.6263
# 6 11.6561 -16.7491 7.9220 2.8773 -3.6263 26.0324
#
#
#
# Elastic Compliance Matrix: (Units=1/GPa)
#
#
# Indices 1 2 3 4 5 6 
#
# 1 0.015432 -0.010569 0.003002 -0.002121 -0.007147 -0.015384
# 2 -0.010569 0.024383 -0.007832 0.003157 0.007932 0.023560
# 3 0.003002 -0.007832 0.011584 -0.007208 -0.009050 -0.010372
# 4 -0.002121 0.003157 -0.007208 0.061635 0.021241 0.001321
# 5 -0.007147 0.007932 -0.009050 0.021241 0.037049 0.013871
# 6 -0.015384 0.023560 -0.010372 0.001321 0.013871 0.065403
#
#
# Mechanical properties :
#
#
# Convention : Reuss Voigt Hill
#
# Bulk Modulus (GPa) = 48.54247 54.32594 51.43420
# Shear Modulus (GPa) = 19.75106 33.27739 26.51423
#
# Velocity S-wave (km/s) = 2.77704 3.60464 3.21756
# Velocity P-wave (km/s) = 5.40707 6.20778 5.82121
#
# Compressibility (1/GPa) = 0.02060052
#
# Stress axis : x y z
#
# Youngs Moduli (GPa) = 64.80094 41.01137 86.32856
#
# Poissons Ratio (x) = 0.43344 -0.25913
# Poissons Ratio (y) = 0.68487 0.67614
# Poissons Ratio (z) = -0.19451 0.32121
#
# Static dielectric constant tensor:
#      x y z
#    x 2.016490 -0.000120 0.025500 
#    y -0.000120 2.019240 -0.004170 
#    z 0.025500 -0.004170 2.031900 
# 
# From -- ./inp_files/528606.got.cif
#   From: 2010.05.17/outbox.cif.g08.bks.cpg/sg2_265_cif.got.tgz:528606.got - 2010.06.03 11:33:40.
