data_PCOD9078894
_publ_section_title
;
Structure prediction by ZEFSAII (Michael W. Deem and Ramdas Pophale) SiO2 
 PCOD9078894
Probable space group: P -1
;
_chemical_formula_sum "Si O2"
_cell_formula_units_Z 15
_cell_length_a 12.565315
_cell_length_b 10.649103
_cell_length_c 7.010419
_cell_angle_alpha 40.711971
_cell_angle_beta 98.549158
_cell_angle_gamma 103.197189
_cell_volume 595.256904
_symmetry_space_group_name_H-M "P -1"
_symmetry_group_IT_number 2
_symmetry_cell_setting 'triclinic'
loop_
_space_group_symop_operation_xyz
x,y,z
-x,-y,-z
loop_
_atom_site_type_symbol
_atom_site_label
_atom_site_fract_x
_atom_site_fract_y
_atom_site_fract_z
Si Si1 0.000000 0.000000 0.000000
Si Si2 0.959244 0.217731 0.014474
Si Si3 0.419432 0.242400 0.574533
Si Si4 0.425146 0.790069 0.047853
Si Si5 0.227103 0.326390 0.690535
Si Si6 0.761451 0.209429 0.254333
Si Si7 0.373453 0.208747 0.182794
Si Si8 0.875886 0.387004 0.453562
O O1 0.017745 0.035587 0.208216
O O2 0.878616 0.836709 0.189819
O O3 0.926532 0.214495 0.773932
O O4 0.033764 0.430746 0.803245
O O5 0.862363 0.190232 0.166737
O O6 0.318573 0.303109 0.587806
O O7 0.403165 0.004605 0.854388
O O8 0.534029 0.310421 0.638212
O O9 0.419958 0.303041 0.285485
O O10 0.322593 0.693499 0.006616
O O11 0.528698 0.814256 0.906618
O O12 0.285870 0.303659 0.935010
O O13 0.184228 0.528791 0.483103
O O14 0.691112 0.003388 0.532606
O O15 0.803000 0.314169 0.339907
#
# Coordination Sequence:
#
# PCOD9078894 Si02
#       8
#     1   2   2   2   2   2   2   2
#     4  10  18  36  60  84 110 134 186 240 270 320
#     4  10  22  39  59  84 113 150 186 228 281 329
#     4   9  17  33  53  79 110 141 180 229 276 324
#     4   9  19  33  57  86 112 142 186 240 285 322
#     4  10  21  36  55  82 114 150 185 229 281 329
#     4  11  20  35  60  86 109 148 190 227 282 339
#     4  10  20  35  59  86 111 143 188 241 281 322
#     4  10  23  40  55  79 121 154 182 226 276 340
#
# _framework density 25.199204000000002
#
# number of rings (size 3 to 8) (size 9 to 14) (size 15 to 20)
#    0.000    2.133    0.000    4.400    0.000    5.333 
#    0.000   17.333    0.000   10.400    0.000    0.000 
#    0.000    0.000    0.000    0.000    0.000    0.000 
#
# Total GULP energy -83772.352327 kJ/mol
# GULP energy per Si atom -5584.823488 kJ/mol
# Density = 2.514185 g / cm^3
# Si number density = 25.199204 Si / 1000 Ang^3
#
#
#
# Elastic Constant Matrix: (Units=GPa)
#
#
# Indices 1 2 3 4 5 6 
#
# 1 110.0256 51.4065 54.8370 5.8133 -1.3635 -12.2069
# 2 51.4065 124.6696 55.2067 8.7431 5.0674 -7.5060
# 3 54.8370 55.2067 100.8747 16.5388 9.5854 14.0783
# 4 5.8133 8.7431 16.5388 36.8865 -4.3233 8.0367
# 5 -1.3635 5.0674 9.5854 -4.3233 36.1909 8.0565
# 6 -12.2069 -7.5060 14.0783 8.0367 8.0565 42.7204
#
#
#
# Elastic Compliance Matrix: (Units=1/GPa)
#
#
# Indices 1 2 3 4 5 6 
#
# 1 0.014732 -0.002379 -0.007802 0.000652 0.001716 0.005917
# 2 -0.002379 0.011689 -0.005332 -0.000916 -0.001210 0.003532
# 3 -0.007802 -0.005332 0.019306 -0.004833 -0.003465 -0.007966
# 4 0.000652 -0.000916 -0.004833 0.031336 0.006397 -0.005483
# 5 0.001716 -0.001210 -0.003465 0.006397 0.030792 -0.005591
# 6 0.005917 0.003532 -0.007966 -0.005483 -0.005591 0.030430
#
#
# Mechanical properties :
#
#
# Convention : Reuss Voigt Hill
#
# Bulk Modulus (GPa) = 68.02036 73.16337 70.59186
# Shear Modulus (GPa) = 28.70060 34.76753 31.73406
#
# Velocity S-wave (km/s) = 3.37849 3.71847 3.55255
# Velocity P-wave (km/s) = 6.50158 6.89442 6.70088
#
# Compressibility (1/GPa) = 0.01470148
#
# Stress axis : x y z
#
# Youngs Moduli (GPa) = 67.87841 85.54887 51.79679
#
# Poissons Ratio (x) = 0.20351 0.40414
# Poissons Ratio (y) = 0.16147 0.27617
# Poissons Ratio (z) = 0.52962 0.45613
#
# Static dielectric constant tensor:
#      x y z
#    x 2.040450 -0.023530 0.086250 
#    y -0.023530 2.093330 -0.043210 
#    z 0.086250 -0.043210 2.062680 
# 
# From -- ./inp_files/91346.got.cif
#   From: 2010.05.17/outbox.cif.g08.bks.cpg/sg2_46_cif.got.tgz:91346.got - 2010.06.03 11:33:40.
