data_PCOD9078726
_publ_section_title
;
Structure prediction by ZEFSAII (Michael W. Deem and Ramdas Pophale) SiO2 
 PCOD9078726
Probable space group: P -1
;
_chemical_formula_sum "Si O2"
_cell_formula_units_Z 16
_cell_length_a 8.685309
_cell_length_b 5.360529
_cell_length_c 21.031057
_cell_angle_alpha 122.038196
_cell_angle_beta 132.488995
_cell_angle_gamma 70.606520
_cell_volume 611.529162
_symmetry_space_group_name_H-M "P -1"
_symmetry_group_IT_number 2
_symmetry_cell_setting 'triclinic'
loop_
_space_group_symop_operation_xyz
x,y,z
-x,-y,-z
loop_
_atom_site_type_symbol
_atom_site_label
_atom_site_fract_x
_atom_site_fract_y
_atom_site_fract_z
Si Si1 0.878390 0.861294 0.749581
Si Si2 0.243326 0.723908 0.430832
Si Si3 0.308327 0.360819 0.513649
Si Si4 0.508175 0.160189 0.280840
Si Si5 0.538800 0.895990 0.926257
Si Si6 0.838125 0.721035 0.906314
Si Si7 0.197117 0.056632 0.766711
Si Si8 0.161732 0.630558 0.903232
O O1 0.850028 0.510505 0.677276
O O2 0.649695 0.960644 0.723070
O O3 0.967837 0.990891 0.725303
O O4 0.038757 0.853457 0.852957
O O5 0.194131 0.590020 0.468169
O O6 0.492116 0.724487 0.485376
O O7 0.183517 0.059941 0.454629
O O8 0.393243 0.535734 0.622311
O O9 0.342920 0.213358 0.185705
O O10 0.699731 0.989007 0.279735
O O11 0.707548 0.654767 0.924695
O O12 0.332334 0.848427 0.821961
O O13 0.664615 0.201222 0.983243
O O14 0.500000 0.000000 0.000000
O O15 0.985130 0.491614 0.882797
O O16 0.000000 0.000000 0.000000
O O17 0.250581 0.386593 0.850081
#
# Coordination Sequence:
#
# PCOD9078726 Si02
#       8
#     2   2   2   2   2   2   2   2
#     4  10  21  39  60  87 118 158 198 254 311 368
#     4   9  19  35  64  89 124 161 212 262 319 379
#     4   9  18  38  60  92 121 166 209 260 318 381
#     4   9  20  40  59  87 122 159 201 252 305 374
#     4  10  18  36  57  80 120 157 193 245 305 362
#     4   8  17  34  60  81 117 156 192 248 298 359
#     4  11  22  38  59  87 120 155 204 250 304 366
#     4  10  20  37  58  83 115 158 201 247 299 367
#
# _framework density 26.163919
#
# number of rings (size 3 to 8) (size 9 to 14) (size 15 to 20)
#    0.000    2.500    1.250    0.375    1.750    0.000 
#   11.250    1.875    0.000    0.000    0.000    0.000 
#    0.000    0.000    0.000    0.000    0.000    0.000 
#
# Total GULP energy -89176.704663 kJ/mol
# GULP energy per Si atom -5573.544041 kJ/mol
# Density = 2.610437 g / cm^3
# Si number density = 26.163919 Si / 1000 Ang^3
#
#
#
# Elastic Constant Matrix: (Units=GPa)
#
#
# Indices 1 2 3 4 5 6 
#
# 1 188.3752 25.1338 27.2158 9.6190 -18.4266 -25.8951
# 2 25.1338 70.5323 26.3577 2.2699 -9.0392 8.3696
# 3 27.2158 26.3577 89.9989 -6.7011 -15.8654 8.2287
# 4 9.6190 2.2699 -6.7011 27.6516 -5.5720 -4.0968
# 5 -18.4266 -9.0392 -15.8654 -5.5720 31.5348 3.6903
# 6 -25.8951 8.3696 8.2287 -4.0968 3.6903 26.6650
#
#
#
# Elastic Compliance Matrix: (Units=1/GPa)
#
#
# Indices 1 2 3 4 5 6 
#
# 1 0.007257 -0.002571 -0.002058 -0.001353 0.001281 0.008105
# 2 -0.002571 0.017648 -0.003430 -0.002038 0.002362 -0.007618
# 3 -0.002058 -0.003430 0.014847 0.005137 0.006854 -0.005662
# 4 -0.001353 -0.002038 0.005137 0.040066 0.007962 0.002794
# 5 0.001281 0.002362 0.006854 0.007962 0.038664 -0.005740
# 6 0.008105 -0.007618 -0.005662 0.002794 -0.005740 0.050735
#
#
# Mechanical properties :
#
#
# Convention : Reuss Voigt Hill
#
# Bulk Modulus (GPa) = 42.31068 56.25788 49.28428
# Shear Modulus (GPa) = 25.87828 35.18356 30.53092
#
# Velocity S-wave (km/s) = 3.14838 3.67104 3.41971
# Velocity P-wave (km/s) = 5.42429 6.28629 5.87113
#
# Compressibility (1/GPa) = 0.02363469
#
# Stress axis : x y z
#
# Youngs Moduli (GPa) = 137.79019 56.66317 67.35579
#
# Poissons Ratio (x) = 0.14569 0.13859
# Poissons Ratio (y) = 0.35429 0.23102
# Poissons Ratio (z) = 0.28352 0.19435
#
# Static dielectric constant tensor:
#      x y z
#    x 2.322900 -0.003720 0.028310 
#    y -0.003720 2.115550 -0.004030 
#    z 0.028310 -0.004030 2.093570 
# 
# From -- ./inp_files/459661.got.cif
#   From: 2010.05.17/outbox.cif.g08.bks.cpg/sg2_230_cif.got.tgz:459661.got - 2010.06.03 11:33:40.
