data_PCOD9078667
_publ_section_title
;
Structure prediction by ZEFSAII (Michael W. Deem and Ramdas Pophale) SiO2 
 PCOD9078667
Probable space group: P -1
;
_chemical_formula_sum "Si O2"
_cell_formula_units_Z 16
_cell_length_a 7.782253
_cell_length_b 8.283733
_cell_length_c 11.802024
_cell_angle_alpha 77.617770
_cell_angle_beta 67.661664
_cell_angle_gamma 66.986041
_cell_volume 645.784059
_symmetry_space_group_name_H-M "P -1"
_symmetry_group_IT_number 2
_symmetry_cell_setting 'triclinic'
loop_
_space_group_symop_operation_xyz
x,y,z
-x,-y,-z
loop_
_atom_site_type_symbol
_atom_site_label
_atom_site_fract_x
_atom_site_fract_y
_atom_site_fract_z
Si Si1 0.814063 0.554725 0.122058
Si Si2 0.245249 0.776506 0.693186
Si Si3 0.472659 0.808547 0.016600
Si Si4 0.248045 0.707806 0.444812
Si Si5 0.292498 0.320923 0.445931
Si Si6 0.669886 0.843307 0.754696
Si Si7 0.363470 0.206162 0.682120
Si Si8 0.103309 0.935943 0.224439
O O1 0.797567 0.382026 0.210170
O O2 0.618287 0.665883 0.084445
O O3 0.809894 0.690682 0.204387
O O4 0.000000 0.500000 0.000000
O O5 0.190367 0.791441 0.570555
O O6 0.478751 0.731122 0.639824
O O7 0.124347 0.959144 0.757961
O O8 0.248294 0.834694 0.103001
O O9 0.548854 0.756249 0.878491
O O10 0.500000 0.000000 0.000000
O O11 0.218639 0.521929 0.469836
O O12 0.482641 0.683166 0.379639
O O13 0.143565 0.819807 0.345387
O O14 0.206224 0.273266 0.360333
O O15 0.289373 0.206086 0.573222
O O16 0.511134 0.021761 0.717978
O O17 0.816492 0.905356 0.786003
#
# Coordination Sequence:
#
# PCOD9078667 Si02
#       8
#     2   2   2   2   2   2   2   2
#     4  12  20  33  62  89 109 144 209 239 263 336
#     4  11  21  35  61  89 109 151 201 236 277 342
#     4  10  18  36  55  78 113 155 190 224 278 344
#     4  10  18  37  60  82 115 153 192 233 284 348
#     4  11  20  37  61  88 118 146 191 244 293 328
#     4  10  21  35  59  86 116 158 186 233 293 343
#     4  10  18  36  59  86 111 155 194 232 280 344
#     4  10  20  37  61  82 115 155 198 228 281 350
#
# _framework density 24.776083
#
# number of rings (size 3 to 8) (size 9 to 14) (size 15 to 20)
#    0.000    1.500    6.250    3.000    0.000    0.000 
#    0.000    3.750    5.500    0.000    0.000    0.000 
#    0.000    0.000    0.000    0.000    0.000    0.000 
#
# Total GULP energy -89558.418204 kJ/mol
# GULP energy per Si atom -5597.401138 kJ/mol
# Density = 2.471969 g / cm^3
# Si number density = 24.776083 Si / 1000 Ang^3
#
#
#
# Elastic Constant Matrix: (Units=GPa)
#
#
# Indices 1 2 3 4 5 6 
#
# 1 43.7199 5.9868 9.7119 9.1989 -15.5254 -5.8705
# 2 5.9868 83.6798 36.2816 -2.6343 -12.5030 -25.7244
# 3 9.7119 36.2816 158.6153 6.3449 -4.7924 -14.4233
# 4 9.1989 -2.6343 6.3449 48.3522 -7.1497 -2.9479
# 5 -15.5254 -12.5030 -4.7924 -7.1497 34.9322 8.7762
# 6 -5.8705 -25.7244 -14.4233 -2.9479 8.7762 28.9255
#
#
#
# Elastic Compliance Matrix: (Units=1/GPa)
#
#
# Indices 1 2 3 4 5 6 
#
# 1 0.028052 0.000712 -0.001229 -0.003336 0.011389 0.001919
# 2 0.000712 0.018042 -0.002900 0.002582 0.003393 0.013977
# 3 -0.001229 -0.002900 0.007136 -0.000957 -0.001039 0.000947
# 4 -0.003336 0.002582 -0.000957 0.022210 0.003248 0.002420
# 5 0.011389 0.003393 -0.001039 0.003248 0.036950 -0.006069
# 6 0.001919 0.013977 0.000947 0.002420 -0.006069 0.049952
#
#
# Mechanical properties :
#
#
# Convention : Reuss Voigt Hill
#
# Bulk Modulus (GPa) = 21.55308 43.33063 32.44186
# Shear Modulus (GPa) = 27.07952 38.04432 32.56192
#
# Velocity S-wave (km/s) = 3.30960 3.92283 3.62919
# Velocity P-wave (km/s) = 4.82935 6.16806 5.53930
#
# Compressibility (1/GPa) = 0.04639707
#
# Stress axis : x y z
#
# Youngs Moduli (GPa) = 35.64788 55.42644 140.13021
#
# Poissons Ratio (x) = -0.03947 0.17215
# Poissons Ratio (y) = -0.02539 0.40642
# Poissons Ratio (z) = 0.04379 0.16075
#
# Static dielectric constant tensor:
#      x y z
#    x 2.094460 0.045960 -0.022110 
#    y 0.045960 1.958910 0.038600 
#    z -0.022110 0.038600 1.984950 
# 
# From -- ./inp_files/307177.got.cif
#   From: 2010.05.17/outbox.cif.g08.bks.cpg/sg2_154_cif.got.tgz:307177.got - 2010.06.03 11:33:40.
