data_PCOD9078953
_publ_section_title
;
Structure prediction by ZEFSAII (Michael W. Deem and Ramdas Pophale) SiO2 
 PCOD9078953
Probable space group: P -1
;
_chemical_formula_sum "Si O2"
_cell_formula_units_Z 16
_cell_length_a 11.357890
_cell_length_b 14.014865
_cell_length_c 16.458864
_cell_angle_alpha 24.236683
_cell_angle_beta 138.193868
_cell_angle_gamma 135.952825
_cell_volume 709.592880
_symmetry_space_group_name_H-M "P -1"
_symmetry_group_IT_number 2
_symmetry_cell_setting 'triclinic'
loop_
_space_group_symop_operation_xyz
x,y,z
-x,-y,-z
loop_
_atom_site_type_symbol
_atom_site_label
_atom_site_fract_x
_atom_site_fract_y
_atom_site_fract_z
Si Si1 0.213273 0.472209 0.823502
Si Si2 0.405629 0.969634 0.063047
Si Si3 0.835294 0.532676 0.656642
Si Si4 0.996012 0.238382 0.760440
Si Si5 0.761195 0.991477 0.707545
Si Si6 0.315196 0.446204 0.606335
Si Si7 0.645815 0.819437 0.449014
Si Si8 0.369190 0.971841 0.553165
O O1 0.355169 0.697542 0.736707
O O2 0.034286 0.528949 0.731957
O O3 0.162133 0.408313 0.753186
O O4 0.257561 0.241674 0.068079
O O5 0.259886 0.734734 0.169482
O O6 0.538062 0.935325 0.232629
O O7 0.500000 0.000000 0.000000
O O8 0.321658 0.210778 0.843794
O O9 0.729510 0.624418 0.455178
O O10 0.806665 0.704015 0.582466
O O11 0.829758 0.380533 0.583640
O O12 0.939464 0.148426 0.710678
O O13 0.000000 0.000000 0.000000
O O14 0.574190 0.087279 0.555619
O O15 0.757200 0.942098 0.648086
O O16 0.507979 0.601246 0.582263
O O17 0.689171 0.987981 0.416931
#
# Coordination Sequence:
#
# PCOD9078953 Si02
#       8
#     2   2   2   2   2   2   2   2
#     4  10  23  41  63  93 127 163 203 265 322 367
#     4  11  19  35  64  95 125 165 214 259 310 372
#     4  10  21  37  61  91 132 158 203 269 311 372
#     4   9  19  39  67  89 123 157 207 266 312 356
#     4  10  22  45  64  87 122 167 220 258 302 377
#     4  10  18  36  60  95 123 159 205 262 312 365
#     4  11  21  37  61  91 130 165 209 257 309 376
#     4  11  24  41  64  89 126 173 209 252 314 384
#
# _framework density 22.548141999999999
#
# number of rings (size 3 to 8) (size 9 to 14) (size 15 to 20)
#    0.000    1.750    3.750    1.125    0.000    4.000 
#    2.250    0.625    0.000    0.000    0.000    0.000 
#    0.000    0.000    0.000    0.000    0.000    0.000 
#
# Total GULP energy -89337.906724 kJ/mol
# GULP energy per Si atom -5583.619170 kJ/mol
# Density = 2.249682 g / cm^3
# Si number density = 22.548142 Si / 1000 Ang^3
#
#
#
# Elastic Constant Matrix: (Units=GPa)
#
#
# Indices 1 2 3 4 5 6 
#
# 1 79.9352 50.6222 28.1953 -2.1583 6.9911 -12.3487
# 2 50.6222 150.6283 30.5145 11.0792 0.7067 -27.3532
# 3 28.1953 30.5145 144.1637 10.9249 -6.8870 -8.8485
# 4 -2.1583 11.0792 10.9249 17.3514 -2.5700 -2.1802
# 5 6.9911 0.7067 -6.8870 -2.5700 32.3114 0.8891
# 6 -12.3487 -27.3532 -8.8485 -2.1802 0.8891 34.2689
#
#
#
# Elastic Compliance Matrix: (Units=1/GPa)
#
#
# Indices 1 2 3 4 5 6 
#
# 1 0.017919 -0.005624 -0.002944 0.007327 -0.003848 0.001773
# 2 -0.005624 0.010029 -0.000196 -0.006240 0.000307 0.005523
# 3 -0.002944 -0.000196 0.008053 -0.004960 0.001950 0.000496
# 4 0.007327 -0.006240 -0.004960 0.066122 0.002739 0.000514
# 5 -0.003848 0.000307 0.001950 0.002739 0.032444 -0.001305
# 6 0.001773 0.005523 0.000496 0.000514 -0.001305 0.034423
#
#
# Mechanical properties :
#
#
# Convention : Reuss Voigt Hill
#
# Bulk Modulus (GPa) = 54.13684 65.93235 60.03460
# Shear Modulus (GPa) = 25.95013 34.47936 30.21474
#
# Velocity S-wave (km/s) = 3.39614 3.91467 3.66459
# Velocity P-wave (km/s) = 6.28012 7.05245 6.67746
#
# Compressibility (1/GPa) = 0.01847171
#
# Stress axis : x y z
#
# Youngs Moduli (GPa) = 55.80722 99.70751 124.17116
#
# Poissons Ratio (x) = 0.56080 0.36559
# Poissons Ratio (y) = 0.31388 0.02437
# Poissons Ratio (z) = 0.16431 0.01957
#
# Static dielectric constant tensor:
#      x y z
#    x 1.897850 -0.034120 -0.003440 
#    y -0.034120 1.842120 -0.007050 
#    z -0.003440 -0.007050 1.874630 
# 
# From -- ./inp_files/574014.got.cif
#   From: 2010.05.17/outbox.cif.g08.bks.cpg/sg2_288_cif.got.tgz:574014.got - 2010.06.03 11:33:40.
