data_PCOD9078464
_publ_section_title
;
Structure prediction by ZEFSAII (Michael W. Deem and Ramdas Pophale) SiO2 
 PCOD9078464
Probable space group: P -1
;
_chemical_formula_sum "Si O2"
_cell_formula_units_Z 15
_cell_length_a 9.008692
_cell_length_b 7.979118
_cell_length_c 20.325498
_cell_angle_alpha 138.957449
_cell_angle_beta 50.777995
_cell_angle_gamma 98.714048
_cell_volume 571.234313
_symmetry_space_group_name_H-M "P -1"
_symmetry_group_IT_number 2
_symmetry_cell_setting 'triclinic'
loop_
_space_group_symop_operation_xyz
x,y,z
-x,-y,-z
loop_
_atom_site_type_symbol
_atom_site_label
_atom_site_fract_x
_atom_site_fract_y
_atom_site_fract_z
Si Si1 0.500000 0.500000 0.500000
Si Si2 0.377814 0.382631 0.254023
Si Si3 0.144807 0.339704 0.811574
Si Si4 0.554104 0.734310 0.082050
Si Si5 0.053514 0.888693 0.700678
Si Si6 0.719516 0.427282 0.268946
Si Si7 0.093411 0.159934 0.407178
Si Si8 0.222786 0.792003 0.995599
O O1 0.268122 0.502426 0.534967
O O2 0.605712 0.480331 0.387571
O O3 0.549710 0.397875 0.260456
O O4 0.090787 0.705571 0.439938
O O5 0.427156 0.051063 0.163828
O O6 0.505843 0.331618 0.133910
O O7 0.258911 0.328746 0.706715
O O8 0.236415 0.975607 0.698027
O O9 0.195910 0.517340 0.902038
O O10 0.845339 0.554292 0.953185
O O11 0.500000 0.500000 0.000000
O O12 0.390985 0.893000 0.241715
O O13 0.983378 0.972954 0.669706
O O14 0.856771 0.067757 0.867029
O O15 0.009459 0.098880 0.099714
O O16 0.000000 0.500000 0.500000
#
# Coordination Sequence:
#
# PCOD9078464 Si02
#       8
#     1   2   2   2   2   2   2   2
#     4  10  22  36  56  90 122 148 186 258 310 356
#     4  10  18  38  59  87 116 160 204 246 300 366
#     4  11  20  36  62  92 117 155 207 249 298 359
#     4  11  20  35  60  85 116 161 212 244 277 359
#     4  11  22  37  58  93 119 156 202 248 309 355
#     4  10  18  35  63  87 119 153 192 249 311 355
#     4  10  22  36  58  86 115 164 206 238 289 361
#     4  10  20  36  62  90 119 154 194 259 313 354
#
# _framework density 26.258925999999999
#
# number of rings (size 3 to 8) (size 9 to 14) (size 15 to 20)
#    0.000    1.600    5.333    1.200    0.000    0.533 
#    0.000    2.667    0.000    0.800    0.000    0.000 
#    0.000    0.000    0.000    0.000    0.000    0.000 
#
# Total GULP energy -83597.658191 kJ/mol
# GULP energy per Si atom -5573.177213 kJ/mol
# Density = 2.619916 g / cm^3
# Si number density = 26.258926 Si / 1000 Ang^3
#
#
#
# Elastic Constant Matrix: (Units=GPa)
#
#
# Indices 1 2 3 4 5 6 
#
# 1 82.5575 39.1098 36.5713 -7.0579 -11.4690 4.7383
# 2 39.1098 152.6144 63.4686 -27.3189 1.4709 6.0777
# 3 36.5713 63.4686 221.6789 -52.6227 -29.6328 16.4872
# 4 -7.0579 -27.3189 -52.6227 53.6360 7.5061 -0.2062
# 5 -11.4690 1.4709 -29.6328 7.5061 12.0561 -4.5191
# 6 4.7383 6.0777 16.4872 -0.2062 -4.5191 39.9069
#
#
#
# Elastic Compliance Matrix: (Units=1/GPa)
#
#
# Indices 1 2 3 4 5 6 
#
# 1 0.016896 -0.005377 0.000851 -0.002577 0.020724 0.000794
# 2 -0.005377 0.010227 -0.003429 0.003592 -0.017579 -0.001475
# 3 0.000851 -0.003429 0.009302 0.004569 0.020859 -0.001036
# 4 -0.002577 0.003592 0.004569 0.025848 -0.008877 -0.003000
# 5 0.020724 -0.017579 0.020859 -0.008877 0.165459 0.010290
# 6 0.000794 -0.001475 -0.001036 -0.003000 0.010290 0.026766
#
#
# Mechanical properties :
#
#
# Convention : Reuss Voigt Hill
#
# Bulk Modulus (GPa) = 48.73819 81.68337 65.21078
# Shear Modulus (GPa) = 18.03452 42.29984 30.16718
#
# Velocity S-wave (km/s) = 2.62352 4.01792 3.39312
# Velocity P-wave (km/s) = 5.27049 7.25943 6.34340
#
# Compressibility (1/GPa) = 0.02051779
#
# Stress axis : x y z
#
# Youngs Moduli (GPa) = 59.18652 97.77665 107.50093
#
# Poissons Ratio (x) = 0.52570 -0.09153
# Poissons Ratio (y) = 0.31822 0.36858
# Poissons Ratio (z) = -0.05039 0.33524
#
# Static dielectric constant tensor:
#      x y z
#    x 2.249680 -0.094880 -0.147570 
#    y -0.094880 2.232970 0.167840 
#    z -0.147570 0.167840 2.368150 
# 
# From -- ./inp_files/240605.got.cif
#   From: 2010.05.17/outbox.cif.g08.bks.cpg/sg2_121_cif.got.tgz:240605.got - 2010.06.03 11:33:40.
