data_PCOD9078335
_publ_section_title
;
Structure prediction by ZEFSAII (Michael W. Deem and Ramdas Pophale) SiO2 
 PCOD9078335
Probable space group: P -1
;
_chemical_formula_sum "Si O2"
_cell_formula_units_Z 16
_cell_length_a 9.617357
_cell_length_b 11.851960
_cell_length_c 15.213916
_cell_angle_alpha 40.414967
_cell_angle_beta 128.575040
_cell_angle_gamma 107.178321
_cell_volume 822.057703
_symmetry_space_group_name_H-M "P -1"
_symmetry_group_IT_number 2
_symmetry_cell_setting 'triclinic'
loop_
_space_group_symop_operation_xyz
x,y,z
-x,-y,-z
loop_
_atom_site_type_symbol
_atom_site_label
_atom_site_fract_x
_atom_site_fract_y
_atom_site_fract_z
Si Si1 0.374704 0.975961 0.761234
Si Si2 0.432304 0.161131 0.254900
Si Si3 0.382603 0.933801 0.064591
Si Si4 0.597527 0.489278 0.430530
Si Si5 0.902832 0.061635 0.178239
Si Si6 0.005940 0.409610 0.960028
Si Si7 0.750862 0.602736 0.580401
Si Si8 0.668811 0.178825 0.505776
O O1 0.570107 0.982660 0.877117
O O2 0.256345 0.191932 0.566337
O O3 0.434643 0.862753 0.762905
O O4 0.251141 0.911884 0.820960
O O5 0.534877 0.210373 0.349870
O O6 0.398407 0.965467 0.376454
O O7 0.223956 0.314112 0.073304
O O8 0.473717 0.708370 0.237690
O O9 0.172264 0.006711 0.899246
O O10 0.500000 0.000000 0.000000
O O11 0.769126 0.486212 0.565622
O O12 0.456899 0.396116 0.473764
O O13 0.656871 0.367361 0.438582
O O14 0.111416 0.930139 0.366725
O O15 0.918535 0.253030 0.040135
O O16 0.887162 0.527460 0.761868
O O17 0.000000 0.500000 0.000000
#
# Coordination Sequence:
#
# PCOD9078335 Si02
#       8
#     2   2   2   2   2   2   2   2
#     4  10  21  40  60  88 121 152 192 241 296 349
#     4  10  22  37  58  84 121 154 195 244 290 341
#     4   9  19  37  60  87 119 157 187 240 300 344
#     4  10  18  35  61  88 114 152 200 240 286 348
#     4  10  22  38  61  87 118 158 192 240 298 343
#     4  11  23  39  60  87 118 156 200 239 287 352
#     4  10  20  35  62  88 114 152 196 244 288 342
#     4  10  21  37  57  89 115 158 197 238 291 350
#
# _framework density 19.463353999999999
#
# number of rings (size 3 to 8) (size 9 to 14) (size 15 to 20)
#    0.000    2.000    2.500    0.750    3.500    1.500 
#    0.000   11.250    0.000    0.000    0.000    0.000 
#    0.000    0.000    0.000    0.000    0.000    0.000 
#
# Total GULP energy -89143.955309 kJ/mol
# GULP energy per Si atom -5571.497207 kJ/mol
# Density = 1.941906 g / cm^3
# Si number density = 19.463354 Si / 1000 Ang^3
#
#
#
# Elastic Constant Matrix: (Units=GPa)
#
#
# Indices 1 2 3 4 5 6 
#
# 1 62.1147 11.8830 15.0509 10.5004 -0.6492 -3.2185
# 2 11.8830 73.5131 24.4981 26.9289 6.4802 -14.6502
# 3 15.0509 24.4981 78.7164 36.5344 -2.6949 2.1912
# 4 10.5004 26.9289 36.5344 31.3833 4.7885 -2.1559
# 5 -0.6492 6.4802 -2.6949 4.7885 15.9049 3.8389
# 6 -3.2185 -14.6502 2.1912 -2.1559 3.8389 29.5774
#
#
#
# Elastic Compliance Matrix: (Units=1/GPa)
#
#
# Indices 1 2 3 4 5 6 
#
# 1 0.017284 -0.000988 -0.001264 -0.003663 0.001758 0.000990
# 2 -0.000988 0.023061 0.001794 -0.019966 -0.005646 0.010459
# 3 -0.001264 0.001794 0.033599 -0.043784 0.019906 -0.007513
# 4 -0.003663 -0.019966 -0.043784 0.106523 -0.032703 0.004965
# 5 0.001758 -0.005646 0.019906 -0.032703 0.082613 -0.017186
# 6 0.000990 0.010459 -0.007513 0.004965 -0.017186 0.042247
#
#
# Mechanical properties :
#
#
# Convention : Reuss Voigt Hill
#
# Bulk Modulus (GPa) = 13.69363 35.24534 24.46948
# Shear Modulus (GPa) = 15.12471 26.23392 20.67931
#
# Velocity S-wave (km/s) = 2.79065 3.67531 3.26310
# Velocity P-wave (km/s) = 4.17547 6.01318 5.17653
#
# Compressibility (1/GPa) = 0.07302666
#
# Stress axis : x y z
#
# Youngs Moduli (GPa) = 57.85837 43.36401 29.76268
#
# Poissons Ratio (x) = 0.04286 0.03763
# Poissons Ratio (y) = 0.05718 -0.05340
# Poissons Ratio (z) = 0.07315 -0.07780
#
# Static dielectric constant tensor:
#      x y z
#    x 1.682050 -0.056630 -0.032410 
#    y -0.056630 1.956520 0.162180 
#    z -0.032410 0.162180 1.781980 
# 
# From -- ./inp_files/187420.got.cif
#   From: 2010.05.17/outbox.cif.g08.bks.cpg/sg2_94_cif.got.tgz:187420.got - 2010.06.03 11:33:40.
