data_PCOD9078229
_publ_section_title
;
Structure prediction by ZEFSAII (Michael W. Deem and Ramdas Pophale) SiO2 
 PCOD9078229
Probable space group: P -1
;
_chemical_formula_sum "Si O2"
_cell_formula_units_Z 16
_cell_length_a 10.795799
_cell_length_b 12.265297
_cell_length_c 22.232956
_cell_angle_alpha 157.143978
_cell_angle_beta 29.992741
_cell_angle_gamma 144.443229
_cell_volume 569.800650
_symmetry_space_group_name_H-M "P -1"
_symmetry_group_IT_number 2
_symmetry_cell_setting 'triclinic'
loop_
_space_group_symop_operation_xyz
x,y,z
-x,-y,-z
loop_
_atom_site_type_symbol
_atom_site_label
_atom_site_fract_x
_atom_site_fract_y
_atom_site_fract_z
Si Si1 0.567370 0.070632 0.797058
Si Si2 0.313240 0.024399 0.765087
Si Si3 0.259812 0.531971 0.820153
Si Si4 0.517718 0.479755 0.122155
Si Si5 0.894732 0.106942 0.837202
Si Si6 0.701937 0.277922 0.555041
Si Si7 0.098458 0.678716 0.839964
Si Si8 0.773272 0.552856 0.447022
O O1 0.555790 0.061881 0.725334
O O2 0.327351 0.902769 0.843052
O O3 0.787257 0.876560 0.624664
O O4 0.547567 0.373563 0.987389
O O5 0.341371 0.208376 0.787377
O O6 0.244300 0.691775 0.620710
O O7 0.112812 0.148177 0.956006
O O8 0.546588 0.485615 0.685572
O O9 0.180491 0.484986 0.761193
O O10 0.096471 0.323963 0.827614
O O11 0.178871 0.830662 0.030858
O O12 0.293313 0.565697 0.301962
O O13 0.647534 0.223417 0.969537
O O14 0.033181 0.822669 0.626859
O O15 0.500000 0.000000 0.500000
O O16 0.040442 0.516127 0.719739
O O17 0.500000 0.500000 0.500000
#
# Coordination Sequence:
#
# PCOD9078229 Si02
#       8
#     2   2   2   2   2   2   2   2
#     4  10  22  38  54  85 126 150 185 243 296 334
#     4  10  19  36  61  83 112 158 201 228 276 350
#     4   9  17  33  58  82 111 143 200 238 276 338
#     4  11  21  38  60  88 122 150 186 249 295 332
#     4   9  18  35  52  88 115 144 187 246 287 337
#     4   9  20  34  58  86 117 146 192 242 288 346
#     4  10  18  35  60  82 109 160 195 231 284 346
#     4   8  18  35  53  80 116 148 194 228 270 349
#
# _framework density 28.079996999999999
#
# number of rings (size 3 to 8) (size 9 to 14) (size 15 to 20)
#    0.000    2.750    1.250    2.625    0.000    6.000 
#    4.500    3.125    0.000    1.500    0.000    0.000 
#    0.000    0.000    0.000    0.000    0.000    0.000 
#
# Total GULP energy -89272.824500 kJ/mol
# GULP energy per Si atom -5579.551531 kJ/mol
# Density = 2.801609 g / cm^3
# Si number density = 28.079997 Si / 1000 Ang^3
#
#
#
# Elastic Constant Matrix: (Units=GPa)
#
#
# Indices 1 2 3 4 5 6 
#
# 1 66.5360 16.7329 36.0181 9.4013 16.3867 -20.2005
# 2 16.7329 85.3459 47.0353 3.1867 0.9353 -0.3591
# 3 36.0181 47.0353 230.6607 -5.7985 -9.1467 -16.9556
# 4 9.4013 3.1867 -5.7985 33.1579 -6.2578 -2.9515
# 5 16.3867 0.9353 -9.1467 -6.2578 40.3240 -9.9030
# 6 -20.2005 -0.3591 -16.9556 -2.9515 -9.9030 31.7417
#
#
#
# Elastic Compliance Matrix: (Units=1/GPa)
#
#
# Indices 1 2 3 4 5 6 
#
# 1 0.023601 -0.002546 -0.002994 -0.007791 -0.008999 0.009860
# 2 -0.002546 0.013781 -0.002739 -0.001567 -0.000979 -0.003379
# 3 -0.002994 -0.002739 0.005775 0.003050 0.003699 0.002586
# 4 -0.007791 -0.001567 0.003050 0.035237 0.010121 0.003087
# 5 -0.008999 -0.000979 0.003699 0.010121 0.032701 0.007381
# 6 0.009860 -0.003379 0.002586 0.003087 0.007381 0.041712
#
#
# Mechanical properties :
#
#
# Convention : Reuss Voigt Hill
#
# Bulk Modulus (GPa) = 37.59664 64.67945 51.13805
# Shear Modulus (GPa) = 28.05346 39.89516 33.97431
#
# Velocity S-wave (km/s) = 3.16421 3.77340 3.48215
# Velocity P-wave (km/s) = 5.17376 6.48604 5.86671
#
# Compressibility (1/GPa) = 0.02659812
#
# Stress axis : x y z
#
# Youngs Moduli (GPa) = 42.37089 72.56463 173.16358
#
# Poissons Ratio (x) = 0.18476 0.51847
# Poissons Ratio (y) = 0.10788 0.47432
# Poissons Ratio (z) = 0.12686 0.19877
#
# Static dielectric constant tensor:
#      x y z
#    x 2.443290 0.043500 -0.024900 
#    y 0.043500 2.164460 0.085960 
#    z -0.024900 0.085960 2.313150 
# 
# From -- ./inp_files/619521.got.cif
#   From: 2010.05.17/outbox.cif.g08.bks.cpg/sg2_310_cif.got.tgz:619521.got - 2010.06.03 11:33:40.
