data_PCOD9078194
_publ_section_title
;
Structure prediction by ZEFSAII (Michael W. Deem and Ramdas Pophale) SiO2 
 PCOD9078194
Probable space group: P -1
;
_chemical_formula_sum "Si O2"
_cell_formula_units_Z 16
_cell_length_a 11.415447
_cell_length_b 15.943920
_cell_length_c 7.716423
_cell_angle_alpha 123.778922
_cell_angle_beta 88.950692
_cell_angle_gamma 132.964695
_cell_volume 687.906788
_symmetry_space_group_name_H-M "P -1"
_symmetry_group_IT_number 2
_symmetry_cell_setting 'triclinic'
loop_
_space_group_symop_operation_xyz
x,y,z
-x,-y,-z
loop_
_atom_site_type_symbol
_atom_site_label
_atom_site_fract_x
_atom_site_fract_y
_atom_site_fract_z
Si Si1 0.768309 0.266965 0.454009
Si Si2 0.192203 0.800780 0.265324
Si Si3 0.202333 0.105721 0.198788
Si Si4 0.534844 0.583750 0.268347
Si Si5 0.496428 0.848869 0.165439
Si Si6 0.167762 0.453873 0.263835
Si Si7 0.570649 0.405692 0.272246
Si Si8 0.664628 0.015417 0.966287
O O1 0.864786 0.287450 0.647304
O O2 0.834746 0.426092 0.599931
O O3 0.785503 0.200950 0.217897
O O4 0.525641 0.105138 0.291989
O O5 0.320617 0.800917 0.172980
O O6 0.322868 0.988978 0.531562
O O7 0.019628 0.708672 0.032141
O O8 0.263298 0.211870 0.486818
O O9 0.382287 0.253783 0.229076
O O10 0.206513 0.989723 0.096161
O O11 0.000000 0.000000 0.000000
O O12 0.356546 0.537911 0.253083
O O13 0.548298 0.501639 0.310521
O O14 0.500000 0.500000 0.000000
O O15 0.566309 0.920559 0.048221
O O16 0.437319 0.690188 0.979296
O O17 0.229060 0.464972 0.470182
#
# Coordination Sequence:
#
# PCOD9078194 Si02
#       8
#     2   2   2   2   2   2   2   2
#     4  10  18  35  59  88 120 158 195 249 299 357
#     4  10  22  34  60  91 124 153 200 250 308 361
#     4  10  20  41  66  92 124 165 212 249 300 373
#     4  11  25  43  64  91 123 161 211 260 313 358
#     4   9  19  40  57  85 123 159 199 247 305 364
#     4  11  21  41  60  86 124 162 201 251 309 367
#     4  10  22  44  66  82 126 167 207 254 307 366
#     4   9  18  36  61  86 122 164 198 246 304 364
#
# _framework density 23.258966000000001
#
# number of rings (size 3 to 8) (size 9 to 14) (size 15 to 20)
#    0.000    2.000    3.750    1.875    1.750    3.500 
#    2.250   12.500    0.000    0.000    0.000    0.000 
#    0.000    0.000    0.000    0.000    0.000    0.000 
#
# Total GULP energy -89416.716505 kJ/mol
# GULP energy per Si atom -5588.544782 kJ/mol
# Density = 2.320603 g / cm^3
# Si number density = 23.258966 Si / 1000 Ang^3
#
#
#
# Elastic Constant Matrix: (Units=GPa)
#
#
# Indices 1 2 3 4 5 6 
#
# 1 98.6066 11.8977 82.1460 13.0049 3.5138 -21.4987
# 2 11.8977 47.7305 27.5307 -13.3500 3.8148 -20.6639
# 3 82.1460 27.5307 187.5891 1.0588 9.3139 -8.6044
# 4 13.0049 -13.3500 1.0588 25.4871 0.9112 0.8593
# 5 3.5138 3.8148 9.3139 0.9112 58.2046 4.2512
# 6 -21.4987 -20.6639 -8.6044 0.8593 4.2512 27.6274
#
#
#
# Elastic Compliance Matrix: (Units=1/GPa)
#
#
# Indices 1 2 3 4 5 6 
#
# 1 0.023562 0.006623 -0.010215 -0.008768 -0.001591 0.020625
# 2 0.006623 0.045894 -0.007782 0.019913 -0.005194 0.037236
# 3 -0.010215 -0.007782 0.010444 0.001052 0.000212 -0.010582
# 4 -0.008768 0.019913 0.001052 0.053940 -0.002305 0.007076
# 5 -0.001591 -0.005194 0.000212 -0.002305 0.018188 -0.007784
# 6 0.020625 0.037236 -0.010582 0.007076 -0.007784 0.077778
#
#
# Mechanical properties :
#
#
# Convention : Reuss Voigt Hill
#
# Bulk Modulus (GPa) = 17.49744 64.11943 40.80844
# Shear Modulus (GPa) = 18.40897 36.42063 27.41480
#
# Velocity S-wave (km/s) = 2.81637 3.96141 3.43691
# Velocity P-wave (km/s) = 4.25619 6.96786 5.77349
#
# Compressibility (1/GPa) = 0.05715121
#
# Stress axis : x y z
#
# Youngs Moduli (GPa) = 42.44118 21.78919 95.74512
#
# Poissons Ratio (x) = -0.14430 0.97807
# Poissons Ratio (y) = -0.28108 0.74510
# Poissons Ratio (z) = 0.43355 0.16957
#
# Static dielectric constant tensor:
#      x y z
#    x 1.850830 0.022520 -0.028640 
#    y 0.022520 1.975430 0.011160 
#    z -0.028640 0.011160 1.924230 
# 
# From -- ./inp_files/278415.got.cif
#   From: 2010.05.17/outbox.cif.g08.bks.cpg/sg2_140_cif.got.tgz:278415.got - 2010.06.03 11:33:40.
