data_PCOD9078824
_publ_section_title
;
Structure prediction by ZEFSAII (Michael W. Deem and Ramdas Pophale) SiO2 
 PCOD9078824
Probable space group: P -1
;
_chemical_formula_sum "Si O2"
_cell_formula_units_Z 14
_cell_length_a 8.915763
_cell_length_b 9.709101
_cell_length_c 10.710284
_cell_angle_alpha 44.437806
_cell_angle_beta 62.231661
_cell_angle_gamma 60.675479
_cell_volume 555.585355
_symmetry_space_group_name_H-M "P -1"
_symmetry_group_IT_number 2
_symmetry_cell_setting 'triclinic'
loop_
_space_group_symop_operation_xyz
x,y,z
-x,-y,-z
loop_
_atom_site_type_symbol
_atom_site_label
_atom_site_fract_x
_atom_site_fract_y
_atom_site_fract_z
Si Si1 0.982786 0.686514 0.479635
Si Si2 0.882579 0.833790 0.674141
Si Si3 0.560727 0.121282 0.510971
Si Si4 0.514283 0.343106 0.977137
Si Si5 0.368450 0.518315 0.423784
Si Si6 0.819585 0.383705 0.122497
Si Si7 0.853056 0.074796 0.111593
O O1 0.185690 0.652527 0.458093
O O2 0.000000 0.500000 0.500000
O O3 0.878477 0.698709 0.639298
O O4 0.902347 0.899307 0.307923
O O5 0.007952 0.678864 0.820421
O O6 0.684784 0.978131 0.656967
O O7 0.000000 0.000000 0.500000
O O8 0.394088 0.282389 0.529460
O O9 0.683367 0.259230 0.314306
O O10 0.500000 0.000000 0.500000
O O11 0.599917 0.386528 0.783917
O O12 0.309036 0.390831 0.987524
O O13 0.500000 0.500000 0.000000
O O14 0.652250 0.137665 0.101582
O O15 0.500000 0.500000 0.500000
O O16 0.874515 0.280105 0.035008
O O17 0.000000 0.000000 0.000000
#
# Coordination Sequence:
#
# PCOD9078824 Si02
#       7
#     2   2   2   2   2   2   2
#     4  12  23  36  58  95 122 146 190 256 307 337
#     4  10  18  36  59  83 115 153 200 241 286 348
#     4  10  19  32  53  86 119 150 184 244 303 342
#     4   9  19  35  56  87 112 154 202 245 283 349
#     4  11  22  35  58  91 117 151 205 252 286 350
#     4   9  19  35  60  84 108 150 206 240 275 347
#     4  11  20  35  59  87 117 156 197 240 289 363
#
# _framework density 25.198647999999999
#
# number of rings (size 3 to 8) (size 9 to 14) (size 15 to 20)
#    0.000    1.714    4.286    3.429    0.000    0.000 
#    0.000    0.000    0.000    4.286   11.143    0.000 
#    0.000    0.000    0.000    0.000    0.000    0.000 
#
# Total GULP energy -78182.446406 kJ/mol
# GULP energy per Si atom -5584.460458 kJ/mol
# Density = 2.514129 g / cm^3
# Si number density = 25.198648 Si / 1000 Ang^3
#
#
#
# Elastic Constant Matrix: (Units=GPa)
#
#
# Indices 1 2 3 4 5 6 
#
# 1 146.2055 18.0775 33.9169 -27.4832 42.1907 -40.0060
# 2 18.0775 132.1429 28.0859 -18.5637 16.2913 -30.2547
# 3 33.9169 28.0859 126.5301 -33.7279 44.1146 -15.2198
# 4 -27.4832 -18.5637 -33.7279 51.4943 -19.1948 17.9075
# 5 42.1907 16.2913 44.1146 -19.1948 41.2109 -10.4463
# 6 -40.0060 -30.2547 -15.2198 17.9075 -10.4463 63.4079
#
#
#
# Elastic Compliance Matrix: (Units=1/GPa)
#
#
# Indices 1 2 3 4 5 6 
#
# 1 0.011706 0.001045 0.002027 0.001223 -0.012485 0.005969
# 2 0.001045 0.008939 -0.000671 0.001040 -0.002367 0.004080
# 3 0.002027 -0.000671 0.013727 0.004240 -0.014353 0.000691
# 4 0.001223 0.001040 0.004240 0.026655 0.005098 -0.004403
# 5 -0.012485 -0.002367 -0.014353 0.005098 0.054476 -0.004917
# 6 0.005969 0.004080 0.000691 -0.004403 -0.004917 0.022083
#
#
# Mechanical properties :
#
#
# Convention : Reuss Voigt Hill
#
# Bulk Modulus (GPa) = 25.52749 62.78214 44.15481
# Shear Modulus (GPa) = 34.28361 52.87583 43.57972
#
# Velocity S-wave (km/s) = 3.69254 4.58576 4.16317
# Velocity P-wave (km/s) = 5.32281 7.28065 6.37731
#
# Compressibility (1/GPa) = 0.03917345
#
# Stress axis : x y z
#
# Youngs Moduli (GPa) = 85.42566 111.86600 72.85151
#
# Poissons Ratio (x) = -0.11694 -0.14765
# Poissons Ratio (y) = -0.08930 0.04891
# Poissons Ratio (z) = -0.17314 0.07510
#
# Static dielectric constant tensor:
#      x y z
#    x 2.114020 0.035470 -0.101580 
#    y 0.035470 1.981870 -0.004290 
#    z -0.101580 -0.004290 2.158140 
# 
# From -- ./inp_files/377912.got.cif
#   From: 2010.05.17/outbox.cif.g08.bks.cpg/sg2_189_cif.got.tgz:377912.got - 2010.06.03 11:33:40.
