data_PCOD9078211
_publ_section_title
;
Structure prediction by ZEFSAII (Michael W. Deem and Ramdas Pophale) SiO2 
 PCOD9078211
Probable space group: P -1
;
_chemical_formula_sum "Si O2"
_cell_formula_units_Z 14
_cell_length_a 23.114430
_cell_length_b 18.286628
_cell_length_c 14.415714
_cell_angle_alpha 151.883588
_cell_angle_beta 20.039344
_cell_angle_gamma 163.186381
_cell_volume 594.687869
_symmetry_space_group_name_H-M "P -1"
_symmetry_group_IT_number 2
_symmetry_cell_setting 'triclinic'
loop_
_space_group_symop_operation_xyz
x,y,z
-x,-y,-z
loop_
_atom_site_type_symbol
_atom_site_label
_atom_site_fract_x
_atom_site_fract_y
_atom_site_fract_z
Si Si1 0.939856 0.917757 0.653989
Si Si2 0.099667 0.713325 0.509317
Si Si3 0.477404 0.127747 0.748149
Si Si4 0.003590 0.394149 0.061142
Si Si5 0.668755 0.587629 0.516234
Si Si6 0.789681 0.132414 0.681987
Si Si7 0.147256 0.409674 0.071986
O O1 0.766386 0.685564 0.583443
O O2 0.123558 0.952761 0.486151
O O3 0.714187 0.865430 0.983866
O O4 0.145664 0.167618 0.557836
O O5 0.778674 0.421193 0.644647
O O6 0.087120 0.775230 0.700452
O O7 0.193981 0.882577 0.469725
O O8 0.263972 0.669743 0.206779
O O9 0.500000 0.000000 0.500000
O O10 0.283884 0.901391 0.864581
O O11 0.248371 0.521473 0.765808
O O12 0.990709 0.567928 0.288546
O O13 0.076971 0.376201 0.032217
O O14 0.360637 0.427604 0.787203
O O15 0.500000 0.000000 0.000000
#
# Coordination Sequence:
#
# PCOD9078211 Si02
#       7
#     2   2   2   2   2   2   2
#     4  10  22  36  64  87 125 164 199 252 312 363
#     4  10  21  36  63  89 121 162 202 253 307 357
#     4  11  19  40  59  96 117 154 212 250 297 364
#     4  10  22  37  67  89 121 160 210 254 299 354
#     4  10  20  38  61  92 116 161 217 248 295 365
#     4  11  23  42  59  91 127 165 200 251 314 366
#     4  10  18  35  59  92 115 158 205 254 293 356
#
# _framework density 23.541761000000001
#
# number of rings (size 3 to 8) (size 9 to 14) (size 15 to 20)
#    0.000    1.714    4.286    2.143    0.000    2.286 
#    0.000    0.000    3.143    4.286    0.000    0.000 
#    0.000    0.000    0.000    0.000    0.000    0.000 
#
# Total GULP energy -78102.407817 kJ/mol
# GULP energy per Si atom -5578.743416 kJ/mol
# Density = 2.348818 g / cm^3
# Si number density = 23.541761 Si / 1000 Ang^3
#
#
#
# Elastic Constant Matrix: (Units=GPa)
#
#
# Indices 1 2 3 4 5 6 
#
# 1 101.6937 14.6987 36.4070 6.7261 13.2444 -6.3501
# 2 14.6987 44.8077 3.5211 -9.0711 2.5415 7.3724
# 3 36.4070 3.5211 139.1560 5.7945 11.5510 5.9109
# 4 6.7261 -9.0711 5.7945 31.4150 5.8051 2.3835
# 5 13.2444 2.5415 11.5510 5.8051 32.2540 3.2919
# 6 -6.3501 7.3724 5.9109 2.3835 3.2919 27.2805
#
#
#
# Elastic Compliance Matrix: (Units=1/GPa)
#
#
# Indices 1 2 3 4 5 6 
#
# 1 0.012768 -0.005412 -0.002998 -0.003501 -0.003709 0.005837
# 2 -0.005412 0.027689 0.000799 0.009933 -0.001048 -0.009657
# 3 -0.002998 0.000799 0.008186 -0.000175 -0.001478 -0.002494
# 4 -0.003501 0.009933 -0.000175 0.036922 -0.005310 -0.006046
# 5 -0.003709 -0.001048 -0.001478 -0.005310 0.034498 -0.003959
# 6 0.005837 -0.009657 -0.002494 -0.006046 -0.003959 0.042171
#
#
# Mechanical properties :
#
#
# Convention : Reuss Voigt Hill
#
# Bulk Modulus (GPa) = 29.92047 43.87900 36.89974
# Shear Modulus (GPa) = 26.51156 33.59194 30.05175
#
# Velocity S-wave (km/s) = 3.35946 3.78154 3.57673
# Velocity P-wave (km/s) = 5.27115 6.14378 5.72412
#
# Compressibility (1/GPa) = 0.03342194
#
# Stress axis : x y z
#
# Youngs Moduli (GPa) = 78.32101 36.11498 122.15736
#
# Poissons Ratio (x) = 0.19544 0.36621
# Poissons Ratio (y) = 0.42385 -0.09758
# Poissons Ratio (z) = 0.23479 -0.02885
#
# Static dielectric constant tensor:
#      x y z
#    x 1.967760 0.073210 0.001180 
#    y 0.073210 2.001680 -0.048780 
#    z 0.001180 -0.048780 1.962610 
# 
# From -- ./inp_files/185236.got.cif
#   From: 2010.05.17/outbox.cif.g08.bks.cpg/sg2_93_cif.got.tgz:185236.got - 2010.06.03 11:33:40.
