data_PCOD9078266
_publ_section_title
;
Structure prediction by ZEFSAII (Michael W. Deem and Ramdas Pophale) SiO2 
 PCOD9078266
Probable space group: P -1
;
_chemical_formula_sum "Si O2"
_cell_formula_units_Z 16
_cell_length_a 5.509219
_cell_length_b 27.659551
_cell_length_c 9.496891
_cell_angle_alpha 35.750193
_cell_angle_beta 66.873172
_cell_angle_gamma 83.947591
_cell_volume 713.650915
_symmetry_space_group_name_H-M "P -1"
_symmetry_group_IT_number 2
_symmetry_cell_setting 'triclinic'
loop_
_space_group_symop_operation_xyz
x,y,z
-x,-y,-z
loop_
_atom_site_type_symbol
_atom_site_label
_atom_site_fract_x
_atom_site_fract_y
_atom_site_fract_z
Si Si1 0.203532 0.311132 0.247153
Si Si2 0.362765 0.988612 0.388257
Si Si3 0.384594 0.167735 0.663175
Si Si4 0.074785 0.786365 0.715257
Si Si5 0.351131 0.792662 0.205274
Si Si6 0.085727 0.999787 0.717300
Si Si7 0.663184 0.446587 0.670318
Si Si8 0.576331 0.254278 0.019452
O O1 0.348362 0.238408 0.398113
O O2 0.028238 0.299336 0.168445
O O3 0.963908 0.272159 0.514060
O O4 0.468690 0.406383 0.950562
O O5 0.598747 0.946803 0.421709
O O6 0.137985 0.961179 0.379358
O O7 0.179939 0.965996 0.627569
O O8 0.542373 0.097398 0.083634
O O9 0.656801 0.148125 0.595833
O O10 0.443810 0.210831 0.704531
O O11 0.097992 0.078716 0.950368
O O12 0.203261 0.768650 0.874282
O O13 0.773157 0.796358 0.772734
O O14 0.372987 0.762189 0.115873
O O15 0.500000 0.500000 0.500000
O O16 0.636710 0.358200 0.795795
O O17 0.000000 0.500000 0.500000
#
# Coordination Sequence:
#
# PCOD9078266 Si02
#       8
#     2   2   2   2   2   2   2   2
#     4  10  20  38  61  89 109 148 190 237 273 335
#     4   9  17  31  47  82 117 149 179 228 280 324
#     4  10  18  35  60  88 114 147 196 238 272 319
#     4  10  20  36  58  81 114 149 199 225 266 334
#     4  10  22  34  61  89 121 144 186 239 287 329
#     4   9  17  28  51  80 115 148 189 226 272 319
#     4  11  23  41  62  80 109 148 191 229 277 345
#     4  11  23  39  59  88 112 150 187 231 288 343
#
# _framework density 22.419927999999999
#
# number of rings (size 3 to 8) (size 9 to 14) (size 15 to 20)
#    0.000    2.000    3.750    1.500    3.500    0.000 
#    0.000    1.250    0.000    1.500    0.000    0.000 
#    0.000    0.000    0.000    0.000    0.000    0.000 
#
# Total GULP energy -89124.670796 kJ/mol
# GULP energy per Si atom -5570.291925 kJ/mol
# Density = 2.236890 g / cm^3
# Si number density = 22.419928 Si / 1000 Ang^3
#
#
#
# Elastic Constant Matrix: (Units=GPa)
#
#
# Indices 1 2 3 4 5 6 
#
# 1 211.6630 55.7669 70.6013 2.9632 -2.4023 -0.7078
# 2 55.7669 78.4814 37.5120 5.3663 -2.8162 19.7769
# 3 70.6013 37.5120 147.9143 10.4903 -20.9537 3.3653
# 4 2.9632 5.3663 10.4903 38.1084 -3.4896 -3.4906
# 5 -2.4023 -2.8162 -20.9537 -3.4896 54.8511 5.4162
# 6 -0.7078 19.7769 3.3653 -3.4906 5.4162 28.2583
#
#
#
# Elastic Compliance Matrix: (Units=1/GPa)
#
#
# Indices 1 2 3 4 5 6 
#
# 1 0.006775 -0.004878 -0.002339 0.001081 -0.001196 0.004225
# 2 -0.004878 0.021532 -0.002357 -0.003310 0.001319 -0.015573
# 3 -0.002339 -0.002357 0.009050 -0.001717 0.003155 -0.000304
# 4 0.001081 -0.003310 -0.001717 0.027672 0.000401 0.005889
# 5 -0.001196 0.001319 0.003155 0.000401 0.019982 -0.005109
# 6 0.004225 -0.015573 -0.000304 0.005889 -0.005109 0.048135
#
#
# Mechanical properties :
#
#
# Convention : Reuss Voigt Hill
#
# Bulk Modulus (GPa) = 54.91244 85.09102 70.00173
# Shear Modulus (GPa) = 31.57297 42.52213 37.04755
#
# Velocity S-wave (km/s) = 3.75674 4.35975 4.06943
# Velocity P-wave (km/s) = 6.58509 7.96109 7.30555
#
# Compressibility (1/GPa) = 0.01821081
#
# Stress axis : x y z
#
# Youngs Moduli (GPa) = 147.59560 46.44221 110.49312
#
# Poissons Ratio (x) = 0.22654 0.25845
# Poissons Ratio (y) = 0.71994 0.26039
# Poissons Ratio (z) = 0.34524 0.10945
#
# Static dielectric constant tensor:
#      x y z
#    x 1.947700 -0.034130 0.003180 
#    y -0.034130 1.868970 -0.002480 
#    z 0.003180 -0.002480 1.869070 
# 
# From -- ./inp_files/54361.got.cif
#   From: 2010.05.17/outbox.cif.g08.bks.cpg/sg2_28_cif.got.tgz:54361.got - 2010.06.03 11:33:40.
