data_PCOD9078737
_publ_section_title
;
Structure prediction by ZEFSAII (Michael W. Deem and Ramdas Pophale) SiO2 
 PCOD9078737
Probable space group: P -1
;
_chemical_formula_sum "Si O2"
_cell_formula_units_Z 16
_cell_length_a 15.236041
_cell_length_b 12.076180
_cell_length_c 9.569248
_cell_angle_alpha 124.256351
_cell_angle_beta 76.912021
_cell_angle_gamma 139.772422
_cell_volume 868.990795
_symmetry_space_group_name_H-M "P -1"
_symmetry_group_IT_number 2
_symmetry_cell_setting 'triclinic'
loop_
_space_group_symop_operation_xyz
x,y,z
-x,-y,-z
loop_
_atom_site_type_symbol
_atom_site_label
_atom_site_fract_x
_atom_site_fract_y
_atom_site_fract_z
Si Si1 0.695220 0.583854 0.725897
Si Si2 0.377353 0.207502 0.220342
Si Si3 0.691502 0.591151 0.254119
Si Si4 0.625507 0.818537 0.461113
Si Si5 0.931134 0.291777 0.693039
Si Si6 0.878351 0.771758 0.064067
Si Si7 0.901067 0.753935 0.543050
Si Si8 0.933413 0.264356 0.008633
O O1 0.663778 0.688988 0.735652
O O2 0.535794 0.339366 0.649923
O O3 0.780936 0.590989 0.591387
O O4 0.797976 0.727916 0.923830
O O5 0.533136 0.356913 0.200099
O O6 0.391258 0.215748 0.388776
O O7 0.238400 0.953855 0.048712
O O8 0.672636 0.726805 0.325783
O O9 0.753977 0.592240 0.096215
O O10 0.812785 0.716892 0.420379
O O11 0.758583 0.075104 0.566316
O O12 0.019438 0.284198 0.569479
O O13 0.997181 0.516181 0.808676
O O14 0.944394 0.274455 0.841956
O O15 0.982514 0.005074 0.263258
O O16 0.976715 0.758047 0.986819
#
# Coordination Sequence:
#
# PCOD9078737 Si02
#       8
#     2   2   2   2   2   2   2   2
#     4  11  22  35  58  87 118 147 182 239 289 325
#     4  10  19  35  58  83 117 146 185 232 286 329
#     4  11  19  34  59  86 110 146 189 236 274 331
#     4  10  18  36  57  86 115 148 185 231 284 333
#     4  10  21  37  61  83 112 150 192 230 278 337
#     4  12  23  35  57  90 117 143 191 238 280 327
#     4  12  19  37  59  87 108 149 195 229 272 340
#     4  10  21  38  58  86 115 146 185 240 283 325
#
# _framework density 18.412163
#
# number of rings (size 3 to 8) (size 9 to 14) (size 15 to 20)
#    0.000    1.250    6.250    2.250    0.000    2.000 
#    0.000    3.125    0.000    0.000    0.000    0.000 
#    0.000    0.000    0.000    0.000    0.000    0.000 
#
# Total GULP energy -89342.251652 kJ/mol
# GULP energy per Si atom -5583.890728 kJ/mol
# Density = 1.837026 g / cm^3
# Si number density = 18.412163 Si / 1000 Ang^3
#
#
#
# Elastic Constant Matrix: (Units=GPa)
#
#
# Indices 1 2 3 4 5 6 
#
# 1 68.9957 37.2080 49.2014 16.7025 -4.4727 21.1936
# 2 37.2080 78.4024 44.6264 31.8651 -3.8176 25.4595
# 3 49.2014 44.6264 73.6553 19.4595 0.0659 7.2854
# 4 16.7025 31.8651 19.4595 37.5253 -4.2697 -0.4986
# 5 -4.4727 -3.8176 0.0659 -4.2697 22.7070 2.0667
# 6 21.1936 25.4595 7.2854 -0.4986 2.0667 24.1988
#
#
#
# Elastic Compliance Matrix: (Units=1/GPa)
#
#
# Indices 1 2 3 4 5 6 
#
# 1 0.069048 0.048145 -0.054568 -0.042017 0.022828 -0.097513
# 2 0.048145 0.093381 -0.057833 -0.069712 0.023753 -0.126466
# 3 -0.054568 -0.057833 0.066039 0.037879 -0.021860 0.091403
# 4 -0.042017 -0.069712 0.037879 0.084727 -0.013425 0.101631
# 5 0.022828 0.023753 -0.021860 -0.013425 0.054009 -0.043291
# 6 -0.097513 -0.126466 0.091403 0.101631 -0.043291 0.238054
#
#
# Mechanical properties :
#
#
# Convention : Reuss Voigt Hill
#
# Bulk Modulus (GPa) = 10.00445 53.68056 31.84250
# Shear Modulus (GPa) = 6.51814 22.88740 14.70277
#
# Velocity S-wave (km/s) = 1.88356 3.52953 2.82890
# Velocity P-wave (km/s) = 3.18996 6.76966 5.29170
#
# Compressibility (1/GPa) = 0.09995556
#
# Stress axis : x y z
#
# Youngs Moduli (GPa) = 14.48276 10.70879 15.14247
#
# Poissons Ratio (x) = -0.51558 0.82630
# Poissons Ratio (y) = -0.69728 0.87574
# Poissons Ratio (z) = 0.79030 0.61933
#
# Static dielectric constant tensor:
#      x y z
#    x 1.613670 0.017420 0.016960 
#    y 0.017420 1.679780 0.001520 
#    z 0.016960 0.001520 1.625100 
# 
# From -- ./inp_files/187813.got.cif
#   From: 2010.05.17/outbox.cif.g08.bks.cpg/sg2_94_cif.got.tgz:187813.got - 2010.06.03 11:33:40.
