data_PCOD9078208
_publ_section_title
;
Structure prediction by ZEFSAII (Michael W. Deem and Ramdas Pophale) SiO2 
 PCOD9078208
Probable space group: P -1
;
_chemical_formula_sum "Si O2"
_cell_formula_units_Z 16
_cell_length_a 11.372747
_cell_length_b 14.227444
_cell_length_c 11.424144
_cell_angle_alpha 146.783820
_cell_angle_beta 126.489256
_cell_angle_gamma 40.013926
_cell_volume 645.479488
_symmetry_space_group_name_H-M "P -1"
_symmetry_group_IT_number 2
_symmetry_cell_setting 'triclinic'
loop_
_space_group_symop_operation_xyz
x,y,z
-x,-y,-z
loop_
_atom_site_type_symbol
_atom_site_label
_atom_site_fract_x
_atom_site_fract_y
_atom_site_fract_z
Si Si1 0.270721 0.236383 0.476042
Si Si2 0.058260 0.728083 0.809454
Si Si3 0.356732 0.181456 0.744279
Si Si4 0.577201 0.241222 0.364972
Si Si5 0.082089 0.194845 0.942071
Si Si6 0.026210 0.622542 0.293560
Si Si7 0.254577 0.602617 0.205561
Si Si8 0.233850 0.679516 0.640937
O O1 0.208955 0.475175 0.668819
O O2 0.311965 0.177167 0.576151
O O3 0.105104 0.244226 0.332460
O O4 0.465170 0.040282 0.332092
O O5 0.169888 0.768677 0.826971
O O6 0.965152 0.845111 0.998835
O O7 0.166906 0.244239 0.749939
O O8 0.373052 0.376222 0.969876
O O9 0.649505 0.303440 0.582274
O O10 0.358455 0.413708 0.432713
O O11 0.637350 0.287284 0.323844
O O12 0.709545 0.983628 0.163434
O O13 0.927585 0.223379 0.795332
O O14 0.042194 0.426073 0.158384
O O15 0.185356 0.541599 0.211023
O O16 0.055293 0.756467 0.540001
#
# Coordination Sequence:
#
# PCOD9078208 Si02
#       8
#     2   2   2   2   2   2   2   2
#     4  10  20  33  59  94 125 152 184 257 312 358
#     4  11  20  37  61  90 130 152 196 254 309 354
#     4  10  18  35  59  91 122 151 199 239 308 355
#     4  10  24  41  60  81 125 165 208 243 295 362
#     4  11  21  38  62  92 119 158 201 253 304 357
#     4  10  19  37  64  89 120 152 204 252 302 353
#     4  10  21  39  62  86 124 161 201 248 298 358
#     4  10  22  41  59  85 119 167 200 253 300 355
#
# _framework density 24.787776999999998
#
# number of rings (size 3 to 8) (size 9 to 14) (size 15 to 20)
#    0.000    1.750    3.750    2.625    0.000    6.000 
#    0.000    0.625    0.000    0.000    0.000    0.000 
#    0.000    0.000    0.000    0.000    0.000    0.000 
#
# Total GULP energy -89335.685729 kJ/mol
# GULP energy per Si atom -5583.480358 kJ/mol
# Density = 2.473136 g / cm^3
# Si number density = 24.787777 Si / 1000 Ang^3
#
#
#
# Elastic Constant Matrix: (Units=GPa)
#
#
# Indices 1 2 3 4 5 6 
#
# 1 50.5380 9.8072 6.8170 -8.9844 -5.5198 9.0292
# 2 9.8072 83.6109 11.8295 10.2015 -2.4215 3.1868
# 3 6.8170 11.8295 66.9718 3.3898 -18.4853 -1.1500
# 4 -8.9844 10.2015 3.3898 49.5043 3.0698 -19.1461
# 5 -5.5198 -2.4215 -18.4853 3.0698 20.4047 1.1836
# 6 9.0292 3.1868 -1.1500 -19.1461 1.1836 33.7551
#
#
#
# Elastic Compliance Matrix: (Units=1/GPa)
#
#
# Indices 1 2 3 4 5 6 
#
# 1 0.022151 -0.002506 -0.000641 0.002556 0.004987 -0.004436
# 2 -0.002506 0.013151 -0.001922 -0.004196 -0.000052 -0.003015
# 3 -0.000641 -0.001922 0.020638 -0.002747 0.018776 -0.001160
# 4 0.002556 -0.004196 -0.002747 0.028356 -0.007487 0.015965
# 5 0.004987 -0.000052 0.018776 -0.007487 0.068914 -0.007352
# 6 -0.004436 -0.003015 -0.001160 0.015965 -0.007352 0.040370
#
#
# Mechanical properties :
#
#
# Convention : Reuss Voigt Hill
#
# Bulk Modulus (GPa) = 21.83253 28.66979 25.25116
# Shear Modulus (GPa) = 22.83261 32.24396 27.53829
#
# Velocity S-wave (km/s) = 3.03829 3.61057 3.33673
# Velocity P-wave (km/s) = 4.59731 5.38265 5.00540
#
# Compressibility (1/GPa) = 0.04580321
#
# Stress axis : x y z
#
# Youngs Moduli (GPa) = 45.14393 76.03777 48.45478
#
# Poissons Ratio (x) = 0.19054 0.03107
# Poissons Ratio (y) = 0.11312 0.09311
# Poissons Ratio (z) = 0.02895 0.14611
#
# Static dielectric constant tensor:
#      x y z
#    x 2.048980 0.005810 -0.087280 
#    y 0.005810 2.008820 0.064690 
#    z -0.087280 0.064690 2.057640 
# 
# From -- ./inp_files/434323.got.cif
#   From: 2010.05.17/outbox.cif.g08.bks.cpg/sg2_218_cif.got.tgz:434323.got - 2010.06.03 11:33:40.
