data_PCOD9078665
_publ_section_title
;
Structure prediction by ZEFSAII (Michael W. Deem and Ramdas Pophale) SiO2 
 PCOD9078665
Probable space group: P -1
;
_chemical_formula_sum "Si O2"
_cell_formula_units_Z 16
_cell_length_a 19.850656
_cell_length_b 12.748349
_cell_length_c 7.367415
_cell_angle_alpha 77.413277
_cell_angle_beta 95.531861
_cell_angle_gamma 152.728573
_cell_volume 813.785908
_symmetry_space_group_name_H-M "P -1"
_symmetry_group_IT_number 2
_symmetry_cell_setting 'triclinic'
loop_
_space_group_symop_operation_xyz
x,y,z
-x,-y,-z
loop_
_atom_site_type_symbol
_atom_site_label
_atom_site_fract_x
_atom_site_fract_y
_atom_site_fract_z
Si Si1 0.353196 0.571317 0.080572
Si Si2 0.158097 0.160835 0.968269
Si Si3 0.846161 0.219481 0.519960
Si Si4 0.452836 0.853911 0.318147
Si Si5 0.022965 0.764989 0.209052
Si Si6 0.795260 0.274271 0.157607
Si Si7 0.338461 0.930275 0.172214
Si Si8 0.258694 0.502336 0.713366
O O1 0.255462 0.326848 0.111528
O O2 0.363321 0.640861 0.249802
O O3 0.720579 0.105143 0.643915
O O4 0.523992 0.803568 0.968145
O O5 0.243968 0.351004 0.761914
O O6 0.117709 0.979244 0.024329
O O7 0.000000 0.000000 0.000000
O O8 0.814255 0.192083 0.310398
O O9 0.000000 0.500000 0.500000
O O10 0.872317 0.142063 0.648471
O O11 0.397549 0.892675 0.226878
O O12 0.395273 0.745440 0.545442
O O13 0.629795 0.086482 0.241246
O O14 0.927301 0.541087 0.156958
O O15 0.894539 0.654585 0.316951
O O16 0.788024 0.248618 0.949931
O O17 0.720132 0.453247 0.080536
#
# Coordination Sequence:
#
# PCOD9078665 Si02
#       8
#     2   2   2   2   2   2   2   2
#     4   9  19  34  54  80 109 134 168 226 264 306
#     4   8  18  34  57  74 106 144 171 215 262 305
#     4  10  22  35  53  77 110 144 175 213 260 316
#     4  11  19  31  58  85 104 131 173 221 279 307
#     4  10  18  36  55  74 108 146 176 208 262 315
#     4  10  21  34  56  80 110 133 171 226 266 312
#     4  11  21  33  54  84 106 137 174 217 273 313
#     4   9  18  33  55  79 105 134 172 219 262 307
#
# _framework density 19.661190000000001
#
# number of rings (size 3 to 8) (size 9 to 14) (size 15 to 20)
#    0.750    1.500    0.000    5.250    0.000    3.500 
#    0.000    4.375    8.250    1.500    0.000    0.000 
#    0.000    0.000    0.000    0.000    0.000    0.000 
#
# Total GULP energy -89088.612643 kJ/mol
# GULP energy per Si atom -5568.038290 kJ/mol
# Density = 1.961644 g / cm^3
# Si number density = 19.661190 Si / 1000 Ang^3
#
#
#
# Elastic Constant Matrix: (Units=GPa)
#
#
# Indices 1 2 3 4 5 6 
#
# 1 33.1451 12.6894 8.7184 1.6186 13.4383 3.8378
# 2 12.6894 85.9230 17.7791 1.3828 10.1560 -16.1228
# 3 8.7184 17.7791 76.0625 8.8226 19.7383 -8.8159
# 4 1.6186 1.3828 8.8226 31.0131 -0.2120 3.8451
# 5 13.4383 10.1560 19.7383 -0.2120 29.4686 -0.4657
# 6 3.8378 -16.1228 -8.8159 3.8451 -0.4657 19.2734
#
#
#
# Elastic Compliance Matrix: (Units=1/GPa)
#
#
# Indices 1 2 3 4 5 6 
#
# 1 0.041202 -0.006763 -0.000602 0.000013 -0.016285 -0.014533
# 2 -0.006763 0.015732 -0.000508 -0.002031 -0.001781 0.014637
# 3 -0.000602 -0.000508 0.018107 -0.006286 -0.011583 0.008952
# 4 0.000013 -0.002031 -0.006286 0.035589 0.004978 -0.011557
# 5 -0.016285 -0.001781 -0.011583 0.004978 0.049716 -0.003337
# 6 -0.014533 0.014637 0.008952 -0.011557 -0.003337 0.073342
#
#
# Mechanical properties :
#
#
# Convention : Reuss Voigt Hill
#
# Bulk Modulus (GPa) = 16.86443 30.38938 23.62690
# Shear Modulus (GPa) = 18.57360 26.34726 22.46043
#
# Velocity S-wave (km/s) = 3.07690 3.66466 3.38357
# Velocity P-wave (km/s) = 4.60644 5.77896 5.22569
#
# Compressibility (1/GPa) = 0.05929641
#
# Stress axis : x y z
#
# Youngs Moduli (GPa) = 24.27044 63.56566 55.22682
#
# Poissons Ratio (x) = 0.42987 0.03324
# Poissons Ratio (y) = 0.16413 0.02805
# Poissons Ratio (z) = 0.01461 0.03228
#
# Static dielectric constant tensor:
#      x y z
#    x 1.736780 -0.004540 0.023880 
#    y -0.004540 1.751460 0.013380 
#    z 0.023880 0.013380 1.728720 
# 
# From -- ./inp_files/354342.got.cif
#   From: 2010.05.17/outbox.cif.g08.bks.cpg/sg2_178_cif.got.tgz:354342.got - 2010.06.03 11:33:40.
