data_PCOD9078692
_publ_section_title
;
Structure prediction by ZEFSAII (Michael W. Deem and Ramdas Pophale) SiO2 
 PCOD9078692
Probable space group: P -1
;
_chemical_formula_sum "Si O2"
_cell_formula_units_Z 12
_cell_length_a 13.798961
_cell_length_b 11.584558
_cell_length_c 11.900305
_cell_angle_alpha 144.577960
_cell_angle_beta 31.159422
_cell_angle_gamma 138.140440
_cell_volume 563.311597
_symmetry_space_group_name_H-M "P -1"
_symmetry_group_IT_number 2
_symmetry_cell_setting 'triclinic'
loop_
_space_group_symop_operation_xyz
x,y,z
-x,-y,-z
loop_
_atom_site_type_symbol
_atom_site_label
_atom_site_fract_x
_atom_site_fract_y
_atom_site_fract_z
Si Si1 0.107200 0.399664 0.414421
Si Si2 0.493458 0.956431 0.305141
Si Si3 0.627989 0.125676 0.880915
Si Si4 0.165344 0.459061 0.025202
Si Si5 0.099410 0.013302 0.666945
Si Si6 0.505500 0.327660 0.716946
O O1 0.322613 0.503059 0.286050
O O2 0.000000 0.500000 0.500000
O O3 0.074471 0.155599 0.258987
O O4 0.000994 0.460234 0.679395
O O5 0.500910 0.883517 0.112111
O O6 0.545667 0.814725 0.238166
O O7 0.265653 0.962565 0.545835
O O8 0.575549 0.186671 0.437467
O O9 0.806851 0.026665 0.578237
O O10 0.716137 0.352358 0.009515
O O11 0.500000 0.000000 0.000000
O O12 0.088588 0.247991 0.874386
O O13 0.321632 0.410457 0.921660
#
# Coordination Sequence:
#
# PCOD9078692 Si02
#       6
#     2   2   2   2   2   2
#     4  11  20  34  52  83 116 146 177 223 269 328
#     4   8  17  34  52  81 115 138 175 232 260 320
#     4   9  18  35  59  81 106 142 190 231 263 319
#     4  10  21  36  57  82 108 150 179 220 284 319
#     4   8  18  36  48  82 111 133 193 213 263 336
#     4  10  18  36  56  80 120 137 178 225 268 340
#
# _framework density 21.302598
#
# number of rings (size 3 to 8) (size 9 to 14) (size 15 to 20)
#    1.000    1.667    1.667    0.000    0.000    4.000 
#    3.000    0.000    0.000    8.000    0.000    0.000 
#    0.000    0.000    0.000    0.000    0.000    0.000 
#
# Total GULP energy -66869.329354 kJ/mol
# GULP energy per Si atom -5572.444113 kJ/mol
# Density = 2.125411 g / cm^3
# Si number density = 21.302598 Si / 1000 Ang^3
#
#
#
# Elastic Constant Matrix: (Units=GPa)
#
#
# Indices 1 2 3 4 5 6 
#
# 1 20.2453 20.9140 6.2518 -0.4312 5.5021 10.1380
# 2 20.9140 141.7740 46.5995 20.8495 23.5850 13.1000
# 3 6.2518 46.5995 50.9573 10.3036 8.6846 0.0753
# 4 -0.4312 20.8495 10.3036 33.1940 3.8817 6.4020
# 5 5.5021 23.5850 8.6846 3.8817 20.9961 -2.7157
# 6 10.1380 13.1000 0.0753 6.4020 -2.7157 30.8376
#
#
#
# Elastic Compliance Matrix: (Units=1/GPa)
#
#
# Indices 1 2 3 4 5 6 
#
# 1 0.075199 -0.007027 -0.002601 0.013126 -0.016515 -0.025910
# 2 -0.007027 0.013538 -0.009116 -0.004022 -0.009291 -0.003402
# 3 -0.002601 -0.009116 0.029102 -0.004478 0.000440 0.005625
# 4 0.013126 -0.004022 -0.004478 0.036898 -0.005278 -0.010721
# 5 -0.016515 -0.009291 0.000440 -0.005278 0.065285 0.016220
# 6 -0.025910 -0.003402 0.005625 -0.010721 0.016220 0.046031
#
#
# Mechanical properties :
#
#
# Convention : Reuss Voigt Hill
#
# Bulk Modulus (GPa) = 12.44553 40.05636 26.25095
# Shear Modulus (GPa) = 15.13660 26.28629 20.71145
#
# Velocity S-wave (km/s) = 2.66851 3.51657 3.12147
# Velocity P-wave (km/s) = 3.91785 5.94413 5.03400
#
# Compressibility (1/GPa) = 0.08035012
#
# Stress axis : x y z
#
# Youngs Moduli (GPa) = 13.29806 73.86593 34.36174
#
# Poissons Ratio (x) = 0.51906 0.08938
# Poissons Ratio (y) = 0.09345 0.31325
# Poissons Ratio (z) = 0.03459 0.67338
#
# Static dielectric constant tensor:
#      x y z
#    x 1.779260 0.043710 0.008540 
#    y 0.043710 1.808010 0.040710 
#    z 0.008540 0.040710 1.843310 
# 
# From -- ./inp_files/450722.got.cif
#   From: 2010.05.17/outbox.cif.g08.bks.cpg/sg2_226_cif.got.tgz:450722.got - 2010.06.03 11:33:40.
