data_PCOD9078650
_publ_section_title
;
Structure prediction by ZEFSAII (Michael W. Deem and Ramdas Pophale) SiO2 
 PCOD9078650
Probable space group: P -1
;
_chemical_formula_sum "Si O2"
_cell_formula_units_Z 16
_cell_length_a 16.236065
_cell_length_b 11.471953
_cell_length_c 8.939771
_cell_angle_alpha 133.568609
_cell_angle_beta 50.951619
_cell_angle_gamma 147.821258
_cell_volume 637.807055
_symmetry_space_group_name_H-M "P -1"
_symmetry_group_IT_number 2
_symmetry_cell_setting 'triclinic'
loop_
_space_group_symop_operation_xyz
x,y,z
-x,-y,-z
loop_
_atom_site_type_symbol
_atom_site_label
_atom_site_fract_x
_atom_site_fract_y
_atom_site_fract_z
Si Si1 0.443428 0.392518 0.636078
Si Si2 0.935563 0.286074 0.651080
Si Si3 0.367354 0.960588 0.415260
Si Si4 0.055608 0.236098 0.200392
Si Si5 0.795805 0.703728 0.324677
Si Si6 0.153195 0.019423 0.235784
Si Si7 0.621886 0.359869 0.974670
Si Si8 0.826960 0.190073 0.219968
O O1 0.500000 0.500000 0.500000
O O2 0.257100 0.214943 0.659601
O O3 0.477235 0.585868 0.868448
O O4 0.459851 0.230299 0.526617
O O5 0.788864 0.197134 0.649039
O O6 0.867773 0.131983 0.741031
O O7 0.030111 0.259502 0.420788
O O8 0.068833 0.567198 0.775142
O O9 0.306677 0.885807 0.588991
O O10 0.451429 0.892372 0.203259
O O11 0.950338 0.247695 0.243509
O O12 0.233106 0.457253 0.141478
O O13 0.000000 0.000000 0.000000
O O14 0.695983 0.448876 0.138362
O O15 0.976706 0.866819 0.256237
O O16 0.769324 0.741272 0.556860
O O17 0.225451 0.012499 0.005494
#
# Coordination Sequence:
#
# PCOD9078650 Si02
#       8
#     2   2   2   2   2   2   2   2
#     4  10  22  40  60  82 104 142 198 243 278 315
#     4  11  19  31  49  82 116 152 180 210 271 343
#     4  11  19  36  57  83 112 146 187 235 275 323
#     4  11  18  29  49  76 114 153 181 222 266 328
#     4   9  20  35  50  84 114 145 184 224 276 334
#     4  11  19  32  53  80 126 152 168 216 279 348
#     4  10  18  36  54  79 112 139 189 232 269 322
#     4  11  20  30  49  81 119 151 176 215 276 340
#
# _framework density 25.085957000000001
#
# number of rings (size 3 to 8) (size 9 to 14) (size 15 to 20)
#    0.750    0.750    5.000    3.375    1.750    0.500 
#    0.000    0.000    0.000    0.750    0.000    1.750 
#    0.000    0.000    0.000    0.000    0.000    0.000 
#
# Total GULP energy -89324.588066 kJ/mol
# GULP energy per Si atom -5582.786754 kJ/mol
# Density = 2.502886 g / cm^3
# Si number density = 25.085957 Si / 1000 Ang^3
#
#
#
# Elastic Constant Matrix: (Units=GPa)
#
#
# Indices 1 2 3 4 5 6 
#
# 1 28.9950 15.1133 9.7555 17.4270 10.0169 1.2084
# 2 15.1133 81.1070 28.7160 18.6665 -7.6606 -8.0412
# 3 9.7555 28.7160 168.6635 21.4731 -22.6119 -8.5121
# 4 17.4270 18.6665 21.4731 41.0720 -11.1518 -2.6213
# 5 10.0169 -7.6606 -22.6119 -11.1518 34.6271 7.3716
# 6 1.2084 -8.0412 -8.5121 -2.6213 7.3716 25.9158
#
#
#
# Elastic Compliance Matrix: (Units=1/GPa)
#
#
# Indices 1 2 3 4 5 6 
#
# 1 0.074325 -0.007829 -0.003318 -0.036316 -0.037071 -0.000113
# 2 -0.007829 0.015337 -0.001283 -0.001806 0.003488 0.003528
# 3 -0.003318 -0.001283 0.007089 -0.000297 0.005080 0.000610
# 4 -0.036316 -0.001806 -0.000297 0.047575 0.025535 -0.001416
# 5 -0.037071 0.003488 0.005080 0.025535 0.053661 -0.008202
# 6 -0.000113 0.003528 0.000610 -0.001416 -0.008202 0.042077
#
#
# Mechanical properties :
#
#
# Convention : Reuss Voigt Hill
#
# Bulk Modulus (GPa) = 13.91012 42.88168 28.39590
# Shear Modulus (GPa) = 17.30772 35.33503 26.32138
#
# Velocity S-wave (km/s) = 2.62951 3.75715 3.24272
# Velocity P-wave (km/s) = 3.84398 5.99605 5.03630
#
# Compressibility (1/GPa) = 0.07189012
#
# Stress axis : x y z
#
# Youngs Moduli (GPa) = 13.45446 65.20074 141.06503
#
# Poissons Ratio (x) = 0.51048 0.46807
# Poissons Ratio (y) = 0.10534 0.18097
# Poissons Ratio (z) = 0.04464 0.08365
#
# Static dielectric constant tensor:
#      x y z
#    x 2.021870 0.037590 -0.054890 
#    y 0.037590 2.084650 0.015110 
#    z -0.054890 0.015110 2.056700 
# 
# From -- ./inp_files/353188.got.cif
#   From: 2010.05.17/outbox.cif.g08.bks.cpg/sg2_177_cif.got.tgz:353188.got - 2010.06.03 11:33:40.
