data_PCOD9078966
_publ_section_title
;
Structure prediction by ZEFSAII (Michael W. Deem and Ramdas Pophale) SiO2 
 PCOD9078966
Probable space group: P -1
;
_chemical_formula_sum "Si O2"
_cell_formula_units_Z 16
_cell_length_a 7.212362
_cell_length_b 15.100667
_cell_length_c 8.151658
_cell_angle_alpha 104.372861
_cell_angle_beta 113.176838
_cell_angle_gamma 109.132423
_cell_volume 694.549077
_symmetry_space_group_name_H-M "P -1"
_symmetry_group_IT_number 2
_symmetry_cell_setting 'triclinic'
loop_
_space_group_symop_operation_xyz
x,y,z
-x,-y,-z
loop_
_atom_site_type_symbol
_atom_site_label
_atom_site_fract_x
_atom_site_fract_y
_atom_site_fract_z
Si Si1 0.026078 0.210961 0.849408
Si Si2 0.499461 0.746657 0.147690
Si Si3 0.714729 0.140488 0.255856
Si Si4 0.709749 0.620057 0.740256
Si Si5 0.620005 0.070499 0.821844
Si Si6 0.034549 0.333822 0.624155
Si Si7 0.481414 0.412659 0.696243
Si Si8 0.309137 0.663621 0.718674
O O1 0.254217 0.220911 0.843246
O O2 0.945607 0.279537 0.742447
O O3 0.824075 0.098404 0.776185
O O4 0.097621 0.272750 0.074402
O O5 0.475364 0.848972 0.211778
O O6 0.478345 0.680842 0.272341
O O7 0.300941 0.670268 0.915065
O O8 0.590344 0.213118 0.234628
O O9 0.963603 0.226638 0.444921
O O10 0.580846 0.047126 0.291459
O O11 0.712579 0.095787 0.054593
O O12 0.701582 0.520019 0.778567
O O13 0.677705 0.610620 0.531541
O O14 0.474761 0.617814 0.714447
O O15 0.303405 0.411461 0.769887
O O16 0.907553 0.384729 0.500786
#
# Coordination Sequence:
#
# PCOD9078966 Si02
#       8
#     2   2   2   2   2   2   2   2
#     4  10  21  35  57  84 110 148 187 223 273 331
#     4   9  20  36  56  84 111 145 186 225 274 327
#     4   8  18  35  56  84 109 147 182 223 274 327
#     4  10  21  37  55  81 109 144 185 229 277 326
#     4  10  18  36  61  78 117 148 176 232 276 316
#     4   9  19  36  55  80 112 142 182 225 272 327
#     4  10  21  37  56  79 112 142 183 233 276 326
#     4   8  18  36  55  78 112 138 184 222 270 328
#
# _framework density 23.036532000000001
#
# number of rings (size 3 to 8) (size 9 to 14) (size 15 to 20)
#    0.750    2.000    0.000    0.750    1.750    5.500 
#    0.000   14.375    0.000    0.000    0.000    0.000 
#    0.000    0.000    0.000    0.000    0.000    0.000 
#
# Total GULP energy -89082.097862 kJ/mol
# GULP energy per Si atom -5567.631116 kJ/mol
# Density = 2.298410 g / cm^3
# Si number density = 23.036532 Si / 1000 Ang^3
#
#
#
# Elastic Constant Matrix: (Units=GPa)
#
#
# Indices 1 2 3 4 5 6 
#
# 1 33.2303 1.1682 -6.1843 1.8841 3.5073 2.1103
# 2 1.1682 108.8015 16.5339 -15.5175 3.9513 16.4852
# 3 -6.1843 16.5339 51.3708 -8.6323 7.6799 -0.7547
# 4 1.8841 -15.5175 -8.6323 29.0764 -4.3722 4.0728
# 5 3.5073 3.9513 7.6799 -4.3722 20.0223 -1.7486
# 6 2.1103 16.4852 -0.7547 4.0728 -1.7486 30.0716
#
#
#
# Elastic Compliance Matrix: (Units=1/GPa)
#
#
# Indices 1 2 3 4 5 6 
#
# 1 0.032116 -0.000805 0.004957 -0.001973 -0.007963 -0.001884
# 2 -0.000805 0.011661 -0.002834 0.006409 -0.000311 -0.007293
# 3 0.004957 -0.002834 0.022817 0.003593 -0.008205 0.000815
# 4 -0.001973 0.006409 0.003593 0.041090 0.005933 -0.008505
# 5 -0.007963 -0.000311 -0.008205 0.005933 0.056104 0.002982
# 6 -0.001884 -0.007293 0.000815 -0.008505 0.002982 0.038730
#
#
# Mechanical properties :
#
#
# Convention : Reuss Voigt Hill
#
# Bulk Modulus (GPa) = 14.44452 24.04869 19.24661
# Shear Modulus (GPa) = 22.42572 27.95970 25.19271
#
# Velocity S-wave (km/s) = 3.12346 3.48762 3.31055
# Velocity P-wave (km/s) = 4.39225 5.16527 4.79436
#
# Compressibility (1/GPa) = 0.06923042
#
# Stress axis : x y z
#
# Youngs Moduli (GPa) = 31.13734 85.75853 43.82613
#
# Poissons Ratio (x) = 0.06901 -0.21723
# Poissons Ratio (y) = 0.02506 0.12419
# Poissons Ratio (z) = -0.15434 0.24301
#
# Static dielectric constant tensor:
#      x y z
#    x 1.898910 0.027810 0.005460 
#    y 0.027810 1.852990 -0.038100 
#    z 0.005460 -0.038100 1.950010 
# 
# From -- ./inp_files/196963.got.cif
#   From: 2010.05.17/outbox.cif.g08.bks.cpg/sg2_99_cif.got.tgz:196963.got - 2010.06.03 11:33:40.
