data_PCOD9078054
_publ_section_title
;
Structure prediction by ZEFSAII (Michael W. Deem and Ramdas Pophale) SiO2 
 PCOD9078054
Probable space group: P -1
;
_chemical_formula_sum "Si O2"
_cell_formula_units_Z 16
_cell_length_a 11.711589
_cell_length_b 9.769275
_cell_length_c 6.947614
_cell_angle_alpha 81.942911
_cell_angle_beta 96.617479
_cell_angle_gamma 114.013141
_cell_volume 717.447707
_symmetry_space_group_name_H-M "P -1"
_symmetry_group_IT_number 2
_symmetry_cell_setting 'triclinic'
loop_
_space_group_symop_operation_xyz
x,y,z
-x,-y,-z
loop_
_atom_site_type_symbol
_atom_site_label
_atom_site_fract_x
_atom_site_fract_y
_atom_site_fract_z
Si Si1 0.775105 0.072660 0.113673
Si Si2 0.278511 0.404872 0.056509
Si Si3 0.217992 0.980059 0.331392
Si Si4 0.631230 0.261778 0.945310
Si Si5 0.615279 0.162919 0.514165
Si Si6 0.038408 0.106767 0.177180
Si Si7 0.616988 0.729103 0.207725
Si Si8 0.555965 0.695514 0.638135
O O1 0.790334 0.068361 0.884464
O O2 0.678551 0.153950 0.097887
O O3 0.916837 0.136302 0.205321
O O4 0.711834 0.902619 0.209874
O O5 0.273418 0.566126 0.043556
O O6 0.152960 0.265687 0.123264
O O7 0.397240 0.410657 0.207278
O O8 0.313903 0.363961 0.862430
O O9 0.258070 0.865355 0.484607
O O10 0.097273 0.016194 0.343578
O O11 0.335795 0.139712 0.331533
O O12 0.621454 0.209700 0.730927
O O13 0.493057 0.259469 0.950213
O O14 0.574873 0.283712 0.372407
O O15 0.500000 0.000000 0.500000
O O16 0.000000 0.000000 0.000000
O O17 0.570573 0.668044 0.421259
#
# Coordination Sequence:
#
# PCOD9078054 Si02
#       8
#     2   2   2   2   2   2   2   2
#     4  10  18  35  58  81 110 147 192 230 270 333
#     4  11  21  38  56  82 117 147 183 234 277 332
#     4   8  14  30  51  77 102 135 180 230 260 313
#     4  10  22  33  54  87 115 146 184 228 287 328
#     4   8  15  29  50  75 110 136 175 221 263 328
#     4   9  16  32  59  78 103 152 190 225 273 325
#     4  11  20  35  58  80 114 147 184 230 278 337
#     4   9  18  32  55  81 108 148 184 218 282 330
#
# _framework density 22.301276999999999
#
# number of rings (size 3 to 8) (size 9 to 14) (size 15 to 20)
#    0.000    2.500    3.750    0.750    0.000    2.500 
#    2.250    2.500    2.750    0.000    0.000    4.375 
#    0.000    0.125    0.000    0.000    0.000    0.000 
#
# Total GULP energy -89292.530190 kJ/mol
# GULP energy per Si atom -5580.783137 kJ/mol
# Density = 2.225052 g / cm^3
# Si number density = 22.301277 Si / 1000 Ang^3
#
#
#
# Elastic Constant Matrix: (Units=GPa)
#
#
# Indices 1 2 3 4 5 6 
#
# 1 113.7877 26.5641 23.9117 3.3074 13.6477 -1.3132
# 2 26.5641 111.0916 22.3620 6.0344 2.7583 -0.0353
# 3 23.9117 22.3620 71.7367 -4.5421 13.0266 -10.9324
# 4 3.3074 6.0344 -4.5421 22.5173 -5.6410 2.5286
# 5 13.6477 2.7583 13.0266 -5.6410 30.2291 0.1131
# 6 -1.3132 -0.0353 -10.9324 2.5286 0.1131 26.8536
#
#
#
# Elastic Compliance Matrix: (Units=1/GPa)
#
#
# Indices 1 2 3 4 5 6 
#
# 1 0.010225 -0.001743 -0.002343 -0.002463 -0.003906 -0.000208
# 2 -0.001743 0.010167 -0.003044 -0.002801 0.000652 -0.001050
# 3 -0.002343 -0.003044 0.017978 0.002506 -0.005970 0.006990
# 4 -0.002463 -0.002801 0.002506 0.048805 0.009409 -0.003739
# 5 -0.003906 0.000652 -0.005970 0.009409 0.039127 -0.003671
# 6 -0.000208 -0.001050 0.006990 -0.003739 -0.003671 0.040440
#
#
# Mechanical properties :
#
#
# Convention : Reuss Voigt Hill
#
# Bulk Modulus (GPa) = 41.47749 49.14352 45.31050
# Shear Modulus (GPa) = 26.44949 30.83855 28.64402
#
# Velocity S-wave (km/s) = 3.44758 3.72266 3.58776
# Velocity P-wave (km/s) = 5.87255 6.36880 6.12570
#
# Compressibility (1/GPa) = 0.02410946
#
# Stress axis : x y z
#
# Youngs Moduli (GPa) = 97.79675 98.36046 55.62401
#
# Poissons Ratio (x) = 0.17141 0.13035
# Poissons Ratio (y) = 0.17042 0.16933
# Poissons Ratio (z) = 0.22918 0.29942
#
# Static dielectric constant tensor:
#      x y z
#    x 1.908750 -0.100050 -0.032030 
#    y -0.100050 1.868590 0.041030 
#    z -0.032030 0.041030 1.896880 
# 
# From -- ./inp_files/234325.got.cif
#   From: 2010.05.17/outbox.cif.g08.bks.cpg/sg2_118_cif.got.tgz:234325.got - 2010.06.03 11:33:40.
