data_PCOD9078329
_publ_section_title
;
Structure prediction by ZEFSAII (Michael W. Deem and Ramdas Pophale) SiO2 
 PCOD9078329
Probable space group: P -1
;
_chemical_formula_sum "Si O2"
_cell_formula_units_Z 14
_cell_length_a 19.832511
_cell_length_b 9.854799
_cell_length_c 8.891010
_cell_angle_alpha 76.508201
_cell_angle_beta 78.048925
_cell_angle_gamma 26.761884
_cell_volume 760.864716
_symmetry_space_group_name_H-M "P -1"
_symmetry_group_IT_number 2
_symmetry_cell_setting 'triclinic'
loop_
_space_group_symop_operation_xyz
x,y,z
-x,-y,-z
loop_
_atom_site_type_symbol
_atom_site_label
_atom_site_fract_x
_atom_site_fract_y
_atom_site_fract_z
Si Si1 0.530776 0.735558 0.638045
Si Si2 0.808451 0.706296 0.824379
Si Si3 0.685915 0.736572 0.637832
Si Si4 0.249610 0.891829 0.405731
Si Si5 0.953806 0.239904 0.421513
Si Si6 0.901568 0.741960 0.345369
Si Si7 0.231402 0.252459 0.817050
O O1 0.647539 0.642657 0.665211
O O2 0.611846 0.448623 0.625818
O O3 0.444269 0.951678 0.476030
O O4 0.404420 0.947934 0.768739
O O5 0.709846 0.760649 0.782742
O O6 0.981256 0.379380 0.774909
O O7 0.755929 0.948329 0.714265
O O8 0.794861 0.734161 0.001660
O O9 0.840386 0.487758 0.542457
O O10 0.232264 0.945169 0.580356
O O11 0.101463 0.068331 0.388200
O O12 0.853330 0.451550 0.266264
O O13 0.000000 0.000000 0.500000
O O14 0.839696 0.736481 0.262946
O O15 0.000000 0.500000 0.500000
#
# Coordination Sequence:
#
# PCOD9078329 Si02
#       7
#     2   2   2   2   2   2   2
#     4  10  22  38  60  87 116 157 196 238 287 345
#     4  11  22  37  62  88 121 154 190 241 297 346
#     4  10  21  39  61  85 117 156 199 237 286 345
#     4  11  20  36  65  90 112 149 204 246 280 339
#     4  11  19  36  64  86 111 154 204 243 276 342
#     4  10  18  35  61  87 107 149 199 242 276 332
#     4  11  23  38  59  87 125 154 187 237 305 348
#
# _framework density 18.400117000000002
#
# number of rings (size 3 to 8) (size 9 to 14) (size 15 to 20)
#    0.000    1.429    5.714    3.000    0.000    3.429 
#    0.000    0.714    3.143    0.000    0.000    0.000 
#    0.000    0.000    0.000    0.000    0.000    0.000 
#
# Total GULP energy -78061.336129 kJ/mol
# GULP energy per Si atom -5575.809724 kJ/mol
# Density = 1.835824 g / cm^3
# Si number density = 18.400117 Si / 1000 Ang^3
#
#
#
# Elastic Constant Matrix: (Units=GPa)
#
#
# Indices 1 2 3 4 5 6 
#
# 1 79.1392 24.2209 38.9988 3.9308 13.2353 3.8541
# 2 24.2209 80.9582 37.5101 2.1547 2.3298 15.2832
# 3 38.9988 37.5101 125.7899 25.2538 13.2388 5.6820
# 4 3.9308 2.1547 25.2538 13.1953 0.8735 -7.0787
# 5 13.2353 2.3298 13.2388 0.8735 18.0702 2.0314
# 6 3.8541 15.2832 5.6820 -7.0787 2.0314 31.5134
#
#
#
# Elastic Compliance Matrix: (Units=1/GPa)
#
#
# Indices 1 2 3 4 5 6 
#
# 1 0.017078 -0.003265 -0.004754 0.006434 -0.009184 0.002389
# 2 -0.003265 0.016526 -0.004942 0.004191 0.004360 -0.006064
# 3 -0.004754 -0.004942 0.020518 -0.041663 -0.007822 -0.009576
# 4 0.006434 0.004191 -0.041663 0.175368 0.011924 0.043316
# 5 -0.009184 0.004360 -0.007822 0.011924 0.066795 -0.001208
# 6 0.002389 -0.006064 -0.009576 0.043316 -0.001208 0.045916
#
#
# Mechanical properties :
#
#
# Convention : Reuss Voigt Hill
#
# Bulk Modulus (GPa) = 35.46146 54.14966 44.80556
# Shear Modulus (GPa) = 13.24422 24.89960 19.07191
#
# Velocity S-wave (km/s) = 2.68580 3.68262 3.22298
# Velocity P-wave (km/s) = 5.37887 6.89747 6.18496
#
# Compressibility (1/GPa) = 0.02819963
#
# Stress axis : x y z
#
# Youngs Moduli (GPa) = 58.55490 60.50908 48.73824
#
# Poissons Ratio (x) = 0.19753 0.23172
# Poissons Ratio (y) = 0.19115 0.24088
# Poissons Ratio (z) = 0.27839 0.29906
#
# Static dielectric constant tensor:
#      x y z
#    x 1.676430 0.002510 -0.001240 
#    y 0.002510 1.678200 0.003010 
#    z -0.001240 0.003010 1.613190 
# 
# From -- ./inp_files/153824.got.cif
#   From: 2010.05.17/outbox.cif.g08.bks.cpg/sg2_77_cif.got.tgz:153824.got - 2010.06.03 11:33:40.
