data_PCOD9078616
_publ_section_title
;
Structure prediction by ZEFSAII (Michael W. Deem and Ramdas Pophale) SiO2 
 PCOD9078616
Probable space group: P -1
;
_chemical_formula_sum "Si O2"
_cell_formula_units_Z 16
_cell_length_a 9.654022
_cell_length_b 11.413390
_cell_length_c 22.337042
_cell_angle_alpha 34.128118
_cell_angle_beta 53.285554
_cell_angle_gamma 78.956524
_cell_volume 817.295537
_symmetry_space_group_name_H-M "P -1"
_symmetry_group_IT_number 2
_symmetry_cell_setting 'triclinic'
loop_
_space_group_symop_operation_xyz
x,y,z
-x,-y,-z
loop_
_atom_site_type_symbol
_atom_site_label
_atom_site_fract_x
_atom_site_fract_y
_atom_site_fract_z
Si Si1 0.741300 0.059335 0.077159
Si Si2 0.298564 0.696045 0.498476
Si Si3 0.313100 0.184178 0.569745
Si Si4 0.954356 0.347964 0.209508
Si Si5 0.398994 0.555847 0.738946
Si Si6 0.996725 0.110505 0.875521
Si Si7 0.832454 0.026412 0.500236
Si Si8 0.758351 0.392564 0.583653
O O1 0.473349 0.845925 0.216255
O O2 0.926352 0.183864 0.922180
O O3 0.791767 0.882358 0.173025
O O4 0.817619 0.319955 0.986428
O O5 0.531353 0.785071 0.430100
O O6 0.234100 0.842359 0.493162
O O7 0.312087 0.755745 0.400049
O O8 0.089193 0.355851 0.702283
O O9 0.480816 0.341782 0.400875
O O10 0.225131 0.344122 0.537813
O O11 0.102083 0.859573 0.741145
O O12 0.744929 0.346424 0.261108
O O13 0.940699 0.213449 0.332632
O O14 0.599824 0.722674 0.665678
O O15 0.225566 0.220688 0.936165
O O16 0.000000 0.000000 0.500000
O O17 0.000000 0.500000 0.500000
#
# Coordination Sequence:
#
# PCOD9078616 Si02
#       8
#     2   2   2   2   2   2   2   2
#     4  10  19  39  63  94 122 158 204 257 306 356
#     4  12  22  41  63  94 120 163 212 251 301 371
#     4  11  19  39  64  86 120 166 205 248 300 369
#     4  10  19  37  67  91 116 156 210 257 305 352
#     4  10  18  36  65  96 121 150 205 263 310 351
#     4  10  18  35  68  96 115 151 216 265 292 343
#     4  11  22  35  59  96 130 157 199 261 311 357
#     4  12  28  42  58  87 133 173 198 242 320 380
#
# _framework density 19.576761000000001
#
# number of rings (size 3 to 8) (size 9 to 14) (size 15 to 20)
#    0.000    1.250    6.250    1.875    3.500    0.000 
#    2.250    3.750    0.000    0.000    0.000    0.000 
#    0.000    0.000    0.000    0.000    0.000    0.000 
#
# Total GULP energy -89304.343723 kJ/mol
# GULP energy per Si atom -5581.521483 kJ/mol
# Density = 1.953220 g / cm^3
# Si number density = 19.576761 Si / 1000 Ang^3
#
#
#
# Elastic Constant Matrix: (Units=GPa)
#
#
# Indices 1 2 3 4 5 6 
#
# 1 144.7115 46.2957 30.3243 -8.8787 -26.7782 -9.8416
# 2 46.2957 64.9413 21.0138 -13.8644 -11.8439 7.1624
# 3 30.3243 21.0138 71.2621 -23.6126 -23.0574 -0.3187
# 4 -8.8787 -13.8644 -23.6126 29.8708 6.3417 -3.9712
# 5 -26.7782 -11.8439 -23.0574 6.3417 25.1169 3.9608
# 6 -9.8416 7.1624 -0.3187 -3.9712 3.9608 25.0890
#
#
#
# Elastic Compliance Matrix: (Units=1/GPa)
#
#
# Indices 1 2 3 4 5 6 
#
# 1 0.010907 -0.007089 -0.000659 -0.001461 0.007274 0.004914
# 2 -0.007089 0.023563 -0.001151 0.006243 0.002324 -0.008901
# 3 -0.000659 -0.001151 0.025880 0.015790 0.018530 -0.000027
# 4 -0.001461 0.006243 0.015790 0.048495 0.002838 0.005073
# 5 0.007274 0.002324 0.018530 0.002838 0.066153 -0.007569
# 6 0.004914 -0.008901 -0.000027 0.005073 -0.007569 0.046324
#
#
# Mechanical properties :
#
#
# Convention : Reuss Voigt Hill
#
# Bulk Modulus (GPa) = 23.50091 52.90917 38.20504
# Shear Modulus (GPa) = 19.73903 28.23409 23.98656
#
# Velocity S-wave (km/s) = 3.17880 3.80178 3.50416
# Velocity P-wave (km/s) = 5.05011 6.80857 5.99417
#
# Compressibility (1/GPa) = 0.04255155
#
# Stress axis : x y z
#
# Youngs Moduli (GPa) = 91.68330 42.43912 38.63980
#
# Poissons Ratio (x) = 0.30087 0.02547
# Poissons Ratio (y) = 0.64998 0.04447
# Poissons Ratio (z) = 0.06043 0.04884
#
# Static dielectric constant tensor:
#      x y z
#    x 1.659650 0.024480 -0.006380 
#    y 0.024480 1.716010 -0.007140 
#    z -0.006380 -0.007140 1.720870 
# 
# From -- ./inp_files/226154.got.cif
#   From: 2010.05.17/outbox.cif.g08.bks.cpg/sg2_114_cif.got.tgz:226154.got - 2010.06.03 11:33:40.
