data_PCOD9078315
_publ_section_title
;
Structure prediction by ZEFSAII (Michael W. Deem and Ramdas Pophale) SiO2 
 PCOD9078315
Probable space group: P -1
;
_chemical_formula_sum "Si O2"
_cell_formula_units_Z 12
_cell_length_a 14.464659
_cell_length_b 9.337947
_cell_length_c 8.451523
_cell_angle_alpha 67.500311
_cell_angle_beta 136.508689
_cell_angle_gamma 123.895683
_cell_volume 651.664833
_symmetry_space_group_name_H-M "P -1"
_symmetry_group_IT_number 2
_symmetry_cell_setting 'triclinic'
loop_
_space_group_symop_operation_xyz
x,y,z
-x,-y,-z
loop_
_atom_site_type_symbol
_atom_site_label
_atom_site_fract_x
_atom_site_fract_y
_atom_site_fract_z
Si Si1 0.630342 0.711435 0.929719
Si Si2 0.695703 0.453963 0.346206
Si Si3 0.119217 0.696478 0.528347
Si Si4 0.094531 0.197891 0.992665
Si Si5 0.096320 0.226478 0.338945
Si Si6 0.206725 0.988070 0.764040
O O1 0.456032 0.632613 0.704187
O O2 0.751152 0.768441 0.915753
O O3 0.659213 0.562317 0.118741
O O4 0.664138 0.870987 0.025840
O O5 0.749574 0.318789 0.401072
O O6 0.833666 0.598610 0.548857
O O7 0.196828 0.826287 0.716490
O O8 0.000000 0.500000 0.500000
O O9 0.013261 0.759469 0.273306
O O10 0.117878 0.280087 0.160665
O O11 0.000000 0.000000 0.000000
O O12 0.928701 0.104760 0.239951
O O13 0.178371 0.111016 0.548630
#
# Coordination Sequence:
#
# PCOD9078315 Si02
#       6
#     2   2   2   2   2   2
#     4  10  21  39  61  84 117 159 191 232 295 351
#     4  10  22  39  58  87 121 150 192 244 289 337
#     4  12  21  37  61  92 115 147 199 247 278 338
#     4  12  21  36  64  89 113 154 199 236 284 349
#     4  10  19  35  60  86 114 156 193 232 287 352
#     4  10  18  35  61  84 113 156 196 227 287 354
#
# _framework density 18.414375
#
# number of rings (size 3 to 8) (size 9 to 14) (size 15 to 20)
#    0.000    1.333    6.667    1.000    0.000    2.000 
#    0.000    0.833    0.000    0.000    0.000    0.000 
#    0.000    0.000    0.000    0.000    0.000    0.000 
#
# Total GULP energy -66812.169130 kJ/mol
# GULP energy per Si atom -5567.680761 kJ/mol
# Density = 1.837246 g / cm^3
# Si number density = 18.414375 Si / 1000 Ang^3
#
#
#
# Elastic Constant Matrix: (Units=GPa)
#
#
# Indices 1 2 3 4 5 6 
#
# 1 84.2279 11.0507 5.4154 -9.0942 4.3599 6.4733
# 2 11.0507 70.0835 3.5652 -6.6392 3.6722 -1.1732
# 3 5.4154 3.5652 17.6901 -2.0423 -1.2489 8.2717
# 4 -9.0942 -6.6392 -2.0423 15.9062 2.2428 -2.6326
# 5 4.3599 3.6722 -1.2489 2.2428 26.1512 7.1497
# 6 6.4733 -1.1732 8.2717 -2.6326 7.1497 38.6146
#
#
#
# Elastic Compliance Matrix: (Units=1/GPa)
#
#
# Indices 1 2 3 4 5 6 
#
# 1 0.013139 -0.001148 -0.002857 0.006917 -0.002574 -0.000677
# 2 -0.001148 0.015428 -0.003414 0.006219 -0.003337 0.002434
# 3 -0.002857 -0.003414 0.065940 0.001763 0.008090 -0.015127
# 4 0.006917 0.006219 0.001763 0.071874 -0.009561 0.005322
# 5 -0.002574 -0.003337 0.008090 -0.009561 0.043086 -0.010032
# 6 -0.000677 0.002434 -0.015127 0.005322 -0.010032 0.031545
#
#
# Mechanical properties :
#
#
# Convention : Reuss Voigt Hill
#
# Bulk Modulus (GPa) = 12.55195 23.56267 18.05731
# Shear Modulus (GPa) = 17.70498 26.26575 21.98537
#
# Velocity S-wave (km/s) = 3.10413 3.78083 3.45907
# Velocity P-wave (km/s) = 4.43607 5.64652 5.07749
#
# Compressibility (1/GPa) = 0.07966891
#
# Stress axis : x y z
#
# Youngs Moduli (GPa) = 76.10966 64.81715 15.16536
#
# Poissons Ratio (x) = 0.07438 0.04333
# Poissons Ratio (y) = 0.08734 0.05177
# Poissons Ratio (z) = 0.21747 0.22128
#
# Static dielectric constant tensor:
#      x y z
#    x 1.714750 -0.056550 -0.028290 
#    y -0.056550 1.656380 0.033510 
#    z -0.028290 0.033510 1.607320 
# 
# From -- ./inp_files/144355.got.cif
#   From: 2010.05.17/outbox.cif.g08.bks.cpg/sg2_73_cif.got.tgz:144355.got - 2010.06.03 11:33:40.
