data_PCOD9078042
_publ_section_title
;
Structure prediction by ZEFSAII (Michael W. Deem and Ramdas Pophale) SiO2 
 PCOD9078042
Probable space group: P -1
;
_chemical_formula_sum "Si O2"
_cell_formula_units_Z 14
_cell_length_a 10.427306
_cell_length_b 11.927138
_cell_length_c 7.700904
_cell_angle_alpha 90.202024
_cell_angle_beta 43.917767
_cell_angle_gamma 78.252391
_cell_volume 634.296459
_symmetry_space_group_name_H-M "P -1"
_symmetry_group_IT_number 2
_symmetry_cell_setting 'triclinic'
loop_
_space_group_symop_operation_xyz
x,y,z
-x,-y,-z
loop_
_atom_site_type_symbol
_atom_site_label
_atom_site_fract_x
_atom_site_fract_y
_atom_site_fract_z
Si Si1 0.061015 0.593694 0.831689
Si Si2 0.286992 0.998518 0.663985
Si Si3 0.719669 0.478252 0.732259
Si Si4 0.897597 0.187007 0.155656
Si Si5 0.370884 0.922208 0.201900
Si Si6 0.247048 0.281631 0.143873
Si Si7 0.095770 0.789534 0.433604
O O1 0.217980 0.536318 0.530737
O O2 0.134651 0.682423 0.878746
O O3 0.869002 0.675342 0.921091
O O4 0.000000 0.500000 0.000000
O O5 0.500000 0.000000 0.500000
O O6 0.246170 0.881071 0.773755
O O7 0.275345 0.989603 0.468312
O O8 0.113518 0.105438 0.904421
O O9 0.773875 0.593196 0.744366
O O10 0.817739 0.346184 0.708518
O O11 0.500000 0.500000 0.000000
O O12 0.869142 0.202643 0.391955
O O13 0.204350 0.881673 0.259127
O O14 0.532968 0.797801 0.089485
O O15 0.500000 0.000000 0.000000
O O16 0.131510 0.200625 0.352059
#
# Coordination Sequence:
#
# PCOD9078042 Si02
#       7
#     2   2   2   2   2   2   2
#     4  10  21  38  60  89 118 151 195 241 292 350
#     4  10  18  35  58  77 106 149 192 226 284 333
#     4  10  18  36  64  85 115 157 193 237 296 352
#     4   8  18  34  55  78 108 149 179 232 280 334
#     4  11  23  36  56  87 116 149 197 238 278 344
#     4  10  20  38  62  82 116 160 186 236 301 342
#     4   9  18  36  58  82 113 148 192 230 290 343
#
# _framework density 22.071698999999999
#
# number of rings (size 3 to 8) (size 9 to 14) (size 15 to 20)
#    0.000    2.571    1.429    3.429    0.000    1.714 
#    0.000    3.571    0.000    0.000    0.000    0.000 
#    0.000    0.000    0.000    0.000    0.000    0.000 
#
# Total GULP energy -77979.686432 kJ/mol
# GULP energy per Si atom -5569.977602 kJ/mol
# Density = 2.202146 g / cm^3
# Si number density = 22.071699 Si / 1000 Ang^3
#
#
#
# Elastic Constant Matrix: (Units=GPa)
#
#
# Indices 1 2 3 4 5 6 
#
# 1 44.9672 41.5358 29.6932 -4.8435 -19.5445 20.2934
# 2 41.5358 168.7666 55.9322 -23.4398 1.3749 44.0651
# 3 29.6932 55.9322 99.1907 -3.2235 -17.6170 10.3023
# 4 -4.8435 -23.4398 -3.2235 47.3855 7.2073 -11.4199
# 5 -19.5445 1.3749 -17.6170 7.2073 35.4636 -8.2074
# 6 20.2934 44.0651 10.3023 -11.4199 -8.2074 40.4087
#
#
#
# Elastic Compliance Matrix: (Units=1/GPa)
#
#
# Indices 1 2 3 4 5 6 
#
# 1 0.046663 -0.008321 -0.004377 -0.005548 0.022628 -0.010216
# 2 -0.008321 0.013112 -0.005726 0.004619 -0.011101 -0.009609
# 3 -0.004377 -0.005726 0.015244 -0.002008 0.007045 0.005419
# 4 -0.005548 0.004619 -0.002008 0.024829 -0.008456 0.003561
# 5 0.022628 -0.011101 0.007045 -0.008456 0.047765 0.006258
# 6 -0.010216 -0.009609 0.005419 0.003561 0.006258 0.041252
#
#
# Mechanical properties :
#
#
# Convention : Reuss Voigt Hill
#
# Bulk Modulus (GPa) = 26.19862 63.02744 44.61303
# Shear Modulus (GPa) = 20.96999 37.03578 29.00289
#
# Velocity S-wave (km/s) = 3.08569 4.10075 3.62889
# Velocity P-wave (km/s) = 4.95892 7.14418 6.14940
#
# Compressibility (1/GPa) = 0.03816995
#
# Stress axis : x y z
#
# Youngs Moduli (GPa) = 21.43039 76.26677 65.60069
#
# Poissons Ratio (x) = 0.63464 0.28712
# Poissons Ratio (y) = 0.17833 0.37564
# Poissons Ratio (z) = 0.09380 0.43671
#
# Static dielectric constant tensor:
#      x y z
#    x 1.899620 0.043920 -0.003930 
#    y 0.043920 1.924540 -0.051570 
#    z -0.003930 -0.051570 1.817620 
# 
# From -- ./inp_files/253869.got.cif
#   From: 2010.05.17/outbox.cif.g08.bks.cpg/sg2_127_cif.got.tgz:253869.got - 2010.06.03 11:33:40.
