data_PCOD9078906
_publ_section_title
;
Structure prediction by ZEFSAII (Michael W. Deem and Ramdas Pophale) SiO2 
 PCOD9078906
Probable space group: P -1
;
_chemical_formula_sum "Si O2"
_cell_formula_units_Z 16
_cell_length_a 19.302844
_cell_length_b 9.427348
_cell_length_c 6.710597
_cell_angle_alpha 53.456200
_cell_angle_beta 106.726975
_cell_angle_gamma 129.002389
_cell_volume 754.991180
_symmetry_space_group_name_H-M "P -1"
_symmetry_group_IT_number 2
_symmetry_cell_setting 'triclinic'
loop_
_space_group_symop_operation_xyz
x,y,z
-x,-y,-z
loop_
_atom_site_type_symbol
_atom_site_label
_atom_site_fract_x
_atom_site_fract_y
_atom_site_fract_z
Si Si1 0.530622 0.302339 0.958043
Si Si2 0.910498 0.526279 0.206547
Si Si3 0.374522 0.848680 0.109849
Si Si4 0.670854 0.703888 0.513925
Si Si5 0.120178 0.820830 0.217924
Si Si6 0.627818 0.436249 0.314704
Si Si7 0.206311 0.292091 0.078720
Si Si8 0.789318 0.177669 0.094259
O O1 0.584275 0.209505 0.986221
O O2 0.545288 0.336612 0.177015
O O3 0.580304 0.542201 0.701339
O O4 0.430782 0.110948 0.965349
O O5 0.878326 0.360452 0.505935
O O6 0.860702 0.640626 0.046931
O O7 0.878140 0.365240 0.125864
O O8 0.017056 0.701974 0.167556
O O9 0.271090 0.743372 0.079545
O O10 0.385781 0.755170 0.400204
O O11 0.645512 0.612189 0.346075
O O12 0.721778 0.962492 0.351295
O O13 0.743568 0.674417 0.698320
O O14 0.182241 0.889201 0.019422
O O15 0.154903 0.037462 0.191019
O O16 0.714457 0.557091 0.141848
#
# Coordination Sequence:
#
# PCOD9078906 Si02
#       8
#     2   2   2   2   2   2   2   2
#     4   9  20  38  58  89 120 157 204 249 293 358
#     4  11  24  41  64  90 121 160 204 251 306 359
#     4  10  21  36  61  89 119 157 206 246 299 360
#     4  10  21  36  60  84 125 156 198 248 296 357
#     4  11  24  42  62  92 124 154 205 257 300 362
#     4  10  18  36  60  85 116 160 197 246 294 354
#     4  11  21  41  64  88 122 166 200 246 306 356
#     4  12  22  40  60  89 124 160 199 254 303 357
#
# _framework density 21.192299999999999
#
# number of rings (size 3 to 8) (size 9 to 14) (size 15 to 20)
#    0.000    1.500    2.500    4.125    0.000    0.500 
#    0.000    1.250    0.000    0.000    0.000    0.000 
#    0.000    0.000    0.000    0.000    0.000    0.000 
#
# Total GULP energy -89370.866158 kJ/mol
# GULP energy per Si atom -5585.679135 kJ/mol
# Density = 2.114407 g / cm^3
# Si number density = 21.192300 Si / 1000 Ang^3
#
#
#
# Elastic Constant Matrix: (Units=GPa)
#
#
# Indices 1 2 3 4 5 6 
#
# 1 38.5173 20.6877 11.1086 4.2973 13.8217 4.1834
# 2 20.6877 130.7837 25.1758 4.2508 3.0630 10.7883
# 3 11.1086 25.1758 64.7548 4.9302 3.4391 -4.2612
# 4 4.2973 4.2508 4.9302 45.0852 4.2797 1.5219
# 5 13.8217 3.0630 3.4391 4.2797 19.7480 -1.8607
# 6 4.1834 10.7883 -4.2612 1.5219 -1.8607 28.5936
#
#
#
# Elastic Compliance Matrix: (Units=1/GPa)
#
#
# Indices 1 2 3 4 5 6 
#
# 1 0.039972 -0.004339 -0.004150 -0.000145 -0.027170 -0.006590
# 2 -0.004339 0.009152 -0.003108 -0.000184 0.001902 -0.003148
# 3 -0.004150 -0.003108 0.017722 -0.001504 0.001056 0.004570
# 4 -0.000145 -0.000184 -0.001504 0.022880 -0.004723 -0.001659
# 5 -0.027170 0.001902 0.001056 -0.004723 0.070980 0.008285
# 6 -0.006590 -0.003148 0.004570 -0.001659 0.008285 0.038433
#
#
# Mechanical properties :
#
#
# Convention : Reuss Voigt Hill
#
# Bulk Modulus (GPa) = 22.90846 38.66665 30.78755
# Shear Modulus (GPa) = 21.10748 30.49092 25.79920
#
# Velocity S-wave (km/s) = 3.15937 3.79723 3.49289
# Velocity P-wave (km/s) = 4.91346 6.12458 5.55214
#
# Compressibility (1/GPa) = 0.04365200
#
# Stress axis : x y z
#
# Youngs Moduli (GPa) = 25.01781 109.26601 56.42661
#
# Poissons Ratio (x) = 0.47415 0.23414
# Poissons Ratio (y) = 0.10856 0.17537
# Poissons Ratio (z) = 0.10381 0.33959
#
# Static dielectric constant tensor:
#      x y z
#    x 1.738440 -0.009260 0.018140 
#    y -0.009260 1.770110 -0.014640 
#    z 0.018140 -0.014640 1.766050 
# 
# From -- ./inp_files/39366.got.cif
#   From: 2010.05.17/outbox.cif.g08.bks.cpg/sg2_20_cif.got.tgz:39366.got - 2010.06.03 11:33:40.
