data_PCOD9078950
_publ_section_title
;
Structure prediction by ZEFSAII (Michael W. Deem and Ramdas Pophale) SiO2 
 PCOD9078950
Probable space group: P -1
;
_chemical_formula_sum "Si O2"
_cell_formula_units_Z 16
_cell_length_a 12.039157
_cell_length_b 13.563282
_cell_length_c 11.362856
_cell_angle_alpha 147.722199
_cell_angle_beta 117.570770
_cell_angle_gamma 80.511187
_cell_volume 771.301284
_symmetry_space_group_name_H-M "P -1"
_symmetry_group_IT_number 2
_symmetry_cell_setting 'triclinic'
loop_
_space_group_symop_operation_xyz
x,y,z
-x,-y,-z
loop_
_atom_site_type_symbol
_atom_site_label
_atom_site_fract_x
_atom_site_fract_y
_atom_site_fract_z
Si Si1 0.772085 0.932485 0.309302
Si Si2 0.579561 0.947088 0.592280
Si Si3 0.358496 0.499231 0.116972
Si Si4 0.774332 0.398122 0.235811
Si Si5 0.009240 0.045062 0.745219
Si Si6 0.760561 0.718955 0.405581
Si Si7 0.945836 0.522598 0.685611
Si Si8 0.153891 0.625047 0.262901
O O1 0.850985 0.932245 0.226934
O O2 0.889168 0.979267 0.517000
O O3 0.756434 0.140353 0.506719
O O4 0.635873 0.708132 0.043106
O O5 0.481021 0.737471 0.407494
O O6 0.696431 0.880313 0.536233
O O7 0.500000 0.000000 0.500000
O O8 0.655123 0.159192 0.918565
O O9 0.236981 0.500471 0.141340
O O10 0.306597 0.438426 0.895776
O O11 0.726052 0.570733 0.351946
O O12 0.842999 0.441448 0.441402
O O13 0.899909 0.437123 0.242557
O O14 0.930049 0.858074 0.610665
O O15 0.036686 0.257668 0.035435
O O16 0.878269 0.373306 0.614036
O O17 0.000000 0.500000 0.000000
#
# Coordination Sequence:
#
# PCOD9078950 Si02
#       8
#     2   2   2   2   2   2   2   2
#     4  10  20  34  59  95 128 157 200 262 324 376
#     4  12  26  43  65  93 128 169 223 267 307 380
#     4  11  24  36  63  97 122 161 211 264 322 372
#     4  11  25  43  64  93 133 176 210 260 319 390
#     4  10  18  36  60  93 128 155 202 260 320 377
#     4  11  23  40  64  95 128 167 209 265 326 376
#     4  11  22  42  65  98 134 166 212 262 327 381
#     4  12  21  37  67  96 129 164 205 272 323 373
#
# _framework density 20.744161999999999
#
# number of rings (size 3 to 8) (size 9 to 14) (size 15 to 20)
#    0.000    1.000    5.000    3.375    3.500    0.500 
#    2.250    0.625    0.000    1.500    0.000    0.000 
#    0.000    0.000    0.000    0.000    0.000    0.000 
#
# Total GULP energy -89326.169785 kJ/mol
# GULP energy per Si atom -5582.885612 kJ/mol
# Density = 2.069695 g / cm^3
# Si number density = 20.744162 Si / 1000 Ang^3
#
#
#
# Elastic Constant Matrix: (Units=GPa)
#
#
# Indices 1 2 3 4 5 6 
#
# 1 49.0559 12.0334 14.7617 -4.3330 -5.7527 4.7423
# 2 12.0334 93.4619 56.3563 28.1286 1.3276 6.0678
# 3 14.7617 56.3563 116.6848 34.0393 3.7366 -0.6784
# 4 -4.3330 28.1286 34.0393 37.8008 6.8278 -1.6833
# 5 -5.7527 1.3276 3.7366 6.8278 27.0764 10.6155
# 6 4.7423 6.0678 -0.6784 -1.6833 10.6155 27.1679
#
#
#
# Elastic Compliance Matrix: (Units=1/GPa)
#
#
# Indices 1 2 3 4 5 6 
#
# 1 0.024135 -0.002385 -0.004140 0.006856 0.006382 -0.005852
# 2 -0.002385 0.017480 -0.005619 -0.009198 0.003988 -0.005756
# 3 -0.004140 -0.005619 0.014492 -0.009024 -0.001212 0.002254
# 4 0.006856 -0.009198 -0.009024 0.044564 -0.011118 0.007738
# 5 0.006382 0.003988 -0.001212 -0.011118 0.049753 -0.022164
# 6 -0.005852 -0.005756 0.002254 0.007738 -0.022164 0.048311
#
#
# Mechanical properties :
#
#
# Convention : Reuss Voigt Hill
#
# Bulk Modulus (GPa) = 31.42704 47.27836 39.35270
# Shear Modulus (GPa) = 21.40142 30.14580 25.77361
#
# Velocity S-wave (km/s) = 3.21547 3.81625 3.52867
# Velocity P-wave (km/s) = 5.38223 6.50069 5.96772
#
# Compressibility (1/GPa) = 0.03181974
#
# Stress axis : x y z
#
# Youngs Moduli (GPa) = 41.43280 57.20879 69.00409
#
# Poissons Ratio (x) = 0.13647 0.28566
# Poissons Ratio (y) = 0.09884 0.38771
# Poissons Ratio (z) = 0.17152 0.32143
#
# Static dielectric constant tensor:
#      x y z
#    x 1.791320 0.004330 0.029430 
#    y 0.004330 1.782490 0.057120 
#    z 0.029430 0.057120 1.716950 
# 
# From -- ./inp_files/434385.got.cif
#   From: 2010.05.17/outbox.cif.g08.bks.cpg/sg2_218_cif.got.tgz:434385.got - 2010.06.03 11:33:40.
