data_PCOD9078546
_publ_section_title
;
Structure prediction by ZEFSAII (Michael W. Deem and Ramdas Pophale) SiO2 
 PCOD9078546
Probable space group: P -1
;
_chemical_formula_sum "Si O2"
_cell_formula_units_Z 16
_cell_length_a 19.642591
_cell_length_b 14.015324
_cell_length_c 9.438283
_cell_angle_alpha 129.170663
_cell_angle_beta 52.255884
_cell_angle_gamma 159.024609
_cell_volume 718.746175
_symmetry_space_group_name_H-M "P -1"
_symmetry_group_IT_number 2
_symmetry_cell_setting 'triclinic'
loop_
_space_group_symop_operation_xyz
x,y,z
-x,-y,-z
loop_
_atom_site_type_symbol
_atom_site_label
_atom_site_fract_x
_atom_site_fract_y
_atom_site_fract_z
Si Si1 0.061345 0.443250 0.314982
Si Si2 0.837146 0.390155 0.113091
Si Si3 0.690169 0.312750 0.513671
Si Si4 0.722026 0.894302 0.357420
Si Si5 0.343078 0.942219 0.226038
Si Si6 0.937930 0.923559 0.169429
Si Si7 0.301996 0.408284 0.357256
Si Si8 0.226641 0.449789 0.762151
O O1 0.175167 0.517643 0.362753
O O2 0.211839 0.671414 0.215119
O O3 0.000000 0.500000 0.500000
O O4 0.860869 0.114024 0.256502
O O5 0.786784 0.360500 0.308715
O O6 0.908636 0.609908 0.159366
O O7 0.679109 0.116981 0.965994
O O8 0.000000 0.500000 0.000000
O O9 0.646219 0.392899 0.590331
O O10 0.500000 0.000000 0.500000
O O11 0.819377 0.899962 0.311727
O O12 0.504315 0.597423 0.301035
O O13 0.716237 0.000711 0.578232
O O14 0.568394 0.227901 0.230735
O O15 0.800795 0.639616 0.132051
O O16 0.126861 0.144823 0.233329
O O17 0.000000 0.000000 0.000000
O O18 0.216909 0.327685 0.546074
#
# Coordination Sequence:
#
# PCOD9078546 Si02
#       8
#     2   2   2   2   2   2   2   2
#     4  10  18  35  64  95 134 173 215 270 335 405
#     4  11  23  38  64 103 137 168 223 281 340 400
#     4  11  21  38  63  99 137 178 218 275 348 405
#     4  10  22  43  69  99 131 176 229 268 351 403
#     4  10  22  40  69  98 131 176 219 282 340 398
#     4  12  27  46  69  96 133 183 228 282 335 401
#     4  10  23  44  68  96 130 179 227 276 337 406
#     4  10  24  45  65  95 138 175 225 273 338 407
#
# _framework density 22.260987
#
# number of rings (size 3 to 8) (size 9 to 14) (size 15 to 20)
#    0.000    1.500    1.250    5.250    3.500    3.500 
#    2.250    0.000    0.000    0.000    0.000    0.000 
#    0.000    0.000    0.000    0.000    0.000    0.000 
#
# Total GULP energy -89258.578050 kJ/mol
# GULP energy per Si atom -5578.661128 kJ/mol
# Density = 2.221032 g / cm^3
# Si number density = 22.260987 Si / 1000 Ang^3
#
#
#
# Elastic Constant Matrix: (Units=GPa)
#
#
# Indices 1 2 3 4 5 6 
#
# 1 91.3605 32.9085 17.1355 -16.7033 -18.9533 2.8301
# 2 32.9085 94.8180 16.4004 -7.5444 -4.6447 7.5859
# 3 17.1355 16.4004 74.7122 -7.0982 4.8044 7.4096
# 4 -16.7033 -7.5444 -7.0982 29.8502 3.0408 17.5367
# 5 -18.9533 -4.6447 4.8044 3.0408 31.1077 4.9173
# 6 2.8301 7.5859 7.4096 17.5367 4.9173 38.1886
#
#
#
# Elastic Compliance Matrix: (Units=1/GPa)
#
#
# Indices 1 2 3 4 5 6 
#
# 1 0.016887 -0.003650 -0.002065 0.010746 0.010016 -0.006350
# 2 -0.003650 0.012519 -0.001347 0.002666 0.000097 -0.003192
# 3 -0.002065 -0.001347 0.015313 0.005120 -0.003624 -0.004435
# 4 0.010746 0.002666 0.005120 0.058384 0.005157 -0.029794
# 5 0.010016 0.000097 -0.003624 0.005157 0.039507 -0.007514
# 6 -0.006350 -0.003192 -0.004435 -0.029794 -0.007514 0.042800
#
#
# Mechanical properties :
#
#
# Convention : Reuss Voigt Hill
#
# Bulk Modulus (GPa) = 32.68592 43.75329 38.21961
# Shear Modulus (GPa) = 23.83978 32.79239 28.31608
#
# Velocity S-wave (km/s) = 3.27604 3.84225 3.57039
# Velocity P-wave (km/s) = 5.38747 6.27544 5.84834
#
# Compressibility (1/GPa) = 0.03059421
#
# Stress axis : x y z
#
# Youngs Moduli (GPa) = 59.21662 79.88075 65.30215
#
# Poissons Ratio (x) = 0.29157 0.13486
# Poissons Ratio (y) = 0.21614 0.08798
# Poissons Ratio (z) = 0.12230 0.10762
#
# Static dielectric constant tensor:
#      x y z
#    x 1.932010 0.171640 0.026340 
#    y 0.171640 2.134880 0.056730 
#    z 0.026340 0.056730 1.880310 
# 
# From -- ./inp_files/347321.got.cif
#   From: 2010.05.17/outbox.cif.g08.bks.cpg/sg2_174_cif.got.tgz:347321.got - 2010.06.03 11:33:40.
