data_PCOD9078318
_publ_section_title
;
Structure prediction by ZEFSAII (Michael W. Deem and Ramdas Pophale) SiO2 
 PCOD9078318
Probable space group: P -1
;
_chemical_formula_sum "Si O2"
_cell_formula_units_Z 16
_cell_length_a 7.454388
_cell_length_b 11.246479
_cell_length_c 15.516186
_cell_angle_alpha 132.778509
_cell_angle_beta 130.926060
_cell_angle_gamma 66.588491
_cell_volume 718.724878
_symmetry_space_group_name_H-M "P -1"
_symmetry_group_IT_number 2
_symmetry_cell_setting 'triclinic'
loop_
_space_group_symop_operation_xyz
x,y,z
-x,-y,-z
loop_
_atom_site_type_symbol
_atom_site_label
_atom_site_fract_x
_atom_site_fract_y
_atom_site_fract_z
Si Si1 0.094240 0.747885 0.450428
Si Si2 0.205736 0.471272 0.120054
Si Si3 0.425405 0.232036 0.308533
Si Si4 0.195041 0.869524 0.077200
Si Si5 0.871672 0.018676 0.583178
Si Si6 0.607343 0.200655 0.720540
Si Si7 0.007880 0.590108 0.784171
Si Si8 0.638437 0.847964 0.938382
O O1 0.365409 0.711886 0.532882
O O2 0.930240 0.580134 0.318956
O O3 0.055813 0.883512 0.576884
O O4 0.059872 0.841789 0.396447
O O5 0.386814 0.631010 0.245784
O O6 0.093294 0.457133 0.174093
O O7 0.325613 0.302834 0.060655
O O8 0.000000 0.500000 0.000000
O O9 0.205366 0.340887 0.302084
O O10 0.487812 0.233082 0.226841
O O11 0.337365 0.043644 0.202899
O O12 0.317478 0.776381 0.146505
O O13 0.191550 0.746631 0.935048
O O14 0.916150 0.897069 0.021383
O O15 0.633729 0.914117 0.422843
O O16 0.811912 0.100750 0.693193
O O17 0.500000 0.000000 0.000000
#
# Coordination Sequence:
#
# PCOD9078318 Si02
#       8
#     2   2   2   2   2   2   2   2
#     4  11  21  39  57  86 118 154 200 239 298 343
#     4  10  18  35  61  85 113 154 193 238 296 351
#     4  10  21  39  61  83 119 160 196 233 300 358
#     4  10  20  38  64  86 115 160 194 238 302 349
#     4  10  24  35  59  84 118 154 195 251 286 353
#     4  11  19  40  60  85 116 154 200 238 299 350
#     4  10  20  36  61  85 117 152 198 239 289 361
#     4  10  22  37  59  92 121 149 198 250 292 347
#
# _framework density 22.261648999999998
#
# number of rings (size 3 to 8) (size 9 to 14) (size 15 to 20)
#    0.000    2.000    5.000    1.875    1.750    0.000 
#    4.500    0.625    0.000    2.250    0.000    0.000 
#    0.000    0.000    0.000    0.000    0.000    0.000 
#
# Total GULP energy -89264.659711 kJ/mol
# GULP energy per Si atom -5579.041232 kJ/mol
# Density = 2.221098 g / cm^3
# Si number density = 22.261649 Si / 1000 Ang^3
#
#
#
# Elastic Constant Matrix: (Units=GPa)
#
#
# Indices 1 2 3 4 5 6 
#
# 1 25.9762 2.8480 -3.0735 9.3861 2.6192 -3.2484
# 2 2.8480 93.4226 18.3186 22.3595 -2.5465 4.4074
# 3 -3.0735 18.3186 69.6953 24.6842 10.0350 -4.2785
# 4 9.3861 22.3595 24.6842 50.7766 3.2169 2.3238
# 5 2.6192 -2.5465 10.0350 3.2169 16.7591 9.3306
# 6 -3.2484 4.4074 -4.2785 2.3238 9.3306 17.1927
#
#
#
# Elastic Compliance Matrix: (Units=1/GPa)
#
#
# Indices 1 2 3 4 5 6 
#
# 1 0.055341 -0.003997 0.016961 -0.016082 -0.037654 0.038310
# 2 -0.003997 0.013526 -0.005411 -0.002866 0.013406 -0.012457
# 3 0.016961 -0.005411 0.028822 -0.013973 -0.036756 0.033600
# 4 -0.016082 -0.002866 -0.013973 0.030619 0.014459 -0.017766
# 5 -0.037654 0.013406 -0.036756 0.014459 0.141690 -0.098548
# 6 0.038310 -0.012457 0.033600 -0.017766 -0.098548 0.132842
#
#
# Mechanical properties :
#
#
# Convention : Reuss Voigt Hill
#
# Bulk Modulus (GPa) = 8.86585 25.03114 16.94850
# Shear Modulus (GPa) = 11.75548 28.34575 20.05061
#
# Velocity S-wave (km/s) = 2.30045 3.57220 3.00439
# Velocity P-wave (km/s) = 3.32375 5.31814 4.43452
#
# Compressibility (1/GPa) = 0.11279229
#
# Stress axis : x y z
#
# Youngs Moduli (GPa) = 18.06990 73.93175 34.69550
#
# Poissons Ratio (x) = 0.29553 -0.58845
# Poissons Ratio (y) = 0.07223 0.18775
# Poissons Ratio (z) = -0.30647 0.40008
#
# Static dielectric constant tensor:
#      x y z
#    x 1.887680 -0.015310 0.011420 
#    y -0.015310 1.852430 0.022150 
#    z 0.011420 0.022150 1.821050 
# 
# From -- ./inp_files/559318.got.cif
#   From: 2010.05.17/outbox.cif.g08.bks.cpg/sg2_280_cif.got.tgz:559318.got - 2010.06.03 11:33:40.
