data_PCOD9078617
_publ_section_title
;
Structure prediction by ZEFSAII (Michael W. Deem and Ramdas Pophale) SiO2 
 PCOD9078617
Probable space group: P -1
;
_chemical_formula_sum "Si O2"
_cell_formula_units_Z 16
_cell_length_a 8.757026
_cell_length_b 14.456667
_cell_length_c 14.587082
_cell_angle_alpha 121.225147
_cell_angle_beta 39.924462
_cell_angle_gamma 90.939899
_cell_volume 729.173634
_symmetry_space_group_name_H-M "P -1"
_symmetry_group_IT_number 2
_symmetry_cell_setting 'triclinic'
loop_
_space_group_symop_operation_xyz
x,y,z
-x,-y,-z
loop_
_atom_site_type_symbol
_atom_site_label
_atom_site_fract_x
_atom_site_fract_y
_atom_site_fract_z
Si Si1 0.558234 0.859264 0.868333
Si Si2 0.410837 0.635256 0.169424
Si Si3 0.651283 0.853557 0.408865
Si Si4 0.385020 0.371682 0.738060
Si Si5 0.255124 0.580189 0.501227
Si Si6 0.618597 0.304294 0.060255
Si Si7 0.294438 0.199748 0.438446
Si Si8 0.068534 0.456327 0.232957
O O1 0.329544 0.837146 0.005984
O O2 0.532088 0.866500 0.773549
O O3 0.923950 0.709189 0.659969
O O4 0.500000 0.000000 0.000000
O O5 0.451643 0.612708 0.247020
O O6 0.028248 0.776609 0.402153
O O7 0.500000 0.500000 0.000000
O O8 0.683333 0.636355 0.013761
O O9 0.534262 0.779114 0.378906
O O10 0.550147 0.875954 0.573830
O O11 0.500000 0.000000 0.500000
O O12 0.049925 0.744267 0.156480
O O13 0.511435 0.389413 0.597345
O O14 0.000000 0.500000 0.000000
O O15 0.464471 0.416813 0.275295
O O16 0.137963 0.579442 0.654482
O O17 0.329018 0.396939 0.165214
O O18 0.152633 0.367534 0.590697
#
# Coordination Sequence:
#
# PCOD9078617 Si02
#       8
#     2   2   2   2   2   2   2   2
#     4  11  23  39  71 105 134 172 231 289 340 398
#     4  10  19  35  66 102 129 162 230 284 324 388
#     4  12  29  46  65  95 145 191 223 276 350 411
#     4  12  23  41  68 100 137 182 224 275 340 410
#     4  11  20  39  66 103 135 167 222 283 341 398
#     4  11  20  42  68  98 138 174 220 283 343 398
#     4  11  20  43  69  94 132 183 227 278 336 400
#     4  10  18  35  69 106 121 164 228 285 332 386
#
# _framework density 21.942647000000001
#
# number of rings (size 3 to 8) (size 9 to 14) (size 15 to 20)
#    0.000    1.000    6.250    3.000    1.750    0.000 
#    4.500    5.625    0.000    0.000    0.000    0.000 
#    0.000    0.000    0.000    0.000    0.000    0.000 
#
# Total GULP energy -89331.936617 kJ/mol
# GULP energy per Si atom -5583.246039 kJ/mol
# Density = 2.189270 g / cm^3
# Si number density = 21.942647 Si / 1000 Ang^3
#
#
#
# Elastic Constant Matrix: (Units=GPa)
#
#
# Indices 1 2 3 4 5 6 
#
# 1 69.1836 31.8421 7.9455 7.4897 11.4381 -6.3007
# 2 31.8421 171.4996 36.7541 -16.3452 14.1166 2.7437
# 3 7.9455 36.7541 30.5319 -18.9603 3.7641 2.1779
# 4 7.4897 -16.3452 -18.9603 47.9167 0.2039 -0.9037
# 5 11.4381 14.1166 3.7641 0.2039 25.3498 -6.1454
# 6 -6.3007 2.7437 2.1779 -0.9037 -6.1454 41.3582
#
#
#
# Elastic Compliance Matrix: (Units=1/GPa)
#
#
# Indices 1 2 3 4 5 6 
#
# 1 0.017759 -0.002432 -0.004481 -0.005314 -0.005422 0.002181
# 2 -0.002432 0.008492 -0.009551 -0.000507 -0.002403 -0.000799
# 3 -0.004481 -0.009551 0.058726 0.020633 -0.002280 -0.003029
# 4 -0.005314 -0.000507 0.020633 0.029670 -0.000950 -0.001355
# 5 -0.005422 -0.002403 -0.002280 -0.000950 0.045064 0.006129
# 6 0.002181 -0.000799 -0.003029 -0.001355 0.006129 0.025605
#
#
# Mechanical properties :
#
#
# Convention : Reuss Voigt Hill
#
# Bulk Modulus (GPa) = 19.21308 47.14428 33.17868
# Shear Modulus (GPa) = 21.22304 35.90319 28.56311
#
# Velocity S-wave (km/s) = 3.11337 4.04942 3.61185
# Velocity P-wave (km/s) = 4.65823 6.58753 5.70503
#
# Compressibility (1/GPa) = 0.05204786
#
# Stress axis : x y z
#
# Youngs Moduli (GPa) = 56.31081 117.76426 17.02816
#
# Poissons Ratio (x) = 0.28640 0.07631
# Poissons Ratio (y) = 0.13694 0.16264
# Poissons Ratio (z) = 0.25234 1.12477
#
# Static dielectric constant tensor:
#      x y z
#    x 1.838550 -0.006350 -0.026270 
#    y -0.006350 1.865660 -0.061510 
#    z -0.026270 -0.061510 1.845590 
# 
# From -- ./inp_files/504169.got.cif
#   From: 2010.05.17/outbox.cif.g08.bks.cpg/sg2_253_cif.got.tgz:504169.got - 2010.06.03 11:33:40.
