data_PCOD9078319
_publ_section_title
;
Structure prediction by ZEFSAII (Michael W. Deem and Ramdas Pophale) SiO2 
 PCOD9078319
Probable space group: P -1
;
_chemical_formula_sum "Si O2"
_cell_formula_units_Z 16
_cell_length_a 11.058661
_cell_length_b 8.018293
_cell_length_c 17.429135
_cell_angle_alpha 85.481792
_cell_angle_beta 145.964130
_cell_angle_gamma 93.146189
_cell_volume 862.179378
_symmetry_space_group_name_H-M "P -1"
_symmetry_group_IT_number 2
_symmetry_cell_setting 'triclinic'
loop_
_space_group_symop_operation_xyz
x,y,z
-x,-y,-z
loop_
_atom_site_type_symbol
_atom_site_label
_atom_site_fract_x
_atom_site_fract_y
_atom_site_fract_z
Si Si1 0.557480 0.916420 0.615871
Si Si2 0.504281 0.407882 0.088485
Si Si3 0.691027 0.860447 0.099941
Si Si4 0.965678 0.125558 0.177243
Si Si5 0.997143 0.346440 0.336351
Si Si6 0.602268 0.786172 0.371000
Si Si7 0.601334 0.456248 0.471781
Si Si8 0.534029 0.266350 0.869912
O O1 0.455843 0.731972 0.573945
O O2 0.815408 0.890079 0.753565
O O3 0.500000 0.000000 0.500000
O O4 0.484407 0.050941 0.635960
O O5 0.753857 0.363026 0.236246
O O6 0.422931 0.536012 0.105108
O O7 0.500000 0.500000 0.000000
O O8 0.361912 0.249724 0.998618
O O9 0.652773 0.766157 0.163333
O O10 0.911857 0.954178 0.199656
O O11 0.500000 0.000000 0.000000
O O12 0.989857 0.262714 0.251743
O O13 0.755643 0.173443 0.014974
O O14 0.143513 0.233511 0.474198
O O15 0.139289 0.513077 0.395043
O O16 0.516484 0.610063 0.367662
O O17 0.545851 0.787872 0.252482
O O18 0.500000 0.500000 0.500000
#
# Coordination Sequence:
#
# PCOD9078319 Si02
#       8
#     2   2   2   2   2   2   2   2
#     4  12  21  39  68  88 118 164 205 250 301 355
#     4  10  18  35  61  85 113 162 195 239 302 354
#     4   9  18  35  61  88 117 154 204 241 291 363
#     4  11  20  38  64  89 119 158 208 245 289 373
#     4  10  19  37  61  85 120 154 203 245 295 361
#     4  10  24  42  60  92 128 154 201 260 304 349
#     4  10  20  39  63  89 120 155 210 249 288 368
#     4  10  22  41  58  89 130 152 197 260 300 358
#
# _framework density 18.557621999999999
#
# number of rings (size 3 to 8) (size 9 to 14) (size 15 to 20)
#    0.750    1.000    7.500    0.000    0.000    3.000 
#    6.750    1.250    0.000    0.000    0.000    0.000 
#    0.000    0.000    0.000    0.000    0.000    0.000 
#
# Total GULP energy -89081.383397 kJ/mol
# GULP energy per Si atom -5567.586462 kJ/mol
# Density = 1.851538 g / cm^3
# Si number density = 18.557622 Si / 1000 Ang^3
#
#
#
# Elastic Constant Matrix: (Units=GPa)
#
#
# Indices 1 2 3 4 5 6 
#
# 1 58.4287 41.0375 47.9963 12.3226 -9.4295 -7.7844
# 2 41.0375 128.1539 29.3150 23.8214 -3.4695 -5.4850
# 3 47.9963 29.3150 107.6318 -0.4447 -10.9038 -4.9152
# 4 12.3226 23.8214 -0.4447 27.8206 -1.9658 6.8361
# 5 -9.4295 -3.4695 -10.9038 -1.9658 34.2870 12.5649
# 6 -7.7844 -5.4850 -4.9152 6.8361 12.5649 28.2559
#
#
#
# Elastic Compliance Matrix: (Units=1/GPa)
#
#
# Indices 1 2 3 4 5 6 
#
# 1 0.037705 -0.005509 -0.014858 -0.014643 0.000575 0.010020
# 2 -0.005509 0.011395 -0.000760 -0.008404 -0.002433 0.003677
# 3 -0.014858 -0.000760 0.016272 0.008983 0.003393 -0.005092
# 4 -0.014643 -0.008404 0.008983 0.055729 0.009102 -0.021633
# 5 0.000575 -0.002433 0.003393 0.009102 0.037494 -0.018599
# 6 0.010020 0.003677 -0.005092 -0.021633 -0.018599 0.051484
#
#
# Mechanical properties :
#
#
# Convention : Reuss Voigt Hill
#
# Bulk Modulus (GPa) = 43.25729 58.99025 51.12377
# Shear Modulus (GPa) = 19.22781 29.79708 24.51244
#
# Velocity S-wave (km/s) = 3.22236 4.01141 3.63834
# Velocity P-wave (km/s) = 6.09960 7.30149 6.72744
#
# Compressibility (1/GPa) = 0.02311749
#
# Stress axis : x y z
#
# Youngs Moduli (GPa) = 26.52144 87.75897 61.45539
#
# Poissons Ratio (x) = 0.48346 0.91311
# Poissons Ratio (y) = 0.14611 0.04672
# Poissons Ratio (z) = 0.39406 0.06672
#
# Static dielectric constant tensor:
#      x y z
#    x 1.638540 0.022430 0.022020 
#    y 0.022430 1.732420 -0.011470 
#    z 0.022020 -0.011470 1.650680 
# 
# From -- ./inp_files/565982.got.cif
#   From: 2010.05.17/outbox.cif.g08.bks.cpg/sg2_283_cif.got.tgz:565982.got - 2010.06.03 11:33:40.
