data_PCOD9078985
_publ_section_title
;
Structure prediction by ZEFSAII (Michael W. Deem and Ramdas Pophale) SiO2 
 PCOD9078985
Probable space group: P -1
;
_chemical_formula_sum "Si O2"
_cell_formula_units_Z 16
_cell_length_a 11.745129
_cell_length_b 12.015633
_cell_length_c 8.529313
_cell_angle_alpha 145.034360
_cell_angle_beta 86.631087
_cell_angle_gamma 82.314736
_cell_volume 652.899533
_symmetry_space_group_name_H-M "P -1"
_symmetry_group_IT_number 2
_symmetry_cell_setting 'triclinic'
loop_
_space_group_symop_operation_xyz
x,y,z
-x,-y,-z
loop_
_atom_site_type_symbol
_atom_site_label
_atom_site_fract_x
_atom_site_fract_y
_atom_site_fract_z
Si Si1 0.518096 0.433649 0.604515
Si Si2 0.256594 0.418000 0.208035
Si Si3 0.076657 0.872825 0.485257
Si Si4 0.623296 0.169621 0.777285
Si Si5 0.179765 0.086717 0.323862
Si Si6 0.426874 0.990783 0.740682
Si Si7 0.854420 0.553603 0.081509
Si Si8 0.135369 0.868999 0.796697
O O1 0.500000 0.500000 0.500000
O O2 0.637041 0.482812 0.711742
O O3 0.533311 0.196134 0.356323
O O4 0.415289 0.591668 0.899414
O O5 0.159901 0.623004 0.525684
O O6 0.202720 0.363274 0.986607
O O7 0.320068 0.201001 0.036302
O O8 0.963975 0.845808 0.562466
O O9 0.150619 0.929446 0.685120
O O10 0.000000 0.000000 0.500000
O O11 0.161365 0.665905 0.166213
O O12 0.603885 0.113360 0.536076
O O13 0.754386 0.049775 0.693632
O O14 0.536158 0.074336 0.777753
O O15 0.202351 0.301222 0.601544
O O16 0.212239 0.950863 0.009546
O O17 0.000000 0.500000 0.000000
O O18 0.000000 0.000000 0.000000
#
# Coordination Sequence:
#
# PCOD9078985 Si02
#       8
#     2   2   2   2   2   2   2   2
#     4  11  24  41  64  92 131 170 212 268 331 388
#     4  10  20  39  65  91 122 171 212 258 325 385
#     4   9  19  35  57  87 122 163 213 256 309 386
#     4  10  21  38  62  94 126 162 215 266 319 379
#     4  10  18  36  61  85 121 162 203 261 322 370
#     4  10  22  41  64  92 127 164 218 268 316 390
#     4   9  18  35  59  84 120 160 202 256 308 379
#     4   9  19  36  62  86 122 162 202 261 319 366
#
# _framework density 24.506067000000002
#
# number of rings (size 3 to 8) (size 9 to 14) (size 15 to 20)
#    0.000    2.250    1.250    1.875    0.000    4.000 
#    2.250    0.625    8.250    0.000    0.000    0.000 
#    0.000    0.000    0.000    0.000    0.000    0.000 
#
# Total GULP energy -89180.117541 kJ/mol
# GULP energy per Si atom -5573.757346 kJ/mol
# Density = 2.445029 g / cm^3
# Si number density = 24.506067 Si / 1000 Ang^3
#
#
#
# Elastic Constant Matrix: (Units=GPa)
#
#
# Indices 1 2 3 4 5 6 
#
# 1 72.5913 10.0663 12.3419 2.6329 -7.9271 -6.6691
# 2 10.0663 130.9513 72.2394 15.5457 18.7098 -12.0689
# 3 12.3419 72.2394 207.5043 10.8423 8.3029 -10.2801
# 4 2.6329 15.5457 10.8423 46.5422 -21.5093 7.5740
# 5 -7.9271 18.7098 8.3029 -21.5093 36.1991 -2.6111
# 6 -6.6691 -12.0689 -10.2801 7.5740 -2.6111 32.5781
#
#
#
# Elastic Compliance Matrix: (Units=1/GPa)
#
#
# Indices 1 2 3 4 5 6 
#
# 1 0.014846 -0.001716 -0.000514 0.002116 0.005672 0.002204
# 2 -0.001716 0.012700 -0.003131 -0.009502 -0.011532 0.004650
# 3 -0.000514 -0.003131 0.006007 -0.000497 -0.000114 0.000737
# 4 0.002116 -0.009502 -0.000497 0.039292 0.028105 -0.010126
# 5 0.005672 -0.011532 -0.000114 0.028105 0.051151 -0.005582
# 6 0.002204 0.004650 0.000737 -0.010126 -0.005582 0.035009
#
#
# Mechanical properties :
#
#
# Convention : Reuss Voigt Hill
#
# Bulk Modulus (GPa) = 43.80044 66.70468 55.25256
# Shear Modulus (GPa) = 28.19482 44.15716 36.17599
#
# Velocity S-wave (km/s) = 3.39562 4.24947 3.84631
# Velocity P-wave (km/s) = 5.76938 7.16631 6.50545
#
# Compressibility (1/GPa) = 0.02283082
#
# Stress axis : x y z
#
# Youngs Moduli (GPa) = 67.35697 78.74190 166.47905
#
# Poissons Ratio (x) = 0.13514 0.08555
# Poissons Ratio (y) = 0.11560 0.52122
# Poissons Ratio (z) = 0.03461 0.24653
#
# Static dielectric constant tensor:
#      x y z
#    x 1.685460 0.611580 -0.167540 
#    y 0.611580 1.130600 0.258270 
#    z -0.167540 0.258270 1.969020 
# 
# From -- ./inp_files/308788.got.cif
#   From: 2010.05.17/outbox.cif.g08.bks.cpg/sg2_155_cif.got.tgz:308788.got - 2010.06.03 11:33:40.
