data_PCOD9078317
_publ_section_title
;
Structure prediction by ZEFSAII (Michael W. Deem and Ramdas Pophale) SiO2 
 PCOD9078317
Probable space group: P -1
;
_chemical_formula_sum "Si O2"
_cell_formula_units_Z 14
_cell_length_a 13.631120
_cell_length_b 16.879437
_cell_length_c 11.426604
_cell_angle_alpha 136.218592
_cell_angle_beta 149.783011
_cell_angle_gamma 24.629272
_cell_volume 525.520470
_symmetry_space_group_name_H-M "P -1"
_symmetry_group_IT_number 2
_symmetry_cell_setting 'triclinic'
loop_
_space_group_symop_operation_xyz
x,y,z
-x,-y,-z
loop_
_atom_site_type_symbol
_atom_site_label
_atom_site_fract_x
_atom_site_fract_y
_atom_site_fract_z
Si Si1 0.400623 0.946983 0.059838
Si Si2 0.168455 0.303891 0.132871
Si Si3 0.896263 0.353821 0.678265
Si Si4 0.211705 0.943452 0.264772
Si Si5 0.313501 0.457976 0.564089
Si Si6 0.952318 0.953401 0.545010
Si Si7 0.780527 0.713410 0.443860
O O1 0.166511 0.964732 0.776795
O O2 0.738616 0.802714 0.176128
O O3 0.522558 0.843624 0.203539
O O4 0.210024 0.161432 0.086442
O O5 0.095247 0.446998 0.292724
O O6 0.549695 0.150808 0.316171
O O7 0.914766 0.414931 0.881536
O O8 0.883512 0.225573 0.551962
O O9 0.636884 0.505955 0.469610
O O10 0.355058 0.756706 0.269879
O O11 0.523977 0.864194 0.446029
O O12 0.041982 0.085311 0.351594
O O13 0.000000 0.000000 0.000000
O O14 0.099085 0.627117 0.622322
O O15 0.000000 0.500000 0.500000
#
# Coordination Sequence:
#
# PCOD9078317 Si02
#       7
#     2   2   2   2   2   2   2
#     4  10  19  35  60  85 120 150 196 243 286 347
#     4  10  21  37  60  86 116 158 198 236 292 349
#     4  10  21  38  58  86 119 156 193 243 296 340
#     4  10  18  35  61  84 116 153 192 244 290 348
#     4   9  20  38  59  83 123 153 194 239 291 354
#     4  10  20  35  60  88 119 147 199 242 286 353
#     4   9  18  35  59  83 118 153 190 238 293 342
#
# _framework density 26.640256000000001
#
# number of rings (size 3 to 8) (size 9 to 14) (size 15 to 20)
#    0.000    2.286    1.429    2.143    0.000    2.286 
#    0.000   25.714    6.286    8.571    0.000    0.000 
#    0.000    0.000    0.000    0.000    0.000    0.000 
#
# Total GULP energy -78132.813782 kJ/mol
# GULP energy per Si atom -5580.915270 kJ/mol
# Density = 2.657962 g / cm^3
# Si number density = 26.640256 Si / 1000 Ang^3
#
#
#
# Elastic Constant Matrix: (Units=GPa)
#
#
# Indices 1 2 3 4 5 6 
#
# 1 123.9477 25.6759 39.5209 -6.3121 -19.2537 12.3980
# 2 25.6759 72.5717 25.2821 -3.3866 2.0515 26.2043
# 3 39.5209 25.2821 114.5358 -6.3949 -14.0500 7.9489
# 4 -6.3121 -3.3866 -6.3949 36.3139 12.2227 -10.6885
# 5 -19.2537 2.0515 -14.0500 12.2227 54.3440 -1.9891
# 6 12.3980 26.2043 7.9489 -10.6885 -1.9891 35.6037
#
#
#
# Elastic Compliance Matrix: (Units=1/GPa)
#
#
# Indices 1 2 3 4 5 6 
#
# 1 0.009899 -0.002348 -0.002472 -0.000251 0.002974 -0.001076
# 2 -0.002348 0.021058 -0.003248 -0.002573 -0.002432 -0.014864
# 3 -0.002472 -0.003248 0.010483 0.000881 0.001806 0.001277
# 4 -0.000251 -0.002573 0.000881 0.033022 -0.006777 0.011319
# 5 0.002974 -0.002432 0.001806 -0.006777 0.021520 -0.000481
# 6 -0.001076 -0.014864 0.001277 0.011319 -0.000481 0.042487
#
#
# Mechanical properties :
#
#
# Convention : Reuss Voigt Hill
#
# Bulk Modulus (GPa) = 39.52161 54.66811 47.09486
# Shear Modulus (GPa) = 30.66715 39.95742 35.31228
#
# Velocity S-wave (km/s) = 3.39655 3.87704 3.64472
# Velocity P-wave (km/s) = 5.49996 6.37239 5.95218
#
# Compressibility (1/GPa) = 0.02530261
#
# Stress axis : x y z
#
# Youngs Moduli (GPa) = 101.01616 47.48868 95.39286
#
# Poissons Ratio (x) = 0.11153 0.23581
# Poissons Ratio (y) = 0.23723 0.30986
# Poissons Ratio (z) = 0.24971 0.15426
#
# Static dielectric constant tensor:
#      x y z
#    x 2.130710 0.013820 -0.000340 
#    y 0.013820 2.159130 -0.030110 
#    z -0.000340 -0.030110 2.058660 
# 
# From -- ./inp_files/213690.got.cif
#   From: 2010.05.17/outbox.cif.g08.bks.cpg/sg2_107_cif.got.tgz:213690.got - 2010.06.03 11:33:40.
