data_PCOD9078774
_publ_section_title
;
Structure prediction by ZEFSAII (Michael W. Deem and Ramdas Pophale) SiO2 
 PCOD9078774
Probable space group: P -1
;
_chemical_formula_sum "Si O2"
_cell_formula_units_Z 16
_cell_length_a 15.664717
_cell_length_b 7.430846
_cell_length_c 10.772413
_cell_angle_alpha 125.604728
_cell_angle_beta 57.163274
_cell_angle_gamma 82.733805
_cell_volume 652.971237
_symmetry_space_group_name_H-M "P -1"
_symmetry_group_IT_number 2
_symmetry_cell_setting 'triclinic'
loop_
_space_group_symop_operation_xyz
x,y,z
-x,-y,-z
loop_
_atom_site_type_symbol
_atom_site_label
_atom_site_fract_x
_atom_site_fract_y
_atom_site_fract_z
Si Si1 0.548577 0.487228 0.819555
Si Si2 0.744703 0.546960 0.417129
Si Si3 0.105579 0.892875 0.483527
Si Si4 0.260996 0.938471 0.690637
Si Si5 0.686523 0.425198 0.010328
Si Si6 0.710912 0.699128 0.770016
Si Si7 0.563881 0.053094 0.257758
Si Si8 0.885047 0.426691 0.010602
O O1 0.596462 0.669686 0.842363
O O2 0.671707 0.174785 0.543548
O O3 0.500000 0.500000 0.000000
O O4 0.423608 0.596431 0.877867
O O5 0.738130 0.712608 0.610663
O O6 0.846502 0.486420 0.208683
O O7 0.593530 0.733865 0.558906
O O8 0.785572 0.241171 0.307084
O O9 0.233515 0.775667 0.253564
O O10 0.156644 0.603506 0.399489
O O11 0.000000 0.000000 0.500000
O O12 0.033518 0.153210 0.742827
O O13 0.379335 0.842927 0.652788
O O14 0.157792 0.285695 0.907422
O O15 0.604845 0.760138 0.169822
O O16 0.790366 0.363480 0.005322
O O17 0.653980 0.935677 0.015822
#
# Coordination Sequence:
#
# PCOD9078774 Si02
#       8
#     2   2   2   2   2   2   2   2
#     4  11  18  33  56  86 123 146 180 249 304 336
#     4  11  22  36  57  88 126 153 192 248 303 346
#     4   9  18  36  61  85 113 160 206 241 287 349
#     4  10  23  37  59  90 122 155 200 246 285 358
#     4   9  18  34  62  91 117 156 202 245 290 358
#     4  10  22  36  59  90 121 155 197 249 297 353
#     4  10  18  36  58  83 120 159 193 238 302 354
#     4  10  21  38  63  86 116 166 205 231 293 354
#
# _framework density 24.503375999999999
#
# number of rings (size 3 to 8) (size 9 to 14) (size 15 to 20)
#    0.000    2.000    2.500    3.000    0.000    3.500 
#    0.000    2.500    0.000   27.750    0.000    0.000 
#    0.000    0.000    0.000    0.000    0.000    0.000 
#
# Total GULP energy -89487.600058 kJ/mol
# GULP energy per Si atom -5592.975004 kJ/mol
# Density = 2.444760 g / cm^3
# Si number density = 24.503376 Si / 1000 Ang^3
#
#
#
# Elastic Constant Matrix: (Units=GPa)
#
#
# Indices 1 2 3 4 5 6 
#
# 1 86.3448 14.1351 16.8614 -6.2018 3.9280 -13.9362
# 2 14.1351 83.6914 35.6045 1.8294 -0.7335 -9.5335
# 3 16.8614 35.6045 155.5003 -14.8806 2.4780 -11.3843
# 4 -6.2018 1.8294 -14.8806 33.4747 -16.7165 9.8555
# 5 3.9280 -0.7335 2.4780 -16.7165 41.8133 -1.2234
# 6 -13.9362 -9.5335 -11.3843 9.8555 -1.2234 12.2624
#
#
#
# Elastic Compliance Matrix: (Units=1/GPa)
#
#
# Indices 1 2 3 4 5 6 
#
# 1 0.014634 0.000086 -0.000571 -0.004634 -0.002618 0.019631
# 2 0.000086 0.015087 -0.003070 -0.007655 -0.002185 0.014911
# 3 -0.000571 -0.003070 0.007614 0.003587 0.001019 0.001252
# 4 -0.004634 -0.007655 0.003587 0.056796 0.021291 -0.051412
# 5 -0.002618 -0.002185 0.001019 0.021291 0.032059 -0.017641
# 6 0.019631 0.014911 0.001252 -0.051412 -0.017641 0.156177
#
#
# Mechanical properties :
#
#
# Convention : Reuss Voigt Hill
#
# Bulk Modulus (GPa) = 33.08484 50.97095 42.02790
# Shear Modulus (GPa) = 16.69161 34.77244 25.73202
#
# Velocity S-wave (km/s) = 2.61281 3.77116 3.24411
# Velocity P-wave (km/s) = 4.75750 6.30944 5.58761
#
# Compressibility (1/GPa) = 0.03022532
#
# Stress axis : x y z
#
# Youngs Moduli (GPa) = 68.33556 66.28300 131.33110
#
# Poissons Ratio (x) = -0.00570 0.07499
# Poissons Ratio (y) = -0.00588 0.40315
# Poissons Ratio (z) = 0.03902 0.20347
#
# Static dielectric constant tensor:
#      x y z
#    x 2.006710 -0.034590 0.043440 
#    y -0.034590 1.961640 0.033530 
#    z 0.043440 0.033530 1.963790 
# 
# From -- ./inp_files/461626.got.cif
#   From: 2010.05.17/outbox.cif.g08.bks.cpg/sg2_231_cif.got.tgz:461626.got - 2010.06.03 11:33:40.
