data_PCOD9078569
_publ_section_title
;
Structure prediction by ZEFSAII (Michael W. Deem and Ramdas Pophale) SiO2 
 PCOD9078569
Probable space group: P -1
;
_chemical_formula_sum "Si O2"
_cell_formula_units_Z 16
_cell_length_a 8.751961
_cell_length_b 13.926904
_cell_length_c 10.183854
_cell_angle_alpha 130.261649
_cell_angle_beta 57.365530
_cell_angle_gamma 92.553162
_cell_volume 702.802452
_symmetry_space_group_name_H-M "P -1"
_symmetry_group_IT_number 2
_symmetry_cell_setting 'triclinic'
loop_
_space_group_symop_operation_xyz
x,y,z
-x,-y,-z
loop_
_atom_site_type_symbol
_atom_site_label
_atom_site_fract_x
_atom_site_fract_y
_atom_site_fract_z
Si Si1 0.098244 0.459293 0.704674
Si Si2 0.266721 0.617316 0.184903
Si Si3 0.351931 0.380535 0.272155
Si Si4 0.175052 0.695875 0.568111
Si Si5 0.026002 0.854688 0.303238
Si Si6 0.342242 0.155475 0.391235
Si Si7 0.299173 0.127273 0.072003
Si Si8 0.236264 0.698008 0.835285
O O1 0.155548 0.420092 0.491677
O O2 0.276523 0.322751 0.576235
O O3 0.129362 0.597474 0.826968
O O4 0.885671 0.454895 0.823645
O O5 0.207688 0.728765 0.433049
O O6 0.210361 0.716835 0.169508
O O7 0.500000 0.500000 0.000000
O O8 0.273232 0.523536 0.353065
O O9 0.403923 0.224121 0.060310
O O10 0.538350 0.366287 0.263301
O O11 0.263198 0.712108 0.680641
O O12 0.934195 0.788422 0.789175
O O13 0.814327 0.856068 0.444360
O O14 0.000000 0.000000 0.500000
O O15 0.089114 0.839699 0.108600
O O16 0.298965 0.127542 0.233219
O O17 0.574167 0.030753 0.185278
#
# Coordination Sequence:
#
# PCOD9078569 Si02
#       8
#     2   2   2   2   2   2   2   2
#     4   9  19  38  61  91 128 159 218 250 318 380
#     4  11  23  40  67  97 129 172 215 270 316 379
#     4  10  19  35  61  96 128 164 206 258 320 385
#     4  11  20  38  62  97 129 156 225 267 310 371
#     4  11  23  45  63  89 129 175 217 257 332 406
#     4   9  19  35  61  87 121 169 213 253 314 383
#     4  10  18  35  65  92 120 170 216 257 313 384
#     4  11  24  38  67  96 130 169 206 272 327 378
#
# _framework density 22.766000999999999
#
# number of rings (size 3 to 8) (size 9 to 14) (size 15 to 20)
#    0.000    1.750    3.750    3.375    1.750    2.000 
#    0.000    2.500    5.500    0.000    0.000    0.000 
#    0.000    0.000    0.000    0.000    0.000    0.000 
#
# Total GULP energy -89156.919452 kJ/mol
# GULP energy per Si atom -5572.307466 kJ/mol
# Density = 2.271418 g / cm^3
# Si number density = 22.766001 Si / 1000 Ang^3
#
#
#
# Elastic Constant Matrix: (Units=GPa)
#
#
# Indices 1 2 3 4 5 6 
#
# 1 93.5409 8.7999 39.4534 3.1795 -26.1901 -4.6374
# 2 8.7999 29.2134 3.3735 -14.3148 -1.7307 1.6909
# 3 39.4534 3.3735 93.1659 1.7503 -7.9425 -1.6778
# 4 3.1795 -14.3148 1.7503 33.9242 -3.3048 0.5339
# 5 -26.1901 -1.7307 -7.9425 -3.3048 40.3024 2.0043
# 6 -4.6374 1.6909 -1.6778 0.5339 2.0043 26.7702
#
#
#
# Elastic Compliance Matrix: (Units=1/GPa)
#
#
# Indices 1 2 3 4 5 6 
#
# 1 0.016346 -0.005084 -0.005890 -0.002538 0.008928 0.002166
# 2 -0.005084 0.045780 0.000090 0.019906 0.000521 -0.004203
# 3 -0.005890 0.000090 0.013120 -0.000207 -0.001250 -0.000106
# 4 -0.002538 0.019906 -0.000207 0.038406 0.002447 -0.002659
# 5 0.008928 0.000521 -0.001250 0.002447 0.030636 -0.000907
# 6 0.002166 -0.004203 -0.000106 -0.002659 -0.000907 0.038110
#
#
# Mechanical properties :
#
#
# Convention : Reuss Voigt Hill
#
# Bulk Modulus (GPa) = 18.69912 35.46377 27.08144
# Shear Modulus (GPa) = 22.52320 31.15225 26.83772
#
# Velocity S-wave (km/s) = 3.14878 3.70316 3.43716
# Velocity P-wave (km/s) = 4.63155 5.82201 5.26056
#
# Compressibility (1/GPa) = 0.05347844
#
# Stress axis : x y z
#
# Youngs Moduli (GPa) = 61.17538 21.84341 76.21858
#
# Poissons Ratio (x) = 0.11105 0.44896
# Poissons Ratio (y) = 0.31100 -0.00685
# Poissons Ratio (z) = 0.36035 -0.00196
#
# Static dielectric constant tensor:
#      x y z
#    x 1.855270 0.019500 0.009230 
#    y 0.019500 1.974790 0.010700 
#    z 0.009230 0.010700 1.909130 
# 
# From -- ./inp_files/396321.got.cif
#   From: 2010.05.17/outbox.cif.g08.bks.cpg/sg2_199_cif.got.tgz:396321.got - 2010.06.03 11:33:40.
