data_PCOD9078256
_publ_section_title
;
Structure prediction by ZEFSAII (Michael W. Deem and Ramdas Pophale) SiO2 
 PCOD9078256
Probable space group: P -1
;
_chemical_formula_sum "Si O2"
_cell_formula_units_Z 16
_cell_length_a 20.954906
_cell_length_b 7.570056
_cell_length_c 9.396049
_cell_angle_alpha 106.161237
_cell_angle_beta 86.965205
_cell_angle_gamma 144.541681
_cell_volume 789.057736
_symmetry_space_group_name_H-M "P -1"
_symmetry_group_IT_number 2
_symmetry_cell_setting 'triclinic'
loop_
_space_group_symop_operation_xyz
x,y,z
-x,-y,-z
loop_
_atom_site_type_symbol
_atom_site_label
_atom_site_fract_x
_atom_site_fract_y
_atom_site_fract_z
Si Si1 0.421659 0.928054 0.099472
Si Si2 0.995007 0.774662 0.061557
Si Si3 0.160439 0.281385 0.909497
Si Si4 0.850932 0.942280 0.641198
Si Si5 0.396464 0.666184 0.344391
Si Si6 0.165637 0.681985 0.293534
Si Si7 0.971091 0.217196 0.412623
Si Si8 0.579586 0.707051 0.675976
O O1 0.409019 0.779734 0.211872
O O2 0.465361 0.238608 0.203310
O O3 0.294379 0.638868 0.981932
O O4 0.500000 0.000000 0.000000
O O5 0.913465 0.724384 0.139923
O O6 0.057768 0.813034 0.185755
O O7 0.909868 0.503789 0.884719
O O8 0.103141 0.114735 0.034477
O O9 0.125279 0.030392 0.755289
O O10 0.728829 0.575253 0.631036
O O11 0.816542 0.061507 0.616111
O O12 0.917058 0.007176 0.516214
O O13 0.405794 0.464044 0.299961
O O14 0.500000 0.000000 0.500000
O O15 0.087195 0.412511 0.369103
O O16 0.292979 0.914101 0.301356
O O17 0.000000 0.500000 0.500000
O O18 0.500000 0.500000 0.500000
#
# Coordination Sequence:
#
# PCOD9078256 Si02
#       8
#     2   2   2   2   2   2   2   2
#     4  12  26  44  69  96 135 179 229 287 337 385
#     4  10  18  35  60  86 121 162 207 259 318 391
#     4  10  21  37  59  88 125 163 210 264 332 386
#     4  10  20  35  62  92 126 163 217 260 330 392
#     4  11  24  43  68  97 133 181 229 275 331 412
#     4   9  19  36  61  90 128 164 211 262 324 396
#     4   9  20  36  56  89 127 161 203 264 326 386
#     4  11  23  44  72  98 130 182 231 271 338 405
#
# _framework density 20.277349999999998
#
# number of rings (size 3 to 8) (size 9 to 14) (size 15 to 20)
#    0.000    1.750    3.750    0.375    1.750    2.000 
#    0.000    1.250    0.000    0.000    0.000    0.000 
#    0.000    0.000    0.000    0.000    0.000    0.000 
#
# Total GULP energy -89139.098388 kJ/mol
# GULP energy per Si atom -5571.193649 kJ/mol
# Density = 2.023120 g / cm^3
# Si number density = 20.277350 Si / 1000 Ang^3
#
#
#
# Elastic Constant Matrix: (Units=GPa)
#
#
# Indices 1 2 3 4 5 6 
#
# 1 88.1576 36.8360 36.5003 -2.9046 -12.3024 3.4162
# 2 36.8360 107.8708 57.5639 -4.4054 -5.2357 19.5656
# 3 36.5003 57.5639 104.6493 2.3040 -14.3088 13.1987
# 4 -2.9046 -4.4054 2.3040 41.2037 -3.0786 -0.5114
# 5 -12.3024 -5.2357 -14.3088 -3.0786 31.5740 0.1709
# 6 3.4162 19.5656 13.1987 -0.5114 0.1709 35.1648
#
#
#
# Elastic Compliance Matrix: (Units=1/GPa)
#
#
# Indices 1 2 3 4 5 6 
#
# 1 0.014491 -0.003496 -0.002826 0.001116 0.003886 0.001595
# 2 -0.003496 0.014947 -0.006576 0.001526 -0.001685 -0.005479
# 3 -0.002826 -0.006576 0.015024 -0.001429 0.004487 -0.001748
# 4 0.001116 0.001526 -0.001429 0.024774 0.002456 -0.000073
# 5 0.003886 -0.001685 0.004487 0.002456 0.035186 -0.001259
# 6 0.001595 -0.005479 -0.001748 -0.000073 -0.001259 0.031992
#
#
# Mechanical properties :
#
#
# Convention : Reuss Voigt Hill
#
# Bulk Modulus (GPa) = 53.56788 62.49756 58.03272
# Shear Modulus (GPa) = 29.68552 32.90700 31.29626
#
# Velocity S-wave (km/s) = 3.83034 4.03283 3.93289
# Velocity P-wave (km/s) = 6.78506 7.25074 7.02176
#
# Compressibility (1/GPa) = 0.01866790
#
# Stress axis : x y z
#
# Youngs Moduli (GPa) = 69.00720 66.90151 66.56016
#
# Poissons Ratio (x) = 0.23386 0.18809
# Poissons Ratio (y) = 0.24122 0.43769
# Poissons Ratio (z) = 0.19501 0.43993
#
# Static dielectric constant tensor:
#      x y z
#    x 1.786850 -0.019150 -0.046990 
#    y -0.019150 1.749120 -0.005760 
#    z -0.046990 -0.005760 1.737440 
# 
# From -- ./inp_files/245099.got.cif
#   From: 2010.05.17/outbox.cif.g08.bks.cpg/sg2_123_cif.got.tgz:245099.got - 2010.06.03 11:33:40.
