data_PCOD9078540
_publ_section_title
;
Structure prediction by ZEFSAII (Michael W. Deem and Ramdas Pophale) SiO2 
 PCOD9078540
Probable space group: P -1
;
_chemical_formula_sum "Si O2"
_cell_formula_units_Z 16
_cell_length_a 9.135102
_cell_length_b 13.403896
_cell_length_c 8.848977
_cell_angle_alpha 115.021040
_cell_angle_beta 71.389236
_cell_angle_gamma 130.408356
_cell_volume 746.023323
_symmetry_space_group_name_H-M "P -1"
_symmetry_group_IT_number 2
_symmetry_cell_setting 'triclinic'
loop_
_space_group_symop_operation_xyz
x,y,z
-x,-y,-z
loop_
_atom_site_type_symbol
_atom_site_label
_atom_site_fract_x
_atom_site_fract_y
_atom_site_fract_z
Si Si1 0.776735 0.372188 0.093426
Si Si2 0.145538 0.075112 0.770307
Si Si3 0.480058 0.863761 0.448011
Si Si4 0.817618 0.821326 0.847417
Si Si5 0.576666 0.816802 0.707410
Si Si6 0.105587 0.674132 0.265270
Si Si7 0.182704 0.250221 0.607399
Si Si8 0.529101 0.468014 0.136887
O O1 0.634834 0.289817 0.225242
O O2 0.666291 0.419424 0.063801
O O3 0.968708 0.508623 0.186598
O O4 0.810075 0.287305 0.910205
O O5 0.362764 0.133629 0.701301
O O6 0.086638 0.122363 0.674196
O O7 0.135584 0.141446 0.968061
O O8 0.015343 0.912886 0.746446
O O9 0.544046 0.875106 0.608038
O O10 0.270695 0.736354 0.376764
O O11 0.500000 0.000000 0.500000
O O12 0.703391 0.882116 0.860642
O O13 0.668606 0.655682 0.796690
O O14 0.699446 0.766142 0.568098
O O15 0.973079 0.724413 0.369870
O O16 0.352919 0.388990 0.723355
O O17 0.500000 0.500000 0.000000
#
# Coordination Sequence:
#
# PCOD9078540 Si02
#       8
#     2   2   2   2   2   2   2   2
#     4   9  21  42  64  92 120 164 205 264 310 364
#     4  10  22  42  62  90 120 168 208 249 309 370
#     4  11  25  41  58  88 129 173 197 248 317 378
#     4  10  21  38  65  90 122 154 211 261 294 367
#     4  10  23  41  64  90 125 160 206 258 311 361
#     4  10  22  41  65  89 129 162 210 251 317 371
#     4  10  22  38  67  95 119 163 207 258 313 364
#     4  10  18  35  64  94 119 156 204 256 304 366
#
# _framework density 21.447049
#
# number of rings (size 3 to 8) (size 9 to 14) (size 15 to 20)
#    0.000    2.000    1.250    1.500    5.250    6.000 
#    4.500    1.250    0.000    0.000    0.000    0.000 
#    0.000    0.000    0.000    0.000    0.000    0.000 
#
# Total GULP energy -89160.772238 kJ/mol
# GULP energy per Si atom -5572.548265 kJ/mol
# Density = 2.139823 g / cm^3
# Si number density = 21.447049 Si / 1000 Ang^3
#
#
#
# Elastic Constant Matrix: (Units=GPa)
#
#
# Indices 1 2 3 4 5 6 
#
# 1 63.0361 21.3021 9.0073 -2.2238 11.9382 5.7020
# 2 21.3021 79.4921 25.6201 -23.4775 12.3293 6.7374
# 3 9.0073 25.6201 57.7457 -13.4604 4.8113 -5.7330
# 4 -2.2238 -23.4775 -13.4604 39.8202 2.2421 3.8092
# 5 11.9382 12.3293 4.8113 2.2421 37.8828 1.6692
# 6 5.7020 6.7374 -5.7330 3.8092 1.6692 29.6885
#
#
#
# Elastic Compliance Matrix: (Units=1/GPa)
#
#
# Indices 1 2 3 4 5 6 
#
# 1 0.018373 -0.004059 -0.001276 -0.001332 -0.004120 -0.002451
# 2 -0.004059 0.019886 -0.005977 0.010315 -0.004782 -0.005942
# 3 -0.001276 -0.005977 0.021519 0.003209 -0.000813 0.005391
# 4 -0.001332 0.010315 0.003209 0.033008 -0.005060 -0.005416
# 5 -0.004120 -0.004782 -0.000813 -0.005060 0.029624 0.000703
# 6 -0.002451 -0.005942 0.005391 -0.005416 0.000703 0.037199
#
#
# Mechanical properties :
#
#
# Convention : Reuss Voigt Hill
#
# Bulk Modulus (GPa) = 26.91398 34.68142 30.79770
# Shear Modulus (GPa) = 25.69174 31.10128 28.39651
#
# Velocity S-wave (km/s) = 3.46485 3.81221 3.64267
# Velocity P-wave (km/s) = 5.34632 5.96515 5.66419
#
# Compressibility (1/GPa) = 0.03715541
#
# Stress axis : x y z
#
# Youngs Moduli (GPa) = 54.42803 50.28747 46.47070
#
# Poissons Ratio (x) = 0.20411 0.05928
# Poissons Ratio (y) = 0.22092 0.27774
# Poissons Ratio (z) = 0.06943 0.30055
#
# Static dielectric constant tensor:
#      x y z
#    x 1.813360 0.026790 0.040050 
#    y 0.026790 1.843260 0.021950 
#    z 0.040050 0.021950 1.887040 
# 
# From -- ./inp_files/208204.got.cif
#   From: 2010.05.17/outbox.cif.g08.bks.cpg/sg2_105_cif.got.tgz:208204.got - 2010.06.03 11:33:40.
