data_PCOD9078525
_publ_section_title
;
Structure prediction by ZEFSAII (Michael W. Deem and Ramdas Pophale) SiO2 
 PCOD9078525
Probable space group: P -1
;
_chemical_formula_sum "Si O2"
_cell_formula_units_Z 16
_cell_length_a 13.268198
_cell_length_b 10.164942
_cell_length_c 15.335620
_cell_angle_alpha 142.382354
_cell_angle_beta 143.578471
_cell_angle_gamma 64.685098
_cell_volume 611.200454
_symmetry_space_group_name_H-M "P -1"
_symmetry_group_IT_number 2
_symmetry_cell_setting 'triclinic'
loop_
_space_group_symop_operation_xyz
x,y,z
-x,-y,-z
loop_
_atom_site_type_symbol
_atom_site_label
_atom_site_fract_x
_atom_site_fract_y
_atom_site_fract_z
Si Si1 0.933653 0.120623 0.760120
Si Si2 0.286128 0.427104 0.934652
Si Si3 0.182661 0.874662 0.785757
Si Si4 0.791535 0.071353 0.444551
Si Si5 0.320157 0.134122 0.263500
Si Si6 0.316983 0.693600 0.265107
Si Si7 0.868362 0.397924 0.217317
Si Si8 0.433425 0.674634 0.643401
O O1 0.794962 0.028196 0.527550
O O2 0.802386 0.167264 0.761541
O O3 0.015979 0.938043 0.731285
O O4 0.143304 0.412652 0.041560
O O5 0.294165 0.563455 0.922018
O O6 0.037716 0.250586 0.689614
O O7 0.327288 0.207413 0.833912
O O8 0.385208 0.623737 0.187696
O O9 0.200313 0.718486 0.794704
O O10 0.084468 0.680994 0.533266
O O11 0.409772 0.145787 0.075262
O O12 0.703161 0.234650 0.442039
O O13 0.496543 0.156778 0.458338
O O14 0.304876 0.364753 0.409966
O O15 0.403292 0.237847 0.277350
O O16 0.139539 0.826415 0.962798
#
# Coordination Sequence:
#
# PCOD9078525 Si02
#       8
#     2   2   2   2   2   2   2   2
#     4  10  18  35  64  89 116 150 213 243 293 350
#     4  10  22  38  58  88 129 158 196 243 314 360
#     4  10  20  39  63  89 117 161 201 256 294 356
#     4  10  20  38  64  89 116 162 204 255 287 356
#     4  10  20  36  60  93 123 154 199 257 297 352
#     4  10  20  34  61  92 118 156 197 255 295 348
#     4  10  22  38  59  85 128 165 189 242 321 359
#     4  10  20  36  64  93 116 149 216 253 291 344
#
# _framework density 26.177992
#
# number of rings (size 3 to 8) (size 9 to 14) (size 15 to 20)
#    0.000    2.000    3.750    0.000    0.000    0.500 
#    0.000   11.875    0.000    0.000    0.000    0.000 
#    0.000    0.000    0.000    0.000    0.000    0.000 
#
# Total GULP energy -89498.603223 kJ/mol
# GULP energy per Si atom -5593.662701 kJ/mol
# Density = 2.611841 g / cm^3
# Si number density = 26.177992 Si / 1000 Ang^3
#
#
#
# Elastic Constant Matrix: (Units=GPa)
#
#
# Indices 1 2 3 4 5 6 
#
# 1 38.6463 9.6318 27.7350 -2.4080 -3.0953 -0.4534
# 2 9.6318 132.1178 32.9194 13.9243 -3.5540 -18.7493
# 3 27.7350 32.9194 189.2996 14.5204 -16.9308 -10.9604
# 4 -2.4080 13.9243 14.5204 44.7028 4.5527 -8.8915
# 5 -3.0953 -3.5540 -16.9308 4.5527 26.0630 -6.4549
# 6 -0.4534 -18.7493 -10.9604 -8.8915 -6.4549 26.7451
#
#
#
# Elastic Compliance Matrix: (Units=1/GPa)
#
#
# Indices 1 2 3 4 5 6 
#
# 1 0.029616 -0.001626 -0.004444 0.003304 -0.000538 -0.001490
# 2 -0.001626 0.008939 -0.000622 -0.001723 0.002407 0.005992
# 3 -0.004444 -0.000622 0.006804 -0.002211 0.004866 0.002716
# 4 0.003304 -0.001723 -0.002211 0.025303 -0.004387 0.005295
# 5 -0.000538 0.002407 0.004866 -0.004387 0.045850 0.013280
# 6 -0.001490 0.005992 0.002716 0.005295 0.013280 0.047644
#
#
# Mechanical properties :
#
#
# Convention : Reuss Voigt Hill
#
# Bulk Modulus (GPa) = 31.27442 55.62624 43.45033
# Shear Modulus (GPa) = 26.56780 38.82067 32.69424
#
# Velocity S-wave (km/s) = 3.18919 3.85509 3.53784
# Velocity P-wave (km/s) = 5.05312 6.41178 5.77256
#
# Compressibility (1/GPa) = 0.03197501
#
# Stress axis : x y z
#
# Youngs Moduli (GPa) = 33.76600 111.86612 146.97153
#
# Poissons Ratio (x) = 0.18188 0.65316
# Poissons Ratio (y) = 0.05490 0.09140
# Poissons Ratio (z) = 0.15006 0.06957
#
# Static dielectric constant tensor:
#      x y z
#    x 2.098090 0.012510 0.003770 
#    y 0.012510 2.028030 0.077080 
#    z 0.003770 0.077080 2.098920 
# 
# From -- ./inp_files/387073.got.cif
#   From: 2010.05.17/outbox.cif.g08.bks.cpg/sg2_194_cif.got.tgz:387073.got - 2010.06.03 11:33:40.
