data_PCOD9078183
_publ_section_title
;
Structure prediction by ZEFSAII (Michael W. Deem and Ramdas Pophale) SiO2 
 PCOD9078183
Probable space group: P -1
;
_chemical_formula_sum "Si O2"
_cell_formula_units_Z 14
_cell_length_a 14.010835
_cell_length_b 5.644309
_cell_length_c 10.211895
_cell_angle_alpha 95.494383
_cell_angle_beta 100.507390
_cell_angle_gamma 44.871448
_cell_volume 559.549555
_symmetry_space_group_name_H-M "P -1"
_symmetry_group_IT_number 2
_symmetry_cell_setting 'triclinic'
loop_
_space_group_symop_operation_xyz
x,y,z
-x,-y,-z
loop_
_atom_site_type_symbol
_atom_site_label
_atom_site_fract_x
_atom_site_fract_y
_atom_site_fract_z
Si Si1 0.276147 0.787828 0.449658
Si Si2 0.250513 0.580582 0.692658
Si Si3 0.541275 0.159129 0.385428
Si Si4 0.768331 0.316295 0.001924
Si Si5 0.833371 0.710075 0.068262
Si Si6 0.473626 0.719531 0.885456
Si Si7 0.987725 0.389467 0.349788
O O1 0.231026 0.804174 0.586111
O O2 0.388732 0.401186 0.413032
O O3 0.359757 0.889452 0.486906
O O4 0.141593 0.032265 0.342896
O O5 0.254414 0.662875 0.845267
O O6 0.121131 0.629899 0.653388
O O7 0.387901 0.194412 0.674437
O O8 0.532117 0.355597 0.269439
O O9 0.858399 0.397867 0.002597
O O10 0.825846 0.945450 0.977733
O O11 0.617176 0.616511 0.916614
O O12 0.930670 0.600708 0.211272
O O13 0.680138 0.930962 0.102113
O O14 0.500000 0.500000 0.000000
O O15 0.000000 0.500000 0.500000
#
# Coordination Sequence:
#
# PCOD9078183 Si02
#       7
#     2   2   2   2   2   2   2
#     4  11  23  37  57  86 126 159 190 252 303 369
#     4  11  21  36  61  87 114 159 201 251 293 368
#     4  11  22  39  56  88 123 153 201 246 312 356
#     4  10  20  33  60  87 119 140 209 252 296 333
#     4  10  20  33  54  89 112 152 191 258 286 353
#     4  10  18  35  59  87 115 154 204 254 297 348
#     4  11  19  36  59  84 119 156 207 239 298 357
#
# _framework density 25.020126000000001
#
# number of rings (size 3 to 8) (size 9 to 14) (size 15 to 20)
#    0.000    1.429    4.286    3.857    0.000    1.143 
#    0.000    0.000    0.000    6.857    0.000    0.000 
#    0.000    0.000    0.000    0.000    0.000    0.000 
#
# Total GULP energy -78134.528160 kJ/mol
# GULP energy per Si atom -5581.037726 kJ/mol
# Density = 2.496318 g / cm^3
# Si number density = 25.020126 Si / 1000 Ang^3
#
#
#
# Elastic Constant Matrix: (Units=GPa)
#
#
# Indices 1 2 3 4 5 6 
#
# 1 73.8357 41.6957 34.0271 -5.8823 15.2287 0.2512
# 2 41.6957 112.7388 22.2471 -26.9323 15.2486 -7.6649
# 3 34.0271 22.2471 85.0713 -25.5242 21.0710 -7.8624
# 4 -5.8823 -26.9323 -25.5242 38.6460 -8.0549 13.1590
# 5 15.2287 15.2486 21.0710 -8.0549 43.2007 -5.3685
# 6 0.2512 -7.6649 -7.8624 13.1590 -5.3685 38.2672
#
#
#
# Elastic Compliance Matrix: (Units=1/GPa)
#
#
# Indices 1 2 3 4 5 6 
#
# 1 0.021925 -0.008109 -0.008611 -0.008119 -0.002313 -0.001070
# 2 -0.008109 0.013917 0.003064 0.010236 -0.001675 -0.000284
# 3 -0.008611 0.003064 0.019476 0.012751 -0.005223 -0.000446
# 4 -0.008119 0.010236 0.012751 0.043684 -0.000107 -0.010313
# 5 -0.002313 -0.001675 -0.005223 -0.000107 0.027391 0.002486
# 6 -0.001070 -0.000284 -0.000446 -0.010313 0.002486 0.029886
#
#
# Mechanical properties :
#
#
# Convention : Reuss Voigt Hill
#
# Bulk Modulus (GPa) = 35.70735 51.95395 43.83065
# Shear Modulus (GPa) = 25.91654 35.60118 30.75886
#
# Velocity S-wave (km/s) = 3.22192 3.77623 3.51003
# Velocity P-wave (km/s) = 5.30504 6.31056 5.82952
#
# Compressibility (1/GPa) = 0.02800544
#
# Stress axis : x y z
#
# Youngs Moduli (GPa) = 45.60974 71.85474 51.34514
#
# Poissons Ratio (x) = 0.58267 0.44213
# Poissons Ratio (y) = 0.36985 -0.15730
# Poissons Ratio (z) = 0.39274 -0.22013
#
# Static dielectric constant tensor:
#      x y z
#    x 2.038440 0.049780 0.022450 
#    y 0.049780 2.113180 -0.000020 
#    z 0.022450 -0.000020 1.973210 
# 
# From -- ./inp_files/78845.got.cif
#   From: 2010.05.17/outbox.cif.g08.bks.cpg/sg2_40_cif.got.tgz:78845.got - 2010.06.03 11:33:40.
