data_PCOD9078999
_publ_section_title
;
Structure prediction by ZEFSAII (Michael W. Deem and Ramdas Pophale) SiO2 
 PCOD9078999
Probable space group: P -1
;
_chemical_formula_sum "Si O2"
_cell_formula_units_Z 16
_cell_length_a 22.074850
_cell_length_b 7.794591
_cell_length_c 11.862111
_cell_angle_alpha 89.183381
_cell_angle_beta 154.961165
_cell_angle_gamma 103.249228
_cell_volume 742.432703
_symmetry_space_group_name_H-M "P -1"
_symmetry_group_IT_number 2
_symmetry_cell_setting 'triclinic'
loop_
_space_group_symop_operation_xyz
x,y,z
-x,-y,-z
loop_
_atom_site_type_symbol
_atom_site_label
_atom_site_fract_x
_atom_site_fract_y
_atom_site_fract_z
Si Si1 0.999223 0.096262 0.174238
Si Si2 0.890954 0.582588 0.180029
Si Si3 0.326029 0.259779 0.315005
Si Si4 0.895371 0.796683 0.395927
Si Si5 0.507939 0.638240 0.770251
Si Si6 0.577171 0.218220 0.584437
Si Si7 0.796185 0.492672 0.622631
Si Si8 0.054025 0.729961 0.240219
O O1 0.030241 0.164608 0.355272
O O2 0.093455 0.299631 0.260646
O O3 0.067287 0.945762 0.256989
O O4 0.798275 0.951523 0.832672
O O5 0.906732 0.635093 0.337415
O O6 0.050136 0.673208 0.366060
O O7 0.794565 0.687888 0.960158
O O8 0.765757 0.353155 0.942370
O O9 0.428918 0.423499 0.580023
O O10 0.461317 0.281693 0.454124
O O11 0.705000 0.738354 0.096456
O O12 0.000000 0.000000 0.500000
O O13 0.453460 0.764289 0.598133
O O14 0.400201 0.590009 0.702244
O O15 0.500000 0.000000 0.500000
O O16 0.823055 0.318933 0.620157
O O17 0.878960 0.566728 0.886263
#
# Coordination Sequence:
#
# PCOD9078999 Si02
#       8
#     2   2   2   2   2   2   2   2
#     4  11  23  39  65  93 117 174 212 241 314 381
#     4  10  18  38  60  87 119 159 199 251 318 358
#     4  10  18  36  61  87 118 153 208 261 299 361
#     4  12  21  40  67  88 122 165 208 254 321 373
#     4  11  21  40  60  88 123 165 202 256 311 361
#     4  11  20  32  59  97 124 150 203 267 316 360
#     4  11  23  39  63  92 128 165 209 256 303 369
#     4  10  21  39  63  91 128 158 204 266 301 360
#
# _framework density 21.550775000000002
#
# number of rings (size 3 to 8) (size 9 to 14) (size 15 to 20)
#    0.000    1.250    8.750    1.125    1.750    0.500 
#    0.000    2.500    0.000    0.000    0.000    0.000 
#    0.000    0.000    0.000    0.000    0.000    0.000 
#
# Total GULP energy -89248.114280 kJ/mol
# GULP energy per Si atom -5578.007143 kJ/mol
# Density = 2.150172 g / cm^3
# Si number density = 21.550775 Si / 1000 Ang^3
#
#
#
# Elastic Constant Matrix: (Units=GPa)
#
#
# Indices 1 2 3 4 5 6 
#
# 1 91.0099 17.6073 15.5386 -4.4758 6.9484 0.2508
# 2 17.6073 55.7645 9.9610 15.5794 -1.1782 5.6689
# 3 15.5386 9.9610 73.5365 11.8038 15.4845 7.7842
# 4 -4.4758 15.5794 11.8038 13.6716 0.4534 11.6659
# 5 6.9484 -1.1782 15.4845 0.4534 37.8569 10.5556
# 6 0.2508 5.6689 7.7842 11.6659 10.5556 32.4243
#
#
#
# Elastic Compliance Matrix: (Units=1/GPa)
#
#
# Indices 1 2 3 4 5 6 
#
# 1 0.015610 -0.011379 -0.005929 0.029775 0.001010 -0.007750
# 2 -0.011379 0.036984 0.006978 -0.066217 -0.003540 0.016924
# 3 -0.005929 0.006978 0.020585 -0.035715 -0.009419 0.009800
# 4 0.029775 -0.066217 -0.035715 0.257906 0.026740 -0.081576
# 5 0.001010 -0.003540 -0.009419 0.026740 0.034682 -0.018039
# 6 -0.007750 0.016924 0.009800 -0.081576 -0.018039 0.060812
#
#
# Mechanical properties :
#
#
# Convention : Reuss Voigt Hill
#
# Bulk Modulus (GPa) = 19.04105 34.05831 26.54968
# Shear Modulus (GPa) = 10.75858 28.60416 19.68137
#
# Velocity S-wave (km/s) = 2.23675 3.64715 3.02529
# Velocity P-wave (km/s) = 3.94022 5.79428 4.95475
#
# Compressibility (1/GPa) = 0.05251812
#
# Stress axis : x y z
#
# Youngs Moduli (GPa) = 64.06087 27.03908 48.57858
#
# Poissons Ratio (x) = 0.30768 0.28802
# Poissons Ratio (y) = 0.72896 -0.33897
# Poissons Ratio (z) = 0.37981 -0.18867
#
# Static dielectric constant tensor:
#      x y z
#    x 1.557480 0.340470 0.010440 
#    y 0.340470 1.416110 -0.000870 
#    z 0.010440 -0.000870 1.792000 
# 
# From -- ./inp_files/470040.got.cif
#   From: 2010.05.17/outbox.cif.g08.bks.cpg/sg2_236_cif.got.tgz:470040.got - 2010.06.03 11:33:40.
