data_PCOD9078081
_publ_section_title
;
Structure prediction by ZEFSAII (Michael W. Deem and Ramdas Pophale) SiO2 
 PCOD9078081
Probable space group: P -1
;
_chemical_formula_sum "Si O2"
_cell_formula_units_Z 16
_cell_length_a 10.582418
_cell_length_b 13.455595
_cell_length_c 12.431626
_cell_angle_alpha 41.677383
_cell_angle_beta 115.640996
_cell_angle_gamma 140.682655
_cell_volume 700.166934
_symmetry_space_group_name_H-M "P -1"
_symmetry_group_IT_number 2
_symmetry_cell_setting 'triclinic'
loop_
_space_group_symop_operation_xyz
x,y,z
-x,-y,-z
loop_
_atom_site_type_symbol
_atom_site_label
_atom_site_fract_x
_atom_site_fract_y
_atom_site_fract_z
Si Si1 0.673784 0.514914 0.019437
Si Si2 0.342052 0.766471 0.399254
Si Si3 0.155653 0.393738 0.454781
Si Si4 0.744810 0.610762 0.731313
Si Si5 0.132799 0.035282 0.794055
Si Si6 0.753162 0.949732 0.412712
Si Si7 0.134649 0.587054 0.695389
Si Si8 0.313896 0.928040 0.061393
O O1 0.695703 0.375695 0.205491
O O2 0.500000 0.500000 0.000000
O O3 0.663605 0.472311 0.922334
O O4 0.895753 0.780151 0.907223
O O5 0.271618 0.586885 0.430251
O O6 0.581989 0.935096 0.390125
O O7 0.194090 0.624389 0.561728
O O8 0.336102 0.910738 0.209563
O O9 0.294195 0.487981 0.320811
O O10 0.932140 0.292094 0.420205
O O11 0.124910 0.206329 0.645410
O O12 0.682575 0.735421 0.610189
O O13 0.002422 0.822507 0.657930
O O14 0.249123 0.073841 0.697410
O O15 0.262074 0.059864 0.916388
O O16 0.906594 0.329428 0.846578
O O17 0.500000 0.000000 0.000000
#
# Coordination Sequence:
#
# PCOD9078081 Si02
#       8
#     2   2   2   2   2   2   2   2
#     4  10  20  39  63  81 118 166 206 236 299 370
#     4  11  21  38  63  86 122 161 202 239 308 361
#     4  10  21  38  60  89 125 150 193 264 300 343
#     4   9  19  34  59  87 117 151 203 247 294 345
#     4   9  19  35  58  87 117 151 200 249 292 353
#     4   9  17  34  57  87 112 158 194 240 295 365
#     4  10  23  39  59  86 123 162 198 246 304 361
#     4  10  18  35  58  84 113 158 198 238 294 361
#
# _framework density 22.851690999999999
#
# number of rings (size 3 to 8) (size 9 to 14) (size 15 to 20)
#    0.000    2.250    1.250    3.000    0.000    2.500 
#    0.000    8.125   11.000    0.000    0.000    0.000 
#    0.000    0.000    0.000    0.000    0.000    0.000 
#
# Total GULP energy -89274.215510 kJ/mol
# GULP energy per Si atom -5579.638469 kJ/mol
# Density = 2.279968 g / cm^3
# Si number density = 22.851691 Si / 1000 Ang^3
#
#
#
# Elastic Constant Matrix: (Units=GPa)
#
#
# Indices 1 2 3 4 5 6 
#
# 1 110.3217 26.6038 76.2004 12.4656 20.5253 19.0602
# 2 26.6038 36.7688 40.0829 10.0879 6.5003 11.1089
# 3 76.2004 40.0829 163.8145 35.0268 16.1779 6.2345
# 4 12.4656 10.0879 35.0268 28.9815 4.5232 -1.6054
# 5 20.5253 6.5003 16.1779 4.5232 38.9033 9.2727
# 6 19.0602 11.1089 6.2345 -1.6054 9.2727 37.8245
#
#
#
# Elastic Compliance Matrix: (Units=1/GPa)
#
#
# Indices 1 2 3 4 5 6 
#
# 1 0.015534 -0.002605 -0.006524 0.002493 -0.004180 -0.004857
# 2 -0.002605 0.041631 -0.007621 -0.004795 0.000526 -0.009990
# 3 -0.006524 -0.007621 0.013085 -0.010149 -0.000262 0.003002
# 4 0.002493 -0.004795 -0.010149 0.048087 -0.002980 0.004596
# 5 -0.004180 0.000526 -0.000262 -0.002980 0.029559 -0.005378
# 6 -0.004857 -0.009990 0.003002 0.004596 -0.005378 0.032838
#
#
# Mechanical properties :
#
#
# Convention : Reuss Voigt Hill
#
# Bulk Modulus (GPa) = 27.21094 66.29769 46.75431
# Shear Modulus (GPa) = 22.07655 32.34307 27.20981
#
# Velocity S-wave (km/s) = 3.11155 3.76619 3.45441
# Velocity P-wave (km/s) = 4.98423 6.92729 6.03448
#
# Compressibility (1/GPa) = 0.03674992
#
# Stress axis : x y z
#
# Youngs Moduli (GPa) = 64.37650 24.02059 76.42073
#
# Poissons Ratio (x) = 0.06258 0.49854
# Poissons Ratio (y) = 0.16773 0.58240
# Poissons Ratio (z) = 0.41997 0.18306
#
# Static dielectric constant tensor:
#      x y z
#    x 1.864990 0.004420 0.042160 
#    y 0.004420 1.920590 0.008190 
#    z 0.042160 0.008190 1.915180 
# 
# From -- ./inp_files/398438.got.cif
#   From: 2010.05.17/outbox.cif.g08.bks.cpg/sg2_200_cif.got.tgz:398438.got - 2010.06.03 11:33:40.
