data_PCOD9078586
_publ_section_title
;
Structure prediction by ZEFSAII (Michael W. Deem and Ramdas Pophale) SiO2 
 PCOD9078586
Probable space group: P -1
;
_chemical_formula_sum "Si O2"
_cell_formula_units_Z 16
_cell_length_a 9.359949
_cell_length_b 7.920139
_cell_length_c 12.513646
_cell_angle_alpha 103.308451
_cell_angle_beta 130.469551
_cell_angle_gamma 72.478112
_cell_volume 672.202302
_symmetry_space_group_name_H-M "P -1"
_symmetry_group_IT_number 2
_symmetry_cell_setting 'triclinic'
loop_
_space_group_symop_operation_xyz
x,y,z
-x,-y,-z
loop_
_atom_site_type_symbol
_atom_site_label
_atom_site_fract_x
_atom_site_fract_y
_atom_site_fract_z
Si Si1 0.025859 0.384105 0.105184
Si Si2 0.643922 0.603295 0.023767
Si Si3 0.247983 0.809309 0.568427
Si Si4 0.577919 0.885759 0.197816
Si Si5 0.270867 0.028568 0.402849
Si Si6 0.110994 0.302189 0.525976
Si Si7 0.403267 0.463176 0.256400
Si Si8 0.217364 0.852191 0.145269
O O1 0.863100 0.490238 0.120845
O O2 0.246531 0.382547 0.236426
O O3 0.959069 0.207994 0.007153
O O4 0.000000 0.500000 0.000000
O O5 0.615877 0.799610 0.087472
O O6 0.500000 0.500000 0.000000
O O7 0.596246 0.605331 0.875800
O O8 0.232722 0.892293 0.455536
O O9 0.388049 0.616446 0.608118
O O10 0.043267 0.801237 0.514905
O O11 0.347823 0.938464 0.709354
O O12 0.705439 0.735201 0.313620
O O13 0.361158 0.902500 0.134489
O O14 0.180122 0.992220 0.242154
O O15 0.500000 0.000000 0.500000
O O16 0.180411 0.220094 0.433911
O O17 0.000000 0.500000 0.500000
O O18 0.331932 0.673807 0.237726
#
# Coordination Sequence:
#
# PCOD9078586 Si02
#       8
#     2   2   2   2   2   2   2   2
#     4   8  18  34  58  90 118 153 206 252 301 365
#     4  10  18  35  66  88 118 168 210 252 318 366
#     4  11  25  40  61  92 129 162 210 265 309 373
#     4  11  20  39  64  90 125 164 207 262 314 365
#     4  11  22  42  67  92 125 168 206 254 330 367
#     4  11  25  43  64  93 128 163 213 261 311 383
#     4  10  22  39  58  93 127 159 216 258 301 378
#     4  10  18  38  66  86 123 165 203 260 312 372
#
# _framework density 23.802356
#
# number of rings (size 3 to 8) (size 9 to 14) (size 15 to 20)
#    0.000    2.000    5.000    2.250    0.000    7.000 
#    2.250    0.625    0.000    0.000    0.000    0.000 
#    0.000    0.000    0.000    0.000    0.000    0.000 
#
# Total GULP energy -89518.928904 kJ/mol
# GULP energy per Si atom -5594.933057 kJ/mol
# Density = 2.374818 g / cm^3
# Si number density = 23.802356 Si / 1000 Ang^3
#
#
#
# Elastic Constant Matrix: (Units=GPa)
#
#
# Indices 1 2 3 4 5 6 
#
# 1 164.1850 23.5434 36.4190 15.8183 17.5961 -16.3893
# 2 23.5434 85.6367 24.7631 -4.6037 -18.0985 -13.9573
# 3 36.4190 24.7631 58.4973 3.9979 2.1111 -7.1511
# 4 15.8183 -4.6037 3.9979 37.0604 -7.2907 3.9028
# 5 17.5961 -18.0985 2.1111 -7.2907 42.6041 11.2370
# 6 -16.3893 -13.9573 -7.1511 3.9028 11.2370 38.5672
#
#
#
# Elastic Compliance Matrix: (Units=1/GPa)
#
#
# Indices 1 2 3 4 5 6 
#
# 1 0.008926 -0.002449 -0.003300 -0.005606 -0.006800 0.004844
# 2 -0.002449 0.016402 -0.006047 0.005456 0.009059 0.000582
# 3 -0.003300 -0.006047 0.022208 -0.002548 -0.003195 0.001716
# 4 -0.005606 0.005456 -0.002548 0.033649 0.012617 -0.007962
# 5 -0.006800 0.009059 -0.003195 0.012617 0.035570 -0.011845
# 6 0.004844 0.000582 0.001716 -0.007962 -0.011845 0.032773
#
#
# Mechanical properties :
#
#
# Convention : Reuss Voigt Hill
#
# Bulk Modulus (GPa) = 41.76347 53.08557 47.42452
# Shear Modulus (GPa) = 27.60874 38.55257 33.08065
#
# Velocity S-wave (km/s) = 3.40945 4.02891 3.73205
# Velocity P-wave (km/s) = 5.75180 6.63279 6.20794
#
# Compressibility (1/GPa) = 0.02394437
#
# Stress axis : x y z
#
# Youngs Moduli (GPa) = 112.02860 60.96887 45.02820
#
# Poissons Ratio (x) = 0.14931 0.14859
# Poissons Ratio (y) = 0.27435 0.27229
# Poissons Ratio (z) = 0.36968 0.36869
#
# Static dielectric constant tensor:
#      x y z
#    x 1.881200 0.004040 0.016720 
#    y 0.004040 2.006180 -0.022340 
#    z 0.016720 -0.022340 1.918800 
# 
# From -- ./inp_files/495498.got.cif
#   From: 2010.05.17/outbox.cif.g08.bks.cpg/sg2_248_cif.got.tgz:495498.got - 2010.06.03 11:33:40.
