data_PCOD9078046
_publ_section_title
;
Structure prediction by ZEFSAII (Michael W. Deem and Ramdas Pophale) SiO2 
 PCOD9078046
Probable space group: P -1
;
_chemical_formula_sum "Si O2"
_cell_formula_units_Z 12
_cell_length_a 10.877391
_cell_length_b 7.310030
_cell_length_c 9.277855
_cell_angle_alpha 116.660554
_cell_angle_beta 130.563093
_cell_angle_gamma 73.165495
_cell_volume 500.850537
_symmetry_space_group_name_H-M "P -1"
_symmetry_group_IT_number 2
_symmetry_cell_setting 'triclinic'
loop_
_space_group_symop_operation_xyz
x,y,z
-x,-y,-z
loop_
_atom_site_type_symbol
_atom_site_label
_atom_site_fract_x
_atom_site_fract_y
_atom_site_fract_z
Si Si1 0.095218 0.562688 0.876534
Si Si2 0.741271 0.835641 0.062402
Si Si3 0.598456 0.113246 0.264386
Si Si4 0.566924 0.307154 0.897643
Si Si5 0.695186 0.226188 0.681862
Si Si6 0.842853 0.856905 0.815534
O O1 0.142320 0.326221 0.828722
O O2 0.235965 0.678204 0.931552
O O3 0.147782 0.641498 0.105200
O O4 0.917378 0.645255 0.738308
O O5 0.781149 0.840350 0.925497
O O6 0.550396 0.776003 0.887944
O O7 0.731783 0.039601 0.225070
O O8 0.517499 0.902589 0.191507
O O9 0.659755 0.235087 0.491383
O O10 0.558959 0.309291 0.716996
O O11 0.500000 0.500000 0.000000
O O12 0.727833 0.991507 0.673809
O O13 0.000000 0.000000 0.000000
#
# Coordination Sequence:
#
# PCOD9078046 Si02
#       6
#     2   2   2   2   2   2
#     4   9  20  34  54  81 107 143 181 216 268 318
#     4  11  21  33  57  80 113 138 180 227 269 319
#     4  11  20  35  55  87 107 141 179 224 275 307
#     4  10  18  35  58  78 109 143 175 222 265 327
#     4   9  20  35  58  79 109 144 180 220 261 326
#     4  10  19  37  58  74 105 152 184 211 268 327
#
# _framework density 23.959243000000001
#
# number of rings (size 3 to 8) (size 9 to 14) (size 15 to 20)
#    1.000    1.000    3.333    1.000    0.000    0.667 
#    0.000    4.167    0.000    0.000    0.000    0.000 
#    0.000    0.000    0.000    0.000    0.000    0.000 
#
# Total GULP energy -66865.110488 kJ/mol
# GULP energy per Si atom -5572.092541 kJ/mol
# Density = 2.390471 g / cm^3
# Si number density = 23.959243 Si / 1000 Ang^3
#
#
#
# Elastic Constant Matrix: (Units=GPa)
#
#
# Indices 1 2 3 4 5 6 
#
# 1 73.5391 36.2237 12.6471 5.5399 -16.4262 -22.5982
# 2 36.2237 109.8644 10.6685 0.1155 -7.1355 -34.2705
# 3 12.6471 10.6685 74.9072 4.8576 -21.4952 -15.4618
# 4 5.5399 0.1155 4.8576 12.2420 5.9205 -8.2469
# 5 -16.4262 -7.1355 -21.4952 5.9205 20.6577 7.2359
# 6 -22.5982 -34.2705 -15.4618 -8.2469 7.2359 48.4223
#
#
#
# Elastic Compliance Matrix: (Units=1/GPa)
#
#
# Indices 1 2 3 4 5 6 
#
# 1 0.027046 -0.007906 0.010333 -0.037638 0.041094 -0.002225
# 2 -0.007906 0.014491 -0.004020 0.019508 -0.014847 0.010823
# 3 0.010333 -0.004020 0.028539 -0.042597 0.050007 -0.003637
# 4 -0.037638 0.019508 -0.042597 0.210812 -0.141853 0.039741
# 5 0.041094 -0.014847 0.050007 -0.141853 0.177784 -0.026088
# 6 -0.002225 0.010823 -0.003637 0.039741 -0.026088 0.036779
#
#
# Mechanical properties :
#
#
# Convention : Reuss Voigt Hill
#
# Bulk Modulus (GPa) = 14.95008 41.93214 28.44111
# Shear Modulus (GPa) = 9.59814 29.51581 19.55698
#
# Velocity S-wave (km/s) = 2.00368 3.51368 2.86013
# Velocity P-wave (km/s) = 3.40680 5.83101 4.77530
#
# Compressibility (1/GPa) = 0.06688927
#
# Stress axis : x y z
#
# Youngs Moduli (GPa) = 36.97358 69.00986 35.03962
#
# Poissons Ratio (x) = 0.54562 -0.36208
# Poissons Ratio (y) = 0.29233 0.14087
# Poissons Ratio (z) = -0.38206 0.27745
#
# Static dielectric constant tensor:
#      x y z
#    x 1.992480 -0.008100 -0.019830 
#    y -0.008100 2.061200 -0.023610 
#    z -0.019830 -0.023610 1.926020 
# 
# From -- ./inp_files/169154.got.cif
#   From: 2010.05.17/outbox.cif.g08.bks.cpg/sg2_85_cif.got.tgz:169154.got - 2010.06.03 11:33:40.
