data_PCOD9078756
_publ_section_title
;
Structure prediction by ZEFSAII (Michael W. Deem and Ramdas Pophale) SiO2 
 PCOD9078756
Probable space group: P -1
;
_chemical_formula_sum "Si O2"
_cell_formula_units_Z 13
_cell_length_a 13.247215
_cell_length_b 11.369244
_cell_length_c 8.602327
_cell_angle_alpha 35.185655
_cell_angle_beta 39.393579
_cell_angle_gamma 47.001798
_cell_volume 469.285538
_symmetry_space_group_name_H-M "P -1"
_symmetry_group_IT_number 2
_symmetry_cell_setting 'triclinic'
loop_
_space_group_symop_operation_xyz
x,y,z
-x,-y,-z
loop_
_atom_site_type_symbol
_atom_site_label
_atom_site_fract_x
_atom_site_fract_y
_atom_site_fract_z
Si Si1 0.255096 0.171104 0.177939
Si Si2 0.411197 0.859936 0.564037
Si Si3 0.525106 0.573524 0.186074
Si Si4 0.715123 0.062501 0.935795
Si Si5 0.028156 0.269049 0.919872
Si Si6 0.767622 0.447467 0.784461
Si Si7 0.000000 0.500000 0.000000
O O1 0.088433 0.314936 0.204647
O O2 0.279691 0.014414 0.461405
O O3 0.383559 0.330054 0.886890
O O4 0.281385 0.040461 0.129763
O O5 0.467626 0.669147 0.585652
O O6 0.563583 0.971690 0.291165
O O7 0.332384 0.740850 0.923313
O O8 0.644159 0.604928 0.863438
O O9 0.345905 0.695215 0.270784
O O10 0.877034 0.960530 0.937839
O O11 0.164174 0.423199 0.570558
O O12 0.907785 0.339703 0.847420
O O13 0.954625 0.327825 0.110725
#
# Coordination Sequence:
#
# PCOD9078756 Si02
#       7
#     2   2   2   2   2   2   1
#     4  10  19  34  57  87 114 154 189 235 284 344
#     4   9  19  36  57  85 113 152 189 238 278 353
#     4   9  18  36  56  82 114 155 178 240 287 335
#     4  10  21  33  60  87 116 146 197 235 286 332
#     4  10  20  38  59  85 115 154 189 240 283 343
#     4   9  20  38  61  79 119 154 190 228 295 343
#     4  10  18  36  58  80 116 148 188 234 284 328
#
# _framework density 27.701684
#
# number of rings (size 3 to 8) (size 9 to 14) (size 15 to 20)
#    0.923    1.538    1.538    1.846    0.000    3.692 
#    0.000   10.769    0.000    0.000    0.000    0.000 
#    0.000    0.000    0.000    0.000    0.000    0.000 
#
# Total GULP energy -72468.397766 kJ/mol
# GULP energy per Si atom -5574.492136 kJ/mol
# Density = 2.763863 g / cm^3
# Si number density = 27.701684 Si / 1000 Ang^3
#
#
#
# Elastic Constant Matrix: (Units=GPa)
#
#
# Indices 1 2 3 4 5 6 
#
# 1 116.3683 42.9703 31.1099 -22.4671 19.3272 -21.0344
# 2 42.9703 162.1302 30.9723 -43.2828 11.5493 -36.2662
# 3 31.1099 30.9723 64.5540 -15.8360 -11.3760 -2.9278
# 4 -22.4671 -43.2828 -15.8360 50.2353 -6.1217 13.1541
# 5 19.3272 11.5493 -11.3760 -6.1217 30.3169 -19.5436
# 6 -21.0344 -36.2662 -2.9278 13.1541 -19.5436 57.8316
#
#
#
# Elastic Compliance Matrix: (Units=1/GPa)
#
#
# Indices 1 2 3 4 5 6 
#
# 1 0.012835 -0.000927 -0.007207 0.001437 -0.010298 -0.000085
# 2 -0.000927 0.009339 -0.002451 0.005787 -0.000113 0.004040
# 3 -0.007207 -0.002451 0.024048 0.003791 0.016449 0.001756
# 4 0.001437 0.005787 0.003791 0.027332 0.003341 -0.000744
# 5 -0.010298 -0.000113 0.016449 0.003341 0.056289 0.015279
# 6 -0.000085 0.004040 0.001756 -0.000744 0.015279 0.025216
#
#
# Mechanical properties :
#
#
# Convention : Reuss Voigt Hill
#
# Bulk Modulus (GPa) = 39.91566 61.46198 50.68882
# Shear Modulus (GPa) = 27.08873 43.54343 35.31608
#
# Velocity S-wave (km/s) = 3.13049 3.96898 3.57441
# Velocity P-wave (km/s) = 5.24471 6.57564 5.94752
#
# Compressibility (1/GPa) = 0.02505282
#
# Stress axis : x y z
#
# Youngs Moduli (GPa) = 77.91354 107.08318 41.58309
#
# Poissons Ratio (x) = 0.09923 0.29968
# Poissons Ratio (y) = 0.07220 0.10192
# Poissons Ratio (z) = 0.56150 0.26246
#
# Static dielectric constant tensor:
#      x y z
#    x 2.212300 -0.005410 -0.001370 
#    y -0.005410 2.174570 0.060700 
#    z -0.001370 0.060700 2.250330 
# 
# From -- ./inp_files/299982.got.cif
#   From: 2010.05.17/outbox.cif.g08.bks.cpg/sg2_150_cif.got.tgz:299982.got - 2010.06.03 11:33:40.
