data_PCOD9078882
_publ_section_title
;
Structure prediction by ZEFSAII (Michael W. Deem and Ramdas Pophale) SiO2 
 PCOD9078882
Probable space group: P -1
;
_chemical_formula_sum "Si O2"
_cell_formula_units_Z 16
_cell_length_a 17.046301
_cell_length_b 18.597915
_cell_length_c 7.481292
_cell_angle_alpha 114.985360
_cell_angle_beta 49.680888
_cell_angle_gamma 156.062676
_cell_volume 614.546940
_symmetry_space_group_name_H-M "P -1"
_symmetry_group_IT_number 2
_symmetry_cell_setting 'triclinic'
loop_
_space_group_symop_operation_xyz
x,y,z
-x,-y,-z
loop_
_atom_site_type_symbol
_atom_site_label
_atom_site_fract_x
_atom_site_fract_y
_atom_site_fract_z
Si Si1 0.563717 0.897966 0.046563
Si Si2 0.886188 0.004233 0.879955
Si Si3 0.826661 0.465895 0.405786
Si Si4 0.800879 0.615894 0.461393
Si Si5 0.404020 0.819541 0.809654
Si Si6 0.827288 0.245086 0.481488
Si Si7 0.703629 0.715105 0.771136
Si Si8 0.811454 0.630257 0.067733
O O1 0.621097 0.859460 0.033357
O O2 0.437466 0.799372 0.930164
O O3 0.388917 0.841546 0.345075
O O4 0.873613 0.148668 0.812175
O O5 0.816843 0.864933 0.890460
O O6 0.093334 0.143055 0.552961
O O7 0.022577 0.167908 0.977170
O O8 0.732524 0.486428 0.521758
O O9 0.617414 0.255979 0.401974
O O10 0.943606 0.546946 0.519210
O O11 0.112755 0.655626 0.074310
O O12 0.721031 0.635441 0.714023
O O13 0.671283 0.528313 0.362856
O O14 0.647745 0.056402 0.670174
O O15 0.986056 0.300625 0.172338
O O16 0.416262 0.534913 0.920364
#
# Coordination Sequence:
#
# PCOD9078882 Si02
#       8
#     2   2   2   2   2   2   2   2
#     4   9  17  34  57  82 106 141 181 225 263 318
#     4   9  19  35  58  82 105 139 190 224 264 314
#     4  10  20  35  58  82 103 146 191 218 259 322
#     4  10  18  36  60  83 102 140 191 226 261 312
#     4  10  19  34  58  78 111 145 183 220 262 322
#     4  11  20  37  53  81 122 142 166 221 283 328
#     4   9  19  37  55  79 109 142 182 232 261 308
#     4  10  22  34  55  82 116 144 170 223 281 321
#
# _framework density 26.035439
#
# number of rings (size 3 to 8) (size 9 to 14) (size 15 to 20)
#    0.000    2.500    2.500    2.250    1.750    3.000 
#    2.250    1.250    0.000    1.500    0.000    0.000 
#    0.000    0.000    0.000    0.000    0.000    0.000 
#
# Total GULP energy -89524.765545 kJ/mol
# GULP energy per Si atom -5595.297847 kJ/mol
# Density = 2.597618 g / cm^3
# Si number density = 26.035439 Si / 1000 Ang^3
#
#
#
# Elastic Constant Matrix: (Units=GPa)
#
#
# Indices 1 2 3 4 5 6 
#
# 1 100.6454 20.5973 20.9758 26.5154 -26.5827 -12.2532
# 2 20.5973 111.9628 39.0682 24.6704 -26.2822 -7.2931
# 3 20.9758 39.0682 143.2811 12.7304 -26.9263 -6.8965
# 4 26.5154 24.6704 12.7304 44.5944 -7.4180 -15.5723
# 5 -26.5827 -26.2822 -26.9263 -7.4180 29.8733 3.9478
# 6 -12.2532 -7.2931 -6.8965 -15.5723 3.9478 23.2849
#
#
#
# Elastic Compliance Matrix: (Units=1/GPa)
#
#
# Indices 1 2 3 4 5 6 
#
# 1 0.015184 0.001975 0.000547 -0.007499 0.013690 0.001435
# 2 0.001975 0.012852 -0.001314 -0.006733 0.010419 -0.001593
# 3 0.000547 -0.001314 0.008642 -0.000627 0.006851 0.000855
# 4 -0.007499 -0.006733 -0.000627 0.036392 -0.006665 0.019228
# 5 0.013690 0.010419 0.006851 -0.006665 0.059617 -0.002069
# 6 0.001435 -0.001593 0.000855 0.019228 -0.002069 0.056665
#
#
# Mechanical properties :
#
#
# Convention : Reuss Voigt Hill
#
# Bulk Modulus (GPa) = 25.57944 57.46353 41.52149
# Shear Modulus (GPa) = 25.00405 37.90039 31.45222
#
# Velocity S-wave (km/s) = 3.10237 3.81953 3.47948
# Velocity P-wave (km/s) = 4.76226 6.44756 5.66790
#
# Compressibility (1/GPa) = 0.03909389
#
# Stress axis : x y z
#
# Youngs Moduli (GPa) = 65.85952 77.80763 115.71539
#
# Poissons Ratio (x) = -0.15370 -0.06325
# Poissons Ratio (y) = -0.13010 0.15205
# Poissons Ratio (z) = -0.03600 0.10224
#
# Static dielectric constant tensor:
#      x y z
#    x 2.081760 -0.036040 0.056790 
#    y -0.036040 2.015500 -0.016890 
#    z 0.056790 -0.016890 2.104630 
# 
# From -- ./inp_files/349902.got.cif
#   From: 2010.05.17/outbox.cif.g08.bks.cpg/sg2_175_cif.got.tgz:349902.got - 2010.06.03 11:33:40.
