data_PCOD9078094
_publ_section_title
;
Structure prediction by ZEFSAII (Michael W. Deem and Ramdas Pophale) SiO2 
 PCOD9078094
Probable space group: P -1
;
_chemical_formula_sum "Si O2"
_cell_formula_units_Z 16
_cell_length_a 12.978832
_cell_length_b 9.692074
_cell_length_c 10.023430
_cell_angle_alpha 80.146157
_cell_angle_beta 65.180324
_cell_angle_gamma 43.786492
_cell_volume 774.235451
_symmetry_space_group_name_H-M "P -1"
_symmetry_group_IT_number 2
_symmetry_cell_setting 'triclinic'
loop_
_space_group_symop_operation_xyz
x,y,z
-x,-y,-z
loop_
_atom_site_type_symbol
_atom_site_label
_atom_site_fract_x
_atom_site_fract_y
_atom_site_fract_z
Si Si1 0.187288 0.396413 0.311961
Si Si2 0.854247 0.072218 0.661554
Si Si3 0.555450 0.029531 0.599952
Si Si4 0.945183 0.394825 0.896121
Si Si5 0.055578 0.630969 0.582221
Si Si6 0.027518 0.022380 0.826637
Si Si7 0.654950 0.262529 0.485240
Si Si8 0.203625 0.416294 0.792521
O O1 0.210145 0.419387 0.143007
O O2 0.144040 0.566759 0.402737
O O3 0.020361 0.455638 0.371432
O O4 0.317739 0.182391 0.352606
O O5 0.699967 0.241193 0.622191
O O6 0.000000 0.000000 0.500000
O O7 0.902247 0.865241 0.664703
O O8 0.881802 0.100650 0.792065
O O9 0.623561 0.123040 0.513275
O O10 0.389656 0.202258 0.746669
O O11 0.500000 0.000000 0.500000
O O12 0.084357 0.387746 0.848801
O O13 0.870449 0.425838 0.075075
O O14 0.024292 0.193059 0.812801
O O15 0.187779 0.514087 0.646802
O O16 0.195199 0.836047 0.683371
O O17 0.000000 0.000000 0.000000
O O18 0.500000 0.500000 0.500000
#
# Coordination Sequence:
#
# PCOD9078094 Si02
#       8
#     2   2   2   2   2   2   2   2
#     4  10  20  34  61  86 121 157 198 267 304 370
#     4  10  21  37  62  89 122 169 216 253 309 384
#     4  12  23  38  65  98 128 162 211 264 325 369
#     4  10  22  41  60  94 124 159 215 256 315 372
#     4  10  18  35  58  86 117 156 208 250 305 362
#     4  11  24  42  69  92 124 171 221 260 312 388
#     4  11  26  43  64  95 134 168 215 267 323 382
#     4  10  22  37  65  88 128 161 199 262 322 373
#
# _framework density 20.665547
#
# number of rings (size 3 to 8) (size 9 to 14) (size 15 to 20)
#    0.000    1.500    2.500    3.000    7.000    1.500 
#    0.000    0.625    2.750    0.000    0.000    0.000 
#    0.000    0.000    0.000    0.000    0.000    0.000 
#
# Total GULP energy -89109.492456 kJ/mol
# GULP energy per Si atom -5569.343279 kJ/mol
# Density = 2.061851 g / cm^3
# Si number density = 20.665547 Si / 1000 Ang^3
#
#
#
# Elastic Constant Matrix: (Units=GPa)
#
#
# Indices 1 2 3 4 5 6 
#
# 1 74.4114 29.8323 42.0395 -4.1135 23.2908 -1.8384
# 2 29.8323 105.6434 29.9790 1.2104 13.2657 -18.0047
# 3 42.0395 29.9790 113.9941 -4.6048 22.1670 -7.9477
# 4 -4.1135 1.2104 -4.6048 34.8068 -2.6537 5.3954
# 5 23.2908 13.2657 22.1670 -2.6537 28.2971 2.2599
# 6 -1.8384 -18.0047 -7.9477 5.3954 2.2599 37.0489
#
#
#
# Elastic Compliance Matrix: (Units=1/GPa)
#
#
# Indices 1 2 3 4 5 6 
#
# 1 0.021213 -0.003351 -0.004613 0.001249 -0.012077 -0.001011
# 2 -0.003351 0.012102 -0.001084 -0.002092 -0.002738 0.005954
# 3 -0.004613 -0.001084 0.011921 0.000356 -0.005165 0.002065
# 4 0.001249 -0.002092 0.000356 0.030063 0.002927 -0.005435
# 5 -0.012077 -0.002738 -0.005165 0.002927 0.051411 -0.006600
# 6 -0.001011 0.005954 0.002065 -0.005435 -0.006600 0.031472
#
#
# Mechanical properties :
#
#
# Convention : Reuss Voigt Hill
#
# Bulk Modulus (GPa) = 36.84581 55.30561 46.07571
# Shear Modulus (GPa) = 26.97949 32.84375 29.91162
#
# Velocity S-wave (km/s) = 3.61713 3.99093 3.80862
# Velocity P-wave (km/s) = 5.94249 6.93232 6.45640
#
# Compressibility (1/GPa) = 0.02714013
#
# Stress axis : x y z
#
# Youngs Moduli (GPa) = 47.14121 82.62927 83.88217
#
# Poissons Ratio (x) = 0.27690 0.38697
# Poissons Ratio (y) = 0.15798 0.09092
# Poissons Ratio (z) = 0.21747 0.08956
#
# Static dielectric constant tensor:
#      x y z
#    x 1.755680 -0.014770 0.013860 
#    y -0.014770 1.649930 -0.024580 
#    z 0.013860 -0.024580 1.801270 
# 
# From -- ./inp_files/243963.got.cif
#   From: 2010.05.17/outbox.cif.g08.bks.cpg/sg2_122_cif.got.tgz:243963.got - 2010.06.03 11:33:40.
