data_PCOD9078130
_publ_section_title
;
Structure prediction by ZEFSAII (Michael W. Deem and Ramdas Pophale) SiO2 
 PCOD9078130
Probable space group: P -1
;
_chemical_formula_sum "Si O2"
_cell_formula_units_Z 16
_cell_length_a 23.023909
_cell_length_b 14.312264
_cell_length_c 7.088275
_cell_angle_alpha 122.534047
_cell_angle_beta 55.396952
_cell_angle_gamma 159.866991
_cell_volume 661.664645
_symmetry_space_group_name_H-M "P -1"
_symmetry_group_IT_number 2
_symmetry_cell_setting 'triclinic'
loop_
_space_group_symop_operation_xyz
x,y,z
-x,-y,-z
loop_
_atom_site_type_symbol
_atom_site_label
_atom_site_fract_x
_atom_site_fract_y
_atom_site_fract_z
Si Si1 0.909238 0.223664 0.382392
Si Si2 0.221925 0.667724 0.830927
Si Si3 0.858974 0.147427 0.826752
Si Si4 0.640836 0.371615 0.436631
Si Si5 0.642613 0.657982 0.168350
Si Si6 0.482064 0.215703 0.951438
Si Si7 0.254986 0.787626 0.461578
Si Si8 0.692549 0.690212 0.665039
O O1 0.880620 0.215455 0.645522
O O2 0.818635 0.193016 0.402643
O O3 0.117125 0.520030 0.302295
O O4 0.810968 0.967512 0.252973
O O5 0.246226 0.575037 0.731618
O O6 0.249767 0.729602 0.620543
O O7 0.021429 0.412037 0.941120
O O8 0.369931 0.955594 0.963966
O O9 0.844507 0.993951 0.673470
O O10 0.675948 0.933522 0.999590
O O11 0.592998 0.323168 0.693951
O O12 0.719264 0.600454 0.474852
O O13 0.456689 0.083996 0.366329
O O14 0.479148 0.505776 0.329398
O O15 0.594710 0.467411 0.130417
O O16 0.661634 0.659612 0.912747
#
# Coordination Sequence:
#
# PCOD9078130 Si02
#       8
#     2   2   2   2   2   2   2   2
#     4  10  19  32  52  81 112 138 167 221 274 316
#     4  10  20  34  56  80 106 142 180 218 259 314
#     4  10  21  33  52  87 111 131 169 231 273 300
#     4  10  18  35  59  77 104 144 185 211 253 323
#     4   9  17  32  53  78 108 137 176 219 264 310
#     4   9  18  32  53  80 105 131 178 228 255 298
#     4   9  18  32  51  77 103 139 180 209 254 321
#     4   9  18  31  53  82 106 135 178 222 258 308
#
# _framework density 24.181435
#
# number of rings (size 3 to 8) (size 9 to 14) (size 15 to 20)
#    0.000    2.500    1.250    2.625    3.500    2.500 
#    2.250    0.000    0.000   21.750    0.000    0.000 
#    0.000    0.000    0.000    0.000    0.000    0.000 
#
# Total GULP energy -89371.550397 kJ/mol
# GULP energy per Si atom -5585.721900 kJ/mol
# Density = 2.412640 g / cm^3
# Si number density = 24.181435 Si / 1000 Ang^3
#
#
#
# Elastic Constant Matrix: (Units=GPa)
#
#
# Indices 1 2 3 4 5 6 
#
# 1 86.8758 10.3501 45.2043 10.9165 -14.2918 -11.5651
# 2 10.3501 88.6514 35.1944 39.1612 -15.5059 -13.3713
# 3 45.2043 35.1944 85.4738 21.7314 -12.7721 -1.8166
# 4 10.9165 39.1612 21.7314 40.0106 -9.0246 -7.7068
# 5 -14.2918 -15.5059 -12.7721 -9.0246 45.8157 11.9559
# 6 -11.5651 -13.3713 -1.8166 -7.7068 11.9559 30.3117
#
#
#
# Elastic Compliance Matrix: (Units=1/GPa)
#
#
# Indices 1 2 3 4 5 6 
#
# 1 0.017772 0.003999 -0.010236 -0.001449 0.001990 0.006778
# 2 0.003999 0.022590 -0.006365 -0.018188 0.002055 0.005674
# 3 -0.010236 -0.006365 0.020625 -0.003152 0.001583 -0.006903
# 4 -0.001449 -0.018188 -0.003152 0.045572 0.000840 0.002490
# 5 0.001990 0.002055 0.001583 0.000840 0.025900 -0.008242
# 6 0.006778 0.005674 -0.006903 0.002490 -0.008242 0.041550
#
#
# Mechanical properties :
#
#
# Convention : Reuss Voigt Hill
#
# Bulk Modulus (GPa) = 27.94534 49.16653 38.55594
# Shear Modulus (GPa) = 23.68102 34.57774 29.12938
#
# Velocity S-wave (km/s) = 3.13278 3.78554 3.47453
# Velocity P-wave (km/s) = 4.96663 6.28360 5.66352
#
# Compressibility (1/GPa) = 0.03578414
#
# Stress axis : x y z
#
# Youngs Moduli (GPa) = 56.26806 44.26808 48.48490
#
# Poissons Ratio (x) = -0.17705 0.49629
# Poissons Ratio (y) = -0.22504 0.30859
# Poissons Ratio (z) = 0.57596 0.28175
#
# Static dielectric constant tensor:
#      x y z
#    x 1.942920 -0.065610 0.043530 
#    y -0.065610 1.971120 0.034890 
#    z 0.043530 0.034890 1.945230 
# 
# From -- ./inp_files/320284.got.cif
#   From: 2010.05.17/outbox.cif.g08.bks.cpg/sg2_161_cif.got.tgz:320284.got - 2010.06.03 11:33:40.
