data_PCOD9078564
_publ_section_title
;
Structure prediction by ZEFSAII (Michael W. Deem and Ramdas Pophale) SiO2 
 PCOD9078564
Probable space group: P -1
;
_chemical_formula_sum "Si O2"
_cell_formula_units_Z 16
_cell_length_a 11.658373
_cell_length_b 23.563503
_cell_length_c 19.773042
_cell_angle_alpha 19.616616
_cell_angle_beta 156.532842
_cell_angle_gamma 145.392272
_cell_volume 691.234983
_symmetry_space_group_name_H-M "P -1"
_symmetry_group_IT_number 2
_symmetry_cell_setting 'triclinic'
loop_
_space_group_symop_operation_xyz
x,y,z
-x,-y,-z
loop_
_atom_site_type_symbol
_atom_site_label
_atom_site_fract_x
_atom_site_fract_y
_atom_site_fract_z
Si Si1 0.135591 0.575149 0.298034
Si Si2 0.364660 0.276215 0.945788
Si Si3 0.784359 0.957002 0.279054
Si Si4 0.898021 0.041941 0.103222
Si Si5 0.083897 0.673731 0.872063
Si Si6 0.767361 0.065477 0.737197
Si Si7 0.783273 0.420248 0.382244
Si Si8 0.188629 0.665416 0.084180
O O1 0.033607 0.603846 0.132900
O O2 0.498945 0.490145 0.587113
O O3 0.982839 0.449544 0.395218
O O4 0.051957 0.767127 0.072930
O O5 0.402617 0.386364 0.908423
O O6 0.017395 0.339071 0.661715
O O7 0.563162 0.339789 0.927131
O O8 0.440158 0.064777 0.230877
O O9 0.966532 0.932595 0.333791
O O10 0.942496 0.829237 0.568304
O O11 0.460904 0.925518 0.132286
O O12 0.730970 0.160763 0.042427
O O13 0.060646 0.960450 0.213163
O O14 0.001615 0.711524 0.862800
O O15 0.000000 0.500000 0.000000
O O16 0.628077 0.273998 0.442323
O O17 0.000000 0.000000 0.000000
#
# Coordination Sequence:
#
# PCOD9078564 Si02
#       8
#     2   2   2   2   2   2   2   2
#     4  10  18  35  65  90 124 154 203 262 303 357
#     4  10  22  39  56  90 123 159 205 255 306 366
#     4  10  23  38  62  88 124 164 203 259 307 373
#     4  10  20  39  63  93 120 158 210 257 312 360
#     4  12  25  41  59  86 128 166 203 255 318 367
#     4  10  21  35  63  91 121 156 202 258 308 361
#     4  10  19  36  64  89 121 157 204 258 300 364
#     4  10  21  37  58  92 121 162 204 251 308 368
#
# _framework density 23.146977
#
# number of rings (size 3 to 8) (size 9 to 14) (size 15 to 20)
#    0.000    1.750    2.500    1.875    1.750    3.000 
#    2.250    0.625    0.000    1.500    0.000    0.000 
#    0.000    0.000    0.000    0.000    0.000    0.000 
#
# Total GULP energy -89365.851180 kJ/mol
# GULP energy per Si atom -5585.365699 kJ/mol
# Density = 2.309429 g / cm^3
# Si number density = 23.146977 Si / 1000 Ang^3
#
#
#
# Elastic Constant Matrix: (Units=GPa)
#
#
# Indices 1 2 3 4 5 6 
#
# 1 124.4638 61.0637 25.6344 -14.9803 -15.9012 -23.9493
# 2 61.0637 104.8594 40.7983 -38.4547 -4.9826 -6.6992
# 3 25.6344 40.7983 66.9059 -13.0271 -15.6728 -12.6085
# 4 -14.9803 -38.4547 -13.0271 47.0361 -4.2967 -9.1480
# 5 -15.9012 -4.9826 -15.6728 -4.2967 30.3342 5.4091
# 6 -23.9493 -6.6992 -12.6085 -9.1480 5.4091 40.0135
#
#
#
# Elastic Compliance Matrix: (Units=1/GPa)
#
#
# Indices 1 2 3 4 5 6 
#
# 1 0.013566 -0.008013 0.002403 0.000295 0.005864 0.006810
# 2 -0.008013 0.022078 -0.008782 0.012667 -0.003222 -0.000535
# 3 0.002403 -0.008782 0.023715 0.002442 0.011261 0.006477
# 4 0.000295 0.012667 0.002442 0.034970 0.006638 0.010165
# 5 0.005864 -0.003222 0.011261 0.006638 0.041845 0.002380
# 6 0.006810 -0.000535 0.006477 0.010165 0.002380 0.033021
#
#
# Mechanical properties :
#
#
# Convention : Reuss Voigt Hill
#
# Bulk Modulus (GPa) = 32.70660 61.24689 46.97675
# Shear Modulus (GPa) = 24.01894 34.72562 29.37228
#
# Velocity S-wave (km/s) = 3.22478 3.87747 3.56609
# Velocity P-wave (km/s) = 5.29399 6.82377 6.10697
#
# Compressibility (1/GPa) = 0.03057487
#
# Stress axis : x y z
#
# Youngs Moduli (GPa) = 73.71418 45.29455 42.16820
#
# Poissons Ratio (x) = 0.36294 -0.10133
# Poissons Ratio (y) = 0.59067 0.37031
# Poissons Ratio (z) = -0.17714 0.39777
#
# Static dielectric constant tensor:
#      x y z
#    x 1.912050 -0.013390 -0.008050 
#    y -0.013390 1.867370 0.018530 
#    z -0.008050 0.018530 1.916590 
# 
# From -- ./inp_files/205141.got.cif
#   From: 2010.05.17/outbox.cif.g08.bks.cpg/sg2_103_cif.got.tgz:205141.got - 2010.06.03 11:33:40.
