data_PCOD9078705
_publ_section_title
;
Structure prediction by ZEFSAII (Michael W. Deem and Ramdas Pophale) SiO2 
 PCOD9078705
Probable space group: P -1
;
_chemical_formula_sum "Si O2"
_cell_formula_units_Z 16
_cell_length_a 9.391122
_cell_length_b 7.891765
_cell_length_c 11.756835
_cell_angle_alpha 71.360924
_cell_angle_beta 50.523171
_cell_angle_gamma 62.899177
_cell_volume 598.149551
_symmetry_space_group_name_H-M "P -1"
_symmetry_group_IT_number 2
_symmetry_cell_setting 'triclinic'
loop_
_space_group_symop_operation_xyz
x,y,z
-x,-y,-z
loop_
_atom_site_type_symbol
_atom_site_label
_atom_site_fract_x
_atom_site_fract_y
_atom_site_fract_z
Si Si1 0.678731 0.187487 0.425904
Si Si2 0.178109 0.093308 0.400550
Si Si3 0.276806 0.610739 0.048234
Si Si4 0.733209 0.726362 0.006235
Si Si5 0.495588 0.744680 0.726751
Si Si6 0.282009 0.409441 0.705002
Si Si7 0.735950 0.106089 0.830531
Si Si8 0.146818 0.525594 0.513465
O O1 0.594974 0.132949 0.363959
O O2 0.507184 0.285972 0.584228
O O3 0.743601 0.366658 0.319254
O O4 0.815920 0.000553 0.459201
O O5 0.359253 0.174684 0.294424
O O6 0.976899 0.260078 0.436474
O O7 0.215194 0.943051 0.313895
O O8 0.186222 0.459318 0.076267
O O9 0.321416 0.727339 0.895233
O O10 0.500000 0.500000 0.000000
O O11 0.186735 0.750032 0.169014
O O12 0.764501 0.666434 0.135164
O O13 0.501816 0.804052 0.074410
O O14 0.801152 0.902804 0.905155
O O15 0.640971 0.543199 0.642451
O O16 0.178699 0.402085 0.638208
O O17 0.000000 0.500000 0.500000
#
# Coordination Sequence:
#
# PCOD9078705 Si02
#       8
#     2   2   2   2   2   2   2   2
#     4  10  20  32  57  87 111 152 193 254 297 335
#     4  11  20  37  56  85 122 154 196 240 292 358
#     4  10  20  33  58  89 119 151 189 254 295 342
#     4  10  18  36  56  87 117 152 192 251 293 341
#     4  10  19  36  57  89 117 149 200 241 301 352
#     4  10  19  35  56  82 118 151 198 241 298 350
#     4  10  21  34  58  90 119 152 200 239 295 351
#     4   9  22  38  55  81 120 161 191 237 299 360
#
# _framework density 26.749165000000001
#
# number of rings (size 3 to 8) (size 9 to 14) (size 15 to 20)
#    0.000    2.000    2.500    2.625    0.000    0.500 
#    0.000    0.625    0.000    0.750    0.000    0.000 
#    0.000    0.000    0.000    0.000    0.000    0.000 
#
# Total GULP energy -89563.083926 kJ/mol
# GULP energy per Si atom -5597.692745 kJ/mol
# Density = 2.668828 g / cm^3
# Si number density = 26.749165 Si / 1000 Ang^3
#
#
#
# Elastic Constant Matrix: (Units=GPa)
#
#
# Indices 1 2 3 4 5 6 
#
# 1 82.3096 42.9099 36.6571 -2.5557 30.5635 0.3909
# 2 42.9099 110.5348 59.1704 -6.7273 23.3810 -4.7525
# 3 36.6571 59.1704 134.1193 -9.7617 45.4667 -2.1130
# 4 -2.5557 -6.7273 -9.7617 61.9848 -4.2833 12.6901
# 5 30.5635 23.3810 45.4667 -4.2833 45.5247 -0.3285
# 6 0.3909 -4.7525 -2.1130 12.6901 -0.3285 45.9811
#
#
#
# Elastic Compliance Matrix: (Units=1/GPa)
#
#
# Indices 1 2 3 4 5 6 
#
# 1 0.018519 -0.005489 0.000905 -0.000279 -0.010549 -0.000681
# 2 -0.005489 0.013572 -0.005057 0.000343 0.001805 0.001135
# 3 0.000905 -0.005057 0.013300 0.000856 -0.011215 -0.000236
# 4 -0.000279 0.000343 0.000856 0.017306 0.000751 -0.004694
# 5 -0.010549 0.001805 -0.011215 0.000751 0.039391 -0.000165
# 6 -0.000681 0.001135 -0.000236 -0.004694 -0.000165 0.023155
#
#
# Mechanical properties :
#
#
# Convention : Reuss Voigt Hill
#
# Bulk Modulus (GPa) = 38.29792 67.15983 52.72887
# Shear Modulus (GPa) = 32.63103 43.24656 37.93880
#
# Velocity S-wave (km/s) = 3.49648 4.02524 3.77014
# Velocity P-wave (km/s) = 5.53616 6.83851 6.22150
#
# Compressibility (1/GPa) = 0.02611108
#
# Stress axis : x y z
#
# Youngs Moduli (GPa) = 53.99776 73.67887 75.18760
#
# Poissons Ratio (x) = 0.40439 -0.06804
# Poissons Ratio (y) = 0.29637 0.38021
# Poissons Ratio (z) = -0.04887 0.37258
#
# Static dielectric constant tensor:
#      x y z
#    x 2.130410 0.003850 -0.015000 
#    y 0.003850 2.247490 -0.071270 
#    z -0.015000 -0.071270 2.214320 
# 
# From -- ./inp_files/414650.got.cif
#   From: 2010.05.17/outbox.cif.g08.bks.cpg/sg2_208_cif.got.tgz:414650.got - 2010.06.03 11:33:40.
