data_PCOD9078932
_publ_section_title
;
Structure prediction by ZEFSAII (Michael W. Deem and Ramdas Pophale) SiO2 
 PCOD9078932
Probable space group: P -1
;
_chemical_formula_sum "Si O2"
_cell_formula_units_Z 16
_cell_length_a 6.702725
_cell_length_b 13.763245
_cell_length_c 14.540119
_cell_angle_alpha 40.223356
_cell_angle_beta 75.587870
_cell_angle_gamma 60.907045
_cell_volume 738.904423
_symmetry_space_group_name_H-M "P -1"
_symmetry_group_IT_number 2
_symmetry_cell_setting 'triclinic'
loop_
_space_group_symop_operation_xyz
x,y,z
-x,-y,-z
loop_
_atom_site_type_symbol
_atom_site_label
_atom_site_fract_x
_atom_site_fract_y
_atom_site_fract_z
Si Si1 0.754999 0.346239 0.564500
Si Si2 0.225006 0.897798 0.419255
Si Si3 0.392097 0.113057 0.339861
Si Si4 0.155908 0.650698 0.741317
Si Si5 0.704361 0.157435 0.859030
Si Si6 0.240001 0.766384 0.823945
Si Si7 0.175121 0.420594 0.741039
Si Si8 0.066963 0.791316 0.031903
O O1 0.500000 0.500000 0.500000
O O2 0.726660 0.216033 0.593465
O O3 0.833773 0.247542 0.722365
O O4 0.893137 0.428561 0.435340
O O5 0.234777 0.776937 0.589551
O O6 0.389596 0.982375 0.358230
O O7 0.966543 0.055970 0.322370
O O8 0.532566 0.209445 0.222494
O O9 0.124392 0.247780 0.293026
O O10 0.500000 0.000000 0.500000
O O11 0.256937 0.623502 0.852521
O O12 0.217358 0.493768 0.779693
O O13 0.427147 0.263634 0.798983
O O14 0.763099 0.172808 0.946862
O O15 0.821889 0.965803 0.945965
O O16 0.159126 0.754798 0.943873
O O17 0.981650 0.360611 0.818993
#
# Coordination Sequence:
#
# PCOD9078932 Si02
#       8
#     2   2   2   2   2   2   2   2
#     4   9  19  40  63  92 119 157 202 257 304 354
#     4  10  18  36  60  89 124 153 200 255 301 359
#     4  11  19  34  60  92 121 160 201 248 307 355
#     4  10  21  37  61  92 124 157 201 254 308 365
#     4  10  22  44  65  88 123 161 214 254 295 362
#     4  11  21  37  60  89 125 160 201 251 297 367
#     4  10  23  42  65  89 126 163 198 254 320 356
#     4  11  24  41  63  92 125 164 207 249 300 376
#
# _framework density 21.653677999999999
#
# number of rings (size 3 to 8) (size 9 to 14) (size 15 to 20)
#    0.000    1.750    3.750    1.125    0.000    4.000 
#   11.250    1.250    0.000    0.000    0.000    0.000 
#    0.000    0.000    0.000    0.000    0.000    0.000 
#
# Total GULP energy -89361.579302 kJ/mol
# GULP energy per Si atom -5585.098706 kJ/mol
# Density = 2.160439 g / cm^3
# Si number density = 21.653678 Si / 1000 Ang^3
#
#
#
# Elastic Constant Matrix: (Units=GPa)
#
#
# Indices 1 2 3 4 5 6 
#
# 1 56.7472 -0.7074 11.8053 5.9769 -18.6601 -4.0199
# 2 -0.7074 73.0588 14.7913 11.7192 -5.8657 6.7885
# 3 11.8053 14.7913 63.2610 15.6961 -14.0782 9.8903
# 4 5.9769 11.7192 15.6961 35.5514 3.6363 4.3131
# 5 -18.6601 -5.8657 -14.0782 3.6363 26.6080 1.4582
# 6 -4.0199 6.7885 9.8903 4.3131 1.4582 16.0302
#
#
#
# Elastic Compliance Matrix: (Units=1/GPa)
#
#
# Indices 1 2 3 4 5 6 
#
# 1 0.025048 0.002463 -0.000053 -0.007604 0.018813 0.005606
# 2 0.002463 0.015599 -0.000828 -0.005216 0.005692 -0.004592
# 3 -0.000053 -0.000828 0.023752 -0.010115 0.014437 -0.012909
# 4 -0.007604 -0.005216 -0.010115 0.037562 -0.016856 -0.002030
# 5 0.018813 0.005692 0.014437 -0.016856 0.062397 -0.007741
# 6 0.005606 -0.004592 -0.012909 -0.002030 -0.007741 0.074947
#
#
# Mechanical properties :
#
#
# Convention : Reuss Voigt Hill
#
# Bulk Modulus (GPa) = 14.80141 27.20506 21.00323
# Shear Modulus (GPa) = 19.33012 26.78311 23.05661
#
# Velocity S-wave (km/s) = 2.99104 3.52075 3.26665
# Velocity P-wave (km/s) = 4.33345 5.39616 4.89374
#
# Compressibility (1/GPa) = 0.06756113
#
# Stress axis : x y z
#
# Youngs Moduli (GPa) = 39.92360 64.10490 42.10210
#
# Poissons Ratio (x) = -0.15786 0.00224
# Poissons Ratio (y) = -0.09831 0.03487
# Poissons Ratio (z) = 0.00213 0.05309
#
# Static dielectric constant tensor:
#      x y z
#    x 1.684690 0.081010 0.037980 
#    y 0.081010 1.745560 -0.017930 
#    z 0.037980 -0.017930 1.821420 
# 
# From -- ./inp_files/76515.got.cif
#   From: 2010.05.17/outbox.cif.g08.bks.cpg/sg2_39_cif.got.tgz:76515.got - 2010.06.03 11:33:40.
