data_PCOD9078396
_publ_section_title
;
Structure prediction by ZEFSAII (Michael W. Deem and Ramdas Pophale) SiO2 
 PCOD9078396
Probable space group: P -1
;
_chemical_formula_sum "Si O2"
_cell_formula_units_Z 12
_cell_length_a 8.971263
_cell_length_b 7.891252
_cell_length_c 15.918925
_cell_angle_alpha 47.241800
_cell_angle_beta 146.124344
_cell_angle_gamma 122.956072
_cell_volume 460.682482
_symmetry_space_group_name_H-M "P -1"
_symmetry_group_IT_number 2
_symmetry_cell_setting 'triclinic'
loop_
_space_group_symop_operation_xyz
x,y,z
-x,-y,-z
loop_
_atom_site_type_symbol
_atom_site_label
_atom_site_fract_x
_atom_site_fract_y
_atom_site_fract_z
Si Si1 0.273730 0.036944 0.732215
Si Si2 0.919642 0.675977 0.299979
Si Si3 0.154595 0.194562 0.958593
Si Si4 0.439158 0.343594 0.187877
Si Si5 0.491157 0.280948 0.408684
Si Si6 0.726233 0.831912 0.489592
O O1 0.221962 0.136779 0.766664
O O2 0.278069 0.219568 0.594417
O O3 0.557673 0.901518 0.908640
O O4 0.025496 0.886758 0.639726
O O5 0.700804 0.486946 0.248979
O O6 0.206846 0.645776 0.489002
O O7 0.997471 0.738751 0.219984
O O8 0.229645 0.379321 0.002401
O O9 0.000000 0.000000 0.000000
O O10 0.332218 0.382078 0.219508
O O11 0.547609 0.074734 0.326154
O O12 0.379053 0.331120 0.431924
O O13 0.500000 0.000000 0.500000
#
# Coordination Sequence:
#
# PCOD9078396 Si02
#       6
#     2   2   2   2   2   2
#     4  10  20  35  61  86 113 148 198 235 276 338
#     4  12  21  36  62  89 118 146 191 240 290 327
#     4  11  24  41  61  79 114 161 197 227 284 353
#     4  10  21  37  61  87 117 150 185 242 289 336
#     4  10  18  35  62  86 111 154 191 224 277 354
#     4   9  19  37  61  86 115 152 193 227 281 345
#
# _framework density 26.048309
#
# number of rings (size 3 to 8) (size 9 to 14) (size 15 to 20)
#    0.000    1.667    3.333    4.500    0.000    0.000 
#    0.000    1.667   11.000    0.000    0.000    0.000 
#    0.000    0.000    0.000    0.000    0.000    0.000 
#
# Total GULP energy -67119.288574 kJ/mol
# GULP energy per Si atom -5593.274048 kJ/mol
# Density = 2.598902 g / cm^3
# Si number density = 26.048309 Si / 1000 Ang^3
#
#
#
# Elastic Constant Matrix: (Units=GPa)
#
#
# Indices 1 2 3 4 5 6 
#
# 1 123.7410 11.5652 37.5051 4.0959 -42.5239 7.4414
# 2 11.5652 61.7303 13.4682 15.3175 -13.7005 9.3291
# 3 37.5051 13.4682 100.7966 25.8454 -28.8126 -11.3805
# 4 4.0959 15.3175 25.8454 29.8960 2.5947 -6.9613
# 5 -42.5239 -13.7005 -28.8126 2.5947 65.4312 5.3538
# 6 7.4414 9.3291 -11.3805 -6.9613 5.3538 37.5692
#
#
#
# Elastic Compliance Matrix: (Units=1/GPa)
#
#
# Indices 1 2 3 4 5 6 
#
# 1 0.011487 0.001051 -0.002511 -0.001621 0.007020 -0.004598
# 2 0.001051 0.022764 0.001882 -0.016292 0.007694 -0.009406
# 3 -0.002511 0.001882 0.016498 -0.015149 0.006522 0.001291
# 4 -0.001621 -0.016292 -0.015149 0.059369 -0.014541 0.012851
# 5 0.007020 0.007694 0.006522 -0.014541 0.025532 -0.007658
# 6 -0.004598 -0.009406 0.001291 0.012851 -0.007658 0.033728
#
#
# Mechanical properties :
#
#
# Convention : Reuss Voigt Hill
#
# Bulk Modulus (GPa) = 19.38260 45.70498 32.54379
# Shear Modulus (GPa) = 26.92053 41.49458 34.20755
#
# Velocity S-wave (km/s) = 3.21827 3.99555 3.62779
# Velocity P-wave (km/s) = 4.61160 6.23460 5.48348
#
# Compressibility (1/GPa) = 0.05159267
#
# Stress axis : x y z
#
# Youngs Moduli (GPa) = 87.05529 43.92947 60.61208
#
# Poissons Ratio (x) = -0.04617 0.15222
# Poissons Ratio (y) = -0.09149 -0.11408
# Poissons Ratio (z) = 0.21863 -0.08268
#
# Static dielectric constant tensor:
#      x y z
#    x 2.075070 -0.050570 -0.074600 
#    y -0.050570 2.076660 -0.047140 
#    z -0.074600 -0.047140 2.078940 
# 
# From -- ./inp_files/159500.got.cif
#   From: 2010.05.17/outbox.cif.g08.bks.cpg/sg2_80_cif.got.tgz:159500.got - 2010.06.03 11:33:40.
