data_PCOD9078980
_publ_section_title
;
Structure prediction by ZEFSAII (Michael W. Deem and Ramdas Pophale) SiO2 
 PCOD9078980
Probable space group: P -1
;
_chemical_formula_sum "Si O2"
_cell_formula_units_Z 16
_cell_length_a 8.611330
_cell_length_b 13.163967
_cell_length_c 7.392909
_cell_angle_alpha 46.699050
_cell_angle_beta 84.206950
_cell_angle_gamma 92.555838
_cell_volume 599.245007
_symmetry_space_group_name_H-M "P -1"
_symmetry_group_IT_number 2
_symmetry_cell_setting 'triclinic'
loop_
_space_group_symop_operation_xyz
x,y,z
-x,-y,-z
loop_
_atom_site_type_symbol
_atom_site_label
_atom_site_fract_x
_atom_site_fract_y
_atom_site_fract_z
Si Si1 0.147923 0.994641 0.618358
Si Si2 0.530868 0.292354 0.398581
Si Si3 0.670451 0.065149 0.816404
Si Si4 0.393542 0.224965 0.129978
Si Si5 0.266724 0.746242 0.091306
Si Si6 0.109365 0.452959 0.320371
Si Si7 0.792300 0.548144 0.112446
Si Si8 0.801328 0.824209 0.246878
O O1 0.305018 0.081586 0.402620
O O2 0.135556 0.078294 0.706609
O O3 0.456189 0.786203 0.993937
O O4 0.000000 0.000000 0.500000
O O5 0.625424 0.158672 0.542295
O O6 0.473280 0.318576 0.174077
O O7 0.645939 0.423693 0.300964
O O8 0.375341 0.251158 0.586657
O O9 0.772696 0.937750 0.957451
O O10 0.756063 0.184422 0.797009
O O11 0.500000 0.000000 0.000000
O O12 0.260904 0.312221 0.969571
O O13 0.176143 0.837347 0.853747
O O14 0.216429 0.582289 0.252170
O O15 0.104132 0.306858 0.608189
O O16 0.941747 0.501901 0.247942
O O17 0.169333 0.431778 0.132475
#
# Coordination Sequence:
#
# PCOD9078980 Si02
#       8
#     2   2   2   2   2   2   2   2
#     4  10  20  33  53  86 123 153 189 247 301 343
#     4  10  18  36  61  84 116 156 195 237 295 350
#     4   9  21  41  61  83 121 161 193 241 300 352
#     4  11  20  36  60  91 119 149 201 252 290 347
#     4  11  22  36  61  92 115 154 205 245 291 350
#     4  11  21  36  60  92 119 154 199 245 307 349
#     4  11  21  34  60  92 122 155 190 251 306 350
#     4   9  19  37  59  81 119 158 193 237 296 354
#
# _framework density 26.700265999999999
#
# number of rings (size 3 to 8) (size 9 to 14) (size 15 to 20)
#    0.000    1.750    3.750    3.000    1.750    0.000 
#    0.000    6.875    0.000    4.500    0.000    0.875 
#    0.000    0.000    0.000    0.000    0.000    0.000 
#
# Total GULP energy -89696.012609 kJ/mol
# GULP energy per Si atom -5606.000788 kJ/mol
# Density = 2.663950 g / cm^3
# Si number density = 26.700266 Si / 1000 Ang^3
#
#
#
# Elastic Constant Matrix: (Units=GPa)
#
#
# Indices 1 2 3 4 5 6 
#
# 1 136.2985 39.9587 44.7470 -7.3137 19.6579 4.1115
# 2 39.9587 102.3026 30.6537 -24.9257 12.7372 -11.8911
# 3 44.7470 30.6537 110.0887 -29.4086 42.0827 -17.9938
# 4 -7.3137 -24.9257 -29.4086 47.1208 -5.4154 12.6984
# 5 19.6579 12.7372 42.0827 -5.4154 61.8673 -13.3256
# 6 4.1115 -11.8911 -17.9938 12.6984 -13.3256 31.0340
#
#
#
# Elastic Compliance Matrix: (Units=1/GPa)
#
#
# Indices 1 2 3 4 5 6 
#
# 1 0.009806 -0.003487 -0.003841 -0.001583 -0.000917 -0.004608
# 2 -0.003487 0.012865 -0.000114 0.005348 -0.000352 0.002986
# 3 -0.003841 -0.000114 0.016614 0.007866 -0.008691 0.003148
# 4 -0.001583 0.005348 0.007866 0.030212 -0.004956 -0.007671
# 5 -0.000917 -0.000352 -0.008691 -0.004956 0.023530 0.007079
# 6 -0.004608 0.002986 0.003148 -0.007671 0.007079 0.041981
#
#
# Mechanical properties :
#
#
# Convention : Reuss Voigt Hill
#
# Bulk Modulus (GPa) = 40.97792 64.37874 52.67833
# Shear Modulus (GPa) = 31.64080 43.55977 37.60029
#
# Velocity S-wave (km/s) = 3.44617 4.04349 3.75672
# Velocity P-wave (km/s) = 5.58708 6.77965 6.21205
#
# Compressibility (1/GPa) = 0.02440339
#
# Stress axis : x y z
#
# Youngs Moduli (GPa) = 101.97711 77.73204 60.18934
#
# Poissons Ratio (x) = 0.27101 0.23116
# Poissons Ratio (y) = 0.35555 0.00685
# Poissons Ratio (z) = 0.39165 0.00884
#
# Static dielectric constant tensor:
#      x y z
#    x 2.081820 -0.042970 0.022590 
#    y -0.042970 2.105950 0.040000 
#    z 0.022590 0.040000 2.067860 
# 
# From -- ./inp_files/184258.got.cif
#   From: 2010.05.17/outbox.cif.g08.bks.cpg/sg2_93_cif.got.tgz:184258.got - 2010.06.03 11:33:40.
