data_PCOD9078105
_publ_section_title
;
Structure prediction by ZEFSAII (Michael W. Deem and Ramdas Pophale) SiO2 
 PCOD9078105
Probable space group: P -1
;
_chemical_formula_sum "Si O2"
_cell_formula_units_Z 16
_cell_length_a 17.916846
_cell_length_b 11.176014
_cell_length_c 7.550976
_cell_angle_alpha 53.659874
_cell_angle_beta 55.948843
_cell_angle_gamma 32.384529
_cell_volume 646.087892
_symmetry_space_group_name_H-M "P -1"
_symmetry_group_IT_number 2
_symmetry_cell_setting 'triclinic'
loop_
_space_group_symop_operation_xyz
x,y,z
-x,-y,-z
loop_
_atom_site_type_symbol
_atom_site_label
_atom_site_fract_x
_atom_site_fract_y
_atom_site_fract_z
Si Si1 0.951184 0.431376 0.820493
Si Si2 0.146173 0.731040 0.071027
Si Si3 0.256201 0.076888 0.141505
Si Si4 0.753792 0.815613 0.352441
Si Si5 0.029432 0.138247 0.308172
Si Si6 0.544122 0.599701 0.100796
Si Si7 0.495728 0.686965 0.657486
Si Si8 0.249279 0.487909 0.475257
O O1 0.887249 0.400071 0.791340
O O2 0.832328 0.689542 0.835076
O O3 0.087343 0.352733 0.654813
O O4 0.012836 0.228897 0.055664
O O5 0.195965 0.688233 0.244451
O O6 0.292102 0.581575 0.907434
O O7 0.000000 0.000000 0.000000
O O8 0.169959 0.029412 0.302400
O O9 0.422789 0.841282 0.156052
O O10 0.249764 0.135200 0.893281
O O11 0.691479 0.729124 0.515462
O O12 0.652743 0.046605 0.399256
O O13 0.893641 0.387069 0.359391
O O14 0.000000 0.000000 0.500000
O O15 0.511033 0.467990 0.272202
O O16 0.521669 0.656732 0.866154
O O17 0.630160 0.604252 0.478492
#
# Coordination Sequence:
#
# PCOD9078105 Si02
#       8
#     2   2   2   2   2   2   2   2
#     4  11  21  38  59  83 120 159 183 231 294 339
#     4  11  24  39  57  83 116 153 195 235 286 347
#     4  10  19  37  60  84 118 149 194 238 281 343
#     4  10  18  35  58  88 115 143 192 239 280 340
#     4  11  20  35  61  89 114 149 195 239 282 335
#     4   9  19  36  56  82 111 153 192 230 287 341
#     4   9  18  32  58  86 114 142 188 246 285 323
#     4  11  20  35  57  90 111 145 194 236 288 333
#
# _framework density 24.764430999999998
#
# number of rings (size 3 to 8) (size 9 to 14) (size 15 to 20)
#    0.000    1.750    2.500    3.375    0.000    5.000 
#    0.000    0.000    0.000    3.750    0.000    0.000 
#    0.000    0.000    0.000    0.000    0.000    0.000 
#
# Total GULP energy -89299.412307 kJ/mol
# GULP energy per Si atom -5581.213269 kJ/mol
# Density = 2.470807 g / cm^3
# Si number density = 24.764431 Si / 1000 Ang^3
#
#
#
# Elastic Constant Matrix: (Units=GPa)
#
#
# Indices 1 2 3 4 5 6 
#
# 1 83.1063 71.0132 26.7611 -1.3188 -35.6073 -11.6729
# 2 71.0132 207.1001 32.9512 7.8745 -23.9245 -24.4057
# 3 26.7611 32.9512 53.5299 -9.5354 -24.1805 -9.4484
# 4 -1.3188 7.8745 -9.5354 28.9181 5.9466 -13.6812
# 5 -35.6073 -23.9245 -24.1805 5.9466 39.4356 5.2387
# 6 -11.6729 -24.4057 -9.4484 -13.6812 5.2387 40.9676
#
#
#
# Elastic Compliance Matrix: (Units=1/GPa)
#
#
# Indices 1 2 3 4 5 6 
#
# 1 0.026177 -0.006568 -0.000226 -0.000756 0.019528 0.000745
# 2 -0.006568 0.007426 -0.002658 -0.001753 -0.003021 0.001741
# 3 -0.000226 -0.002658 0.029979 0.011144 0.013928 0.007207
# 4 -0.000756 -0.001753 0.011144 0.048136 -0.004558 0.017969
# 5 0.019528 -0.003021 0.013928 -0.004558 0.050518 -0.001006
# 6 0.000745 0.001741 0.007207 0.017969 -0.001006 0.033450
#
#
# Mechanical properties :
#
#
# Convention : Reuss Voigt Hill
#
# Bulk Modulus (GPa) = 22.38178 67.24302 44.81240
# Shear Modulus (GPa) = 21.78824 36.06497 28.92660
#
# Velocity S-wave (km/s) = 2.96939 3.82032 3.42141
# Velocity P-wave (km/s) = 4.56222 6.83168 5.80886
#
# Compressibility (1/GPa) = 0.04467919
#
# Stress axis : x y z
#
# Youngs Moduli (GPa) = 38.20192 134.65836 33.35688
#
# Poissons Ratio (x) = 0.88437 0.00753
# Poissons Ratio (y) = 0.25089 0.08866
# Poissons Ratio (z) = 0.00863 0.35791
#
# Static dielectric constant tensor:
#      x y z
#    x 1.943600 -0.019550 0.061860 
#    y -0.019550 2.002970 0.005370 
#    z 0.061860 0.005370 2.066520 
# 
# From -- ./inp_files/277971.got.cif
#   From: 2010.05.17/outbox.cif.g08.bks.cpg/sg2_139_cif.got.tgz:277971.got - 2010.06.03 11:33:40.
