data_PCOD9078957
_publ_section_title
;
Structure prediction by ZEFSAII (Michael W. Deem and Ramdas Pophale) SiO2 
 PCOD9078957
Probable space group: P -1
;
_chemical_formula_sum "Si O2"
_cell_formula_units_Z 15
_cell_length_a 19.983962
_cell_length_b 13.603054
_cell_length_c 8.888535
_cell_angle_alpha 137.138602
_cell_angle_beta 53.086017
_cell_angle_gamma 154.373960
_cell_volume 695.774991
_symmetry_space_group_name_H-M "P -1"
_symmetry_group_IT_number 2
_symmetry_cell_setting 'triclinic'
loop_
_space_group_symop_operation_xyz
x,y,z
-x,-y,-z
loop_
_atom_site_type_symbol
_atom_site_label
_atom_site_fract_x
_atom_site_fract_y
_atom_site_fract_z
Si Si1 0.087118 0.262160 0.756272
Si Si2 0.238547 0.492981 0.517401
Si Si3 0.000000 0.500000 0.500000
Si Si4 0.691892 0.117631 0.292887
Si Si5 0.917742 0.935083 0.187058
Si Si6 0.865238 0.192534 0.892408
Si Si7 0.522597 0.374130 0.758435
Si Si8 0.243996 0.021416 0.531183
O O1 0.229717 0.505336 0.722532
O O2 0.961520 0.207649 0.865342
O O3 0.130578 0.268462 0.869017
O O4 0.000000 0.000000 0.500000
O O5 0.327062 0.751762 0.604638
O O6 0.309753 0.442560 0.317230
O O7 0.056197 0.228391 0.413253
O O8 0.838328 0.326639 0.445495
O O9 0.891213 0.265596 0.520087
O O10 0.544605 0.834537 0.260693
O O11 0.746363 0.093350 0.056231
O O12 0.779467 0.845013 0.241465
O O13 0.000000 0.000000 0.000000
O O14 0.777860 0.015939 0.660416
O O15 0.000000 0.500000 0.000000
O O16 0.409806 0.207317 0.577139
O O17 0.500000 0.500000 0.000000
#
# Coordination Sequence:
#
# PCOD9078957 Si02
#       8
#     2   2   1   2   2   2   2   2
#     4  10  21  36  64  92 128 165 205 266 323 361
#     4  11  21  45  61  91 131 170 212 260 326 384
#     4  10  18  36  60  96 118 158 210 276 298 366
#     4  11  23  39  68  92 132 168 217 262 329 376
#     4  11  22  36  65  97 125 162 220 270 316 376
#     4  12  20  39  67 101 125 159 215 272 323 374
#     4  11  27  43  64  91 132 180 211 261 327 390
#     4  11  22  40  60  97 126 162 219 264 320 375
#
# _framework density 21.558692000000001
#
# number of rings (size 3 to 8) (size 9 to 14) (size 15 to 20)
#    0.000    1.067    6.667    1.200    7.467    0.000 
#    0.000    4.667    0.000    0.000    0.000    0.000 
#    0.000    0.000    0.000    0.000    0.000    0.000 
#
# Total GULP energy -83538.817775 kJ/mol
# GULP energy per Si atom -5569.254518 kJ/mol
# Density = 2.150962 g / cm^3
# Si number density = 21.558692 Si / 1000 Ang^3
#
#
#
# Elastic Constant Matrix: (Units=GPa)
#
#
# Indices 1 2 3 4 5 6 
#
# 1 105.5423 39.9841 27.7098 -23.2893 -11.5494 -28.3093
# 2 39.9841 54.7672 4.2805 -14.2293 0.6199 -12.7053
# 3 27.7098 4.2805 45.4499 -23.5739 -13.0636 -4.3028
# 4 -23.2893 -14.2293 -23.5739 34.7416 -0.7639 -0.4960
# 5 -11.5494 0.6199 -13.0636 -0.7639 30.7521 -6.8789
# 6 -28.3093 -12.7053 -4.3028 -0.4960 -6.8789 41.6570
#
#
#
# Elastic Compliance Matrix: (Units=1/GPa)
#
#
# Indices 1 2 3 4 5 6 
#
# 1 0.019809 -0.009748 -0.003929 0.006978 0.008737 0.011609
# 2 -0.009748 0.028533 0.010248 0.012182 0.001198 0.003480
# 3 -0.003929 0.010248 0.049188 0.035567 0.022252 0.009634
# 4 0.006978 0.012182 0.035567 0.063324 0.022781 0.016647
# 5 0.008737 0.001198 0.022252 0.022781 0.049611 0.017065
# 6 0.011609 0.003480 0.009634 0.016647 0.017065 0.036967
#
#
# Mechanical properties :
#
#
# Convention : Reuss Voigt Hill
#
# Bulk Modulus (GPa) = 11.02863 38.85646 24.94255
# Shear Modulus (GPa) = 17.57375 30.34914 23.96145
#
# Velocity S-wave (km/s) = 2.85820 3.75606 3.33746
# Velocity P-wave (km/s) = 4.00239 6.07235 5.14259
#
# Compressibility (1/GPa) = 0.09067306
#
# Stress axis : x y z
#
# Youngs Moduli (GPa) = 50.48177 35.04652 20.33004
#
# Poissons Ratio (x) = 0.34163 0.07988
# Poissons Ratio (y) = 0.49208 -0.20835
# Poissons Ratio (z) = 0.19836 -0.35916
#
# Static dielectric constant tensor:
#      x y z
#    x 1.933440 0.016760 0.041900 
#    y 0.016760 1.789860 0.017300 
#    z 0.041900 0.017300 1.851710 
# 
# From -- ./inp_files/174459.got.cif
#   From: 2010.05.17/outbox.cif.g08.bks.cpg/sg2_88_cif.got.tgz:174459.got - 2010.06.03 11:33:40.
