data_PCOD9078468
_publ_section_title
;
Structure prediction by ZEFSAII (Michael W. Deem and Ramdas Pophale) SiO2 
 PCOD9078468
Probable space group: P -1
;
_chemical_formula_sum "Si O2"
_cell_formula_units_Z 16
_cell_length_a 17.758475
_cell_length_b 7.101388
_cell_length_c 11.715427
_cell_angle_alpha 91.579490
_cell_angle_beta 138.973900
_cell_angle_gamma 117.423947
_cell_volume 658.782763
_symmetry_space_group_name_H-M "P -1"
_symmetry_group_IT_number 2
_symmetry_cell_setting 'triclinic'
loop_
_space_group_symop_operation_xyz
x,y,z
-x,-y,-z
loop_
_atom_site_type_symbol
_atom_site_label
_atom_site_fract_x
_atom_site_fract_y
_atom_site_fract_z
Si Si1 0.025707 0.847252 0.790203
Si Si2 0.406001 0.052739 0.628701
Si Si3 0.658971 0.447497 0.404246
Si Si4 0.470658 0.244520 0.961926
Si Si5 0.959055 0.371232 0.827148
Si Si6 0.399050 0.263543 0.287346
Si Si7 0.289190 0.722547 0.114834
Si Si8 0.848093 0.216864 0.260470
O O1 0.077946 0.880259 0.718614
O O2 0.854130 0.747806 0.625279
O O3 0.975940 0.572359 0.765908
O O4 0.207154 0.109332 0.056445
O O5 0.356284 0.772007 0.554459
O O6 0.228244 0.937491 0.398640
O O7 0.467624 0.167826 0.829020
O O8 0.569538 0.264089 0.740582
O O9 0.516494 0.399178 0.307469
O O10 0.606134 0.337968 0.211285
O O11 0.290741 0.991271 0.808023
O O12 0.500000 0.500000 0.000000
O O13 0.000000 0.500000 0.000000
O O14 0.118975 0.441701 0.972450
O O15 0.500000 0.500000 0.500000
O O16 0.361045 0.994690 0.266649
O O17 0.239990 0.755097 0.935518
O O18 0.000000 0.500000 0.500000
#
# Coordination Sequence:
#
# PCOD9078468 Si02
#       8
#     2   2   2   2   2   2   2   2
#     4   9  19  34  58  87 108 154 211 239 283 372
#     4  10  20  37  63  85 113 163 207 231 293 376
#     4  10  19  38  63  86 115 160 215 239 284 382
#     4  12  23  38  60  95 131 154 191 267 321 342
#     4   9  18  35  56  86 120 143 196 262 295 329
#     4   9  17  34  57  83 118 146 200 254 295 337
#     4   9  19  35  58  89 107 151 218 234 279 375
#     4  10  18  35  63  88 119 160 204 243 294 365
#
# _framework density 24.287217999999999
#
# number of rings (size 3 to 8) (size 9 to 14) (size 15 to 20)
#    0.000    2.500    3.750    2.625    1.750    1.000 
#    4.500    0.625    0.000    0.000    0.000    0.000 
#    0.000    0.000    0.000    0.000    0.000    0.000 
#
# Total GULP energy -89324.699305 kJ/mol
# GULP energy per Si atom -5582.793707 kJ/mol
# Density = 2.423194 g / cm^3
# Si number density = 24.287218 Si / 1000 Ang^3
#
#
#
# Elastic Constant Matrix: (Units=GPa)
#
#
# Indices 1 2 3 4 5 6 
#
# 1 132.0634 17.2971 82.3398 8.9478 41.1121 14.0252
# 2 17.2971 38.9267 18.1876 9.2574 14.6503 -4.3405
# 3 82.3398 18.1876 184.6623 37.0529 30.8458 11.0655
# 4 8.9478 9.2574 37.0529 26.9075 12.8470 2.3403
# 5 41.1121 14.6503 30.8458 12.8470 54.7111 12.0399
# 6 14.0252 -4.3405 11.0655 2.3403 12.0399 30.2366
#
#
#
# Elastic Compliance Matrix: (Units=1/GPa)
#
#
# Indices 1 2 3 4 5 6 
#
# 1 0.013883 -0.002637 -0.006275 0.008839 -0.007802 -0.002099
# 2 -0.002637 0.032294 0.000211 -0.008017 -0.006917 0.009157
# 3 -0.006275 0.000211 0.010606 -0.013484 0.001998 -0.000692
# 4 0.008839 -0.008017 -0.013484 0.060883 -0.011051 -0.000628
# 5 -0.007802 -0.006917 0.001998 -0.011051 0.029435 -0.008971
# 6 -0.002099 0.009157 -0.000692 -0.000628 -0.008971 0.039235
#
#
# Mechanical properties :
#
#
# Convention : Reuss Voigt Hill
#
# Bulk Modulus (GPa) = 25.39393 65.70016 45.54705
# Shear Modulus (GPa) = 23.05589 38.22625 30.64107
#
# Velocity S-wave (km/s) = 3.08442 3.97158 3.55577
# Velocity P-wave (km/s) = 4.81282 6.93839 5.97095
#
# Compressibility (1/GPa) = 0.03937949
#
# Stress axis : x y z
#
# Youngs Moduli (GPa) = 72.03209 30.96583 94.28620
#
# Poissons Ratio (x) = 0.08165 0.59166
# Poissons Ratio (y) = 0.18994 -0.01985
# Poissons Ratio (z) = 0.45201 -0.00652
#
# Static dielectric constant tensor:
#      x y z
#    x 2.013450 0.001180 0.070870 
#    y 0.001180 1.977580 -0.030440 
#    z 0.070870 -0.030440 1.969870 
# 
# From -- ./inp_files/461416.got.cif
#   From: 2010.05.17/outbox.cif.g08.bks.cpg/sg2_231_cif.got.tgz:461416.got - 2010.06.03 11:33:40.
