data_PCOD9078255
_publ_section_title
;
Structure prediction by ZEFSAII (Michael W. Deem and Ramdas Pophale) SiO2 
 PCOD9078255
Probable space group: P -1
;
_chemical_formula_sum "Si O2"
_cell_formula_units_Z 16
_cell_length_a 9.164734
_cell_length_b 14.698128
_cell_length_c 9.313389
_cell_angle_alpha 97.208852
_cell_angle_beta 97.507115
_cell_angle_gamma 138.038379
_cell_volume 783.340169
_symmetry_space_group_name_H-M "P -1"
_symmetry_group_IT_number 2
_symmetry_cell_setting 'triclinic'
loop_
_space_group_symop_operation_xyz
x,y,z
-x,-y,-z
loop_
_atom_site_type_symbol
_atom_site_label
_atom_site_fract_x
_atom_site_fract_y
_atom_site_fract_z
Si Si1 0.750316 0.381012 0.015547
Si Si2 0.489442 0.293056 0.564233
Si Si3 0.052129 0.780556 0.635264
Si Si4 0.287999 0.247542 0.924450
Si Si5 0.356736 0.316940 0.265472
Si Si6 0.973449 0.435028 0.334828
Si Si7 0.758949 0.653094 0.309581
Si Si8 0.639253 0.895302 0.245228
O O1 0.569980 0.376897 0.963789
O O2 0.803430 0.400602 0.194013
O O3 0.599439 0.225064 0.899345
O O4 0.000000 0.500000 0.000000
O O5 0.435940 0.279626 0.385970
O O6 0.760563 0.438282 0.660236
O O7 0.350919 0.308703 0.625066
O O8 0.409089 0.163041 0.610570
O O9 0.825662 0.705773 0.679433
O O10 0.113618 0.709828 0.682844
O O11 0.982335 0.738708 0.450507
O O12 0.239632 0.949664 0.712446
O O13 0.249079 0.229232 0.085534
O O14 0.200152 0.294241 0.837441
O O15 0.210404 0.114206 0.813760
O O16 0.575211 0.484452 0.280342
O O17 0.000000 0.500000 0.500000
#
# Coordination Sequence:
#
# PCOD9078255 Si02
#       8
#     2   2   2   2   2   2   2   2
#     4  10  20  39  63  79 114 160 195 232 281 350
#     4  10  18  37  59  85 113 153 195 227 296 347
#     4  11  23  37  60  88 118 153 192 242 292 341
#     4   9  21  35  58  91 118 150 193 232 295 339
#     4  11  19  34  60  91 121 146 193 242 284 352
#     4  12  22  38  64  85 110 153 202 245 280 340
#     4  10  18  35  60  86 120 146 193 238 288 347
#     4   9  22  39  56  89 115 157 195 225 302 344
#
# _framework density 20.425353000000001
#
# number of rings (size 3 to 8) (size 9 to 14) (size 15 to 20)
#    0.750    1.000    3.750    1.875    0.000    5.500 
#    0.000    0.625    0.000    0.000    0.000    0.000 
#    0.000    0.000    0.000    0.000    0.000    0.000 
#
# Total GULP energy -89206.645002 kJ/mol
# GULP energy per Si atom -5575.415313 kJ/mol
# Density = 2.037886 g / cm^3
# Si number density = 20.425353 Si / 1000 Ang^3
#
#
#
# Elastic Constant Matrix: (Units=GPa)
#
#
# Indices 1 2 3 4 5 6 
#
# 1 15.1604 -0.0684 0.8715 -4.9744 -0.0221 -4.6715
# 2 -0.0684 102.9978 27.6955 12.6041 -13.8050 -17.4054
# 3 0.8715 27.6955 134.4254 -19.0759 -2.7497 -5.3594
# 4 -4.9744 12.6041 -19.0759 18.8108 1.5101 1.7045
# 5 -0.0221 -13.8050 -2.7497 1.5101 15.7468 7.6142
# 6 -4.6715 -17.4054 -5.3594 1.7045 7.6142 12.1712
#
#
#
# Elastic Compliance Matrix: (Units=1/GPa)
#
#
# Indices 1 2 3 4 5 6 
#
# 1 0.088926 0.000957 0.004181 0.024620 -0.024452 0.049191
# 2 0.000957 0.018502 -0.005668 -0.020494 0.005799 0.023572
# 3 0.004181 -0.005668 0.010742 0.016255 -0.003856 -0.001635
# 4 0.024620 -0.020494 0.016255 0.092604 -0.016578 -0.015297
# 5 -0.024452 0.005799 -0.003856 -0.016578 0.099925 -0.062980
# 6 0.049191 0.023572 -0.001635 -0.015297 -0.062980 0.175573
#
#
# Mechanical properties :
#
#
# Convention : Reuss Voigt Hill
#
# Bulk Modulus (GPa) = 8.53892 34.39787 21.46840
# Shear Modulus (GPa) = 9.49905 24.28477 16.89191
#
# Velocity S-wave (km/s) = 2.15887 3.45186 2.87889
# Velocity P-wave (km/s) = 3.22551 5.72402 4.64588
#
# Compressibility (1/GPa) = 0.11711077
#
# Stress axis : x y z
#
# Youngs Moduli (GPa) = 11.24535 54.04739 93.08948
#
# Poissons Ratio (x) = -0.05173 -0.38921
# Poissons Ratio (y) = -0.01076 0.52763
# Poissons Ratio (z) = -0.04702 0.30634
#
# Static dielectric constant tensor:
#      x y z
#    x 1.740080 0.011790 -0.028620 
#    y 0.011790 1.716230 -0.012490 
#    z -0.028620 -0.012490 1.796130 
# 
# From -- ./inp_files/267689.got.cif
#   From: 2010.05.17/outbox.cif.g08.bks.cpg/sg2_134_cif.got.tgz:267689.got - 2010.06.03 11:33:40.
