data_PCOD9078971
_publ_section_title
;
Structure prediction by ZEFSAII (Michael W. Deem and Ramdas Pophale) SiO2 
 PCOD9078971
Probable space group: P -1
;
_chemical_formula_sum "Si O2"
_cell_formula_units_Z 16
_cell_length_a 9.135505
_cell_length_b 17.701575
_cell_length_c 8.018874
_cell_angle_alpha 80.774721
_cell_angle_beta 67.381460
_cell_angle_gamma 39.086335
_cell_volume 733.119835
_symmetry_space_group_name_H-M "P -1"
_symmetry_group_IT_number 2
_symmetry_cell_setting 'triclinic'
loop_
_space_group_symop_operation_xyz
x,y,z
-x,-y,-z
loop_
_atom_site_type_symbol
_atom_site_label
_atom_site_fract_x
_atom_site_fract_y
_atom_site_fract_z
Si Si1 0.259522 0.124214 0.212908
Si Si2 0.967821 0.662697 0.564064
Si Si3 0.748133 0.790513 0.171392
Si Si4 0.095169 0.549990 0.914496
Si Si5 0.489744 0.522910 0.693727
Si Si6 0.186200 0.078173 0.789236
Si Si7 0.578747 0.143896 0.442223
Si Si8 0.852617 0.193683 0.204408
O O1 0.071596 0.237147 0.382910
O O2 0.534153 0.021649 0.211039
O O3 0.109967 0.105935 0.231130
O O4 0.286528 0.158935 0.013952
O O5 0.696200 0.746491 0.570933
O O6 0.012908 0.599542 0.740517
O O7 0.216952 0.563893 0.373625
O O8 0.499105 0.847624 0.339711
O O9 0.852260 0.815525 0.246780
O O10 0.945685 0.650842 0.089234
O O11 0.373584 0.487192 0.829390
O O12 0.000000 0.500000 0.000000
O O13 0.500000 0.500000 0.500000
O O14 0.305098 0.665765 0.765524
O O15 0.244224 0.992945 0.654831
O O16 0.959339 0.139135 0.990357
O O17 0.703023 0.178447 0.344590
#
# Coordination Sequence:
#
# PCOD9078971 Si02
#       8
#     2   2   2   2   2   2   2   2
#     4   9  18  38  65  79 108 155 194 229 284 340
#     4   9  20  39  56  84 117 153 188 226 285 342
#     4  10  19  36  56  88 110 149 189 231 289 330
#     4  10  20  36  62  84 111 146 196 240 275 328
#     4  10  18  36  61  81 112 151 191 235 278 338
#     4  10  20  41  60  80 114 157 190 229 287 342
#     4  11  24  34  58  89 119 148 188 238 280 336
#     4  11  19  35  59  87 110 153 192 230 283 340
#
# _framework density 21.824535000000001
#
# number of rings (size 3 to 8) (size 9 to 14) (size 15 to 20)
#    0.000    2.000    5.000    2.250    3.500    0.500 
#    0.000    5.625    0.000    9.000    0.000    0.000 
#    0.000    0.000    0.000    0.000    0.000    0.000 
#
# Total GULP energy -89068.111720 kJ/mol
# GULP energy per Si atom -5566.756983 kJ/mol
# Density = 2.177486 g / cm^3
# Si number density = 21.824535 Si / 1000 Ang^3
#
#
#
# Elastic Constant Matrix: (Units=GPa)
#
#
# Indices 1 2 3 4 5 6 
#
# 1 89.5598 31.9372 53.6099 -8.7169 -33.2771 19.0632
# 2 31.9372 64.0291 43.6691 11.9187 -7.4801 10.6150
# 3 53.6099 43.6691 146.7236 18.5897 -29.7298 13.8795
# 4 -8.7169 11.9187 18.5897 32.7955 4.1395 -3.1336
# 5 -33.2771 -7.4801 -29.7298 4.1395 35.3945 -14.0531
# 6 19.0632 10.6150 13.8795 -3.1336 -14.0531 29.8755
#
#
#
# Elastic Compliance Matrix: (Units=1/GPa)
#
#
# Indices 1 2 3 4 5 6 
#
# 1 0.023678 -0.008774 -0.004012 0.009657 0.015111 -0.002006
# 2 -0.008774 0.024340 -0.003989 -0.008487 -0.007736 -0.005726
# 3 -0.004012 -0.003989 0.011510 -0.006843 0.006178 0.000818
# 4 0.009657 -0.008487 -0.006843 0.040582 -0.001851 0.003418
# 5 0.015111 -0.007736 0.006178 -0.001851 0.051987 0.014496
# 6 -0.002006 -0.005726 0.000818 0.003418 0.014496 0.043584
#
#
# Mechanical properties :
#
#
# Convention : Reuss Voigt Hill
#
# Bulk Modulus (GPa) = 38.49371 62.08278 50.28825
# Shear Modulus (GPa) = 21.01816 31.01951 26.01884
#
# Velocity S-wave (km/s) = 3.10667 3.77412 3.45655
# Velocity P-wave (km/s) = 5.52672 6.89203 6.24679
#
# Compressibility (1/GPa) = 0.02597827
#
# Stress axis : x y z
#
# Youngs Moduli (GPa) = 42.23389 41.08432 86.88044
#
# Poissons Ratio (x) = 0.36046 0.34856
# Poissons Ratio (y) = 0.37055 0.34659
# Poissons Ratio (z) = 0.16944 0.16389
#
# Static dielectric constant tensor:
#      x y z
#    x 1.823360 -0.024330 0.026370 
#    y -0.024330 1.948380 0.019050 
#    z 0.026370 0.019050 1.846540 
# 
# From -- ./inp_files/217640.got.cif
#   From: 2010.05.17/outbox.cif.g08.bks.cpg/sg2_109_cif.got.tgz:217640.got - 2010.06.03 11:33:40.
