data_PCOD9078998
_publ_section_title
;
Structure prediction by ZEFSAII (Michael W. Deem and Ramdas Pophale) SiO2 
 PCOD9078998
Probable space group: P -1
;
_chemical_formula_sum "Si O2"
_cell_formula_units_Z 14
_cell_length_a 9.563905
_cell_length_b 7.849991
_cell_length_c 12.521816
_cell_angle_alpha 115.738536
_cell_angle_beta 49.147821
_cell_angle_gamma 121.277865
_cell_volume 601.187365
_symmetry_space_group_name_H-M "P -1"
_symmetry_group_IT_number 2
_symmetry_cell_setting 'triclinic'
loop_
_space_group_symop_operation_xyz
x,y,z
-x,-y,-z
loop_
_atom_site_type_symbol
_atom_site_label
_atom_site_fract_x
_atom_site_fract_y
_atom_site_fract_z
Si Si1 0.087786 0.806457 0.785386
Si Si2 0.960894 0.755930 0.073029
Si Si3 0.869663 0.142587 0.582637
Si Si4 0.722710 0.067772 0.863863
Si Si5 0.447747 0.483358 0.703335
Si Si6 0.479308 0.190335 0.424408
Si Si7 0.826670 0.657873 0.679361
O O1 0.309240 0.819255 0.658474
O O2 0.937129 0.663757 0.737006
O O3 0.081775 0.032625 0.845115
O O4 0.030352 0.731238 0.913470
O O5 0.761919 0.578035 0.153083
O O6 0.130667 0.790522 0.084770
O O7 0.022458 0.320679 0.488210
O O8 0.774357 0.171816 0.750023
O O9 0.690855 0.022292 0.562434
O O10 0.000000 0.000000 0.500000
O O11 0.774827 0.863933 0.770872
O O12 0.500000 0.000000 0.000000
O O13 0.425505 0.316957 0.578266
O O14 0.507828 0.690841 0.662255
O O15 0.619505 0.493746 0.704493
#
# Coordination Sequence:
#
# PCOD9078998 Si02
#       7
#     2   2   2   2   2   2   2
#     4  10  23  44  60  86 124 166 201 242 303 379
#     4  10  23  40  65  86 125 162 201 249 306 356
#     4  10  18  36  61  87 116 161 197 246 289 359
#     4  10  19  36  61  91 116 158 207 246 286 365
#     4  11  23  38  62  93 122 156 203 258 300 347
#     4  11  22  38  64  91 121 157 206 250 299 361
#     4  10  22  39  61  86 126 160 198 250 305 356
#
# _framework density 23.287248999999999
#
# number of rings (size 3 to 8) (size 9 to 14) (size 15 to 20)
#    0.000    1.714    2.857    3.429    2.000    4.000 
#    0.000    0.000    0.000    0.000    0.000    0.000 
#    0.000    0.000    0.000    0.000    0.000    0.000 
#
# Total GULP energy -78381.415152 kJ/mol
# GULP energy per Si atom -5598.672511 kJ/mol
# Density = 2.323425 g / cm^3
# Si number density = 23.287249 Si / 1000 Ang^3
#
#
#
# Elastic Constant Matrix: (Units=GPa)
#
#
# Indices 1 2 3 4 5 6 
#
# 1 137.8019 34.1254 40.9315 -4.9248 5.6772 45.6312
# 2 34.1254 67.5581 34.8163 -8.7493 -2.6990 10.7024
# 3 40.9315 34.8163 131.1463 -17.6267 -1.1164 11.5630
# 4 -4.9248 -8.7493 -17.6267 27.6301 13.2095 -15.4458
# 5 5.6772 -2.6990 -1.1164 13.2095 37.4507 0.7113
# 6 45.6312 10.7024 11.5630 -15.4458 0.7113 39.7152
#
#
#
# Elastic Compliance Matrix: (Units=1/GPa)
#
#
# Indices 1 2 3 4 5 6 
#
# 1 0.016126 -0.004469 -0.003842 -0.014495 0.002647 -0.021890
# 2 -0.004469 0.018899 -0.003257 0.004490 0.000307 0.002731
# 3 -0.003842 -0.003257 0.010435 0.009724 -0.002887 0.006088
# 4 -0.014495 0.004490 0.009724 0.077508 -0.025348 0.043211
# 5 0.002647 0.000307 -0.002887 -0.025348 0.035420 -0.012776
# 6 -0.021890 0.002731 0.006088 0.043211 -0.012776 0.064856
#
#
# Mechanical properties :
#
#
# Convention : Reuss Voigt Hill
#
# Bulk Modulus (GPa) = 44.79710 61.80586 53.30148
# Shear Modulus (GPa) = 19.69879 36.06807 27.88343
#
# Velocity S-wave (km/s) = 2.91160 3.93979 3.46406
# Velocity P-wave (km/s) = 5.53007 6.87708 6.24003
#
# Compressibility (1/GPa) = 0.02232287
#
# Stress axis : x y z
#
# Youngs Moduli (GPa) = 62.01006 52.91189 95.83578
#
# Poissons Ratio (x) = 0.23648 0.36822
# Poissons Ratio (y) = 0.27715 0.31215
# Poissons Ratio (z) = 0.23825 0.17234
#
# Static dielectric constant tensor:
#      x y z
#    x 1.859010 -0.063780 0.010020 
#    y -0.063780 1.911380 0.011770 
#    z 0.010020 0.011770 1.835480 
# 
# From -- ./inp_files/156738.got.cif
#   From: 2010.05.17/outbox.cif.g08.bks.cpg/sg2_79_cif.got.tgz:156738.got - 2010.06.03 11:33:40.
