data_PCOD9078155
_publ_section_title
;
Structure prediction by ZEFSAII (Michael W. Deem and Ramdas Pophale) SiO2 
 PCOD9078155
Probable space group: P -1
;
_chemical_formula_sum "Si O2"
_cell_formula_units_Z 16
_cell_length_a 10.906556
_cell_length_b 8.928384
_cell_length_c 7.753360
_cell_angle_alpha 69.056329
_cell_angle_beta 63.453430
_cell_angle_gamma 87.606946
_cell_volume 624.461193
_symmetry_space_group_name_H-M "P -1"
_symmetry_group_IT_number 2
_symmetry_cell_setting 'triclinic'
loop_
_space_group_symop_operation_xyz
x,y,z
-x,-y,-z
loop_
_atom_site_type_symbol
_atom_site_label
_atom_site_fract_x
_atom_site_fract_y
_atom_site_fract_z
Si Si1 0.767931 0.856418 0.946033
Si Si2 0.500005 0.847020 0.937077
Si Si3 0.731473 0.102292 0.159049
Si Si4 0.242974 0.686423 0.371231
Si Si5 0.346802 0.418793 0.595816
Si Si6 0.825201 0.803685 0.410701
Si Si7 0.996995 0.237084 0.350444
Si Si8 0.941890 0.382912 0.814170
O O1 0.927142 0.842850 0.816229
O O2 0.660228 0.826385 0.864985
O O3 0.765288 0.022980 0.984399
O O4 0.702149 0.712878 0.174358
O O5 0.386878 0.721095 0.162616
O O6 0.500000 0.000000 0.000000
O O7 0.429252 0.877079 0.785055
O O8 0.778613 0.973134 0.313628
O O9 0.825733 0.274518 0.046069
O O10 0.265890 0.569538 0.561214
O O11 0.132998 0.609545 0.329112
O O12 0.160427 0.816072 0.466363
O O13 0.500000 0.500000 0.500000
O O14 0.314533 0.323242 0.475109
O O15 0.907540 0.803136 0.534141
O O16 0.933470 0.724036 0.248292
O O17 0.022187 0.432027 0.224862
#
# Coordination Sequence:
#
# PCOD9078155 Si02
#       8
#     2   2   2   2   2   2   2   2
#     4  10  22  36  59  94 122 150 195 259 298 337
#     4   9  18  37  57  81 115 162 198 231 288 361
#     4   9  20  36  61  81 115 164 206 230 285 370
#     4  10  18  35  59  84 114 160 198 233 289 365
#     4  11  19  34  59  87 115 155 208 236 282 361
#     4  10  19  37  59  85 114 164 202 234 288 375
#     4  11  21  37  63  93 122 148 195 259 305 334
#     4  10  18  36  62  85 119 160 199 236 297 365
#
# _framework density 25.62209
#
# number of rings (size 3 to 8) (size 9 to 14) (size 15 to 20)
#    0.000    2.000    3.750    1.125    0.000    0.500 
#    0.000   16.250    8.250    0.000    0.000    0.000 
#    0.000    0.000    0.000    0.000    0.000    0.000 
#
# Total GULP energy -89297.753957 kJ/mol
# GULP energy per Si atom -5581.109622 kJ/mol
# Density = 2.556377 g / cm^3
# Si number density = 25.622090 Si / 1000 Ang^3
#
#
#
# Elastic Constant Matrix: (Units=GPa)
#
#
# Indices 1 2 3 4 5 6 
#
# 1 140.7272 30.9035 24.7091 -20.2589 0.4032 -14.4738
# 2 30.9035 55.0698 23.3119 -11.8805 -0.4597 -13.9509
# 3 24.7091 23.3119 46.1801 -16.7889 -3.2331 -8.1166
# 4 -20.2589 -11.8805 -16.7889 42.9150 -6.2306 -1.9349
# 5 0.4032 -0.4597 -3.2331 -6.2306 39.1230 -7.6114
# 6 -14.4738 -13.9509 -8.1166 -1.9349 -7.6114 38.7287
#
#
#
# Elastic Compliance Matrix: (Units=1/GPa)
#
#
# Indices 1 2 3 4 5 6 
#
# 1 0.008678 -0.003026 -0.001711 0.002765 0.000572 0.002045
# 2 -0.003026 0.026077 -0.009321 0.002633 0.001289 0.006694
# 3 -0.001711 -0.009321 0.032011 0.010045 0.004969 0.004190
# 4 0.002765 0.002633 0.010045 0.030608 0.007070 0.007006
# 5 0.000572 0.001289 0.004969 0.007070 0.028603 0.007694
# 6 0.002045 0.006694 0.004190 0.007006 0.007694 0.031736
#
#
# Mechanical properties :
#
#
# Convention : Reuss Voigt Hill
#
# Bulk Modulus (GPa) = 25.87270 44.42511 35.14891
# Shear Modulus (GPa) = 25.16201 35.02354 30.09277
#
# Velocity S-wave (km/s) = 3.13716 3.70121 3.43079
# Velocity P-wave (km/s) = 4.82100 5.97005 5.42603
#
# Compressibility (1/GPa) = 0.03865077
#
# Stress axis : x y z
#
# Youngs Moduli (GPa) = 115.24016 38.34775 31.23908
#
# Poissons Ratio (x) = 0.11604 0.05345
# Poissons Ratio (y) = 0.34873 0.29116
# Poissons Ratio (z) = 0.19717 0.35742
#
# Static dielectric constant tensor:
#      x y z
#    x 2.153100 -0.000230 -0.030280 
#    y -0.000230 2.092580 -0.029190 
#    z -0.030280 -0.029190 2.167050 
# 
# From -- ./inp_files/256720.got.cif
#   From: 2010.05.17/outbox.cif.g08.bks.cpg/sg2_129_cif.got.tgz:256720.got - 2010.06.03 11:33:40.
