data_PCOD9078549
_publ_section_title
;
Structure prediction by ZEFSAII (Michael W. Deem and Ramdas Pophale) SiO2 
 PCOD9078549
Probable space group: P -1
;
_chemical_formula_sum "Si O2"
_cell_formula_units_Z 16
_cell_length_a 12.908817
_cell_length_b 11.491822
_cell_length_c 24.005526
_cell_angle_alpha 152.074583
_cell_angle_beta 22.236135
_cell_angle_gamma 145.114566
_cell_volume 631.057490
_symmetry_space_group_name_H-M "P -1"
_symmetry_group_IT_number 2
_symmetry_cell_setting 'triclinic'
loop_
_space_group_symop_operation_xyz
x,y,z
-x,-y,-z
loop_
_atom_site_type_symbol
_atom_site_label
_atom_site_fract_x
_atom_site_fract_y
_atom_site_fract_z
Si Si1 0.520531 0.265896 0.319535
Si Si2 0.231868 0.604247 0.386710
Si Si3 0.001370 0.613734 0.953210
Si Si4 0.811395 0.180298 0.707561
Si Si5 0.566807 0.206523 0.101650
Si Si6 0.060643 0.915077 0.275468
Si Si7 0.823040 0.034565 0.159087
Si Si8 0.046288 0.449505 0.292529
O O1 0.756679 0.370856 0.207301
O O2 0.597125 0.227479 0.330530
O O3 0.246905 0.413916 0.504967
O O4 0.462203 0.975364 0.212674
O O5 0.496579 0.479548 0.228179
O O6 0.000000 0.500000 0.500000
O O7 0.175250 0.490503 0.305779
O O8 0.192832 0.900160 0.529057
O O9 0.145627 0.747849 0.990978
O O10 0.933942 0.320743 0.867943
O O11 0.761527 0.771663 0.108718
O O12 0.946664 0.204425 0.710200
O O13 0.778621 0.421154 0.788895
O O14 0.000000 0.000000 0.500000
O O15 0.326760 0.100483 0.218093
O O16 0.500000 0.000000 0.000000
O O17 0.987769 0.175227 0.184980
O O18 0.000000 0.000000 0.000000
#
# Coordination Sequence:
#
# PCOD9078549 Si02
#       8
#     2   2   2   2   2   2   2   2
#     4  10  19  38  62  94 131 169 205 264 329 383
#     4  10  21  41  68  92 121 168 224 265 317 378
#     4  11  23  43  64  92 137 168 212 270 322 377
#     4  10  18  35  64  97 128 158 204 267 325 383
#     4  11  24  45  68  91 129 176 218 266 322 376
#     4  11  22  43  67  95 129 166 216 273 319 388
#     4  10  22  37  55  93 133 169 208 256 322 396
#     4  11  20  39  66  93 131 168 214 270 321 387
#
# _framework density 25.354265000000002
#
# number of rings (size 3 to 8) (size 9 to 14) (size 15 to 20)
#    0.000    1.500    3.750    3.375    0.000    2.000 
#    4.500    1.875    0.000    0.000    0.000    0.000 
#    0.000    0.000    0.000    0.000    0.000    0.000 
#
# Total GULP energy -89340.347039 kJ/mol
# GULP energy per Si atom -5583.771690 kJ/mol
# Density = 2.529656 g / cm^3
# Si number density = 25.354265 Si / 1000 Ang^3
#
#
#
# Elastic Constant Matrix: (Units=GPa)
#
#
# Indices 1 2 3 4 5 6 
#
# 1 161.2891 34.0973 36.4692 16.2393 -7.1748 -16.8598
# 2 34.0973 91.5390 18.6466 23.2556 0.9778 2.2807
# 3 36.4692 18.6466 60.2305 5.7707 -2.3431 3.0049
# 4 16.2393 23.2556 5.7707 41.2411 1.2859 -0.3498
# 5 -7.1748 0.9778 -2.3431 1.2859 38.5357 4.7687
# 6 -16.8598 2.2807 3.0049 -0.3498 4.7687 32.7785
#
#
#
# Elastic Compliance Matrix: (Units=1/GPa)
#
#
# Indices 1 2 3 4 5 6 
#
# 1 0.008299 -0.001909 -0.004488 -0.001549 0.000793 0.004681
# 2 -0.001909 0.013891 -0.002428 -0.006743 -0.000415 -0.001737
# 3 -0.004488 -0.002428 0.020294 0.000232 0.000964 -0.004138
# 4 -0.001549 -0.006743 0.000232 0.028662 -0.001074 0.000114
# 5 0.000793 -0.000415 0.000964 -0.001074 0.026641 -0.003539
# 6 0.004681 -0.001737 -0.004138 0.000114 -0.003539 0.033932
#
#
# Mechanical properties :
#
#
# Convention : Reuss Voigt Hill
#
# Bulk Modulus (GPa) = 40.26834 54.60940 47.43887
# Shear Modulus (GPa) = 31.71665 37.43410 34.57538
#
# Velocity S-wave (km/s) = 3.54070 3.84662 3.69682
# Velocity P-wave (km/s) = 5.71246 6.42759 6.08055
#
# Compressibility (1/GPa) = 0.02483340
#
# Stress axis : x y z
#
# Youngs Moduli (GPa) = 120.49777 71.99031 49.27562
#
# Poissons Ratio (x) = 0.13741 0.22117
# Poissons Ratio (y) = 0.22999 0.11965
# Poissons Ratio (z) = 0.54084 0.17480
#
# Static dielectric constant tensor:
#      x y z
#    x 2.105070 -0.033510 -0.005730 
#    y -0.033510 2.114070 -0.053610 
#    z -0.005730 -0.053610 2.080870 
# 
# From -- ./inp_files/206420.got.cif
#   From: 2010.05.17/outbox.cif.g08.bks.cpg/sg2_104_cif.got.tgz:206420.got - 2010.06.03 11:33:40.
