data_PCOD9078275
_publ_section_title
;
Structure prediction by ZEFSAII (Michael W. Deem and Ramdas Pophale) SiO2 
 PCOD9078275
Probable space group: P -1
;
_chemical_formula_sum "Si O2"
_cell_formula_units_Z 16
_cell_length_a 24.457255
_cell_length_b 16.004374
_cell_length_c 11.219291
_cell_angle_alpha 27.883328
_cell_angle_beta 28.524612
_cell_angle_gamma 20.665614
_cell_volume 688.496722
_symmetry_space_group_name_H-M "P -1"
_symmetry_group_IT_number 2
_symmetry_cell_setting 'triclinic'
loop_
_space_group_symop_operation_xyz
x,y,z
-x,-y,-z
loop_
_atom_site_type_symbol
_atom_site_label
_atom_site_fract_x
_atom_site_fract_y
_atom_site_fract_z
Si Si1 0.327280 0.146284 0.204608
Si Si2 0.699981 0.226244 0.336316
Si Si3 0.200680 0.562201 0.278509
Si Si4 0.339079 0.771137 0.328713
Si Si5 0.483199 0.062968 0.246414
Si Si6 0.988095 0.554714 0.312009
Si Si7 0.885284 0.825080 0.941883
Si Si8 0.798156 0.532328 0.359945
O O1 0.349213 0.166106 0.275500
O O2 0.172170 0.417485 0.105744
O O3 0.279477 0.994818 0.470427
O O4 0.500000 0.000000 0.000000
O O5 0.505335 0.475040 0.376970
O O6 0.744677 0.191846 0.433888
O O7 0.789513 0.277817 0.025203
O O8 0.376461 0.262306 0.307157
O O9 0.062606 0.579105 0.479077
O O10 0.178198 0.631984 0.371096
O O11 0.231421 0.908048 0.243014
O O12 0.406948 0.896556 0.063916
O O13 0.608764 0.762146 0.399661
O O14 0.000000 0.500000 0.500000
O O15 0.878042 0.810597 0.117529
O O16 0.069866 0.649458 0.764672
O O17 0.838156 0.682418 0.155139
#
# Coordination Sequence:
#
# PCOD9078275 Si02
#       8
#     2   2   2   2   2   2   2   2
#     4  12  23  38  64  90 124 166 211 252 307 372
#     4  10  22  37  61  93 124 165 201 260 309 371
#     4  10  21  38  59  91 125 162 204 256 318 359
#     4   9  19  38  61  90 120 160 212 253 307 359
#     4  10  18  35  60  89 118 161 210 257 301 368
#     4  11  23  40  64  96 127 161 206 259 314 360
#     4   9  19  35  61  90 120 160 210 258 296 365
#     4   9  18  33  60  91 119 158 212 260 297 358
#
# _framework density 23.239035999999999
#
# number of rings (size 3 to 8) (size 9 to 14) (size 15 to 20)
#    0.000    2.000    2.500    1.125    5.250    1.500 
#    0.000    0.625    0.000    3.750    0.000    0.000 
#    0.000    0.000    0.000    0.000    0.000    0.000 
#
# Total GULP energy -89238.012296 kJ/mol
# GULP energy per Si atom -5577.375768 kJ/mol
# Density = 2.318614 g / cm^3
# Si number density = 23.239036 Si / 1000 Ang^3
#
#
#
# Elastic Constant Matrix: (Units=GPa)
#
#
# Indices 1 2 3 4 5 6 
#
# 1 61.1046 29.2307 27.5869 -15.9016 31.8836 -24.2657
# 2 29.2307 83.3328 23.4535 -5.6398 11.7949 -35.4371
# 3 27.5869 23.4535 77.8261 5.8575 36.0981 -15.5939
# 4 -15.9016 -5.6398 5.8575 28.9917 -7.6752 5.2241
# 5 31.8836 11.7949 36.0981 -7.6752 39.2100 -4.2989
# 6 -24.2657 -35.4371 -15.5939 5.2241 -4.2989 33.5734
#
#
#
# Elastic Compliance Matrix: (Units=1/GPa)
#
#
# Indices 1 2 3 4 5 6 
#
# 1 0.051423 0.001717 0.008413 0.008608 -0.044461 0.035854
# 2 0.001717 0.022522 0.000313 -0.000723 -0.005913 0.024514
# 3 0.008413 0.000313 0.031931 -0.015017 -0.037209 0.018815
# 4 0.008608 -0.000723 -0.015017 0.047477 0.015579 -0.006909
# 5 -0.044461 -0.005913 -0.037209 0.015579 0.095717 -0.045827
# 6 0.035854 0.024514 0.018815 -0.006909 -0.045827 0.085521
#
#
# Mechanical properties :
#
#
# Convention : Reuss Voigt Hill
#
# Bulk Modulus (GPa) = 7.88870 42.53396 25.21133
# Shear Modulus (GPa) = 14.04652 29.82118 21.93385
#
# Velocity S-wave (km/s) = 2.46120 3.58612 3.07553
# Velocity P-wave (km/s) = 3.38801 5.95731 4.84604
#
# Compressibility (1/GPa) = 0.12676361
#
# Stress axis : x y z
#
# Youngs Moduli (GPa) = 19.44643 44.40020 31.31704
#
# Poissons Ratio (x) = -0.07623 -0.26347
# Poissons Ratio (y) = -0.03339 -0.00981
# Poissons Ratio (z) = -0.16360 -0.01391
#
# Static dielectric constant tensor:
#      x y z
#    x 1.910300 0.058610 0.047890 
#    y 0.058610 2.017660 0.003590 
#    z 0.047890 0.003590 1.899100 
# 
# From -- ./inp_files/419024.got.cif
#   From: 2010.05.17/outbox.cif.g08.bks.cpg/sg2_210_cif.got.tgz:419024.got - 2010.06.03 11:33:40.
