data_PCOD9078925
_publ_section_title
;
Structure prediction by ZEFSAII (Michael W. Deem and Ramdas Pophale) SiO2 
 PCOD9078925
Probable space group: P -1
;
_chemical_formula_sum "Si O2"
_cell_formula_units_Z 14
_cell_length_a 22.581161
_cell_length_b 16.785322
_cell_length_c 8.641323
_cell_angle_alpha 152.253489
_cell_angle_beta 29.344004
_cell_angle_gamma 157.092596
_cell_volume 563.986440
_symmetry_space_group_name_H-M "P -1"
_symmetry_group_IT_number 2
_symmetry_cell_setting 'triclinic'
loop_
_space_group_symop_operation_xyz
x,y,z
-x,-y,-z
loop_
_atom_site_type_symbol
_atom_site_label
_atom_site_fract_x
_atom_site_fract_y
_atom_site_fract_z
Si Si1 0.711048 0.033217 0.451849
Si Si2 0.379348 0.626359 0.116233
Si Si3 0.501866 0.571021 0.294798
Si Si4 0.562072 0.012518 0.149309
Si Si5 0.816115 0.873571 0.664161
Si Si6 0.113713 0.817376 0.231718
Si Si7 0.964712 0.592483 0.474547
O O1 0.885767 0.248913 0.481793
O O2 0.612647 0.837415 0.470733
O O3 0.584981 0.063875 0.751099
O O4 0.748296 0.953645 0.076936
O O5 0.418632 0.810418 0.469863
O O6 0.203252 0.499599 0.235217
O O7 0.503699 0.784641 0.971449
O O8 0.409042 0.477111 0.877058
O O9 0.316601 0.398780 0.477602
O O10 0.500000 0.500000 0.000000
O O11 0.747742 0.151750 0.934724
O O12 0.826741 0.966237 0.628852
O O13 0.000000 0.000000 0.500000
O O14 0.984466 0.725406 0.501203
O O15 0.053360 0.620146 0.906892
#
# Coordination Sequence:
#
# PCOD9078925 Si02
#       7
#     2   2   2   2   2   2   2
#     4  11  23  41  64  97 123 167 208 258 307 367
#     4  10  18  36  60  88 123 168 201 246 307 380
#     4  10  20  37  61  91 122 166 206 243 316 374
#     4  10  18  36  66  86 121 164 213 252 301 375
#     4  11  23  40  66  92 127 164 213 255 308 371
#     4  10  22  42  63  94 122 167 206 259 317 363
#     4  10  24  38  64  95 128 156 210 264 311 360
#
# _framework density 24.823291000000001
#
# number of rings (size 3 to 8) (size 9 to 14) (size 15 to 20)
#    0.000    1.714    4.286    1.714    4.000    4.571 
#    0.000    2.143    0.000    0.000    0.000    0.000 
#    0.000    0.000    0.000    0.000    0.000    0.000 
#
# Total GULP energy -78240.315164 kJ/mol
# GULP energy per Si atom -5588.593940 kJ/mol
# Density = 2.476679 g / cm^3
# Si number density = 24.823291 Si / 1000 Ang^3
#
#
#
# Elastic Constant Matrix: (Units=GPa)
#
#
# Indices 1 2 3 4 5 6 
#
# 1 84.0891 33.6093 5.8198 14.6449 -29.2551 10.6447
# 2 33.6093 136.3656 7.2644 -6.2887 -12.4696 21.2827
# 3 5.8198 7.2644 45.7084 -5.3127 2.2557 8.7770
# 4 14.6449 -6.2887 -5.3127 40.4882 6.2623 3.6609
# 5 -29.2551 -12.4696 2.2557 6.2623 36.8598 -4.9514
# 6 10.6447 21.2827 8.7770 3.6609 -4.9514 70.2908
#
#
#
# Elastic Compliance Matrix: (Units=1/GPa)
#
#
# Indices 1 2 3 4 5 6 
#
# 1 0.022616 -0.004229 -0.004669 -0.012423 0.018972 0.000422
# 2 -0.004229 0.008766 0.000028 0.003296 -0.001259 -0.002278
# 3 -0.004669 0.000028 0.024107 0.006163 -0.006635 -0.003100
# 4 -0.012423 0.003296 0.006163 0.033090 -0.015103 -0.002673
# 5 0.018972 -0.001259 -0.006635 -0.015103 0.045043 0.002296
# 6 0.000422 -0.002278 -0.003100 -0.002673 0.002296 0.015540
#
#
# Mechanical properties :
#
#
# Convention : Reuss Voigt Hill
#
# Bulk Modulus (GPa) = 26.49057 39.95002 33.22029
# Shear Modulus (GPa) = 27.85730 44.15907 36.00819
#
# Velocity S-wave (km/s) = 3.35360 4.22232 3.81278
# Velocity P-wave (km/s) = 5.06856 6.31659 5.72668
#
# Compressibility (1/GPa) = 0.03774928
#
# Stress axis : x y z
#
# Youngs Moduli (GPa) = 44.21571 114.07093 41.48206
#
# Poissons Ratio (x) = 0.48244 0.19367
# Poissons Ratio (y) = 0.18700 -0.00115
# Poissons Ratio (z) = 0.20643 -0.00317
#
# Static dielectric constant tensor:
#      x y z
#    x 1.977470 -0.011580 0.094160 
#    y -0.011580 1.955100 0.057680 
#    z 0.094160 0.057680 2.063470 
# 
# From -- ./inp_files/185237.got.cif
#   From: 2010.05.17/outbox.cif.g08.bks.cpg/sg2_93_cif.got.tgz:185237.got - 2010.06.03 11:33:40.
