data_PCOD9078495
_publ_section_title
;
Structure prediction by ZEFSAII (Michael W. Deem and Ramdas Pophale) SiO2 
 PCOD9078495
Probable space group: P -1
;
_chemical_formula_sum "Si O2"
_cell_formula_units_Z 15
_cell_length_a 8.791782
_cell_length_b 9.485535
_cell_length_c 8.191700
_cell_angle_alpha 108.681555
_cell_angle_beta 71.189922
_cell_angle_gamma 77.854711
_cell_volume 573.889736
_symmetry_space_group_name_H-M "P -1"
_symmetry_group_IT_number 2
_symmetry_cell_setting 'triclinic'
loop_
_space_group_symop_operation_xyz
x,y,z
-x,-y,-z
loop_
_atom_site_type_symbol
_atom_site_label
_atom_site_fract_x
_atom_site_fract_y
_atom_site_fract_z
Si Si1 0.920466 0.811529 0.805885
Si Si2 0.581611 0.273511 0.365346
Si Si3 0.978192 0.286713 0.915338
Si Si4 0.299435 0.029023 0.608362
Si Si5 0.441582 0.189039 0.057261
Si Si6 0.000000 0.500000 0.500000
Si Si7 0.227173 0.882641 0.254423
Si Si8 0.746247 0.533563 0.307796
O O1 0.759339 0.752547 0.882270
O O2 0.015257 0.677072 0.592348
O O3 0.849345 0.978556 0.802569
O O4 0.008541 0.803527 0.946802
O O5 0.699604 0.093157 0.292874
O O6 0.477302 0.272034 0.236688
O O7 0.679249 0.394599 0.349711
O O8 0.439409 0.328259 0.577695
O O9 0.870250 0.236579 0.796049
O O10 0.175632 0.207078 0.758056
O O11 0.857529 0.462319 0.081283
O O12 0.218415 0.967398 0.460778
O O13 0.500000 0.000000 0.500000
O O14 0.570496 0.204808 0.882536
O O15 0.500000 0.000000 0.000000
O O16 0.874837 0.563714 0.405880
#
# Coordination Sequence:
#
# PCOD9078495 Si02
#       8
#     2   2   2   2   2   1   2   2
#     4  10  20  35  63  92 123 158 213 266 314 367
#     4  11  22  43  67  95 130 167 213 262 325 383
#     4  11  23  41  64  95 124 167 220 271 315 372
#     4  12  26  42  63  93 133 176 211 257 328 390
#     4  10  18  35  63  92 119 162 206 267 307 370
#     4  10  20  34  62  94 122 156 208 264 318 366
#     4  11  22  38  62  93 127 162 216 265 319 373
#     4  10  23  41  69  97 127 164 217 272 315 371
#
# _framework density 26.137426000000001
#
# number of rings (size 3 to 8) (size 9 to 14) (size 15 to 20)
#    0.000    1.333    2.667    4.800    3.733    0.000 
#    0.000    1.333    2.933    0.000    0.000    0.000 
#    0.000    0.000    0.000    0.000    0.000    0.000 
#
# Total GULP energy -83598.849366 kJ/mol
# GULP energy per Si atom -5573.256624 kJ/mol
# Density = 2.607794 g / cm^3
# Si number density = 26.137426 Si / 1000 Ang^3
#
#
#
# Elastic Constant Matrix: (Units=GPa)
#
#
# Indices 1 2 3 4 5 6 
#
# 1 126.4885 6.9589 63.7646 7.7278 10.8263 10.1741
# 2 6.9589 63.4595 11.4952 14.7968 -3.2737 -3.9178
# 3 63.7646 11.4952 148.1015 22.4113 4.5490 3.6313
# 4 7.7278 14.7968 22.4113 36.5710 -4.7095 -0.8316
# 5 10.8263 -3.2737 4.5490 -4.7095 64.1318 -1.0301
# 6 10.1741 -3.9178 3.6313 -0.8316 -1.0301 29.3342
#
#
#
# Elastic Compliance Matrix: (Units=1/GPa)
#
#
# Indices 1 2 3 4 5 6 
#
# 1 0.010541 -0.000754 -0.004433 0.000525 -0.001517 -0.003246
# 2 -0.000754 0.017620 -0.000095 -0.006782 0.000575 0.002454
# 3 -0.004433 -0.000095 0.009400 -0.004816 -0.000273 0.000215
# 4 0.000525 -0.006782 -0.004816 0.033244 0.002357 0.000533
# 5 -0.001517 0.000575 -0.000273 0.002357 0.016091 0.001269
# 6 -0.003246 0.002454 0.000215 0.000533 0.001269 0.035577
#
#
# Mechanical properties :
#
#
# Convention : Reuss Voigt Hill
#
# Bulk Modulus (GPa) = 37.03967 55.83187 46.43577
# Shear Modulus (GPa) = 35.20229 43.06278 39.13253
#
# Velocity S-wave (km/s) = 3.67388 4.06341 3.87354
# Velocity P-wave (km/s) = 5.67436 6.58956 6.14901
#
# Compressibility (1/GPa) = 0.02699808
#
# Stress axis : x y z
#
# Youngs Moduli (GPa) = 94.86733 56.75217 106.38286
#
# Poissons Ratio (x) = 0.04279 0.47161
# Poissons Ratio (y) = 0.07153 0.01006
# Poissons Ratio (z) = 0.42056 0.00537
#
# Static dielectric constant tensor:
#      x y z
#    x 2.042570 0.032310 -0.132010 
#    y 0.032310 2.098300 0.009070 
#    z -0.132010 0.009070 2.136190 
# 
# From -- ./inp_files/172750.got.cif
#   From: 2010.05.17/outbox.cif.g08.bks.cpg/sg2_87_cif.got.tgz:172750.got - 2010.06.03 11:33:40.
