data_PCOD9078306
_publ_section_title
;
Structure prediction by ZEFSAII (Michael W. Deem and Ramdas Pophale) SiO2 
 PCOD9078306
Probable space group: P -1
;
_chemical_formula_sum "Si O2"
_cell_formula_units_Z 16
_cell_length_a 7.837611
_cell_length_b 14.913224
_cell_length_c 12.334667
_cell_angle_alpha 116.150470
_cell_angle_beta 36.114573
_cell_angle_gamma 125.800860
_cell_volume 687.669091
_symmetry_space_group_name_H-M "P -1"
_symmetry_group_IT_number 2
_symmetry_cell_setting 'triclinic'
loop_
_space_group_symop_operation_xyz
x,y,z
-x,-y,-z
loop_
_atom_site_type_symbol
_atom_site_label
_atom_site_fract_x
_atom_site_fract_y
_atom_site_fract_z
Si Si1 0.244951 0.888585 0.016189
Si Si2 0.782039 0.888129 0.614606
Si Si3 0.201941 0.309176 0.417618
Si Si4 0.238838 0.042068 0.627384
Si Si5 0.275237 0.730414 0.557803
Si Si6 0.628864 0.596601 0.899092
Si Si7 0.508523 0.464840 0.666617
Si Si8 0.229965 0.680713 0.027218
O O1 0.187949 0.790702 0.078958
O O2 0.925115 0.906988 0.175301
O O3 0.420239 0.870820 0.811358
O O4 0.500000 0.000000 0.000000
O O5 0.833608 0.777260 0.514800
O O6 0.000000 0.000000 0.500000
O O7 0.952279 0.932108 0.668612
O O8 0.298134 0.436764 0.465359
O O9 0.902734 0.267833 0.464637
O O10 0.523840 0.318810 0.193762
O O11 0.434370 0.149332 0.507556
O O12 0.500000 0.000000 0.500000
O O13 0.401196 0.636790 0.438458
O O14 0.993329 0.688018 0.768949
O O15 0.622036 0.529042 0.756708
O O16 0.500000 0.500000 0.000000
O O17 0.410070 0.662234 0.029607
O O18 0.125341 0.417219 0.838450
#
# Coordination Sequence:
#
# PCOD9078306 Si02
#       8
#     2   2   2   2   2   2   2   2
#     4   9  19  35  60  82 106 149 192 225 275 340
#     4  10  21  38  56  83 116 144 181 237 290 325
#     4   9  17  32  56  78 107 146 180 219 276 335
#     4  11  20  37  62  80 107 148 200 234 267 339
#     4  10  19  36  58  82 106 147 189 226 273 337
#     4  10  21  36  53  83 119 144 173 228 289 325
#     4  10  18  35  61  80 104 145 195 222 264 342
#     4   9  17  34  58  81 103 146 190 222 263 340
#
# _framework density 23.267005000000001
#
# number of rings (size 3 to 8) (size 9 to 14) (size 15 to 20)
#    0.000    2.500    2.500    3.000    1.750    0.000 
#    6.750    6.250    0.000    0.000    0.000    0.000 
#    0.000    0.000    0.000    0.000    0.000    0.000 
#
# Total GULP energy -89152.136497 kJ/mol
# GULP energy per Si atom -5572.008531 kJ/mol
# Density = 2.321405 g / cm^3
# Si number density = 23.267005 Si / 1000 Ang^3
#
#
#
# Elastic Constant Matrix: (Units=GPa)
#
#
# Indices 1 2 3 4 5 6 
#
# 1 26.9207 24.1301 29.9847 8.1893 -7.1663 -9.3491
# 2 24.1301 171.8822 30.6268 -9.2043 -6.3345 -31.9786
# 3 29.9847 30.6268 99.9996 -3.2793 -30.4096 -17.4949
# 4 8.1893 -9.2043 -3.2793 44.6755 -11.2339 -12.6020
# 5 -7.1663 -6.3345 -30.4096 -11.2339 31.3784 -5.3099
# 6 -9.3491 -31.9786 -17.4949 -12.6020 -5.3099 53.2073
#
#
#
# Elastic Compliance Matrix: (Units=1/GPa)
#
#
# Indices 1 2 3 4 5 6 
#
# 1 0.079997 -0.010469 -0.032678 -0.030021 -0.028449 -0.012930
# 2 -0.010469 0.008613 0.004473 0.008118 0.007860 0.007515
# 3 -0.032678 0.004473 0.033630 0.023692 0.037450 0.017353
# 4 -0.030021 0.008118 0.023692 0.047302 0.038475 0.022438
# 5 -0.028449 0.007860 0.037450 0.038475 0.081991 0.029334
# 6 -0.012930 0.007515 0.017353 0.022438 0.029334 0.034987
#
#
# Mechanical properties :
#
#
# Convention : Reuss Voigt Hill
#
# Bulk Modulus (GPa) = 22.27673 52.03174 37.15424
# Shear Modulus (GPa) = 13.19842 40.12296 26.66069
#
# Velocity S-wave (km/s) = 2.38430 4.15716 3.38873
# Velocity P-wave (km/s) = 4.14428 6.74197 5.59594
#
# Compressibility (1/GPa) = 0.04488988
#
# Stress axis : x y z
#
# Youngs Moduli (GPa) = 12.50052 116.09845 29.73542
#
# Poissons Ratio (x) = 1.21549 0.97170
# Poissons Ratio (y) = 0.13087 -0.13299
# Poissons Ratio (z) = 0.40849 -0.51926
#
# Static dielectric constant tensor:
#      x y z
#    x 2.076720 -0.056560 0.076080 
#    y -0.056560 1.917580 -0.020060 
#    z 0.076080 -0.020060 1.986030 
# 
# From -- ./inp_files/214384.got.cif
#   From: 2010.05.17/outbox.cif.g08.bks.cpg/sg2_108_cif.got.tgz:214384.got - 2010.06.03 11:33:40.
