data_PCOD9078142
_publ_section_title
;
Structure prediction by ZEFSAII (Michael W. Deem and Ramdas Pophale) SiO2 
 PCOD9078142
Probable space group: P -1
;
_chemical_formula_sum "Si O2"
_cell_formula_units_Z 16
_cell_length_a 19.270415
_cell_length_b 16.789954
_cell_length_c 9.173658
_cell_angle_alpha 150.294229
_cell_angle_beta 41.048717
_cell_angle_gamma 146.984098
_cell_volume 797.747289
_symmetry_space_group_name_H-M "P -1"
_symmetry_group_IT_number 2
_symmetry_cell_setting 'triclinic'
loop_
_space_group_symop_operation_xyz
x,y,z
-x,-y,-z
loop_
_atom_site_type_symbol
_atom_site_label
_atom_site_fract_x
_atom_site_fract_y
_atom_site_fract_z
Si Si1 0.161997 0.411311 0.579658
Si Si2 0.961047 0.638028 0.844634
Si Si3 0.955618 0.100494 0.623569
Si Si4 0.766432 0.869383 0.308876
Si Si5 0.617088 0.477894 0.791458
Si Si6 0.549875 0.949766 0.697876
Si Si7 0.039824 0.805913 0.689675
Si Si8 0.231655 0.676542 0.160418
O O1 0.293377 0.446608 0.373544
O O2 0.071725 0.226555 0.529070
O O3 0.073315 0.361247 0.498924
O O4 0.196449 0.589341 0.913125
O O5 0.820417 0.499152 0.920458
O O6 0.000000 0.500000 0.500000
O O7 0.984258 0.780463 0.900046
O O8 0.050801 0.754535 0.025902
O O9 0.829976 0.963045 0.511130
O O10 0.000000 0.000000 0.500000
O O11 0.657339 0.909516 0.511766
O O12 0.879709 0.986945 0.193863
O O13 0.705384 0.640138 0.029762
O O14 0.559575 0.249228 0.525506
O O15 0.500000 0.500000 0.000000
O O16 0.622336 0.141161 0.785635
O O17 0.500000 0.000000 0.000000
O O18 0.146973 0.760068 0.458948
#
# Coordination Sequence:
#
# PCOD9078142 Si02
#       8
#     2   2   2   2   2   2   2   2
#     4  10  19  32  56  83 111 141 186 227 276 337
#     4   9  19  34  52  83 115 142 170 223 288 337
#     4  10  22  36  55  84 118 148 175 222 296 342
#     4   9  21  36  55  86 116 139 190 230 270 341
#     4  10  21  35  54  82 109 146 194 232 263 315
#     4  10  18  35  59  82 105 150 194 231 270 311
#     4   9  18  31  57  86 110 140 176 227 288 338
#     4   9  17  33  53  84 111 141 177 231 280 333
#
# _framework density 20.056477999999998
#
# number of rings (size 3 to 8) (size 9 to 14) (size 15 to 20)
#    0.000    2.500    1.250    0.375    3.500    4.000 
#    0.000    0.000    0.000    5.250    3.250    0.000 
#    0.000    0.000    0.000    0.000    0.000    0.000 
#
# Total GULP energy -89115.426560 kJ/mol
# GULP energy per Si atom -5569.714160 kJ/mol
# Density = 2.001083 g / cm^3
# Si number density = 20.056478 Si / 1000 Ang^3
#
#
#
# Elastic Constant Matrix: (Units=GPa)
#
#
# Indices 1 2 3 4 5 6 
#
# 1 50.4932 38.6862 16.4470 3.8736 22.8705 -6.6088
# 2 38.6862 118.1994 65.2555 10.4954 32.6435 3.6852
# 3 16.4470 65.2555 99.6633 11.6289 28.6464 4.0622
# 4 3.8736 10.4954 11.6289 47.0978 8.3551 1.6291
# 5 22.8705 32.6435 28.6464 8.3551 30.2246 -6.7672
# 6 -6.6088 3.6852 4.0622 1.6291 -6.7672 23.7495
#
#
#
# Elastic Compliance Matrix: (Units=1/GPa)
#
#
# Indices 1 2 3 4 5 6 
#
# 1 0.035172 -0.009005 0.006196 0.001419 -0.022333 0.003664
# 2 -0.009005 0.017710 -0.008240 0.000037 -0.005741 -0.005483
# 3 0.006196 -0.008240 0.018785 -0.000613 -0.014378 -0.004265
# 4 0.001419 0.000037 -0.000613 0.022705 -0.007527 -0.003208
# 5 -0.022333 -0.005741 -0.014378 -0.007527 0.076231 0.019373
# 6 0.003664 -0.005483 -0.004265 -0.003208 0.019373 0.050446
#
#
# Mechanical properties :
#
#
# Convention : Reuss Voigt Hill
#
# Bulk Modulus (GPa) = 20.17423 56.57037 38.37230
# Shear Modulus (GPa) = 19.25522 30.07888 24.66705
#
# Velocity S-wave (km/s) = 3.10183 3.87681 3.51077
# Velocity P-wave (km/s) = 4.78633 6.95027 5.96721
#
# Compressibility (1/GPa) = 0.04956820
#
# Stress axis : x y z
#
# Youngs Moduli (GPa) = 28.43195 56.46486 53.23457
#
# Poissons Ratio (x) = 0.50845 -0.32984
# Poissons Ratio (y) = 0.25602 0.43867
# Poissons Ratio (z) = -0.17616 0.46529
#
# Static dielectric constant tensor:
#      x y z
#    x 1.722470 -0.027570 -0.025010 
#    y -0.027570 1.780140 0.051300 
#    z -0.025010 0.051300 1.791500 
# 
# From -- ./inp_files/215812.got.cif
#   From: 2010.05.17/outbox.cif.g08.bks.cpg/sg2_108_cif.got.tgz:215812.got - 2010.06.03 11:33:40.
