data_PCOD9078866
_publ_section_title
;
Structure prediction by ZEFSAII (Michael W. Deem and Ramdas Pophale) SiO2 
 PCOD9078866
Probable space group: P -1
;
_chemical_formula_sum "Si O2"
_cell_formula_units_Z 16
_cell_length_a 6.943929
_cell_length_b 10.980895
_cell_length_c 13.648395
_cell_angle_alpha 51.739197
_cell_angle_beta 94.178978
_cell_angle_gamma 67.067468
_cell_volume 677.843533
_symmetry_space_group_name_H-M "P -1"
_symmetry_group_IT_number 2
_symmetry_cell_setting 'triclinic'
loop_
_space_group_symop_operation_xyz
x,y,z
-x,-y,-z
loop_
_atom_site_type_symbol
_atom_site_label
_atom_site_fract_x
_atom_site_fract_y
_atom_site_fract_z
Si Si1 0.864231 0.805124 0.800734
Si Si2 0.262556 0.505974 0.500039
Si Si3 0.346174 0.148231 0.569192
Si Si4 0.173682 0.899323 0.648566
Si Si5 0.884916 0.279566 0.795033
Si Si6 0.570311 0.722157 0.203210
Si Si7 0.277475 0.132530 0.019116
Si Si8 0.302899 0.347217 0.275859
O O1 0.838535 0.651760 0.822612
O O2 0.066633 0.818701 0.756223
O O3 0.618781 0.997769 0.670285
O O4 0.862001 0.795386 0.922013
O O5 0.500000 0.500000 0.500000
O O6 0.281671 0.329804 0.537034
O O7 0.089822 0.680060 0.337519
O O8 0.249757 0.463340 0.635123
O O9 0.306174 0.207523 0.424667
O O10 0.210757 0.047993 0.630345
O O11 0.430470 0.738695 0.700566
O O12 0.000000 0.000000 0.500000
O O13 0.669504 0.262132 0.805951
O O14 0.808607 0.461708 0.765863
O O15 0.118475 0.124531 0.933361
O O16 0.652075 0.734168 0.092367
O O17 0.499691 0.921508 0.147262
#
# Coordination Sequence:
#
# PCOD9078866 Si02
#       8
#     2   2   2   2   2   2   2   2
#     4  11  21  37  60  91 124 163 208 249 309 366
#     4   9  19  40  66  90 123 160 200 264 309 352
#     4  10  18  36  59  92 126 155 204 257 303 362
#     4  11  19  34  61  93 122 165 206 251 307 366
#     4  10  23  41  63  94 126 158 202 259 316 364
#     4  10  22  45  66  86 122 165 214 250 308 365
#     4  11  24  41  65  88 123 169 205 255 303 380
#     4  10  21  37  61  90 129 156 200 261 307 368
#
# _framework density 23.604268000000001
#
# number of rings (size 3 to 8) (size 9 to 14) (size 15 to 20)
#    0.000    1.750    3.750    1.125    0.000    4.000 
#    2.250    1.250    0.000    0.000    0.000    0.000 
#    0.000    0.000    0.000    0.000    0.000    0.000 
#
# Total GULP energy -89415.829623 kJ/mol
# GULP energy per Si atom -5588.489351 kJ/mol
# Density = 2.355054 g / cm^3
# Si number density = 23.604268 Si / 1000 Ang^3
#
#
#
# Elastic Constant Matrix: (Units=GPa)
#
#
# Indices 1 2 3 4 5 6 
#
# 1 155.4300 21.1670 35.9773 8.2400 -22.0323 -1.1290
# 2 21.1670 47.4890 16.2387 -0.4067 -9.5980 -5.6864
# 3 35.9773 16.2387 140.2915 20.3109 -13.8651 -9.6786
# 4 8.2400 -0.4067 20.3109 29.0822 -6.4564 -6.2545
# 5 -22.0323 -9.5980 -13.8651 -6.4564 38.4852 8.9825
# 6 -1.1290 -5.6864 -9.6786 -6.2545 8.9825 25.1607
#
#
#
# Elastic Compliance Matrix: (Units=1/GPa)
#
#
# Indices 1 2 3 4 5 6 
#
# 1 0.007630 -0.002491 -0.001328 -0.000949 0.003638 -0.002266
# 2 -0.002491 0.024163 -0.002124 0.004243 0.003537 0.004324
# 3 -0.001328 -0.002124 0.008626 -0.005269 0.000645 0.001239
# 4 -0.000949 0.004243 -0.005269 0.040872 0.003667 0.007740
# 5 0.003638 0.003537 0.000645 0.003667 0.031965 -0.009289
# 6 -0.002266 0.004324 0.001239 0.007740 -0.009289 0.046337
#
#
# Mechanical properties :
#
#
# Convention : Reuss Voigt Hill
#
# Bulk Modulus (GPa) = 35.04684 54.44186 44.74435
# Shear Modulus (GPa) = 27.62578 36.53411 32.07994
#
# Velocity S-wave (km/s) = 3.42478 3.93845 3.69056
# Velocity P-wave (km/s) = 5.52438 6.61788 6.09570
#
# Compressibility (1/GPa) = 0.02853324
#
# Stress axis : x y z
#
# Youngs Moduli (GPa) = 131.06368 41.38519 115.92372
#
# Poissons Ratio (x) = 0.10309 0.15391
# Poissons Ratio (y) = 0.32648 0.24627
# Poissons Ratio (z) = 0.17401 0.08792
#
# Static dielectric constant tensor:
#      x y z
#    x 1.899300 -0.011380 0.007850 
#    y -0.011380 1.898860 0.002610 
#    z 0.007850 0.002610 1.930310 
# 
# From -- ./inp_files/77839.got.cif
#   From: 2010.05.17/outbox.cif.g08.bks.cpg/sg2_39_cif.got.tgz:77839.got - 2010.06.03 11:33:40.
