data_PCOD9078594
_publ_section_title
;
Structure prediction by ZEFSAII (Michael W. Deem and Ramdas Pophale) SiO2 
 PCOD9078594
Probable space group: P -1
;
_chemical_formula_sum "Si O2"
_cell_formula_units_Z 14
_cell_length_a 11.213113
_cell_length_b 6.982321
_cell_length_c 24.564646
_cell_angle_alpha 118.144046
_cell_angle_beta 32.285403
_cell_angle_gamma 94.164088
_cell_volume 653.480460
_symmetry_space_group_name_H-M "P -1"
_symmetry_group_IT_number 2
_symmetry_cell_setting 'triclinic'
loop_
_space_group_symop_operation_xyz
x,y,z
-x,-y,-z
loop_
_atom_site_type_symbol
_atom_site_label
_atom_site_fract_x
_atom_site_fract_y
_atom_site_fract_z
Si Si1 0.776160 0.131175 0.847853
Si Si2 0.838356 0.315254 0.954660
Si Si3 0.169289 0.717145 0.321814
Si Si4 0.134067 0.898866 0.874132
Si Si5 0.167622 0.606299 0.431633
Si Si6 0.780818 0.726934 0.944454
Si Si7 0.148452 0.195889 0.646693
O O1 0.030194 0.042575 0.695504
O O2 0.412570 0.958225 0.105472
O O3 0.500000 0.500000 0.000000
O O4 0.898440 0.086938 0.855421
O O5 0.493874 0.517194 0.138195
O O6 0.850684 0.527375 0.943282
O O7 0.070728 0.148413 0.893350
O O8 0.210462 0.581726 0.346521
O O9 0.931677 0.752007 0.378781
O O10 0.035259 0.048150 0.427979
O O11 0.494978 0.604697 0.699610
O O12 0.928782 0.854566 0.918155
O O13 0.000000 0.000000 0.000000
O O14 0.000000 0.500000 0.500000
O O15 0.950092 0.507609 0.797783
O O16 0.500000 0.000000 0.500000
#
# Coordination Sequence:
#
# PCOD9078594 Si02
#       7
#     2   2   2   2   2   2   2
#     4   8  16  35  60  94 118 157 208 248 311 371
#     4  10  20  40  70  92 124 165 212 257 318 368
#     4  11  21  44  69  88 126 176 206 252 330 368
#     4  12  26  40  61  98 124 165 221 258 304 372
#     4  11  28  44  61  93 131 167 215 262 308 381
#     4  10  21  40  63  94 128 160 210 264 304 379
#     4  10  18  35  66  95 123 162 206 253 317 377
#
# _framework density 21.423746999999999
#
# number of rings (size 3 to 8) (size 9 to 14) (size 15 to 20)
#    0.000    2.000    5.714    0.857    2.000    5.714 
#    0.000    1.429    0.000    8.571    0.000    0.000 
#    0.000    0.000    0.000    0.000    0.000    0.000 
#
# Total GULP energy -78205.688737 kJ/mol
# GULP energy per Si atom -5586.120624 kJ/mol
# Density = 2.137499 g / cm^3
# Si number density = 21.423747 Si / 1000 Ang^3
#
#
#
# Elastic Constant Matrix: (Units=GPa)
#
#
# Indices 1 2 3 4 5 6 
#
# 1 79.5746 20.4030 15.6634 -4.2290 0.3475 -19.2153
# 2 20.4030 76.7133 15.1963 -5.2854 -1.1025 -21.4827
# 3 15.6634 15.1963 62.1617 -8.0540 -22.6421 3.4669
# 4 -4.2290 -5.2854 -8.0540 20.8905 -2.6727 -7.0263
# 5 0.3475 -1.1025 -22.6421 -2.6727 35.2676 -4.3929
# 6 -19.2153 -21.4827 3.4669 -7.0263 -4.3929 44.1787
#
#
#
# Elastic Compliance Matrix: (Units=1/GPa)
#
#
# Indices 1 2 3 4 5 6 
#
# 1 0.015544 -0.001168 -0.004248 0.003292 -0.001811 0.006870
# 2 -0.001168 0.016953 -0.003750 0.005550 -0.000339 0.008879
# 3 -0.004248 -0.003750 0.025498 0.009304 0.016684 -0.002533
# 4 0.003292 0.005550 0.009304 0.059877 0.012416 0.014158
# 5 -0.001811 -0.000339 0.016684 0.012416 0.040480 0.003738
# 6 0.006870 0.008879 -0.002533 0.014158 0.003738 0.032763
#
#
# Mechanical properties :
#
#
# Convention : Reuss Voigt Hill
#
# Bulk Modulus (GPa) = 25.21180 35.66390 30.43785
# Shear Modulus (GPa) = 22.45505 31.21314 26.83410
#
# Velocity S-wave (km/s) = 3.24101 3.82113 3.54296
# Velocity P-wave (km/s) = 5.07929 6.01258 5.56553
#
# Compressibility (1/GPa) = 0.03966397
#
# Stress axis : x y z
#
# Youngs Moduli (GPa) = 64.33272 58.98681 39.21883
#
# Poissons Ratio (x) = 0.06891 0.16659
# Poissons Ratio (y) = 0.07515 0.14706
# Poissons Ratio (z) = 0.27326 0.22119
#
# Static dielectric constant tensor:
#      x y z
#    x 1.811590 0.014260 -0.002310 
#    y 0.014260 1.861380 0.013350 
#    z -0.002310 0.013350 1.752290 
# 
# From -- ./inp_files/78697.got.cif
#   From: 2010.05.17/outbox.cif.g08.bks.cpg/sg2_40_cif.got.tgz:78697.got - 2010.06.03 11:33:40.
