data_PCOD9078055
_publ_section_title
;
Structure prediction by ZEFSAII (Michael W. Deem and Ramdas Pophale) SiO2 
 PCOD9078055
Probable space group: P -1
;
_chemical_formula_sum "Si O2"
_cell_formula_units_Z 12
_cell_length_a 7.174548
_cell_length_b 10.946698
_cell_length_c 22.579371
_cell_angle_alpha 151.704325
_cell_angle_beta 46.893789
_cell_angle_gamma 128.790317
_cell_volume 612.135807
_symmetry_space_group_name_H-M "P -1"
_symmetry_group_IT_number 2
_symmetry_cell_setting 'triclinic'
loop_
_space_group_symop_operation_xyz
x,y,z
-x,-y,-z
loop_
_atom_site_type_symbol
_atom_site_label
_atom_site_fract_x
_atom_site_fract_y
_atom_site_fract_z
Si Si1 0.682631 0.867426 0.496041
Si Si2 0.969157 0.393045 0.289512
Si Si3 0.807100 0.742092 0.931765
Si Si4 0.512701 0.960609 0.789110
Si Si5 0.858863 0.165763 0.694097
Si Si6 0.773758 0.499032 0.595165
O O1 0.819070 0.631732 0.398411
O O2 0.870767 0.932952 0.427935
O O3 0.683818 0.084609 0.639402
O O4 0.587879 0.244041 0.516418
O O5 0.745776 0.159886 0.238976
O O6 0.192468 0.324373 0.166292
O O7 0.097263 0.460935 0.352511
O O8 0.897828 0.475384 0.825117
O O9 0.566888 0.814247 0.053529
O O10 0.000000 0.000000 0.000000
O O11 0.609911 0.738635 0.715304
O O12 0.722533 0.043634 0.729431
O O13 0.000000 0.500000 0.500000
#
# Coordination Sequence:
#
# PCOD9078055 Si02
#       6
#     2   2   2   2   2   2
#     4   9  20  36  56  82 111 144 176 218 274 320
#     4   9  19  37  58  81 111 143 179 219 264 324
#     4   9  19  36  58  78 104 148 184 217 270 319
#     4  10  20  35  57  83 110 142 180 222 267 317
#     4  10  18  35  58  81 112 141 176 226 271 318
#     4  11  21  35  58  83 109 144 181 219 268 323
#
# _framework density 19.603491000000002
#
# number of rings (size 3 to 8) (size 9 to 14) (size 15 to 20)
#    0.000    2.333    0.000    3.500    0.000    3.333 
#    0.000   16.667    0.000    9.000    0.000    0.000 
#    0.000    0.000    0.000    0.000    0.000    0.000 
#
# Total GULP energy -66863.729079 kJ/mol
# GULP energy per Si atom -5571.977423 kJ/mol
# Density = 1.955887 g / cm^3
# Si number density = 19.603491 Si / 1000 Ang^3
#
#
#
# Elastic Constant Matrix: (Units=GPa)
#
#
# Indices 1 2 3 4 5 6 
#
# 1 120.5057 44.8208 22.1915 -13.0885 17.6604 -5.8709
# 2 44.8208 120.7632 23.3156 -19.7628 14.5568 6.7828
# 3 22.1915 23.3156 80.9305 -4.7656 14.9118 -8.3409
# 4 -13.0885 -19.7628 -4.7656 40.5851 -1.3128 1.6747
# 5 17.6604 14.5568 14.9118 -1.3128 20.8342 -2.8556
# 6 -5.8709 6.7828 -8.3409 1.6747 -2.8556 28.9230
#
#
#
# Elastic Compliance Matrix: (Units=1/GPa)
#
#
# Indices 1 2 3 4 5 6 
#
# 1 0.010691 -0.002938 -0.000647 0.001660 -0.006172 0.001967
# 2 -0.002938 0.011208 -0.001819 0.004338 -0.004373 -0.004432
# 3 -0.000647 -0.001819 0.015007 0.000240 -0.008388 0.003781
# 4 0.001660 0.004338 0.000240 0.027315 -0.003234 -0.002512
# 5 -0.006172 -0.004373 -0.008388 -0.003234 0.062595 0.003721
# 6 0.001967 -0.004432 0.003781 -0.002512 0.003721 0.037616
#
#
# Mechanical properties :
#
#
# Convention : Reuss Voigt Hill
#
# Bulk Modulus (GPa) = 38.31700 55.87279 47.09490
# Shear Modulus (GPa) = 27.18269 33.52656 30.35462
#
# Velocity S-wave (km/s) = 3.72778 4.13998 3.93928
# Velocity P-wave (km/s) = 6.17389 7.17049 6.69077
#
# Compressibility (1/GPa) = 0.02609808
#
# Stress axis : x y z
#
# Youngs Moduli (GPa) = 93.53723 89.22030 66.63445
#
# Poissons Ratio (x) = 0.26210 0.04314
# Poissons Ratio (y) = 0.27478 0.12121
# Poissons Ratio (z) = 0.06056 0.16230
#
# Static dielectric constant tensor:
#      x y z
#    x 1.679420 0.016430 -0.004210 
#    y 0.016430 1.743070 0.037800 
#    z -0.004210 0.037800 1.742660 
# 
# From -- ./inp_files/204035.got.cif
#   From: 2010.05.17/outbox.cif.g08.bks.cpg/sg2_103_cif.got.tgz:204035.got - 2010.06.03 11:33:40.
