data_PCOD9078049
_publ_section_title
;
Structure prediction by ZEFSAII (Michael W. Deem and Ramdas Pophale) SiO2 
 PCOD9078049
Probable space group: P -1
;
_chemical_formula_sum "Si O2"
_cell_formula_units_Z 10
_cell_length_a 14.915642
_cell_length_b 12.305339
_cell_length_c 9.260664
_cell_angle_alpha 46.895707
_cell_angle_beta 128.406006
_cell_angle_gamma 151.402706
_cell_volume 592.897470
_symmetry_space_group_name_H-M "P -1"
_symmetry_group_IT_number 2
_symmetry_cell_setting 'triclinic'
loop_
_space_group_symop_operation_xyz
x,y,z
-x,-y,-z
loop_
_atom_site_type_symbol
_atom_site_label
_atom_site_fract_x
_atom_site_fract_y
_atom_site_fract_z
Si Si1 0.225444 0.122634 0.013087
Si Si2 0.941637 0.812626 0.434928
Si Si3 0.937907 0.605188 0.351241
Si Si4 0.297239 0.354326 0.386346
Si Si5 0.366867 0.538125 0.976653
O O1 0.411828 0.237353 0.034959
O O2 0.128419 0.119570 0.793610
O O3 0.287108 0.306097 0.029734
O O4 0.084481 0.860460 0.179673
O O5 0.934804 0.664775 0.457044
O O6 0.801183 0.659394 0.568633
O O7 0.150110 0.069497 0.462870
O O8 0.738757 0.435567 0.230883
O O9 0.000000 0.500000 0.500000
O O10 0.500000 0.500000 0.500000
O O11 0.321342 0.476378 0.155457
#
# Coordination Sequence:
#
# PCOD9078049 Si02
#       5
#     2   2   2   2   2
#     4  10  18  35  58  80 105 137 187 231 261 302
#     4  10  20  34  57  84 106 137 182 223 269 317
#     4  11  22  37  55  78 114 147 178 218 264 322
#     4  11  19  32  58  87 107 132 175 233 275 307
#     4  10  19  34  58  82 105 138 183 229 263 310
#
# _framework density 16.866323999999999
#
# number of rings (size 3 to 8) (size 9 to 14) (size 15 to 20)
#    0.000    1.600    6.000    1.200    0.000    0.800 
#    0.000    1.000    0.000    2.400    0.000    0.000 
#    0.000    0.000    0.000    0.000    0.000    0.000 
#
# Total GULP energy -55811.658242 kJ/mol
# GULP energy per Si atom -5581.165824 kJ/mol
# Density = 1.682794 g / cm^3
# Si number density = 16.866324 Si / 1000 Ang^3
#
#
#
# Elastic Constant Matrix: (Units=GPa)
#
#
# Indices 1 2 3 4 5 6 
#
# 1 147.9637 50.3392 64.1518 14.4051 -8.6391 5.2346
# 2 50.3392 81.2554 18.6109 23.7839 2.3334 19.8055
# 3 64.1518 18.6109 51.8293 14.0366 -4.4972 -5.9330
# 4 14.4051 23.7839 14.0366 18.5089 1.3671 -3.1913
# 5 -8.6391 2.3334 -4.4972 1.3671 41.8725 3.7333
# 6 5.2346 19.8055 -5.9330 -3.1913 3.7333 28.9690
#
#
#
# Elastic Compliance Matrix: (Units=1/GPa)
#
#
# Indices 1 2 3 4 5 6 
#
# 1 0.020667 -0.013993 -0.026109 0.022078 0.001273 0.002754
# 2 -0.013993 0.042649 0.015041 -0.060632 0.001038 -0.030363
# 3 -0.026109 0.015041 0.058111 -0.042924 0.001289 0.001441
# 4 0.022078 -0.060632 -0.042924 0.155781 -0.005917 0.046596
# 5 0.001273 0.001038 0.001289 -0.005917 0.024822 -0.004526
# 6 0.002754 -0.030363 0.001441 0.046596 -0.004526 0.060792
#
#
# Mechanical properties :
#
#
# Convention : Reuss Voigt Hill
#
# Bulk Modulus (GPa) = 14.02441 60.80579 37.41510
# Shear Modulus (GPa) = 11.44914 27.73316 19.59115
#
# Velocity S-wave (km/s) = 2.60824 4.05939 3.41186
# Velocity P-wave (km/s) = 4.17177 7.62242 6.14431
#
# Compressibility (1/GPa) = 0.07130424
#
# Stress axis : x y z
#
# Youngs Moduli (GPa) = 48.38734 23.44700 17.20835
#
# Poissons Ratio (x) = 0.32810 0.44929
# Poissons Ratio (y) = 0.67710 -0.25883
# Poissons Ratio (z) = 1.26334 -0.35266
#
# Static dielectric constant tensor:
#      x y z
#    x 1.572770 0.012670 -0.023520 
#    y 0.012670 1.584970 0.024300 
#    z -0.023520 0.024300 1.544750 
# 
# From -- ./inp_files/57579.got.cif
#   From: 2010.05.17/outbox.cif.g08.bks.cpg/sg2_29_cif.got.tgz:57579.got - 2010.06.03 11:33:40.
