data_PCOD9078873
_publ_section_title
;
Structure prediction by ZEFSAII (Michael W. Deem and Ramdas Pophale) SiO2 
 PCOD9078873
Probable space group: P -1
;
_chemical_formula_sum "Si O2"
_cell_formula_units_Z 16
_cell_length_a 22.106037
_cell_length_b 10.587144
_cell_length_c 9.531669
_cell_angle_alpha 85.727567
_cell_angle_beta 92.719325
_cell_angle_gamma 157.429362
_cell_volume 852.517925
_symmetry_space_group_name_H-M "P -1"
_symmetry_group_IT_number 2
_symmetry_cell_setting 'triclinic'
loop_
_space_group_symop_operation_xyz
x,y,z
-x,-y,-z
loop_
_atom_site_type_symbol
_atom_site_label
_atom_site_fract_x
_atom_site_fract_y
_atom_site_fract_z
Si Si1 0.974817 0.865433 0.305069
Si Si2 0.223678 0.118147 0.308855
Si Si3 0.967531 0.490348 0.150195
Si Si4 0.828314 0.161060 0.436544
Si Si5 0.472535 0.796187 0.250802
Si Si6 0.226199 0.549519 0.249486
Si Si7 0.200652 0.571346 0.926156
Si Si8 0.301592 0.810602 0.517425
O O1 0.913242 0.742750 0.147572
O O2 0.823631 0.532866 0.405643
O O3 0.099832 0.993218 0.332646
O O4 0.065123 0.170322 0.315525
O O5 0.376847 0.482813 0.234599
O O6 0.259066 0.113118 0.458016
O O7 0.131501 0.847375 0.214631
O O8 0.868702 0.214966 0.273428
O O9 0.864999 0.418829 0.125607
O O10 0.000000 0.500000 0.000000
O O11 0.749525 0.146590 0.447472
O O12 0.000000 0.500000 0.500000
O O13 0.354760 0.686258 0.235209
O O14 0.622972 0.102407 0.141770
O O15 0.536866 0.908979 0.408005
O O16 0.291248 0.772557 0.353267
O O17 0.196444 0.548348 0.093410
#
# Coordination Sequence:
#
# PCOD9078873 Si02
#       8
#     2   2   2   2   2   2   2   2
#     4   9  18  37  54  82 112 138 180 232 271 315
#     4   9  19  35  60  80 107 147 179 218 278 323
#     4  10  20  36  59  83 108 137 183 231 267 319
#     4  10  18  36  60  79 109 140 180 228 277 313
#     4  10  21  40  53  77 118 148 176 221 275 324
#     4  11  22  32  59  83 107 147 189 220 264 329
#     4  10  20  37  56  80 113 150 178 219 282 320
#     4  11  20  36  56  83 111 141 184 228 271 316
#
# _framework density 18.767934
#
# number of rings (size 3 to 8) (size 9 to 14) (size 15 to 20)
#    0.000    2.000    5.000    1.500    3.500    0.500 
#    0.000    1.875    0.000    0.000    0.000    0.000 
#    0.000    0.000    0.000    0.000    0.000    0.000 
#
# Total GULP energy -89190.498098 kJ/mol
# GULP energy per Si atom -5574.406131 kJ/mol
# Density = 1.872522 g / cm^3
# Si number density = 18.767934 Si / 1000 Ang^3
#
#
#
# Elastic Constant Matrix: (Units=GPa)
#
#
# Indices 1 2 3 4 5 6 
#
# 1 19.6845 9.5290 20.4587 -4.4331 3.5177 -1.0911
# 2 9.5290 47.0367 4.0263 -2.0675 7.8201 -4.6334
# 3 20.4587 4.0263 126.6578 11.1742 4.2709 -11.4843
# 4 -4.4331 -2.0675 11.1742 20.9303 0.8708 1.4307
# 5 3.5177 7.8201 4.2709 0.8708 30.1199 6.2675
# 6 -1.0911 -4.6334 -11.4843 1.4307 6.2675 18.5898
#
#
#
# Elastic Compliance Matrix: (Units=1/GPa)
#
#
# Indices 1 2 3 4 5 6 
#
# 1 0.078713 -0.014168 -0.015175 0.024106 -0.002096 -0.009435
# 2 -0.014168 0.026039 0.002840 -0.002323 -0.007551 0.010137
# 3 -0.015175 0.002840 0.011989 -0.009839 -0.002195 0.008721
# 4 0.024106 -0.002323 -0.009839 0.058583 -0.000518 -0.009577
# 5 -0.002096 -0.007551 -0.002195 -0.000518 0.039171 -0.016528
# 6 -0.009435 0.010137 0.008721 -0.009577 -0.016528 0.067463
#
#
# Mechanical properties :
#
#
# Convention : Reuss Voigt Hill
#
# Bulk Modulus (GPa) = 15.69058 29.04521 22.36790
# Shear Modulus (GPa) = 14.03665 24.55234 19.29450
#
# Velocity S-wave (km/s) = 2.73775 3.62084 3.20981
# Velocity P-wave (km/s) = 4.28628 5.74371 5.06766
#
# Compressibility (1/GPa) = 0.06373249
#
# Stress axis : x y z
#
# Youngs Moduli (GPa) = 12.70441 38.40387 83.40938
#
# Poissons Ratio (x) = 0.54412 1.26577
# Poissons Ratio (y) = 0.18000 -0.23685
# Poissons Ratio (z) = 0.19279 -0.10905
#
# Static dielectric constant tensor:
#      x y z
#    x 1.649750 -0.028130 0.012390 
#    y -0.028130 1.676790 -0.011730 
#    z 0.012390 -0.011730 1.695130 
# 
# From -- ./inp_files/170562.got.cif
#   From: 2010.05.17/outbox.cif.g08.bks.cpg/sg2_86_cif.got.tgz:170562.got - 2010.06.03 11:33:40.
