data_PCOD9078829
_publ_section_title
;
Structure prediction by ZEFSAII (Michael W. Deem and Ramdas Pophale) SiO2 
 PCOD9078829
Probable space group: P -1
;
_chemical_formula_sum "Si O2"
_cell_formula_units_Z 14
_cell_length_a 9.454116
_cell_length_b 19.541691
_cell_length_c 9.668647
_cell_angle_alpha 46.759306
_cell_angle_beta 82.509857
_cell_angle_gamma 120.925206
_cell_volume 709.566662
_symmetry_space_group_name_H-M "P -1"
_symmetry_group_IT_number 2
_symmetry_cell_setting 'triclinic'
loop_
_space_group_symop_operation_xyz
x,y,z
-x,-y,-z
loop_
_atom_site_type_symbol
_atom_site_label
_atom_site_fract_x
_atom_site_fract_y
_atom_site_fract_z
Si Si1 0.805913 0.154578 0.771506
Si Si2 0.586324 0.278177 0.376311
Si Si3 0.998567 0.659663 0.777743
Si Si4 0.513306 0.720549 0.295463
Si Si5 0.045831 0.909740 0.925585
Si Si6 0.210213 0.696334 0.216011
Si Si7 0.954787 0.680453 0.069830
O O1 0.877660 0.284255 0.675549
O O2 0.948122 0.237925 0.492187
O O3 0.877459 0.105253 0.924000
O O4 0.500000 0.000000 0.000000
O O5 0.549559 0.275960 0.548046
O O6 0.759450 0.280109 0.332055
O O7 0.306360 0.109245 0.578845
O O8 0.751983 0.458048 0.054468
O O9 0.967000 0.687317 0.893855
O O10 0.464050 0.779358 0.114571
O O11 0.305556 0.521147 0.576117
O O12 0.801017 0.840016 0.082337
O O13 0.970314 0.790009 0.987450
O O14 0.000000 0.500000 0.500000
O O15 0.194098 0.751212 0.005714
#
# Coordination Sequence:
#
# PCOD9078829 Si02
#       7
#     2   2   2   2   2   2   2
#     4  11  20  37  57  88 108 147 193 235 270 335
#     4  10  20  34  59  86 107 153 188 230 283 327
#     4  10  20  38  59  80 120 144 190 235 279 334
#     4  10  18  36  59  84 116 151 186 231 278 346
#     4  11  21  35  60  88 115 145 192 232 282 333
#     4   9  18  34  56  84 106 144 197 220 273 332
#     4   9  21  35  57  86 112 150 185 235 287 320
#
# _framework density 19.730352
#
# number of rings (size 3 to 8) (size 9 to 14) (size 15 to 20)
#    0.000    2.000    2.857    0.857    2.000    0.571 
#    0.000    2.857    3.143    0.857    0.000    0.000 
#    0.000    0.000    0.000    0.000    0.000    0.000 
#
# Total GULP energy -78150.758103 kJ/mol
# GULP energy per Si atom -5582.197007 kJ/mol
# Density = 1.968544 g / cm^3
# Si number density = 19.730352 Si / 1000 Ang^3
#
#
#
# Elastic Constant Matrix: (Units=GPa)
#
#
# Indices 1 2 3 4 5 6 
#
# 1 76.7192 -8.1167 22.0868 5.6619 -17.6457 17.4592
# 2 -8.1167 46.8018 24.6037 4.3155 2.2930 6.4601
# 3 22.0868 24.6037 80.5313 1.7948 -12.2065 6.5204
# 4 5.6619 4.3155 1.7948 22.6923 9.3563 -1.3962
# 5 -17.6457 2.2930 -12.2065 9.3563 22.6857 -4.5130
# 6 17.4592 6.4601 6.5204 -1.3962 -4.5130 13.3213
#
#
#
# Elastic Compliance Matrix: (Units=1/GPa)
#
#
# Indices 1 2 3 4 5 6 
#
# 1 0.032884 0.016242 -0.006873 -0.021948 0.020761 -0.042878
# 2 0.016242 0.036571 -0.012521 -0.012322 0.000516 -0.034010
# 3 -0.006873 -0.012521 0.018590 0.000010 0.007621 0.008564
# 4 -0.021948 -0.012322 0.000010 0.069663 -0.038805 0.028891
# 5 0.020761 0.000516 0.007621 -0.038805 0.078563 -0.008641
# 6 -0.042878 -0.034010 0.008564 0.028891 -0.008641 0.143667
#
#
# Mechanical properties :
#
#
# Convention : Reuss Voigt Hill
#
# Bulk Modulus (GPa) = 12.23403 31.24442 21.73923
# Shear Modulus (GPa) = 12.09219 22.77175 17.43197
#
# Velocity S-wave (km/s) = 2.47831 3.40096 2.97561
# Velocity P-wave (km/s) = 3.79519 5.59394 4.77994
#
# Compressibility (1/GPa) = 0.08173921
#
# Stress axis : x y z
#
# Youngs Moduli (GPa) = 30.40964 27.34395 53.79353
#
# Poissons Ratio (x) = -0.44411 0.36974
# Poissons Ratio (y) = -0.49390 0.67356
# Poissons Ratio (z) = 0.20902 0.34238
#
# Static dielectric constant tensor:
#      x y z
#    x 1.670110 0.012270 0.026590 
#    y 0.012270 1.711760 -0.013290 
#    z 0.026590 -0.013290 1.687160 
# 
# From -- ./inp_files/157447.got.cif
#   From: 2010.05.17/outbox.cif.g08.bks.cpg/sg2_79_cif.got.tgz:157447.got - 2010.06.03 11:33:40.
