data_PCOD9078301
_publ_section_title
;
Structure prediction by ZEFSAII (Michael W. Deem and Ramdas Pophale) SiO2 
 PCOD9078301
Probable space group: P -1
;
_chemical_formula_sum "Si O2"
_cell_formula_units_Z 14
_cell_length_a 14.809424
_cell_length_b 9.751511
_cell_length_c 6.424979
_cell_angle_alpha 76.477214
_cell_angle_beta 105.076733
_cell_angle_gamma 49.862098
_cell_volume 574.748901
_symmetry_space_group_name_H-M "P -1"
_symmetry_group_IT_number 2
_symmetry_cell_setting 'triclinic'
loop_
_space_group_symop_operation_xyz
x,y,z
-x,-y,-z
loop_
_atom_site_type_symbol
_atom_site_label
_atom_site_fract_x
_atom_site_fract_y
_atom_site_fract_z
Si Si1 0.924188 0.724587 0.959703
Si Si2 0.196547 0.910646 0.569232
Si Si3 0.615195 0.051593 0.753104
Si Si4 0.946782 0.036160 0.192058
Si Si5 0.404935 0.455200 0.723832
Si Si6 0.441818 0.189815 0.205816
Si Si7 0.794970 0.450687 0.779901
O O1 0.861309 0.897513 0.677288
O O2 0.782816 0.852315 0.956033
O O3 0.000000 0.500000 0.000000
O O4 0.057591 0.650584 0.174255
O O5 0.146062 0.982757 0.753082
O O6 0.350201 0.670920 0.691506
O O7 0.092208 0.899454 0.447229
O O8 0.551657 0.261609 0.754539
O O9 0.568097 0.100591 0.463851
O O10 0.544200 0.984761 0.810489
O O11 0.836839 0.290358 0.037500
O O12 0.000000 0.000000 0.000000
O O13 0.294257 0.520838 0.463899
O O14 0.415274 0.336080 0.964348
O O15 0.308333 0.328813 0.235441
#
# Coordination Sequence:
#
# PCOD9078301 Si02
#       7
#     2   2   2   2   2   2   2
#     4  11  23  43  63  91 137 169 207 267 325 374
#     4  10  22  35  65  94 126 167 207 264 320 375
#     4  10  23  40  63  91 129 175 205 262 314 379
#     4  10  18  35  60  97 123 154 213 263 312 365
#     4  11  21  39  67  98 121 163 226 254 317 380
#     4  10  20  41  65  89 124 168 221 256 306 380
#     4  10  20  36  68  91 122 164 206 272 311 364
#
# _framework density 24.358463
#
# number of rings (size 3 to 8) (size 9 to 14) (size 15 to 20)
#    0.000    1.714    4.286    0.429    0.000    0.571 
#    0.000    5.714    0.000    0.000    0.000    0.000 
#    0.000    0.000    0.000    0.000    0.000    0.000 
#
# Total GULP energy -77993.111131 kJ/mol
# GULP energy per Si atom -5570.936509 kJ/mol
# Density = 2.430302 g / cm^3
# Si number density = 24.358463 Si / 1000 Ang^3
#
#
#
# Elastic Constant Matrix: (Units=GPa)
#
#
# Indices 1 2 3 4 5 6 
#
# 1 53.4030 17.5686 22.2940 -2.9043 14.1798 -2.8979
# 2 17.5686 150.1627 11.3755 -20.2502 -0.2481 -6.0868
# 3 22.2940 11.3755 90.6233 -16.3882 1.1473 -3.4025
# 4 -2.9043 -20.2502 -16.3882 36.8097 -1.0010 -2.6925
# 5 14.1798 -0.2481 1.1473 -1.0010 35.9167 -20.4506
# 6 -2.8979 -6.0868 -3.4025 -2.6925 -20.4506 35.7175
#
#
#
# Elastic Compliance Matrix: (Units=1/GPa)
#
#
# Indices 1 2 3 4 5 6 
#
# 1 0.025872 -0.003361 -0.006729 -0.003762 -0.014518 -0.007711
# 2 -0.003361 0.007774 0.000789 0.004710 0.003458 0.003462
# 3 -0.006729 0.000789 0.013862 0.006505 0.004744 0.004116
# 4 -0.003762 0.004710 0.006505 0.033060 0.006360 0.007251
# 5 -0.014518 0.003458 0.004744 0.006360 0.050177 0.029072
# 6 -0.007711 0.003462 0.004116 0.007251 0.029072 0.045546
#
#
# Mechanical properties :
#
#
# Convention : Reuss Voigt Hill
#
# Bulk Modulus (GPa) = 34.59483 44.07390 39.33436
# Shear Modulus (GPa) = 24.44634 37.88550 31.16592
#
# Velocity S-wave (km/s) = 3.17141 3.94805 3.58085
# Velocity P-wave (km/s) = 5.25773 6.23826 5.76887
#
# Compressibility (1/GPa) = 0.02890605
#
# Stress axis : x y z
#
# Youngs Moduli (GPa) = 38.65145 128.63093 72.14087
#
# Poissons Ratio (x) = 0.43235 0.48543
# Poissons Ratio (y) = 0.12991 -0.05692
# Poissons Ratio (z) = 0.26008 -0.10149
#
# Static dielectric constant tensor:
#      x y z
#    x 2.016450 0.018510 -0.003630 
#    y 0.018510 2.211990 0.128760 
#    z -0.003630 0.128760 2.083400 
# 
# From -- ./inp_files/109058.got.cif
#   From: 2010.05.17/outbox.cif.g08.bks.cpg/sg2_55_cif.got.tgz:109058.got - 2010.06.03 11:33:40.
