data_PCOD9078720
_publ_section_title
;
Structure prediction by ZEFSAII (Michael W. Deem and Ramdas Pophale) SiO2 
 PCOD9078720
Probable space group: P -1
;
_chemical_formula_sum "Si O2"
_cell_formula_units_Z 14
_cell_length_a 11.407562
_cell_length_b 21.363713
_cell_length_c 17.840109
_cell_angle_alpha 161.115806
_cell_angle_beta 149.962563
_cell_angle_gamma 41.849098
_cell_volume 626.176282
_symmetry_space_group_name_H-M "P -1"
_symmetry_group_IT_number 2
_symmetry_cell_setting 'triclinic'
loop_
_space_group_symop_operation_xyz
x,y,z
-x,-y,-z
loop_
_atom_site_type_symbol
_atom_site_label
_atom_site_fract_x
_atom_site_fract_y
_atom_site_fract_z
Si Si1 0.076155 0.683463 0.111694
Si Si2 0.767581 0.476162 0.127347
Si Si3 0.735094 0.412269 0.207120
Si Si4 0.359709 0.723857 0.738126
Si Si5 0.521952 0.676589 0.626743
Si Si6 0.327699 0.146920 0.791781
Si Si7 0.435819 0.613593 0.347332
O O1 0.238448 0.670805 0.258283
O O2 0.080619 0.916415 0.382390
O O3 0.221182 0.665423 0.096525
O O4 0.790878 0.482581 0.724408
O O5 0.763608 0.384904 0.104785
O O6 0.060094 0.687783 0.525583
O O7 0.500000 0.500000 0.000000
O O8 0.633019 0.591947 0.371796
O O9 0.000000 0.500000 0.500000
O O10 0.523186 0.194278 0.882839
O O11 0.541851 0.819010 0.872504
O O12 0.338896 0.478415 0.457758
O O13 0.506887 0.838864 0.025874
O O14 0.571669 0.753946 0.655723
O O15 0.287095 0.361840 0.008933
#
# Coordination Sequence:
#
# PCOD9078720 Si02
#       7
#     2   2   2   2   2   2   2
#     4  11  21  34  58  88 111 145 195 235 280 334
#     4  11  19  35  59  83 114 150 190 237 281 335
#     4  10  18  36  57  76 112 154 184 225 283 337
#     4   9  18  34  56  82 110 152 190 225 287 340
#     4   9  18  34  58  80 110 152 190 228 280 344
#     4   9  20  35  56  84 113 150 188 229 290 333
#     4   9  19  35  53  80 114 146 184 232 282 330
#
# _framework density 22.357918999999999
#
# number of rings (size 3 to 8) (size 9 to 14) (size 15 to 20)
#    0.857    1.429    2.857    0.429    0.000    2.857 
#    0.000    3.571    0.000   22.286    0.000    0.000 
#    0.000    0.000    0.000    0.000    0.000    0.000 
#
# Total GULP energy -78007.919056 kJ/mol
# GULP energy per Si atom -5571.994218 kJ/mol
# Density = 2.230703 g / cm^3
# Si number density = 22.357919 Si / 1000 Ang^3
#
#
#
# Elastic Constant Matrix: (Units=GPa)
#
#
# Indices 1 2 3 4 5 6 
#
# 1 108.5622 16.5304 13.5989 -5.0929 -28.9697 4.4377
# 2 16.5304 76.4167 21.6873 -28.0352 -4.4896 -4.3211
# 3 13.5989 21.6873 43.5855 -3.4395 -6.8442 6.7703
# 4 -5.0929 -28.0352 -3.4395 29.8417 0.3781 -3.2021
# 5 -28.9697 -4.4896 -6.8442 0.3781 31.8255 -16.8703
# 6 4.4377 -4.3211 6.7703 -3.2021 -16.8703 43.1779
#
#
#
# Elastic Compliance Matrix: (Units=1/GPa)
#
#
# Indices 1 2 3 4 5 6 
#
# 1 0.013140 -0.000459 -0.002259 0.001856 0.013758 0.004471
# 2 -0.000459 0.025821 -0.011336 0.023674 0.004759 0.008024
# 3 -0.002259 -0.011336 0.029532 -0.008308 -0.000587 -0.006378
# 4 0.001856 0.023674 -0.008308 0.056175 0.008360 0.010914
# 5 0.013758 0.004759 -0.000587 0.008360 0.055835 0.021590
# 6 0.004471 0.008024 -0.006378 0.010914 0.021590 0.033749
#
#
# Mechanical properties :
#
#
# Convention : Reuss Voigt Hill
#
# Bulk Modulus (GPa) = 24.76160 36.91084 30.83622
# Shear Modulus (GPa) = 19.54492 32.75219 26.14856
#
# Velocity S-wave (km/s) = 2.95987 3.83156 3.42357
# Velocity P-wave (km/s) = 4.77286 6.00994 5.42677
#
# Compressibility (1/GPa) = 0.04038511
#
# Stress axis : x y z
#
# Youngs Moduli (GPa) = 76.10434 38.72791 33.86203
#
# Poissons Ratio (x) = 0.01779 0.07649
# Poissons Ratio (y) = 0.03495 0.38385
# Poissons Ratio (z) = 0.17190 0.43901
#
# Static dielectric constant tensor:
#      x y z
#    x 1.933430 0.008090 -0.006190 
#    y 0.008090 1.863360 0.016040 
#    z -0.006190 0.016040 1.842160 
# 
# From -- ./inp_files/493030.got.cif
#   From: 2010.05.17/outbox.cif.g08.bks.cpg/sg2_247_cif.got.tgz:493030.got - 2010.06.03 11:33:40.
