data_PCOD9078777
_publ_section_title
;
Structure prediction by ZEFSAII (Michael W. Deem and Ramdas Pophale) SiO2 
 PCOD9078777
Probable space group: P -1
;
_chemical_formula_sum "Si O2"
_cell_formula_units_Z 16
_cell_length_a 15.417780
_cell_length_b 8.239346
_cell_length_c 11.061986
_cell_angle_alpha 57.084019
_cell_angle_beta 47.477746
_cell_angle_gamma 88.565345
_cell_volume 724.289972
_symmetry_space_group_name_H-M "P -1"
_symmetry_group_IT_number 2
_symmetry_cell_setting 'triclinic'
loop_
_space_group_symop_operation_xyz
x,y,z
-x,-y,-z
loop_
_atom_site_type_symbol
_atom_site_label
_atom_site_fract_x
_atom_site_fract_y
_atom_site_fract_z
Si Si1 0.737451 0.224804 0.692835
Si Si2 0.677756 0.271492 0.465480
Si Si3 0.370067 0.050328 0.873197
Si Si4 0.210339 0.018343 0.589563
Si Si5 0.864614 0.174506 0.007096
Si Si6 0.915964 0.611087 0.913573
Si Si7 0.912089 0.711255 0.434279
Si Si8 0.161036 0.061415 0.223035
O O1 0.709872 0.315433 0.560351
O O2 0.851474 0.445185 0.575641
O O3 0.790123 0.054106 0.679471
O O4 0.618379 0.077896 0.966807
O O5 0.676833 0.039505 0.532469
O O6 0.797474 0.467146 0.186433
O O7 0.524335 0.220637 0.607522
O O8 0.259588 0.877292 0.947115
O O9 0.286228 0.155099 0.967523
O O10 0.211756 0.243136 0.459901
O O11 0.202396 0.003350 0.747929
O O12 0.059517 0.803461 0.767109
O O13 0.983410 0.162434 0.829761
O O14 0.931523 0.427588 0.899908
O O15 0.868637 0.740973 0.816477
O O16 0.018317 0.841638 0.391038
#
# Coordination Sequence:
#
# PCOD9078777 Si02
#       8
#     2   2   2   2   2   2   2   2
#     4  10  20  38  57  81 108 151 183 221 271 323
#     4  11  21  38  59  76 115 147 183 225 272 321
#     4   9  22  37  55  79 112 149 185 221 267 321
#     4  10  21  35  56  89 111 137 184 227 277 323
#     4  10  19  35  60  80 117 138 180 231 273 322
#     4  10  20  37  57  89 107 141 180 228 280 322
#     4  10  18  36  58  84 108 144 179 226 276 324
#     4   8  20  36  56  83 115 132 187 222 270 329
#
# _framework density 22.090599000000001
#
# number of rings (size 3 to 8) (size 9 to 14) (size 15 to 20)
#    0.750    1.500    0.000    4.125    0.000    4.500 
#    2.250    3.750    0.000    0.000    0.000    0.000 
#    0.000    0.000    0.000    0.000    0.000    0.000 
#
# Total GULP energy -89191.072276 kJ/mol
# GULP energy per Si atom -5574.442017 kJ/mol
# Density = 2.204032 g / cm^3
# Si number density = 22.090599 Si / 1000 Ang^3
#
#
#
# Elastic Constant Matrix: (Units=GPa)
#
#
# Indices 1 2 3 4 5 6 
#
# 1 63.7898 19.2106 13.2776 0.5786 4.5631 -1.8363
# 2 19.2106 45.5356 13.7555 5.8860 1.9595 -15.0804
# 3 13.2776 13.7555 64.5179 21.0586 -4.0252 6.0447
# 4 0.5786 5.8860 21.0586 23.1663 -5.9459 7.4754
# 5 4.5631 1.9595 -4.0252 -5.9459 23.0415 6.4614
# 6 -1.8363 -15.0804 6.0447 7.4754 6.4614 30.6466
#
#
#
# Elastic Compliance Matrix: (Units=1/GPa)
#
#
# Indices 1 2 3 4 5 6 
#
# 1 0.019046 -0.008915 -0.003733 0.006146 -0.001016 -0.003794
# 2 -0.008915 0.038817 -0.003797 -0.018611 -0.014551 0.026923
# 3 -0.003733 -0.003797 0.023733 -0.019635 0.000742 -0.002140
# 4 0.006146 -0.018611 -0.019635 0.082354 0.026783 -0.030652
# 5 -0.001016 -0.014551 0.000742 0.026783 0.059283 -0.026399
# 6 -0.003794 0.026923 -0.002140 -0.030652 -0.026399 0.059116
#
#
# Mechanical properties :
#
#
# Convention : Reuss Voigt Hill
#
# Bulk Modulus (GPa) = 20.53134 29.59232 25.06183
# Shear Modulus (GPa) = 15.08415 23.87751 19.48083
#
# Velocity S-wave (km/s) = 2.61594 3.29126 2.97284
# Velocity P-wave (km/s) = 4.29401 5.27903 4.81179
#
# Compressibility (1/GPa) = 0.04870602
#
# Stress axis : x y z
#
# Youngs Moduli (GPa) = 52.50461 25.76185 42.13566
#
# Poissons Ratio (x) = 0.22966 0.15729
# Poissons Ratio (y) = 0.46807 0.15999
# Poissons Ratio (z) = 0.19600 0.09782
#
# Static dielectric constant tensor:
#      x y z
#    x 1.827330 -0.015410 0.036590 
#    y -0.015410 1.804140 0.013150 
#    z 0.036590 0.013150 1.839880 
# 
# From -- ./inp_files/444175.got.cif
#   From: 2010.05.17/outbox.cif.g08.bks.cpg/sg2_223_cif.got.tgz:444175.got - 2010.06.03 11:33:40.
