data_PCOD9078963
_publ_section_title
;
Structure prediction by ZEFSAII (Michael W. Deem and Ramdas Pophale) SiO2 
 PCOD9078963
Probable space group: P -1
;
_chemical_formula_sum "Si O2"
_cell_formula_units_Z 16
_cell_length_a 14.964247
_cell_length_b 13.404305
_cell_length_c 7.240805
_cell_angle_alpha 97.102907
_cell_angle_beta 68.347633
_cell_angle_gamma 150.299465
_cell_volume 604.652923
_symmetry_space_group_name_H-M "P -1"
_symmetry_group_IT_number 2
_symmetry_cell_setting 'triclinic'
loop_
_space_group_symop_operation_xyz
x,y,z
-x,-y,-z
loop_
_atom_site_type_symbol
_atom_site_label
_atom_site_fract_x
_atom_site_fract_y
_atom_site_fract_z
Si Si1 0.178596 0.084748 0.830585
Si Si2 0.169656 0.367641 0.203667
Si Si3 0.599567 0.787097 0.723229
Si Si4 0.836123 0.106887 0.933036
Si Si5 0.809338 0.397857 0.640749
Si Si6 0.296325 0.610969 0.679159
Si Si7 0.408756 0.925672 0.763907
Si Si8 0.593901 0.564436 0.738380
O O1 0.397667 0.350901 0.708953
O O2 0.234466 0.059085 0.945973
O O3 0.042766 0.888412 0.751468
O O4 0.000000 0.000000 0.000000
O O5 0.120495 0.439372 0.265635
O O6 0.250441 0.383874 0.329179
O O7 0.375036 0.560806 0.953987
O O8 0.512956 0.754341 0.592490
O O9 0.696158 0.764936 0.640773
O O10 0.743882 0.000775 0.774189
O O11 0.746337 0.125017 0.096152
O O12 0.088823 0.350737 0.810459
O O13 0.732313 0.377921 0.504522
O O14 0.609542 0.142635 0.786836
O O15 0.000000 0.500000 0.500000
O O16 0.301508 0.717174 0.824497
O O17 0.500000 0.000000 0.500000
O O18 0.500000 0.500000 0.000000
#
# Coordination Sequence:
#
# PCOD9078963 Si02
#       8
#     2   2   2   2   2   2   2   2
#     4  12  19  32  64 100 128 164 217 264 316 381
#     4  11  21  39  65  95 128 172 216 262 316 384
#     4  11  21  38  67  97 128 165 214 271 320 377
#     4  12  22  39  66  98 130 168 214 270 325 378
#     4  11  26  47  65  92 132 176 218 266 324 394
#     4  11  26  42  64  96 132 167 218 269 328 379
#     4  10  24  43  63  89 130 171 217 266 323 387
#     4  10  18  36  60  99 129 163 210 267 311 379
#
# _framework density 26.461462000000001
#
# number of rings (size 3 to 8) (size 9 to 14) (size 15 to 20)
#    0.000    1.000    7.500    0.375    5.250    1.500 
#    0.000    0.625    0.000    6.750    0.000    0.000 
#    0.000    0.000    0.000    0.000    0.000    0.000 
#
# Total GULP energy -89559.358809 kJ/mol
# GULP energy per Si atom -5597.459926 kJ/mol
# Density = 2.640124 g / cm^3
# Si number density = 26.461462 Si / 1000 Ang^3
#
#
#
# Elastic Constant Matrix: (Units=GPa)
#
#
# Indices 1 2 3 4 5 6 
#
# 1 142.6817 42.4012 27.2352 11.1263 -11.1800 -3.7807
# 2 42.4012 214.2642 37.8714 9.8807 -7.8400 -3.2677
# 3 27.2352 37.8714 54.3892 10.7860 1.1623 -8.4284
# 4 11.1263 9.8807 10.7860 40.2665 -7.6031 -3.7066
# 5 -11.1800 -7.8400 1.1623 -7.6031 35.6223 3.0452
# 6 -3.7807 -3.2677 -8.4284 -3.7066 3.0452 61.9396
#
#
#
# Elastic Compliance Matrix: (Units=1/GPa)
#
#
# Indices 1 2 3 4 5 6 
#
# 1 0.008157 -0.000899 -0.003397 -0.000698 0.002339 -0.000168
# 2 -0.000899 0.005487 -0.003437 -0.000003 0.001061 -0.000285
# 3 -0.003397 -0.003437 0.024012 -0.005139 -0.003939 0.002765
# 4 -0.000698 -0.000003 -0.005139 0.027553 0.005776 0.000623
# 5 0.002339 0.001061 -0.003939 0.005776 0.030529 -0.001493
# 6 -0.000168 -0.000285 0.002765 0.000623 -0.001493 0.016606
#
#
# Mechanical properties :
#
#
# Convention : Reuss Voigt Hill
#
# Bulk Modulus (GPa) = 45.06222 69.59450 57.32836
# Shear Modulus (GPa) = 36.98074 47.82083 42.40079
#
# Velocity S-wave (km/s) = 3.74241 4.25572 4.00729
# Velocity P-wave (km/s) = 5.97834 7.10673 6.56682
#
# Compressibility (1/GPa) = 0.02219154
#
# Stress axis : x y z
#
# Youngs Moduli (GPa) = 122.59078 182.24557 41.64616
#
# Poissons Ratio (x) = 0.16379 0.14146
# Poissons Ratio (y) = 0.11017 0.14313
# Poissons Ratio (z) = 0.41640 0.62636
#
# Static dielectric constant tensor:
#      x y z
#    x 2.023920 -0.013230 0.016830 
#    y -0.013230 2.035960 0.013550 
#    z 0.016830 0.013550 2.268650 
# 
# From -- ./inp_files/307703.got.cif
#   From: 2010.05.17/outbox.cif.g08.bks.cpg/sg2_154_cif.got.tgz:307703.got - 2010.06.03 11:33:40.
