data_PCOD9078410
_publ_section_title
;
Structure prediction by ZEFSAII (Michael W. Deem and Ramdas Pophale) SiO2 
 PCOD9078410
Probable space group: P -1
;
_chemical_formula_sum "Si O2"
_cell_formula_units_Z 16
_cell_length_a 11.522404
_cell_length_b 10.158667
_cell_length_c 15.711458
_cell_angle_alpha 147.241367
_cell_angle_beta 123.570996
_cell_angle_gamma 75.522833
_cell_volume 728.752225
_symmetry_space_group_name_H-M "P -1"
_symmetry_group_IT_number 2
_symmetry_cell_setting 'triclinic'
loop_
_space_group_symop_operation_xyz
x,y,z
-x,-y,-z
loop_
_atom_site_type_symbol
_atom_site_label
_atom_site_fract_x
_atom_site_fract_y
_atom_site_fract_z
Si Si1 0.964073 0.984938 0.120591
Si Si2 0.288445 0.278004 0.482379
Si Si3 0.492760 0.142538 0.366523
Si Si4 0.168139 0.443212 0.310935
Si Si5 0.278556 0.597909 0.894518
Si Si6 0.660164 0.874567 0.400340
Si Si7 0.174004 0.666600 0.703187
Si Si8 0.030480 0.753114 0.349662
O O1 0.101098 0.048841 0.279323
O O2 0.068209 0.222673 0.221856
O O3 0.821030 0.036670 0.124393
O O4 0.894529 0.705963 0.887013
O O5 0.373723 0.226233 0.409678
O O6 0.370866 0.238226 0.578130
O O7 0.285694 0.572335 0.645380
O O8 0.644022 0.409305 0.536111
O O9 0.553707 0.994129 0.380239
O O10 0.406192 0.910378 0.133851
O O11 0.123003 0.688186 0.426522
O O12 0.344149 0.378339 0.794700
O O13 0.194444 0.581864 0.761197
O O14 0.144827 0.505944 0.864084
O O15 0.841467 0.124796 0.606270
O O16 0.000000 0.500000 0.500000
O O17 0.000000 0.000000 0.500000
#
# Coordination Sequence:
#
# PCOD9078410 Si02
#       8
#     2   2   2   2   2   2   2   2
#     4  10  20  39  63  81 115 153 204 249 279 343
#     4  10  21  37  59  85 117 160 190 239 306 349
#     4  11  22  36  57  90 122 155 193 242 299 356
#     4  10  21  36  59  90 116 148 201 251 288 335
#     4  10  18  35  62  89 115 151 203 239 297 342
#     4   9  20  37  58  83 123 155 195 242 295 351
#     4   9  19  37  62  82 113 154 193 239 291 342
#     4   9  17  33  59  88 109 148 201 246 276 337
#
# _framework density 21.955335999999999
#
# number of rings (size 3 to 8) (size 9 to 14) (size 15 to 20)
#    0.000    2.250    1.250    1.500    1.750    0.500 
#    0.000    7.500   13.750    0.000    0.000    0.000 
#    0.000    0.000    0.000    0.000    0.000    0.000 
#
# Total GULP energy -89153.857794 kJ/mol
# GULP energy per Si atom -5572.116112 kJ/mol
# Density = 2.190537 g / cm^3
# Si number density = 21.955336 Si / 1000 Ang^3
#
#
#
# Elastic Constant Matrix: (Units=GPa)
#
#
# Indices 1 2 3 4 5 6 
#
# 1 86.9377 34.7527 34.6715 10.5187 -13.0942 -32.7780
# 2 34.7527 96.8624 13.6262 -10.7127 -8.6058 -22.3438
# 3 34.6715 13.6262 80.8301 2.2880 -3.8887 0.4944
# 4 10.5187 -10.7127 2.2880 22.0854 4.5266 0.9672
# 5 -13.0942 -8.6058 -3.8887 4.5266 25.2108 1.4594
# 6 -32.7780 -22.3438 0.4944 0.9672 1.4594 29.3520
#
#
#
# Elastic Compliance Matrix: (Units=1/GPa)
#
#
# Indices 1 2 3 4 5 6 
#
# 1 0.042879 -0.003818 -0.016272 -0.026798 0.020658 0.045107
# 2 -0.003818 0.014300 -0.001008 0.008405 0.000868 0.006318
# 3 -0.016272 -0.001008 0.019139 0.007360 -0.006053 -0.019203
# 4 -0.026798 0.008405 0.007360 0.066633 -0.020441 -0.024831
# 5 0.020658 0.000868 -0.006053 -0.020441 0.052159 0.021912
# 6 0.045107 0.006318 -0.019203 -0.024831 0.021912 0.089303
#
#
# Mechanical properties :
#
#
# Convention : Reuss Voigt Hill
#
# Bulk Modulus (GPa) = 29.30743 47.85900 38.58321
# Shear Modulus (GPa) = 14.79366 27.43497 21.11431
#
# Velocity S-wave (km/s) = 2.59860 3.53878 3.10448
# Velocity P-wave (km/s) = 4.73088 6.20829 5.51925
#
# Compressibility (1/GPa) = 0.03412104
#
# Stress axis : x y z
#
# Youngs Moduli (GPa) = 23.32167 69.93127 52.24853
#
# Poissons Ratio (x) = 0.26703 0.85021
# Poissons Ratio (y) = 0.08905 0.05264
# Poissons Ratio (z) = 0.37950 0.07046
#
# Static dielectric constant tensor:
#      x y z
#    x 1.870830 -0.021740 -0.018040 
#    y -0.021740 1.829400 0.005730 
#    z -0.018040 0.005730 1.818430 
# 
# From -- ./inp_files/569024.got.cif
#   From: 2010.05.17/outbox.cif.g08.bks.cpg/sg2_285_cif.got.tgz:569024.got - 2010.06.03 11:33:40.
