data_PCOD9078214
_publ_section_title
;
Structure prediction by ZEFSAII (Michael W. Deem and Ramdas Pophale) SiO2 
 PCOD9078214
Probable space group: P -1
;
_chemical_formula_sum "Si O2"
_cell_formula_units_Z 16
_cell_length_a 7.328342
_cell_length_b 12.965996
_cell_length_c 9.829947
_cell_angle_alpha 61.862412
_cell_angle_beta 98.927332
_cell_angle_gamma 131.730486
_cell_volume 596.529291
_symmetry_space_group_name_H-M "P -1"
_symmetry_group_IT_number 2
_symmetry_cell_setting 'triclinic'
loop_
_space_group_symop_operation_xyz
x,y,z
-x,-y,-z
loop_
_atom_site_type_symbol
_atom_site_label
_atom_site_fract_x
_atom_site_fract_y
_atom_site_fract_z
Si Si1 0.624253 0.400693 0.863821
Si Si2 0.910397 0.723855 0.788257
Si Si3 0.586974 0.930421 0.888033
Si Si4 0.070752 0.533851 0.645772
Si Si5 0.226282 0.993423 0.848181
Si Si6 0.421109 0.845668 0.652623
Si Si7 0.235083 0.383566 0.688194
Si Si8 0.257241 0.251759 0.532230
O O1 0.707328 0.533278 0.900129
O O2 0.370172 0.336683 0.808442
O O3 0.842942 0.498717 0.716165
O O4 0.604267 0.258309 0.986502
O O5 0.845702 0.775978 0.615622
O O6 0.974866 0.828528 0.860024
O O7 0.169007 0.768776 0.754120
O O8 0.460586 0.004571 0.838450
O O9 0.640115 0.919643 0.743516
O O10 0.779065 0.001504 0.991728
O O11 0.325604 0.706632 0.622401
O O12 0.076798 0.397551 0.760055
O O13 0.889656 0.726050 0.391438
O O14 0.267977 0.129907 0.680744
O O15 0.500000 0.000000 0.500000
O O16 0.463565 0.569777 0.554429
O O17 0.000000 0.500000 0.500000
#
# Coordination Sequence:
#
# PCOD9078214 Si02
#       8
#     2   2   2   2   2   2   2   2
#     4  10  21  43  63  92 133 164 213 260 312 382
#     4   9  20  34  60  96 119 163 211 258 313 367
#     4  10  22  39  64  87 123 175 209 254 325 384
#     4  11  23  36  66  99 123 165 216 263 311 370
#     4  10  20  34  60  95 117 169 215 247 319 385
#     4  10  23  41  60  90 128 163 209 268 320 379
#     4  10  20  35  64  95 125 171 208 260 316 365
#     4  10  18  35  59  92 133 160 212 267 304 370
#
# _framework density 26.821815999999998
#
# number of rings (size 3 to 8) (size 9 to 14) (size 15 to 20)
#    0.000    2.000    1.250    3.375    3.500    5.500 
#    0.000    0.625    2.750    1.500    0.000    0.000 
#    0.000    0.000    0.000    0.000    0.000    0.000 
#
# Total GULP energy -89459.532418 kJ/mol
# GULP energy per Si atom -5591.220776 kJ/mol
# Density = 2.676077 g / cm^3
# Si number density = 26.821816 Si / 1000 Ang^3
#
#
#
# Elastic Constant Matrix: (Units=GPa)
#
#
# Indices 1 2 3 4 5 6 
#
# 1 100.1112 28.3793 41.7837 4.0915 23.7671 -19.4529
# 2 28.3793 187.7625 102.6410 38.7923 1.9403 -31.3100
# 3 41.7837 102.6410 119.0328 37.7043 23.4741 -31.3490
# 4 4.0915 38.7923 37.7043 57.7800 -11.4070 3.2311
# 5 23.7671 1.9403 23.4741 -11.4070 40.4669 -3.1294
# 6 -19.4529 -31.3100 -31.3490 3.2311 -3.1294 34.2166
#
#
#
# Elastic Compliance Matrix: (Units=1/GPa)
#
#
# Indices 1 2 3 4 5 6 
#
# 1 0.013474 0.000068 -0.000887 -0.002271 -0.007545 0.006435
# 2 0.000068 0.011173 -0.010854 0.000713 0.005983 0.000798
# 3 -0.000887 -0.010854 0.035450 -0.021738 -0.023956 0.021905
# 4 -0.002271 0.000713 -0.021738 0.036865 0.022602 -0.021969
# 5 -0.007545 0.005983 -0.023956 0.022602 0.047690 -0.018536
# 6 0.006435 0.000798 0.021905 -0.021969 -0.018536 0.054063
#
#
# Mechanical properties :
#
#
# Convention : Reuss Voigt Hill
#
# Bulk Modulus (GPa) = 27.20882 83.61272 55.41077
# Shear Modulus (GPa) = 21.33926 42.09955 31.71941
#
# Velocity S-wave (km/s) = 2.82369 3.96612 3.44262
# Velocity P-wave (km/s) = 4.56040 7.22596 6.04201
#
# Compressibility (1/GPa) = 0.03675279
#
# Stress axis : x y z
#
# Youngs Moduli (GPa) = 74.21694 89.50427 28.20851
#
# Poissons Ratio (x) = -0.00612 0.02502
# Poissons Ratio (y) = -0.00508 0.30616
# Poissons Ratio (z) = 0.06583 0.97144
#
# Static dielectric constant tensor:
#      x y z
#    x 2.176670 -0.009810 -0.010800 
#    y -0.009810 2.179300 0.020720 
#    z -0.010800 0.020720 2.176080 
# 
# From -- ./inp_files/436658.got.cif
#   From: 2010.05.17/outbox.cif.g08.bks.cpg/sg2_219_cif.got.tgz:436658.got - 2010.06.03 11:33:40.
