data_PCOD9078958
_publ_section_title
;
Structure prediction by ZEFSAII (Michael W. Deem and Ramdas Pophale) SiO2 
 PCOD9078958
Probable space group: P -1
;
_chemical_formula_sum "Si O2"
_cell_formula_units_Z 14
_cell_length_a 10.897451
_cell_length_b 11.048024
_cell_length_c 14.284805
_cell_angle_alpha 137.025747
_cell_angle_beta 152.251271
_cell_angle_gamma 60.259895
_cell_volume 479.685299
_symmetry_space_group_name_H-M "P -1"
_symmetry_group_IT_number 2
_symmetry_cell_setting 'triclinic'
loop_
_space_group_symop_operation_xyz
x,y,z
-x,-y,-z
loop_
_atom_site_type_symbol
_atom_site_label
_atom_site_fract_x
_atom_site_fract_y
_atom_site_fract_z
Si Si1 0.803643 0.752307 0.942982
Si Si2 0.000000 0.500000 0.000000
Si Si3 0.720639 0.989546 0.861179
Si Si4 0.301746 0.704594 0.830164
Si Si5 0.904266 0.666443 0.221198
Si Si6 0.125586 0.909764 0.675136
Si Si7 0.500000 0.000000 0.500000
Si Si8 0.490974 0.754471 0.232536
O O1 0.699911 0.527096 0.779996
O O2 0.837062 0.895720 0.134129
O O3 0.140360 0.805251 0.167996
O O4 0.654177 0.815918 0.794919
O O5 0.029796 0.636374 0.191437
O O6 0.728473 0.173382 0.032719
O O7 0.550096 0.039065 0.686309
O O8 0.000000 0.000000 0.000000
O O9 0.000000 0.500000 0.500000
O O10 0.306815 0.827281 0.811161
O O11 0.589943 0.671686 0.006147
O O12 0.135882 0.866177 0.547479
O O13 0.803466 0.457340 0.091760
O O14 0.764202 0.766762 0.366340
O O15 0.389653 0.180638 0.544602
#
# Coordination Sequence:
#
# PCOD9078958 Si02
#       8
#     2   1   2   2   2   2   1   2
#     4  10  23  40  65  95 130 175 223 272 333 394
#     4  12  26  46  68  94 140 186 218 270 342 410
#     4  11  20  35  60  98 130 165 214 273 330 389
#     4  11  22  37  64 102 136 168 218 282 332 387
#     4  12  23  42  66 100 137 180 218 275 338 399
#     4  10  22  40  66  97 130 170 229 276 335 386
#     4  10  18  36  60  96 122 174 216 274 322 376
#     4  11  19  35  66  98 132 166 213 283 330 377
#
# _framework density 29.185801000000001
#
# number of rings (size 3 to 8) (size 9 to 14) (size 15 to 20)
#    0.000    1.143    5.714    1.286    0.000    0.571 
#    0.000    3.571    6.286    0.000    0.000    0.000 
#    0.000    0.000    0.000    0.000    0.000    0.000 
#
# Total GULP energy -77953.831657 kJ/mol
# GULP energy per Si atom -5568.130833 kJ/mol
# Density = 2.911937 g / cm^3
# Si number density = 29.185801 Si / 1000 Ang^3
#
#
#
# Elastic Constant Matrix: (Units=GPa)
#
#
# Indices 1 2 3 4 5 6 
#
# 1 180.4892 53.0609 65.8191 0.7423 -38.2640 -34.2612
# 2 53.0609 212.0969 44.3785 -26.3469 -26.8995 -13.7983
# 3 65.8191 44.3785 122.9298 -5.9731 -53.6395 -22.9907
# 4 0.7423 -26.3469 -5.9731 45.7309 -9.4949 -2.6339
# 5 -38.2640 -26.8995 -53.6395 -9.4949 63.5416 5.4472
# 6 -34.2612 -13.7983 -22.9907 -2.6339 5.4472 67.1033
#
#
#
# Elastic Compliance Matrix: (Units=1/GPa)
#
#
# Indices 1 2 3 4 5 6 
#
# 1 0.007633 -0.001065 -0.002463 -0.000540 0.001757 0.002671
# 2 -0.001065 0.005817 -0.000363 0.003773 0.002035 0.000511
# 3 -0.002463 -0.000363 0.015625 0.004540 0.011955 0.003229
# 4 -0.000540 0.003773 0.004540 0.026623 0.008879 0.002380
# 5 0.001757 0.002035 0.011955 0.008879 0.028783 0.003424
# 6 0.002671 0.000511 0.003229 0.002380 0.003424 0.017293
#
#
# Mechanical properties :
#
#
# Convention : Reuss Voigt Hill
#
# Bulk Modulus (GPa) = 46.95908 93.55920 70.25914
# Shear Modulus (GPa) = 42.86157 58.75898 50.81028
#
# Velocity S-wave (km/s) = 3.83636 4.49182 4.17697
# Velocity P-wave (km/s) = 5.97898 7.68296 6.88390
#
# Compressibility (1/GPa) = 0.02129514
#
# Stress axis : x y z
#
# Youngs Moduli (GPa) = 131.00395 171.90258 63.99808
#
# Poissons Ratio (x) = 0.18306 0.15760
# Poissons Ratio (y) = 0.13950 0.02324
# Poissons Ratio (z) = 0.32260 0.06241
#
# Static dielectric constant tensor:
#      x y z
#    x 2.048760 -0.225460 -0.262820 
#    y -0.225460 1.740840 -0.417270 
#    z -0.262820 -0.417270 2.213830 
# 
# From -- ./inp_files/518641.got.cif
#   From: 2010.05.17/outbox.cif.g08.bks.cpg/sg2_260_cif.got.tgz:518641.got - 2010.06.03 11:33:40.
