data_PCOD9078833
_publ_section_title
;
Structure prediction by ZEFSAII (Michael W. Deem and Ramdas Pophale) SiO2 
 PCOD9078833
Probable space group: P -1
;
_chemical_formula_sum "Si O2"
_cell_formula_units_Z 14
_cell_length_a 7.253286
_cell_length_b 7.394507
_cell_length_c 13.545263
_cell_angle_alpha 76.281270
_cell_angle_beta 76.953958
_cell_angle_gamma 118.817447
_cell_volume 566.873415
_symmetry_space_group_name_H-M "P -1"
_symmetry_group_IT_number 2
_symmetry_cell_setting 'triclinic'
loop_
_space_group_symop_operation_xyz
x,y,z
-x,-y,-z
loop_
_atom_site_type_symbol
_atom_site_label
_atom_site_fract_x
_atom_site_fract_y
_atom_site_fract_z
Si Si1 0.915349 0.976975 0.156787
Si Si2 0.941169 0.942133 0.384415
Si Si3 0.172777 0.473434 0.065898
Si Si4 0.735665 0.136241 0.890239
Si Si5 0.426275 0.470607 0.854760
Si Si6 0.184813 0.694541 0.371892
Si Si7 0.315710 0.369040 0.378967
O O1 0.866839 0.908736 0.285444
O O2 0.740776 0.787991 0.126693
O O3 0.158642 0.009654 0.106468
O O4 0.958381 0.218404 0.112610
O O5 0.724313 0.770571 0.500107
O O6 0.128393 0.878891 0.382935
O O7 0.071703 0.199088 0.372824
O O8 0.109611 0.638367 0.092926
O O9 0.347497 0.487110 0.125568
O O10 0.317325 0.544999 0.938667
O O11 0.767083 0.233783 0.762167
O O12 0.500000 0.000000 0.000000
O O13 0.497477 0.598841 0.725155
O O14 0.351654 0.606345 0.366761
O O15 0.000000 0.500000 0.500000
#
# Coordination Sequence:
#
# PCOD9078833 Si02
#       7
#     2   2   2   2   2   2   2
#     4  11  23  40  59  92 120 152 201 252 294 353
#     4   9  19  34  60  85 116 151 198 245 291 351
#     4  11  23  42  59  83 125 159 195 243 300 356
#     4  11  22  37  64  89 118 161 203 244 303 357
#     4  11  22  37  63  87 119 160 197 243 302 356
#     4   9  18  33  56  86 115 153 200 241 289 360
#     4  10  18  36  59  85 114 159 194 237 302 352
#
# _framework density 24.696870000000001
#
# number of rings (size 3 to 8) (size 9 to 14) (size 15 to 20)
#    0.000    1.714    2.857    2.143    2.000    1.143 
#    0.000    2.857    0.000    0.000    0.000   15.000 
#    0.000    0.000    0.000    0.000    0.000    0.000 
#
# Total GULP energy -77949.236460 kJ/mol
# GULP energy per Si atom -5567.802604 kJ/mol
# Density = 2.464066 g / cm^3
# Si number density = 24.696870 Si / 1000 Ang^3
#
#
#
# Elastic Constant Matrix: (Units=GPa)
#
#
# Indices 1 2 3 4 5 6 
#
# 1 38.4333 20.8385 21.0127 0.1647 11.1573 8.1118
# 2 20.8385 108.1103 28.7668 5.3992 -1.8533 -2.1809
# 3 21.0127 28.7668 245.0611 29.0210 8.6317 6.1209
# 4 0.1647 5.3992 29.0210 41.7549 -5.3870 -2.9074
# 5 11.1573 -1.8533 8.6317 -5.3870 24.9308 4.0422
# 6 8.1118 -2.1809 6.1209 -2.9074 4.0422 27.5125
#
#
#
# Elastic Compliance Matrix: (Units=1/GPa)
#
#
# Indices 1 2 3 4 5 6 
#
# 1 0.037055 -0.007153 -0.001479 -0.000796 -0.015316 -0.008997
# 2 -0.007153 0.010983 -0.000864 -0.000112 0.003873 0.002591
# 3 -0.001479 -0.000864 0.004803 -0.003495 -0.001687 -0.000822
# 4 -0.000796 -0.000112 -0.003495 0.027504 0.007035 0.002876
# 5 -0.015316 0.003873 -0.001687 0.007035 0.049575 -0.001342
# 6 -0.008997 0.002591 -0.000822 0.002876 -0.001342 0.039889
#
#
# Mechanical properties :
#
#
# Convention : Reuss Voigt Hill
#
# Bulk Modulus (GPa) = 29.54381 59.20454 44.37417
# Shear Modulus (GPa) = 24.98957 40.23876 32.61416
#
# Velocity S-wave (km/s) = 3.18441 4.04085 3.63792
# Velocity P-wave (km/s) = 5.05066 6.76726 5.97097
#
# Compressibility (1/GPa) = 0.03384804
#
# Stress axis : x y z
#
# Youngs Moduli (GPa) = 26.98705 91.05262 208.21422
#
# Poissons Ratio (x) = 0.65131 0.30798
# Poissons Ratio (y) = 0.19304 0.17985
# Poissons Ratio (z) = 0.03992 0.07865
#
# Static dielectric constant tensor:
#      x y z
#    x 1.978440 0.035190 -0.011550 
#    y 0.035190 1.965780 -0.038670 
#    z -0.011550 -0.038670 2.017370 
# 
# From -- ./inp_files/494861.got.cif
#   From: 2010.05.17/outbox.cif.g08.bks.cpg/sg2_248_cif.got.tgz:494861.got - 2010.06.03 11:33:40.
