data_PCOD9078637
_publ_section_title
;
Structure prediction by ZEFSAII (Michael W. Deem and Ramdas Pophale) SiO2 
 PCOD9078637
Probable space group: P -1
;
_chemical_formula_sum "Si O2"
_cell_formula_units_Z 14
_cell_length_a 8.306554
_cell_length_b 13.290374
_cell_length_c 12.122777
_cell_angle_alpha 145.087062
_cell_angle_beta 55.083774
_cell_angle_gamma 123.375272
_cell_volume 618.712544
_symmetry_space_group_name_H-M "P -1"
_symmetry_group_IT_number 2
_symmetry_cell_setting 'triclinic'
loop_
_space_group_symop_operation_xyz
x,y,z
-x,-y,-z
loop_
_atom_site_type_symbol
_atom_site_label
_atom_site_fract_x
_atom_site_fract_y
_atom_site_fract_z
Si Si1 0.150714 0.739480 0.556348
Si Si2 0.227619 0.145502 0.893487
Si Si3 0.450507 0.646232 0.520597
Si Si4 0.291838 0.277438 0.219941
Si Si5 0.785894 0.043110 0.478425
Si Si6 0.770198 0.126199 0.025526
Si Si7 0.242202 0.013294 0.320141
O O1 0.319219 0.648297 0.462101
O O2 0.180465 0.779136 0.449846
O O3 0.924096 0.668263 0.615311
O O4 0.188686 0.942160 0.771380
O O5 0.007793 0.190346 0.999111
O O6 0.314724 0.112071 0.707341
O O7 0.321722 0.260520 0.061749
O O8 0.449332 0.438405 0.352082
O O9 0.657438 0.780186 0.546197
O O10 0.333121 0.746280 0.744638
O O11 0.274242 0.081021 0.103533
O O12 0.006753 0.003425 0.383724
O O13 0.694790 0.046306 0.637777
O O14 0.700198 0.109396 0.910854
#
# Coordination Sequence:
#
# PCOD9078637 Si02
#       7
#     2   2   2   2   2   2   2
#     4   9  17  34  55  78 107 137 178 217 259 314
#     4   8  15  32  58  73 100 145 172 207 265 312
#     4  12  22  29  57  92 104 130 181 228 267 311
#     4  11  18  33  56  82 113 137 169 221 279 310
#     4   8  18  37  60  69 104 156 179 206 264 327
#     4  10  18  36  52  78 113 140 173 218 266 315
#     4  10  20  35  53  81 106 145 184 210 263 322
#
# _framework density 22.627631000000001
#
# number of rings (size 3 to 8) (size 9 to 14) (size 15 to 20)
#    0.857    1.429    4.286    1.714    0.000    1.143 
#    0.000    0.714    0.000    2.571    0.000    0.000 
#    0.000    0.000    0.000    0.000    0.000    0.000 
#
# Total GULP energy -78073.584155 kJ/mol
# GULP energy per Si atom -5576.684583 kJ/mol
# Density = 2.257613 g / cm^3
# Si number density = 22.627631 Si / 1000 Ang^3
#
#
#
# Elastic Constant Matrix: (Units=GPa)
#
#
# Indices 1 2 3 4 5 6 
#
# 1 74.5179 12.9982 30.1622 -10.7627 17.6327 -23.9052
# 2 12.9982 43.5356 56.5860 -8.7382 24.6555 -16.3835
# 3 30.1622 56.5860 111.9206 -8.5280 43.5391 -23.9152
# 4 -10.7627 -8.7382 -8.5280 33.7464 -9.4837 10.3090
# 5 17.6327 24.6555 43.5391 -9.4837 41.7079 -7.3917
# 6 -23.9052 -16.3835 -23.9152 10.3090 -7.3917 28.5961
#
#
#
# Elastic Compliance Matrix: (Units=1/GPa)
#
#
# Indices 1 2 3 4 5 6 
#
# 1 0.020712 0.009635 -0.003897 0.000785 -0.007112 0.017454
# 2 0.009635 0.077851 -0.033027 0.005693 -0.010742 0.020208
# 3 -0.003897 -0.033027 0.032066 -0.006477 -0.013142 0.003575
# 4 0.000785 0.005693 -0.006477 0.035979 0.009097 -0.012118
# 5 -0.007112 -0.010742 -0.013142 0.009097 0.046581 -0.014329
# 6 0.017454 0.020208 0.003575 -0.012118 -0.014329 0.064793
#
#
# Mechanical properties :
#
#
# Convention : Reuss Voigt Hill
#
# Bulk Modulus (GPa) = 13.14897 47.71853 30.43375
# Shear Modulus (GPa) = 13.97005 29.49193 21.73099
#
# Velocity S-wave (km/s) = 2.48743 3.61412 3.10235
# Velocity P-wave (km/s) = 3.75145 6.20888 5.12950
#
# Compressibility (1/GPa) = 0.07605159
#
# Stress axis : x y z
#
# Youngs Moduli (GPa) = 48.28165 12.84509 31.18576
#
# Poissons Ratio (x) = -0.12377 0.12154
# Poissons Ratio (y) = -0.46520 1.02996
# Poissons Ratio (z) = 0.18816 0.42423
#
# Static dielectric constant tensor:
#      x y z
#    x 1.910040 -0.029560 -0.003110 
#    y -0.029560 1.881360 -0.054460 
#    z -0.003110 -0.054460 1.824520 
# 
# From -- ./inp_files/397925.got.cif
#   From: 2010.05.17/outbox.cif.g08.bks.cpg/sg2_199_cif.got.tgz:397925.got - 2010.06.03 11:33:40.
