data_PCOD9078900
_publ_section_title
;
Structure prediction by ZEFSAII (Michael W. Deem and Ramdas Pophale) SiO2 
 PCOD9078900
Probable space group: P -1
;
_chemical_formula_sum "Si O2"
_cell_formula_units_Z 15
_cell_length_a 5.770747
_cell_length_b 16.475753
_cell_length_c 8.449902
_cell_angle_alpha 49.535132
_cell_angle_beta 92.652905
_cell_angle_gamma 77.137027
_cell_volume 575.842072
_symmetry_space_group_name_H-M "P -1"
_symmetry_group_IT_number 2
_symmetry_cell_setting 'triclinic'
loop_
_space_group_symop_operation_xyz
x,y,z
-x,-y,-z
loop_
_atom_site_type_symbol
_atom_site_label
_atom_site_fract_x
_atom_site_fract_y
_atom_site_fract_z
Si Si1 0.015715 0.554263 0.193193
Si Si2 0.533643 0.667280 0.605040
Si Si3 0.401154 0.834496 0.907428
Si Si4 0.259843 0.574203 0.489322
Si Si5 0.500000 0.000000 0.500000
Si Si6 0.824162 0.281394 0.190466
Si Si7 0.921801 0.053987 0.654258
Si Si8 0.543074 0.118944 0.814541
O O1 0.242622 0.443086 0.292258
O O2 0.057872 0.601668 0.308665
O O3 0.797383 0.506153 0.278600
O O4 0.009534 0.644150 0.944374
O O5 0.320086 0.671575 0.463082
O O6 0.405189 0.660650 0.774763
O O7 0.598735 0.782836 0.440016
O O8 0.291824 0.745704 0.941947
O O9 0.565245 0.872059 0.740511
O O10 0.516091 0.813037 0.109426
O O11 0.176160 0.953061 0.777345
O O12 0.500000 0.500000 0.500000
O O13 0.711528 0.023554 0.590278
O O14 0.955523 0.161843 0.431812
O O15 0.813459 0.082806 0.789449
O O16 0.500000 0.000000 0.000000
#
# Coordination Sequence:
#
# PCOD9078900 Si02
#       8
#     2   2   2   2   1   2   2   2
#     4  10  20  41  65  93 124 169 208 259 330 380
#     4  10  22  41  60  93 131 162 214 268 316 387
#     4  11  22  41  62  90 131 169 217 267 324 376
#     4   9  20  41  65  89 126 161 212 266 311 384
#     4  10  18  36  60  84 130 158 204 256 314 382
#     4  10  21  38  63  93 130 167 211 260 322 389
#     4  10  22  41  60  94 128 167 214 270 316 385
#     4  11  22  43  65  92 123 172 220 266 323 378
#
# _framework density 26.048808000000001
#
# number of rings (size 3 to 8) (size 9 to 14) (size 15 to 20)
#    0.000    1.867    1.333    3.200    0.000    0.533 
#   14.400   10.667    0.000    0.000    0.000    0.000 
#    0.000    0.000    0.000    0.000    0.000    0.000 
#
# Total GULP energy -83652.724207 kJ/mol
# GULP energy per Si atom -5576.848280 kJ/mol
# Density = 2.598952 g / cm^3
# Si number density = 26.048808 Si / 1000 Ang^3
#
#
#
# Elastic Constant Matrix: (Units=GPa)
#
#
# Indices 1 2 3 4 5 6 
#
# 1 64.8987 35.8971 39.1257 -17.1790 -23.1281 2.8547
# 2 35.8971 103.9166 19.9642 -2.6865 -5.2440 -14.5104
# 3 39.1257 19.9642 115.9141 -21.4697 -45.6967 3.1957
# 4 -17.1790 -2.6865 -21.4697 40.4469 10.0541 -3.5255
# 5 -23.1281 -5.2440 -45.6967 10.0541 51.8640 -5.4906
# 6 2.8547 -14.5104 3.1957 -3.5255 -5.4906 44.6476
#
#
#
# Elastic Compliance Matrix: (Units=1/GPa)
#
#
# Indices 1 2 3 4 5 6 
#
# 1 0.026337 -0.008293 -0.003754 0.006915 0.005959 -0.002832
# 2 -0.008293 0.013099 -0.000868 -0.002169 -0.002252 0.004401
# 3 -0.003754 -0.000868 0.014944 0.003652 0.010751 0.000499
# 4 0.006915 -0.002169 0.003652 0.029420 0.000482 0.000974
# 5 0.005959 -0.002252 0.010751 0.000482 0.031302 0.002005
# 6 -0.002832 0.004401 0.000499 0.000974 0.002005 0.024297
#
#
# Mechanical properties :
#
#
# Convention : Reuss Voigt Hill
#
# Bulk Modulus (GPa) = 35.02337 52.74482 43.88410
# Shear Modulus (GPa) = 28.61308 40.04118 34.32713
#
# Velocity S-wave (km/s) = 3.31787 3.92492 3.63409
# Velocity P-wave (km/s) = 5.30586 6.39002 5.87301
#
# Compressibility (1/GPa) = 0.02855236
#
# Stress axis : x y z
#
# Youngs Moduli (GPa) = 37.96951 76.33967 66.91489
#
# Poissons Ratio (x) = 0.63306 0.25117
# Poissons Ratio (y) = 0.31487 0.05807
# Poissons Ratio (z) = 0.14252 0.06625
#
# Static dielectric constant tensor:
#      x y z
#    x 1.949490 0.022580 -0.006130 
#    y 0.022580 2.048510 0.060860 
#    z -0.006130 0.060860 2.134730 
# 
# From -- ./inp_files/138540.got.cif
#   From: 2010.05.17/outbox.cif.g08.bks.cpg/sg2_70_cif.got.tgz:138540.got - 2010.06.03 11:33:40.
