data_PCOD9078552
_publ_section_title
;
Structure prediction by ZEFSAII (Michael W. Deem and Ramdas Pophale) SiO2 
 PCOD9078552
Probable space group: P -1
;
_chemical_formula_sum "Si O2"
_cell_formula_units_Z 16
_cell_length_a 12.616905
_cell_length_b 11.436272
_cell_length_c 12.309771
_cell_angle_alpha 45.033727
_cell_angle_beta 41.664527
_cell_angle_gamma 44.564651
_cell_volume 768.428804
_symmetry_space_group_name_H-M "P -1"
_symmetry_group_IT_number 2
_symmetry_cell_setting 'triclinic'
loop_
_space_group_symop_operation_xyz
x,y,z
-x,-y,-z
loop_
_atom_site_type_symbol
_atom_site_label
_atom_site_fract_x
_atom_site_fract_y
_atom_site_fract_z
Si Si1 0.413967 0.504655 0.393270
Si Si2 0.097000 0.435869 0.281246
Si Si3 0.932642 0.210123 0.439462
Si Si4 0.666965 0.466479 0.817569
Si Si5 0.118497 0.211984 0.094764
Si Si6 0.364873 0.321521 0.966702
Si Si7 0.770334 0.727680 0.252011
Si Si8 0.718769 0.096062 0.971237
O O1 0.583153 0.549322 0.236899
O O2 0.386822 0.338482 0.578897
O O3 0.386435 0.485074 0.298066
O O4 0.261094 0.681797 0.442431
O O5 0.048037 0.266702 0.401051
O O6 0.211814 0.436560 0.295961
O O7 0.915839 0.608237 0.303326
O O8 0.220888 0.439718 0.084321
O O9 0.962919 0.283429 0.250461
O O10 0.000000 0.000000 0.500000
O O11 0.533643 0.198447 0.987153
O O12 0.767855 0.250031 0.884178
O O13 0.500000 0.500000 0.000000
O O14 0.148012 0.018916 0.147731
O O15 0.286533 0.199009 0.043127
O O16 0.128926 0.320174 0.909258
O O17 0.711831 0.942315 0.158724
#
# Coordination Sequence:
#
# PCOD9078552 Si02
#       8
#     2   2   2   2   2   2   2   2
#     4  10  21  36  59  91 115 152 200 247 279 348
#     4  10  21  37  63  85 113 164 193 234 301 343
#     4  10  20  35  58  90 119 145 194 242 281 345
#     4  11  20  39  65  82 114 154 207 242 282 343
#     4   9  20  37  60  81 123 155 187 233 301 345
#     4  10  18  35  65  83 113 160 205 221 287 359
#     4   9  22  38  55  89 125 145 191 243 304 339
#     4   9  19  36  59  87 109 158 191 240 286 345
#
# _framework density 20.821708999999998
#
# number of rings (size 3 to 8) (size 9 to 14) (size 15 to 20)
#    0.750    1.500    2.500    1.875    0.000    8.500 
#    0.000    0.625    0.000    0.000    0.000    0.000 
#    0.000    0.000    0.000    0.000    0.000    0.000 
#
# Total GULP energy -89075.642114 kJ/mol
# GULP energy per Si atom -5567.227632 kJ/mol
# Density = 2.077432 g / cm^3
# Si number density = 20.821709 Si / 1000 Ang^3
#
#
#
# Elastic Constant Matrix: (Units=GPa)
#
#
# Indices 1 2 3 4 5 6 
#
# 1 52.9567 20.2411 3.8398 -1.9262 -9.7160 11.7714
# 2 20.2411 67.6157 17.6035 -6.1355 -5.1112 19.6593
# 3 3.8398 17.6035 77.7230 0.8935 2.2323 9.5825
# 4 -1.9262 -6.1355 0.8935 43.2218 4.8843 -3.4771
# 5 -9.7160 -5.1112 2.2323 4.8843 26.2246 -1.3106
# 6 11.7714 19.6593 9.5825 -3.4771 -1.3106 27.2336
#
#
#
# Elastic Compliance Matrix: (Units=1/GPa)
#
#
# Indices 1 2 3 4 5 6 
#
# 1 0.023502 -0.004751 0.000533 -0.001034 0.007595 -0.006683
# 2 -0.004751 0.020622 -0.003090 0.001673 0.001638 -0.011453
# 3 0.000533 -0.003090 0.013976 -0.000771 -0.001606 -0.003093
# 4 -0.001034 0.001673 -0.000771 0.024026 -0.004348 0.002369
# 5 0.007595 0.001638 -0.001606 -0.004348 0.042090 -0.002430
# 6 -0.006683 -0.011453 -0.003093 0.002369 -0.002430 0.049150
#
#
# Mechanical properties :
#
#
# Convention : Reuss Voigt Hill
#
# Bulk Modulus (GPa) = 22.99739 31.29602 27.14670
# Shear Modulus (GPa) = 24.69427 29.77672 27.23550
#
# Velocity S-wave (km/s) = 3.44755 3.78574 3.62060
# Velocity P-wave (km/s) = 5.18810 5.84570 5.52669
#
# Compressibility (1/GPa) = 0.04348320
#
# Stress axis : x y z
#
# Youngs Moduli (GPa) = 42.54990 48.49236 71.55076
#
# Poissons Ratio (x) = 0.23037 -0.03811
# Poissons Ratio (y) = 0.20214 0.22110
# Poissons Ratio (z) = -0.02266 0.14985
#
# Static dielectric constant tensor:
#      x y z
#    x 1.780430 0.017810 0.010010 
#    y 0.017810 1.750210 -0.013300 
#    z 0.010010 -0.013300 1.834690 
# 
# From -- ./inp_files/530966.got.cif
#   From: 2010.05.17/outbox.cif.g08.bks.cpg/sg2_266_cif.got.tgz:530966.got - 2010.06.03 11:33:40.
