data_PCOD9078461
_publ_section_title
;
Structure prediction by ZEFSAII (Michael W. Deem and Ramdas Pophale) SiO2 
 PCOD9078461
Probable space group: P -1
;
_chemical_formula_sum "Si O2"
_cell_formula_units_Z 16
_cell_length_a 11.691164
_cell_length_b 16.845985
_cell_length_c 9.511876
_cell_angle_alpha 99.265732
_cell_angle_beta 43.863832
_cell_angle_gamma 65.977734
_cell_volume 825.146230
_symmetry_space_group_name_H-M "P -1"
_symmetry_group_IT_number 2
_symmetry_cell_setting 'triclinic'
loop_
_space_group_symop_operation_xyz
x,y,z
-x,-y,-z
loop_
_atom_site_type_symbol
_atom_site_label
_atom_site_fract_x
_atom_site_fract_y
_atom_site_fract_z
Si Si1 0.561556 0.273688 0.770821
Si Si2 0.526962 0.882606 0.842567
Si Si3 0.791310 0.745346 0.832630
Si Si4 0.355735 0.050230 0.790436
Si Si5 0.359218 0.761262 0.894375
Si Si6 0.235192 0.471868 0.322689
Si Si7 0.028986 0.085482 0.495014
Si Si8 0.152744 0.858008 0.801364
O O1 0.834901 0.184664 0.575515
O O2 0.633783 0.224352 0.534320
O O3 0.411807 0.252573 0.964122
O O4 0.395103 0.410643 0.016911
O O5 0.768072 0.783481 0.702494
O O6 0.433941 0.827125 0.869563
O O7 0.520256 0.935575 0.721844
O O8 0.312045 0.998812 0.171728
O O9 0.082129 0.606520 0.550419
O O10 0.702564 0.844200 0.051004
O O11 0.500000 0.000000 0.500000
O O12 0.079679 0.113155 0.027050
O O13 0.577973 0.630949 0.748859
O O14 0.299942 0.775237 0.787418
O O15 0.089405 0.842238 0.233662
O O16 0.000000 0.500000 0.500000
O O17 0.000000 0.000000 0.500000
O O18 0.000000 0.000000 0.000000
#
# Coordination Sequence:
#
# PCOD9078461 Si02
#       8
#     2   2   2   2   2   2   2   2
#     4  10  18  35  63  86 114 155 202 246 282 352
#     4  11  19  36  60  86 116 153 202 241 299 349
#     4  11  22  39  62  88 124 154 194 253 300 348
#     4  12  27  39  54  91 133 157 184 245 320 359
#     4  10  19  33  64  90 115 150 207 246 287 346
#     4   9  18  39  62  89 119 150 207 251 286 338
#     4   9  14  29  56  86 106 138 199 249 276 329
#     4  12  22  37  59  89 125 158 201 238 301 366
#
# _framework density 19.390501
#
# number of rings (size 3 to 8) (size 9 to 14) (size 15 to 20)
#    0.000    1.500    7.500    1.875    1.750    0.000 
#    0.000    5.000    0.000    0.000    0.000    0.000 
#    0.000    0.000    0.000    0.000    0.000    0.000 
#
# Total GULP energy -89151.373948 kJ/mol
# GULP energy per Si atom -5571.960872 kJ/mol
# Density = 1.934637 g / cm^3
# Si number density = 19.390501 Si / 1000 Ang^3
#
#
#
# Elastic Constant Matrix: (Units=GPa)
#
#
# Indices 1 2 3 4 5 6 
#
# 1 71.7840 29.0442 26.0542 -3.2640 12.9376 -13.2690
# 2 29.0442 93.9052 65.0523 -2.7765 17.1322 -26.1942
# 3 26.0542 65.0523 120.6861 1.9965 20.9468 -25.3423
# 4 -3.2640 -2.7765 1.9965 27.5205 -9.1347 6.8052
# 5 12.9376 17.1322 20.9468 -9.1347 35.6650 -7.9510
# 6 -13.2690 -26.1942 -25.3423 6.8052 -7.9510 37.0736
#
#
#
# Elastic Compliance Matrix: (Units=1/GPa)
#
#
# Indices 1 2 3 4 5 6 
#
# 1 0.016603 -0.003386 -0.000653 -0.000073 -0.003504 0.002366
# 2 -0.003386 0.019463 -0.008016 -0.000158 -0.001967 0.006668
# 3 -0.000653 -0.008016 0.014424 -0.004417 -0.004674 0.003770
# 4 -0.000073 -0.000158 -0.004417 0.042617 0.011725 -0.008465
# 5 -0.003504 -0.001967 -0.004674 0.011725 0.035940 -0.000284
# 6 0.002366 0.006668 0.003770 -0.008465 -0.000284 0.036601
#
#
# Mechanical properties :
#
#
# Convention : Reuss Voigt Hill
#
# Bulk Modulus (GPa) = 37.90680 58.51962 48.21321
# Shear Modulus (GPa) = 25.18223 31.13344 28.15784
#
# Velocity S-wave (km/s) = 3.60764 4.01134 3.81484
# Velocity P-wave (km/s) = 6.07824 7.19024 6.65750
#
# Compressibility (1/GPa) = 0.02638049
#
# Stress axis : x y z
#
# Youngs Moduli (GPa) = 60.22950 51.37830 69.32925
#
# Poissons Ratio (x) = 0.17395 0.04529
# Poissons Ratio (y) = 0.20392 0.55575
# Poissons Ratio (z) = 0.03934 0.41185
#
# Static dielectric constant tensor:
#      x y z
#    x 1.741390 0.033360 -0.008000 
#    y 0.033360 1.820410 0.059560 
#    z -0.008000 0.059560 1.760810 
# 
# From -- ./inp_files/274282.got.cif
#   From: 2010.05.17/outbox.cif.g08.bks.cpg/sg2_138_cif.got.tgz:274282.got - 2010.06.03 11:33:40.
