data_PCOD9078749
_publ_section_title
;
Structure prediction by ZEFSAII (Michael W. Deem and Ramdas Pophale) SiO2 
 PCOD9078749
Probable space group: P -1
;
_chemical_formula_sum "Si O2"
_cell_formula_units_Z 14
_cell_length_a 28.005755
_cell_length_b 11.937401
_cell_length_c 12.286834
_cell_angle_alpha 36.326960
_cell_angle_beta 21.492591
_cell_angle_gamma 25.962479
_cell_volume 646.499733
_symmetry_space_group_name_H-M "P -1"
_symmetry_group_IT_number 2
_symmetry_cell_setting 'triclinic'
loop_
_space_group_symop_operation_xyz
x,y,z
-x,-y,-z
loop_
_atom_site_type_symbol
_atom_site_label
_atom_site_fract_x
_atom_site_fract_y
_atom_site_fract_z
Si Si1 0.908483 0.728577 0.665695
Si Si2 0.339760 0.296778 0.644560
Si Si3 0.820347 0.313703 0.754564
Si Si4 0.747053 0.859296 0.680828
Si Si5 0.488717 0.260372 0.752353
Si Si6 0.599287 0.187665 0.341274
Si Si7 0.190649 0.410542 0.648087
O O1 0.798432 0.893289 0.661918
O O2 0.990900 0.822498 0.482916
O O3 0.079219 0.431093 0.499411
O O4 0.792303 0.705023 0.005030
O O5 0.435385 0.354771 0.472820
O O6 0.245254 0.456528 0.609316
O O7 0.500000 0.000000 0.500000
O O8 0.807916 0.450049 0.565545
O O9 0.666397 0.528524 0.999237
O O10 0.765467 0.151931 0.978903
O O11 0.674354 0.066172 0.577957
O O12 0.583870 0.873929 0.027188
O O13 0.523786 0.323188 0.513319
O O14 0.673669 0.900067 0.417184
O O15 0.000000 0.500000 0.000000
#
# Coordination Sequence:
#
# PCOD9078749 Si02
#       7
#     2   2   2   2   2   2   2
#     4  10  18  36  57  92 119 158 204 243 302 358
#     4  10  22  38  61  85 121 163 200 248 297 354
#     4  11  24  39  65  93 121 160 201 250 304 362
#     4   9  18  31  63  86 119 164 197 242 303 360
#     4  10  19  36  61  92 122 155 200 247 307 364
#     4  11  23  42  63  90 125 159 198 254 307 352
#     4  11  23  42  63  87 121 161 210 247 292 357
#
# _framework density 21.655073999999999
#
# number of rings (size 3 to 8) (size 9 to 14) (size 15 to 20)
#    0.000    1.714    2.857    3.000    2.000    1.143 
#    0.000    2.143    0.000    0.000    0.000    0.000 
#    0.000    0.000    0.000    0.000    0.000    0.000 
#
# Total GULP energy -78146.834403 kJ/mol
# GULP energy per Si atom -5581.916743 kJ/mol
# Density = 2.160579 g / cm^3
# Si number density = 21.655074 Si / 1000 Ang^3
#
#
#
# Elastic Constant Matrix: (Units=GPa)
#
#
# Indices 1 2 3 4 5 6 
#
# 1 203.2421 30.8766 77.4363 -12.1661 -9.3060 -36.0944
# 2 30.8766 25.5814 14.1577 -2.9855 1.7472 -8.6260
# 3 77.4363 14.1577 119.5814 -18.8683 -0.9109 -11.3341
# 4 -12.1661 -2.9855 -18.8683 34.1687 -2.0034 3.1584
# 5 -9.3060 1.7472 -0.9109 -2.0034 36.9467 9.1164
# 6 -36.0944 -8.6260 -11.3341 3.1584 9.1164 20.4909
#
#
#
# Elastic Compliance Matrix: (Units=1/GPa)
#
#
# Indices 1 2 3 4 5 6 
#
# 1 0.009562 -0.004778 -0.004541 -0.000735 -0.000658 0.012727
# 2 -0.004778 0.051572 -0.001567 0.000036 -0.007575 0.015792
# 3 -0.004541 -0.001567 0.012032 0.005171 0.000223 -0.002900
# 4 -0.000735 0.000036 0.005171 0.032465 0.002860 -0.004696
# 5 -0.000658 -0.007575 0.000223 0.002860 0.032093 -0.018943
# 6 0.012727 0.015792 -0.002900 -0.004696 -0.018943 0.085415
#
#
# Mechanical properties :
#
#
# Convention : Reuss Voigt Hill
#
# Bulk Modulus (GPa) = 19.45800 65.92736 42.69268
# Shear Modulus (GPa) = 19.08088 33.38356 26.23222
#
# Velocity S-wave (km/s) = 2.97160 3.93059 3.48424
# Velocity P-wave (km/s) = 4.55838 7.14911 5.99535
#
# Compressibility (1/GPa) = 0.05139275
#
# Stress axis : x y z
#
# Youngs Moduli (GPa) = 104.57582 19.39055 83.11462
#
# Poissons Ratio (x) = 0.09265 0.37746
# Poissons Ratio (y) = 0.49966 0.13024
# Poissons Ratio (z) = 0.47492 0.03039
#
# Static dielectric constant tensor:
#      x y z
#    x 1.890080 0.172870 -0.117640 
#    y 0.172870 2.284660 -0.338150 
#    z -0.117640 -0.338150 1.988560 
# 
# From -- ./inp_files/168013.got.cif
#   From: 2010.05.17/outbox.cif.g08.bks.cpg/sg2_85_cif.got.tgz:168013.got - 2010.06.03 11:33:40.
