data_PCOD9078325
_publ_section_title
;
Structure prediction by ZEFSAII (Michael W. Deem and Ramdas Pophale) SiO2 
 PCOD9078325
Probable space group: P -1
;
_chemical_formula_sum "Si O2"
_cell_formula_units_Z 16
_cell_length_a 8.154019
_cell_length_b 15.977471
_cell_length_c 8.241001
_cell_angle_alpha 119.960275
_cell_angle_beta 59.098663
_cell_angle_gamma 140.773702
_cell_volume 572.283038
_symmetry_space_group_name_H-M "P -1"
_symmetry_group_IT_number 2
_symmetry_cell_setting 'triclinic'
loop_
_space_group_symop_operation_xyz
x,y,z
-x,-y,-z
loop_
_atom_site_type_symbol
_atom_site_label
_atom_site_fract_x
_atom_site_fract_y
_atom_site_fract_z
Si Si1 0.453872 0.311921 0.859071
Si Si2 0.877437 0.558951 0.694961
Si Si3 0.283212 0.936801 0.249207
Si Si4 0.653232 0.218956 0.490648
Si Si5 0.295094 0.236374 0.464798
Si Si6 0.887804 0.323502 0.954285
Si Si7 0.085537 0.990890 0.123845
Si Si8 0.611396 0.433365 0.225990
O O1 0.645721 0.284076 0.717931
O O2 0.181615 0.159850 0.836641
O O3 0.572955 0.423938 0.766039
O O4 0.441350 0.370485 0.085501
O O5 0.036591 0.686560 0.617938
O O6 0.000000 0.500000 0.500000
O O7 0.984048 0.632985 0.887503
O O8 0.977130 0.835112 0.372125
O O9 0.280625 0.985677 0.120161
O O10 0.316223 0.834054 0.125722
O O11 0.484074 0.062147 0.392406
O O12 0.495249 0.234874 0.459600
O O13 0.460485 0.376942 0.419183
O O14 0.173573 0.122387 0.282694
O O15 0.134831 0.411350 0.789541
O O16 0.739345 0.372092 0.087182
O O17 0.000000 0.000000 0.000000
#
# Coordination Sequence:
#
# PCOD9078325 Si02
#       8
#     2   2   2   2   2   2   2   2
#     4  10  18  35  61  86 117 158 209 244 290 364
#     4   9  19  34  61  83 111 160 204 245 286 359
#     4  11  23  37  63  92 125 158 195 263 300 349
#     4  10  18  36  59  91 115 158 209 238 297 371
#     4  11  19  35  65  89 116 169 200 241 302 366
#     4  10  22  41  59  91 125 154 211 248 303 356
#     4  11  20  36  62  89 122 161 202 239 308 372
#     4  10  21  38  65  85 117 170 203 247 297 364
#
# _framework density 27.958193999999999
#
# number of rings (size 3 to 8) (size 9 to 14) (size 15 to 20)
#    0.000    1.750    5.000    0.750    0.000    1.000 
#    0.000    3.125   11.000    0.000    0.000    0.000 
#    0.000    0.000    0.000    0.000    0.000    0.000 
#
# Total GULP energy -89175.275431 kJ/mol
# GULP energy per Si atom -5573.454714 kJ/mol
# Density = 2.789456 g / cm^3
# Si number density = 27.958194 Si / 1000 Ang^3
#
#
#
# Elastic Constant Matrix: (Units=GPa)
#
#
# Indices 1 2 3 4 5 6 
#
# 1 53.7194 0.0359 27.3129 -15.5089 -1.1310 -13.8575
# 2 0.0359 182.5814 26.9577 -17.0758 -12.0648 -1.8283
# 3 27.3129 26.9577 87.0812 -25.0006 14.2251 -13.7814
# 4 -15.5089 -17.0758 -25.0006 57.2554 3.6253 -14.5602
# 5 -1.1310 -12.0648 14.2251 3.6253 36.2409 -6.2779
# 6 -13.8575 -1.8283 -13.7814 -14.5602 -6.2779 42.7865
#
#
#
# Elastic Compliance Matrix: (Units=1/GPa)
#
#
# Indices 1 2 3 4 5 6 
#
# 1 0.026461 0.001991 -0.006026 0.007347 0.004838 0.009924
# 2 0.001991 0.006191 -0.002505 0.001353 0.003149 0.001025
# 3 -0.006026 -0.002505 0.018473 0.007540 -0.008115 0.005267
# 4 0.007347 0.001353 0.007540 0.026774 -0.002603 0.013595
# 5 0.004838 0.003149 -0.008115 -0.002603 0.032759 0.003009
# 6 0.009924 0.001025 0.005267 0.013595 0.003009 0.033394
#
#
# Mechanical properties :
#
#
# Convention : Reuss Voigt Hill
#
# Bulk Modulus (GPa) = 26.28445 47.99944 37.14195
# Shear Modulus (GPa) = 29.44412 45.19492 37.31952
#
# Velocity S-wave (km/s) = 3.24875 4.02496 3.65750
# Velocity P-wave (km/s) = 4.84708 6.22944 5.58122
#
# Compressibility (1/GPa) = 0.03804530
#
# Stress axis : x y z
#
# Youngs Moduli (GPa) = 37.79155 161.51689 54.13423
#
# Poissons Ratio (x) = -0.32154 0.32621
# Poissons Ratio (y) = -0.07523 0.13558
# Poissons Ratio (z) = 0.22773 0.40453
#
# Static dielectric constant tensor:
#      x y z
#    x 2.704900 -0.105270 0.167680 
#    y -0.105270 2.163440 -0.109670 
#    z 0.167680 -0.109670 2.352840 
# 
# From -- ./inp_files/278226.got.cif
#   From: 2010.05.17/outbox.cif.g08.bks.cpg/sg2_140_cif.got.tgz:278226.got - 2010.06.03 11:33:40.
