data_PCOD9078021
_publ_section_title
;
Structure prediction by ZEFSAII (Michael W. Deem and Ramdas Pophale) SiO2 
 PCOD9078021
Probable space group: P -1
;
_chemical_formula_sum "Si O2"
_cell_formula_units_Z 16
_cell_length_a 11.991770
_cell_length_b 20.451086
_cell_length_c 24.491739
_cell_angle_alpha 160.654465
_cell_angle_beta 20.781300
_cell_angle_gamma 145.992157
_cell_volume 629.525138
_symmetry_space_group_name_H-M "P -1"
_symmetry_group_IT_number 2
_symmetry_cell_setting 'triclinic'
loop_
_space_group_symop_operation_xyz
x,y,z
-x,-y,-z
loop_
_atom_site_type_symbol
_atom_site_label
_atom_site_fract_x
_atom_site_fract_y
_atom_site_fract_z
Si Si1 0.859364 0.833321 0.475746
Si Si2 0.699397 0.015288 0.985984
Si Si3 0.788887 0.175629 0.187073
Si Si4 0.715256 0.658307 0.868957
Si Si5 0.774984 0.034146 0.500088
Si Si6 0.285944 0.318469 0.687743
Si Si7 0.906690 0.201355 0.465945
Si Si8 0.432759 0.348503 0.190416
O O1 0.616650 0.749101 0.554162
O O2 0.902495 0.717587 0.307101
O O3 0.167585 0.819350 0.363318
O O4 0.612927 0.096022 0.781981
O O5 0.942299 0.982730 0.796412
O O6 0.693855 0.777598 0.807876
O O7 0.832311 0.075947 0.028430
O O8 0.282380 0.178158 0.298572
O O9 0.957203 0.340925 0.247865
O O10 0.000000 0.000000 0.000000
O O11 0.767937 0.637754 0.763380
O O12 0.683172 0.443956 0.734712
O O13 0.574051 0.907170 0.519028
O O14 0.685456 0.157697 0.580590
O O15 0.166718 0.837681 0.152508
O O16 0.538507 0.424421 0.636346
O O17 0.000000 0.500000 0.000000
#
# Coordination Sequence:
#
# PCOD9078021 Si02
#       8
#     2   2   2   2   2   2   2   2
#     4  10  19  37  58  83 115 146 195 246 276 332
#     4  10  19  37  56  83 122 152 186 237 279 339
#     4  10  18  35  57  86 119 150 182 232 291 335
#     4  10  21  34  55  85 119 152 186 226 289 349
#     4   9  18  40  56  81 115 150 190 241 279 334
#     4  10  21  35  64  86 104 147 205 247 282 317
#     4  10  21  35  56  83 122 155 183 228 289 346
#     4   9  18  36  56  85 111 142 199 236 275 332
#
# _framework density 25.415979
#
# number of rings (size 3 to 8) (size 9 to 14) (size 15 to 20)
#    0.000    2.250    5.000    0.375    1.750    3.000 
#    0.000    1.250    0.000    0.000    0.000    0.000 
#    0.000    0.000    0.000    0.000    0.000    0.000 
#
# Total GULP energy -89419.554706 kJ/mol
# GULP energy per Si atom -5588.722169 kJ/mol
# Density = 2.535813 g / cm^3
# Si number density = 25.415979 Si / 1000 Ang^3
#
#
#
# Elastic Constant Matrix: (Units=GPa)
#
#
# Indices 1 2 3 4 5 6 
#
# 1 136.6500 45.0165 22.0057 7.8504 30.3884 -13.4551
# 2 45.0165 111.3808 12.9590 12.4551 10.8467 -9.6549
# 3 22.0057 12.9590 61.2109 3.2318 4.9122 -2.8815
# 4 7.8504 12.4551 3.2318 30.4191 0.4076 0.1468
# 5 30.3884 10.8467 4.9122 0.4076 42.5717 -2.4271
# 6 -13.4551 -9.6549 -2.8815 0.1468 -2.4271 47.7808
#
#
#
# Elastic Compliance Matrix: (Units=1/GPa)
#
#
# Indices 1 2 3 4 5 6 
#
# 1 0.010324 -0.003002 -0.002433 -0.001102 -0.006208 0.001842
# 2 -0.003002 0.010850 -0.000937 -0.003569 -0.000406 0.001281
# 3 -0.002433 -0.000937 0.017465 -0.000845 -0.000022 0.000180
# 4 -0.001102 -0.003569 -0.000845 0.034696 0.001398 -0.001118
# 5 -0.006208 -0.000406 -0.000022 0.001398 0.027990 -0.000414
# 6 0.001842 0.001281 0.000180 -0.001118 -0.000414 0.021700
#
#
# Mechanical properties :
#
#
# Convention : Reuss Voigt Hill
#
# Bulk Modulus (GPa) = 38.61581 52.13378 45.37480
# Shear Modulus (GPa) = 34.62600 39.43836 37.03218
#
# Velocity S-wave (km/s) = 3.69504 3.94345 3.82126
# Velocity P-wave (km/s) = 5.78194 6.42582 6.11237
#
# Compressibility (1/GPa) = 0.02589613
#
# Stress axis : x y z
#
# Youngs Moduli (GPa) = 96.86176 92.16406 57.25841
#
# Poissons Ratio (x) = 0.27668 0.13930
# Poissons Ratio (y) = 0.29078 0.05362
# Poissons Ratio (z) = 0.23565 0.08631
#
# Static dielectric constant tensor:
#      x y z
#    x 1.996830 -0.000720 -0.012190 
#    y -0.000720 2.099290 -0.067320 
#    z -0.012190 -0.067320 2.065700 
# 
# From -- ./inp_files/399617.got.cif
#   From: 2010.05.17/outbox.cif.g08.bks.cpg/sg2_200_cif.got.tgz:399617.got - 2010.06.03 11:33:40.
