data_PCOD9078405
_publ_section_title
;
Structure prediction by ZEFSAII (Michael W. Deem and Ramdas Pophale) SiO2 
 PCOD9078405
Probable space group: P -1
;
_chemical_formula_sum "Si O2"
_cell_formula_units_Z 14
_cell_length_a 11.506433
_cell_length_b 11.096014
_cell_length_c 12.717069
_cell_angle_alpha 133.766600
_cell_angle_beta 37.400974
_cell_angle_gamma 106.773798
_cell_volume 572.496832
_symmetry_space_group_name_H-M "P -1"
_symmetry_group_IT_number 2
_symmetry_cell_setting 'triclinic'
loop_
_space_group_symop_operation_xyz
x,y,z
-x,-y,-z
loop_
_atom_site_type_symbol
_atom_site_label
_atom_site_fract_x
_atom_site_fract_y
_atom_site_fract_z
Si Si1 0.266726 0.377133 0.967467
Si Si2 0.420846 0.021213 0.358074
Si Si3 0.248669 0.928774 0.227972
Si Si4 0.494473 0.654329 0.444482
Si Si5 0.010600 0.288217 0.476970
Si Si6 0.975703 0.346531 0.996725
Si Si7 0.270984 0.509604 0.405465
O O1 0.424746 0.337636 0.728346
O O2 0.061558 0.366483 0.059180
O O3 0.399100 0.204332 0.857850
O O4 0.164399 0.593507 0.226853
O O5 0.352894 0.012869 0.283800
O O6 0.525458 0.153769 0.372068
O O7 0.180587 0.127507 0.665938
O O8 0.186256 0.047989 0.234377
O O9 0.000000 0.000000 0.500000
O O10 0.452451 0.684709 0.926128
O O11 0.275917 0.645369 0.575508
O O12 0.702811 0.446536 0.231894
O O13 0.145563 0.395824 0.441826
O O14 0.857647 0.347297 0.517860
O O15 0.000000 0.500000 0.000000
#
# Coordination Sequence:
#
# PCOD9078405 Si02
#       7
#     2   2   2   2   2   2   2
#     4  10  18  35  62  88 121 160 205 253 306 360
#     4  10  19  35  59  93 125 152 201 263 312 354
#     4  12  24  41  69  96 120 159 215 259 307 367
#     4  10  20  37  61  90 122 156 209 258 304 366
#     4  11  24  43  63  86 133 169 203 255 304 374
#     4   8  15  30  52  85 117 149 189 253 306 343
#     4  11  25  43  62  90 128 170 208 246 314 370
#
# _framework density 24.454284000000001
#
# number of rings (size 3 to 8) (size 9 to 14) (size 15 to 20)
#    0.000    2.000    1.429    6.429    2.000    1.143 
#    2.571    3.571    0.000    0.000    0.000    0.000 
#    0.000    0.000    0.000    0.000    0.000    0.000 
#
# Total GULP energy -78263.377931 kJ/mol
# GULP energy per Si atom -5590.241281 kJ/mol
# Density = 2.439863 g / cm^3
# Si number density = 24.454284 Si / 1000 Ang^3
#
#
#
# Elastic Constant Matrix: (Units=GPa)
#
#
# Indices 1 2 3 4 5 6 
#
# 1 128.9226 42.9994 29.9745 26.0253 -30.1113 9.3446
# 2 42.9994 82.2167 30.9045 6.1586 -20.1384 4.6278
# 3 29.9745 30.9045 55.5330 23.0418 -22.6801 -5.2076
# 4 26.0253 6.1586 23.0418 31.1074 -6.3908 -1.7628
# 5 -30.1113 -20.1384 -22.6801 -6.3908 35.9956 16.2232
# 6 9.3446 4.6278 -5.2076 -1.7628 16.2232 35.3503
#
#
#
# Elastic Compliance Matrix: (Units=1/GPa)
#
#
# Indices 1 2 3 4 5 6 
#
# 1 0.015121 -0.004372 0.005149 -0.012926 0.015941 -0.010627
# 2 -0.004372 0.018884 -0.010438 0.008165 0.003634 -0.004115
# 3 0.005149 -0.010438 0.041365 -0.028696 0.021852 -0.005360
# 4 -0.012926 0.008165 -0.028696 0.059435 -0.017981 0.009336
# 5 0.015941 0.003634 0.021852 -0.017981 0.069082 -0.034071
# 6 -0.010627 -0.004115 -0.005360 0.009336 -0.034071 0.046948
#
#
# Mechanical properties :
#
#
# Convention : Reuss Voigt Hill
#
# Bulk Modulus (GPa) = 17.84231 52.71434 35.27833
# Shear Modulus (GPa) = 17.31071 31.34359 24.32715
#
# Velocity S-wave (km/s) = 2.66349 3.58400 3.15747
# Velocity P-wave (km/s) = 4.09523 6.22333 5.26786
#
# Compressibility (1/GPa) = 0.05604655
#
# Stress axis : x y z
#
# Youngs Moduli (GPa) = 66.13493 52.95610 24.17493
#
# Poissons Ratio (x) = 0.23155 -0.12448
# Poissons Ratio (y) = 0.28917 0.25234
# Poissons Ratio (z) = -0.34053 0.55275
#
# Static dielectric constant tensor:
#      x y z
#    x 1.920590 0.039570 -0.025060 
#    y 0.039570 2.006910 -0.057910 
#    z -0.025060 -0.057910 2.091630 
# 
# From -- ./inp_files/519225.got.cif
#   From: 2010.05.17/outbox.cif.g08.bks.cpg/sg2_260_cif.got.tgz:519225.got - 2010.06.03 11:33:40.
