data_PCOD9078463
_publ_section_title
;
Structure prediction by ZEFSAII (Michael W. Deem and Ramdas Pophale) SiO2 
 PCOD9078463
Probable space group: P -1
;
_chemical_formula_sum "Si O2"
_cell_formula_units_Z 16
_cell_length_a 11.492857
_cell_length_b 11.852292
_cell_length_c 9.293181
_cell_angle_alpha 67.795698
_cell_angle_beta 128.665803
_cell_angle_gamma 130.404459
_cell_volume 751.881334
_symmetry_space_group_name_H-M "P -1"
_symmetry_group_IT_number 2
_symmetry_cell_setting 'triclinic'
loop_
_space_group_symop_operation_xyz
x,y,z
-x,-y,-z
loop_
_atom_site_type_symbol
_atom_site_label
_atom_site_fract_x
_atom_site_fract_y
_atom_site_fract_z
Si Si1 0.747139 0.287548 0.341753
Si Si2 0.117034 0.373139 0.689480
Si Si3 0.712909 0.109047 0.150064
Si Si4 0.153232 0.005850 0.897306
Si Si5 0.775133 0.928296 0.517512
Si Si6 0.625940 0.578868 0.916836
Si Si7 0.341422 0.291859 0.716423
Si Si8 0.374494 0.139045 0.271360
O O1 0.797154 0.451842 0.325622
O O2 0.748169 0.251098 0.191999
O O3 0.551518 0.170905 0.313805
O O4 0.905172 0.286660 0.542996
O O5 0.206564 0.334828 0.649482
O O6 0.174876 0.343918 0.901131
O O7 0.822162 0.117415 0.089958
O O8 0.776149 0.037076 0.350435
O O9 0.500000 0.000000 0.000000
O O10 0.306081 0.164843 0.863243
O O11 0.201824 0.029901 0.090203
O O12 0.966105 0.978313 0.712162
O O13 0.706175 0.781537 0.440958
O O14 0.648562 0.909468 0.559414
O O15 0.542734 0.440671 0.812413
O O16 0.606654 0.705394 0.784589
O O17 0.500000 0.500000 0.000000
#
# Coordination Sequence:
#
# PCOD9078463 Si02
#       8
#     2   2   2   2   2   2   2   2
#     4  11  21  36  58  86 121 149 195 237 297 346
#     4  10  19  34  63  90 106 149 202 250 275 344
#     4  11  23  39  61  86 115 163 196 239 286 352
#     4  11  20  41  62  85 118 156 204 240 283 349
#     4  11  26  37  59  92 121 155 195 244 295 353
#     4  10  18  35  63  87 109 153 200 246 286 334
#     4  10  18  38  65  84 113 147 207 247 282 337
#     4  12  22  39  59  90 124 154 189 248 307 340
#
# _framework density 21.279954
#
# number of rings (size 3 to 8) (size 9 to 14) (size 15 to 20)
#    0.000    1.250    6.250    3.375    1.750    1.000 
#    0.000    0.000    0.000    0.750    0.000    0.000 
#    0.000    0.000    0.000    0.000    0.000    0.000 
#
# Total GULP energy -89352.600038 kJ/mol
# GULP energy per Si atom -5584.537502 kJ/mol
# Density = 2.123152 g / cm^3
# Si number density = 21.279954 Si / 1000 Ang^3
#
#
#
# Elastic Constant Matrix: (Units=GPa)
#
#
# Indices 1 2 3 4 5 6 
#
# 1 75.3015 22.2595 29.1345 11.7759 -2.3672 -23.4228
# 2 22.2595 58.6758 21.2929 23.7699 -13.6914 -24.8437
# 3 29.1345 21.2929 95.1671 34.5445 5.0883 -7.2984
# 4 11.7759 23.7699 34.5445 32.1932 -3.7964 -3.9619
# 5 -2.3672 -13.6914 5.0883 -3.7964 46.0645 8.2303
# 6 -23.4228 -24.8437 -7.2984 -3.9619 8.2303 27.7305
#
#
#
# Elastic Compliance Matrix: (Units=1/GPa)
#
#
# Indices 1 2 3 4 5 6 
#
# 1 0.020228 0.002035 -0.004472 -0.002055 -0.001211 0.017797
# 2 0.002035 0.044787 0.004047 -0.033164 0.003608 0.037100
# 3 -0.004472 0.004047 0.019480 -0.022321 -0.003524 0.002832
# 4 -0.002055 -0.033164 -0.022321 0.077326 0.003770 -0.027394
# 5 -0.001211 0.003608 -0.003524 0.003770 0.024387 -0.005418
# 6 0.017797 0.037100 0.002832 -0.027394 -0.005418 0.082771
#
#
# Mechanical properties :
#
#
# Convention : Reuss Voigt Hill
#
# Bulk Modulus (GPa) = 11.40076 41.61313 26.50694
# Shear Modulus (GPa) = 16.94926 31.62815 24.28870
#
# Velocity S-wave (km/s) = 2.82528 3.85942 3.38211
# Velocity P-wave (km/s) = 4.00151 6.28154 5.26639
#
# Compressibility (1/GPa) = 0.08771346
#
# Stress axis : x y z
#
# Youngs Moduli (GPa) = 49.43629 22.32766 51.33600
#
# Poissons Ratio (x) = -0.04543 0.22959
# Poissons Ratio (y) = -0.10058 -0.20775
# Poissons Ratio (z) = 0.22109 -0.09036
#
# Static dielectric constant tensor:
#      x y z
#    x 1.806880 -0.019140 0.033450 
#    y -0.019140 1.813350 0.029440 
#    z 0.033450 0.029440 1.792950 
# 
# From -- ./inp_files/262349.got.cif
#   From: 2010.05.17/outbox.cif.g08.bks.cpg/sg2_132_cif.got.tgz:262349.got - 2010.06.03 11:33:40.
