data_PCOD9078222
_publ_section_title
;
Structure prediction by ZEFSAII (Michael W. Deem and Ramdas Pophale) SiO2 
 PCOD9078222
Probable space group: P -1
;
_chemical_formula_sum "Si O2"
_cell_formula_units_Z 16
_cell_length_a 12.306122
_cell_length_b 10.950548
_cell_length_c 12.985952
_cell_angle_alpha 40.322052
_cell_angle_beta 125.649255
_cell_angle_gamma 93.048322
_cell_volume 614.903984
_symmetry_space_group_name_H-M "P -1"
_symmetry_group_IT_number 2
_symmetry_cell_setting 'triclinic'
loop_
_space_group_symop_operation_xyz
x,y,z
-x,-y,-z
loop_
_atom_site_type_symbol
_atom_site_label
_atom_site_fract_x
_atom_site_fract_y
_atom_site_fract_z
Si Si1 0.748481 0.184011 0.693084
Si Si2 0.242208 0.176908 0.603200
Si Si3 0.496108 0.138137 0.635425
Si Si4 0.922663 0.068451 0.086791
Si Si5 0.216264 0.190516 0.796847
Si Si6 0.827187 0.686722 0.983070
Si Si7 0.087474 0.695135 0.867706
Si Si8 0.678405 0.265429 0.172398
O O1 0.529382 0.320843 0.499985
O O2 0.843136 0.212329 0.637732
O O3 0.857380 0.871447 0.918633
O O4 0.814916 0.194962 0.833355
O O5 0.291546 0.202578 0.725627
O O6 0.003124 0.390833 0.330090
O O7 0.292838 0.271370 0.481100
O O8 0.367422 0.860461 0.847965
O O9 0.642590 0.955612 0.932478
O O10 0.599068 0.901874 0.756384
O O11 0.905006 0.244328 0.050714
O O12 0.826217 0.984252 0.137100
O O13 0.000000 0.500000 0.500000
O O14 0.858134 0.578284 0.954982
O O15 0.242853 0.647179 0.911388
O O16 0.867341 0.988665 0.519743
O O17 0.500000 0.500000 0.000000
#
# Coordination Sequence:
#
# PCOD9078222 Si02
#       8
#     2   2   2   2   2   2   2   2
#     4   8  19  37  58  77 109 147 189 228 271 316
#     4  11  18  32  55  78 111 142 179 229 279 329
#     4   9  19  33  53  78 109 142 182 222 274 321
#     4  10  18  35  60  80 108 150 184 228 273 328
#     4  11  19  32  54  84 110 140 183 227 279 334
#     4   9  19  35  53  81 102 148 181 223 270 325
#     4  10  20  34  57  80 113 144 186 222 277 331
#     4  10  21  33  51  81 118 147 175 225 281 335
#
# _framework density 26.020320000000002
#
# number of rings (size 3 to 8) (size 9 to 14) (size 15 to 20)
#    0.750    1.500    2.500    1.125    0.000    1.500 
#    0.000    1.250    2.750    7.500    0.000    0.000 
#    0.000    0.000    0.000    0.000    0.000    0.000 
#
# Total GULP energy -89269.455470 kJ/mol
# GULP energy per Si atom -5579.340967 kJ/mol
# Density = 2.596110 g / cm^3
# Si number density = 26.020320 Si / 1000 Ang^3
#
#
#
# Elastic Constant Matrix: (Units=GPa)
#
#
# Indices 1 2 3 4 5 6 
#
# 1 94.6692 35.6944 17.7621 -5.8951 25.5375 -32.5034
# 2 35.6944 205.1717 31.3068 -11.1103 1.9725 -27.7587
# 3 17.7621 31.3068 74.4895 -6.2843 5.2462 -13.7252
# 4 -5.8951 -11.1103 -6.2843 24.2979 -4.4465 3.4506
# 5 25.5375 1.9725 5.2462 -4.4465 25.1641 -6.8434
# 6 -32.5034 -27.7587 -13.7252 3.4506 -6.8434 46.7293
#
#
#
# Elastic Compliance Matrix: (Units=1/GPa)
#
#
# Indices 1 2 3 4 5 6 
#
# 1 0.019140 -0.001769 -0.000948 -0.000817 -0.016618 0.009610
# 2 -0.001769 0.005781 -0.001663 0.001978 0.002568 0.001945
# 3 -0.000948 -0.001663 0.015072 0.002382 -0.000959 0.002463
# 4 -0.000817 0.001978 0.002382 0.044008 0.007733 -0.000811
# 5 -0.016618 0.002568 -0.000959 0.007733 0.057290 -0.002496
# 6 0.009610 0.001945 0.002463 -0.000811 -0.002496 0.029657
#
#
# Mechanical properties :
#
#
# Convention : Reuss Voigt Hill
#
# Bulk Modulus (GPa) = 32.01919 60.42855 46.22387
# Shear Modulus (GPa) = 26.29912 38.54274 32.42093
#
# Velocity S-wave (km/s) = 3.18262 3.85288 3.53368
# Velocity P-wave (km/s) = 5.08307 6.56254 5.86961
#
# Compressibility (1/GPa) = 0.03123127
#
# Stress axis : x y z
#
# Youngs Moduli (GPa) = 52.24795 172.97586 66.34709
#
# Poissons Ratio (x) = 0.30606 0.06290
# Poissons Ratio (y) = 0.09245 0.11037
# Poissons Ratio (z) = 0.04953 0.28774
#
# Static dielectric constant tensor:
#      x y z
#    x 2.136630 0.075550 0.058880 
#    y 0.075550 2.035740 0.027430 
#    z 0.058880 0.027430 2.085510 
# 
# From -- ./inp_files/431586.got.cif
#   From: 2010.05.17/outbox.cif.g08.bks.cpg/sg2_216_cif.got.tgz:431586.got - 2010.06.03 11:33:40.
