data_PCOD9078295
_publ_section_title
;
Structure prediction by ZEFSAII (Michael W. Deem and Ramdas Pophale) SiO2 
 PCOD9078295
Probable space group: P -1
;
_chemical_formula_sum "Si O2"
_cell_formula_units_Z 16
_cell_length_a 14.375219
_cell_length_b 9.554937
_cell_length_c 8.451461
_cell_angle_alpha 99.722758
_cell_angle_beta 49.190341
_cell_angle_gamma 68.056387
_cell_volume 658.942969
_symmetry_space_group_name_H-M "P -1"
_symmetry_group_IT_number 2
_symmetry_cell_setting 'triclinic'
loop_
_space_group_symop_operation_xyz
x,y,z
-x,-y,-z
loop_
_atom_site_type_symbol
_atom_site_label
_atom_site_fract_x
_atom_site_fract_y
_atom_site_fract_z
Si Si1 0.692487 0.843080 0.260256
Si Si2 0.874396 0.847819 0.765173
Si Si3 0.664019 0.793457 0.806977
Si Si4 0.823688 0.426685 0.412478
Si Si5 0.354305 0.390906 0.902621
Si Si6 0.828331 0.210937 0.896433
Si Si7 0.692023 0.255960 0.397396
Si Si8 0.081237 0.155540 0.811728
O O1 0.734825 0.649344 0.128921
O O2 0.773616 0.841454 0.329427
O O3 0.500000 0.000000 0.500000
O O4 0.761999 0.890776 0.050560
O O5 0.805647 0.796284 0.697793
O O6 0.053491 0.677574 0.595657
O O7 0.858572 0.026335 0.777989
O O8 0.723512 0.644539 0.576065
O O9 0.633145 0.710975 0.973308
O O10 0.500000 0.000000 0.000000
O O11 0.703430 0.385084 0.519981
O O12 0.941938 0.322977 0.111181
O O13 0.266098 0.606236 0.069983
O O14 0.528222 0.296408 0.619050
O O15 0.719359 0.279206 0.190264
O O16 0.993219 0.166884 0.755482
O O17 0.842502 0.044325 0.237037
#
# Coordination Sequence:
#
# PCOD9078295 Si02
#       8
#     2   2   2   2   2   2   2   2
#     4  10  18  35  60  93 134 169 204 262 321 384
#     4  10  20  40  70  88 127 171 215 262 324 384
#     4  11  27  48  64  88 128 179 230 267 316 380
#     4  10  20  41  70  92 126 177 217 260 321 384
#     4  11  25  39  62  99 132 170 216 269 325 384
#     4  11  20  39  66 104 130 165 212 264 335 386
#     4  11  19  39  69 100 137 159 209 271 327 393
#     4  10  19  38  70  96 133 170 208 262 331 395
#
# _framework density 24.281313000000001
#
# number of rings (size 3 to 8) (size 9 to 14) (size 15 to 20)
#    0.000    1.500    5.000    1.500    1.750    1.000 
#    6.750    5.625    0.000    0.000    0.000    0.000 
#    0.000    0.000    0.000    0.000    0.000    0.000 
#
# Total GULP energy -89558.736361 kJ/mol
# GULP energy per Si atom -5597.421023 kJ/mol
# Density = 2.422605 g / cm^3
# Si number density = 24.281313 Si / 1000 Ang^3
#
#
#
# Elastic Constant Matrix: (Units=GPa)
#
#
# Indices 1 2 3 4 5 6 
#
# 1 108.3279 50.9220 29.2160 -1.0504 -5.9616 44.1818
# 2 50.9220 178.3895 60.2595 20.5846 -5.7094 12.6478
# 3 29.2160 60.2595 90.3912 0.4964 -2.7686 12.4615
# 4 -1.0504 20.5846 0.4964 46.3394 16.3569 5.3198
# 5 -5.9616 -5.7094 -2.7686 16.3569 29.0001 2.2007
# 6 44.1818 12.6478 12.4615 5.3198 2.2007 40.2373
#
#
#
# Elastic Compliance Matrix: (Units=1/GPa)
#
#
# Indices 1 2 3 4 5 6 
#
# 1 0.020489 -0.004498 -0.000590 0.004012 0.002644 -0.021576
# 2 -0.004498 0.009054 -0.005033 -0.005713 0.003279 0.004228
# 3 -0.000590 -0.005033 0.014935 0.002734 -0.001023 -0.002700
# 4 0.004012 -0.005713 0.002734 0.030934 -0.016984 -0.006618
# 5 0.002644 0.003279 -0.001023 -0.016984 0.045446 -0.003857
# 6 -0.021576 0.004228 -0.002700 -0.006618 -0.003857 0.049137
#
#
# Mechanical properties :
#
#
# Convention : Reuss Voigt Hill
#
# Bulk Modulus (GPa) = 41.26194 73.10042 57.18118
# Shear Modulus (GPa) = 25.21205 38.89610 32.05407
#
# Velocity S-wave (km/s) = 3.22581 4.00671 3.63728
# Velocity P-wave (km/s) = 5.55920 7.18164 6.42186
#
# Compressibility (1/GPa) = 0.02423541
#
# Stress axis : x y z
#
# Youngs Moduli (GPa) = 48.80648 110.44503 66.95570
#
# Poissons Ratio (x) = 0.49677 0.03953
# Poissons Ratio (y) = 0.21952 0.33701
# Poissons Ratio (z) = 0.02882 0.55590
#
# Static dielectric constant tensor:
#      x y z
#    x 1.954440 -0.011130 0.037770 
#    y -0.011130 1.925730 -0.028460 
#    z 0.037770 -0.028460 1.955790 
# 
# From -- ./inp_files/298691.got.cif
#   From: 2010.05.17/outbox.cif.g08.bks.cpg/sg2_150_cif.got.tgz:298691.got - 2010.06.03 11:33:40.
