data_PCOD9078843
_publ_section_title
;
Structure prediction by ZEFSAII (Michael W. Deem and Ramdas Pophale) SiO2 
 PCOD9078843
Probable space group: P -1
;
_chemical_formula_sum "Si O2"
_cell_formula_units_Z 16
_cell_length_a 8.620217
_cell_length_b 16.027065
_cell_length_c 17.274878
_cell_angle_alpha 30.570464
_cell_angle_beta 71.712306
_cell_angle_gamma 51.893343
_cell_volume 801.658709
_symmetry_space_group_name_H-M "P -1"
_symmetry_group_IT_number 2
_symmetry_cell_setting 'triclinic'
loop_
_space_group_symop_operation_xyz
x,y,z
-x,-y,-z
loop_
_atom_site_type_symbol
_atom_site_label
_atom_site_fract_x
_atom_site_fract_y
_atom_site_fract_z
Si Si1 0.235668 0.316130 0.163365
Si Si2 0.634441 0.736784 0.210461
Si Si3 0.894646 0.625289 0.499575
Si Si4 0.897334 0.263593 0.106114
Si Si5 0.308312 0.884710 0.838365
Si Si6 0.568300 0.084249 0.739028
Si Si7 0.976768 0.204367 0.318961
Si Si8 0.405024 0.326829 0.898749
O O1 0.465259 0.197266 0.174150
O O2 0.215353 0.141392 0.330620
O O3 0.195149 0.485843 0.098544
O O4 0.000000 0.500000 0.000000
O O5 0.528160 0.761798 0.290260
O O6 0.593233 0.651850 0.210533
O O7 0.911879 0.572853 0.310821
O O8 0.500000 0.000000 0.000000
O O9 0.626041 0.758334 0.424169
O O10 0.000000 0.500000 0.500000
O O11 0.875567 0.834687 0.348093
O O12 0.770948 0.210520 0.123736
O O13 0.862885 0.279147 0.191439
O O14 0.174357 0.047107 0.220340
O O15 0.376240 0.776230 0.000559
O O16 0.595598 0.869481 0.926662
O O17 0.813218 0.421997 0.230023
O O18 0.000000 0.000000 0.500000
#
# Coordination Sequence:
#
# PCOD9078843 Si02
#       8
#     2   2   2   2   2   2   2   2
#     4  10  18  38  62  85 119 165 208 248 299 370
#     4   9  19  34  63  90 119 159 200 254 321 366
#     4   9  18  35  60  87 114 156 212 250 297 361
#     4  11  21  37  64  90 123 165 217 248 297 372
#     4  11  21  35  65  92 117 168 215 251 295 370
#     4   9  18  38  65  88 112 164 214 253 296 366
#     4  11  22  35  60  89 127 161 199 259 317 361
#     4  10  18  36  59  86 126 160 198 254 312 356
#
# _framework density 19.958618000000001
#
# number of rings (size 3 to 8) (size 9 to 14) (size 15 to 20)
#    0.000    2.000    3.750    3.375    1.750    0.000 
#    0.000    3.750   16.500    0.000    0.000    0.000 
#    0.000    0.000    0.000    0.000    0.000    0.000 
#
# Total GULP energy -89084.949040 kJ/mol
# GULP energy per Si atom -5567.809315 kJ/mol
# Density = 1.991319 g / cm^3
# Si number density = 19.958618 Si / 1000 Ang^3
#
#
#
# Elastic Constant Matrix: (Units=GPa)
#
#
# Indices 1 2 3 4 5 6 
#
# 1 109.3227 52.6925 48.8101 -12.8024 -8.9754 25.4403
# 2 52.6925 120.5975 30.5310 -23.4855 2.8439 31.8574
# 3 48.8101 30.5310 78.6457 -7.3095 5.3904 4.8527
# 4 -12.8024 -23.4855 -7.3095 23.3058 2.2699 2.4943
# 5 -8.9754 2.8439 5.3904 2.2699 30.6354 -5.4254
# 6 25.4403 31.8574 4.8527 2.4943 -5.4254 34.8928
#
#
#
# Elastic Compliance Matrix: (Units=1/GPa)
#
#
# Indices 1 2 3 4 5 6 
#
# 1 0.017402 -0.001873 -0.009345 0.005261 0.004881 -0.009296
# 2 -0.001873 0.018112 -0.002639 0.018830 -0.006191 -0.017113
# 3 -0.009345 -0.002639 0.019317 -0.001913 -0.004698 0.005943
# 4 0.005261 0.018830 -0.001913 0.068023 -0.009716 -0.027135
# 5 0.004881 -0.006191 -0.004698 -0.009716 0.037845 0.009327
# 6 -0.009296 -0.017113 0.005943 -0.027135 0.009327 0.053624
#
#
# Mechanical properties :
#
#
# Convention : Reuss Voigt Hill
#
# Bulk Modulus (GPa) = 36.87598 63.62590 50.25094
# Shear Modulus (GPa) = 19.91430 29.53561 24.72495
#
# Velocity S-wave (km/s) = 3.16219 3.85105 3.52349
# Velocity P-wave (km/s) = 5.64349 7.19181 6.46417
#
# Compressibility (1/GPa) = 0.02711793
#
# Stress axis : x y z
#
# Youngs Moduli (GPa) = 57.46347 55.21304 51.76715
#
# Poissons Ratio (x) = 0.10339 0.48379
# Poissons Ratio (y) = 0.10761 0.13659
# Poissons Ratio (z) = 0.53702 0.14569
#
# Static dielectric constant tensor:
#      x y z
#    x 1.738600 0.000020 -0.003900 
#    y 0.000020 1.755660 0.009830 
#    z -0.003900 0.009830 1.797640 
# 
# From -- ./inp_files/333555.got.cif
#   From: 2010.05.17/outbox.cif.g08.bks.cpg/sg2_167_cif.got.tgz:333555.got - 2010.06.03 11:33:40.
