data_PCOD9078165
_publ_section_title
;
Structure prediction by ZEFSAII (Michael W. Deem and Ramdas Pophale) SiO2 
 PCOD9078165
Probable space group: P -1
;
_chemical_formula_sum "Si O2"
_cell_formula_units_Z 16
_cell_length_a 12.377897
_cell_length_b 8.817280
_cell_length_c 21.793688
_cell_angle_alpha 142.579198
_cell_angle_beta 153.833238
_cell_angle_gamma 43.763295
_cell_volume 636.989750
_symmetry_space_group_name_H-M "P -1"
_symmetry_group_IT_number 2
_symmetry_cell_setting 'triclinic'
loop_
_space_group_symop_operation_xyz
x,y,z
-x,-y,-z
loop_
_atom_site_type_symbol
_atom_site_label
_atom_site_fract_x
_atom_site_fract_y
_atom_site_fract_z
Si Si1 0.000621 0.791508 0.612729
Si Si2 0.033784 0.173142 0.161819
Si Si3 0.733608 0.310889 0.165202
Si Si4 0.511912 0.083676 0.655275
Si Si5 0.740337 0.880304 0.338465
Si Si6 0.709906 0.633906 0.960785
Si Si7 0.469835 0.883132 0.803751
Si Si8 0.150630 0.361863 0.153467
O O1 0.730515 0.911793 0.507287
O O2 0.000000 0.500000 0.500000
O O3 0.106527 0.828369 0.746131
O O4 0.202586 0.882296 0.697427
O O5 0.104692 0.354987 0.200780
O O6 0.812974 0.265573 0.121753
O O7 0.262168 0.107192 0.301903
O O8 0.958021 0.905507 0.009503
O O9 0.791111 0.600315 0.295584
O O10 0.452782 0.296681 0.039908
O O11 0.420318 0.005937 0.651480
O O12 0.607593 0.367134 0.799351
O O13 0.575083 0.899256 0.199611
O O14 0.000000 0.000000 0.500000
O O15 0.645963 0.827743 0.935590
O O16 0.986443 0.573202 0.103175
O O17 0.573664 0.660766 0.739542
#
# Coordination Sequence:
#
# PCOD9078165 Si02
#       8
#     2   2   2   2   2   2   2   2
#     4  11  18  36  63  86 115 151 188 234 293 352
#     4  10  22  39  58  85 119 150 201 236 285 340
#     4  10  22  37  59  89 111 156 195 236 284 345
#     4  10  18  35  59  85 111 156 189 227 289 357
#     4  11  19  33  61  86 113 152 193 233 286 345
#     4   9  20  36  59  85 112 150 199 231 291 344
#     4  11  19  33  62  88 111 146 198 237 283 347
#     4  10  21  38  61  83 113 160 191 242 287 338
#
# _framework density 25.118143
#
# number of rings (size 3 to 8) (size 9 to 14) (size 15 to 20)
#    0.000    1.750    6.250    0.375    1.750    1.000 
#    0.000    3.125   11.000    0.000    0.000    0.000 
#    0.000    0.000    0.000    0.000    0.000    0.000 
#
# Total GULP energy -89388.071654 kJ/mol
# GULP energy per Si atom -5586.754478 kJ/mol
# Density = 2.506097 g / cm^3
# Si number density = 25.118143 Si / 1000 Ang^3
#
#
#
# Elastic Constant Matrix: (Units=GPa)
#
#
# Indices 1 2 3 4 5 6 
#
# 1 123.1327 11.0786 12.2952 -11.1100 -5.7169 3.2336
# 2 11.0786 51.9669 17.3251 -28.7476 -2.0342 9.5288
# 3 12.2952 17.3251 88.2544 -33.5529 -4.1375 -0.5878
# 4 -11.1100 -28.7476 -33.5529 39.2486 4.0446 2.3645
# 5 -5.7169 -2.0342 -4.1375 4.0446 31.2445 -5.6309
# 6 3.2336 9.5288 -0.5878 2.3645 -5.6309 30.0362
#
#
#
# Elastic Compliance Matrix: (Units=1/GPa)
#
#
# Indices 1 2 3 4 5 6 
#
# 1 0.008425 -0.000734 -0.000458 0.001372 0.001152 -0.000575
# 2 -0.000734 0.039547 0.005182 0.034579 -0.004211 -0.015877
# 3 -0.000458 0.005182 0.017502 0.018836 -0.000372 -0.002805
# 4 0.001372 0.034579 0.018836 0.069084 -0.007104 -0.017519
# 5 0.001152 -0.004211 -0.000372 -0.007104 0.034289 0.008192
# 6 -0.000575 -0.015877 -0.002805 -0.017519 0.008192 0.041252
#
#
# Mechanical properties :
#
#
# Convention : Reuss Voigt Hill
#
# Bulk Modulus (GPa) = 13.61391 38.30575 25.95983
# Shear Modulus (GPa) = 22.06486 34.94954 28.50720
#
# Velocity S-wave (km/s) = 2.96707 3.73420 3.37252
# Velocity P-wave (km/s) = 4.14364 5.82028 5.05200
#
# Compressibility (1/GPa) = 0.07345431
#
# Stress axis : x y z
#
# Youngs Moduli (GPa) = 118.68797 25.28633 57.13545
#
# Poissons Ratio (x) = 0.01857 0.02617
# Poissons Ratio (y) = 0.08714 -0.29608
# Poissons Ratio (z) = 0.05436 -0.13103
#
# Static dielectric constant tensor:
#      x y z
#    x 1.984250 -0.053940 -0.032340 
#    y -0.053940 2.023880 0.097750 
#    z -0.032340 0.097750 2.172760 
# 
# From -- ./inp_files/218954.got.cif
#   From: 2010.05.17/outbox.cif.g08.bks.cpg/sg2_110_cif.got.tgz:218954.got - 2010.06.03 11:33:40.
