data_PCOD9078779
_publ_section_title
;
Structure prediction by ZEFSAII (Michael W. Deem and Ramdas Pophale) SiO2 
 PCOD9078779
Probable space group: P -1
;
_chemical_formula_sum "Si O2"
_cell_formula_units_Z 14
_cell_length_a 18.044509
_cell_length_b 15.392047
_cell_length_c 7.794666
_cell_angle_alpha 120.076113
_cell_angle_beta 49.920012
_cell_angle_gamma 158.169624
_cell_volume 579.438330
_symmetry_space_group_name_H-M "P -1"
_symmetry_group_IT_number 2
_symmetry_cell_setting 'triclinic'
loop_
_space_group_symop_operation_xyz
x,y,z
-x,-y,-z
loop_
_atom_site_type_symbol
_atom_site_label
_atom_site_fract_x
_atom_site_fract_y
_atom_site_fract_z
Si Si1 0.011551 0.323519 0.584497
Si Si2 0.889942 0.993221 0.372973
Si Si3 0.208997 0.777491 0.503945
Si Si4 0.400590 0.627866 0.741823
Si Si5 0.571855 0.988834 0.031619
Si Si6 0.533141 0.811942 0.334902
Si Si7 0.059152 0.936470 0.045973
O O1 0.000971 0.194530 0.502438
O O2 0.284074 0.605365 0.417781
O O3 0.851242 0.200018 0.536484
O O4 0.855969 0.237909 0.869899
O O5 0.941105 0.057265 0.156296
O O6 0.606616 0.739344 0.571994
O O7 0.994136 0.984901 0.259244
O O8 0.000000 0.500000 0.500000
O O9 0.445544 0.933352 0.309897
O O10 0.265713 0.910902 0.698780
O O11 0.440328 0.704483 0.563260
O O12 0.146036 0.335519 0.861273
O O13 0.451230 0.768824 0.936216
O O14 0.500000 0.000000 0.000000
O O15 0.674573 0.849376 0.092368
#
# Coordination Sequence:
#
# PCOD9078779 Si02
#       7
#     2   2   2   2   2   2   2
#     4  10  21  39  56  83 117 147 187 237 282 337
#     4   9  19  37  58  85 114 151 188 236 282 332
#     4  11  21  39  59  81 114 151 190 234 282 336
#     4  10  18  36  58  84 112 151 193 232 278 338
#     4   9  17  35  56  76 108 149 184 230 281 321
#     4  11  22  38  57  86 120 146 186 240 280 333
#     4  10  19  35  61  84 113 153 192 229 286 335
#
# _framework density 24.161328000000001
#
# number of rings (size 3 to 8) (size 9 to 14) (size 15 to 20)
#    0.000    2.000    5.714    1.286    0.000    1.714 
#    2.571    0.714    0.000    0.000    0.000    0.000 
#    0.000    0.000    0.000    0.000    0.000    0.000 
#
# Total GULP energy -78041.319885 kJ/mol
# GULP energy per Si atom -5574.379992 kJ/mol
# Density = 2.410634 g / cm^3
# Si number density = 24.161328 Si / 1000 Ang^3
#
#
#
# Elastic Constant Matrix: (Units=GPa)
#
#
# Indices 1 2 3 4 5 6 
#
# 1 79.5275 33.6210 59.8259 -5.8521 -27.4104 -6.4046
# 2 33.6210 89.2065 40.0073 -26.2599 -26.9779 -11.2365
# 3 59.8259 40.0073 138.0080 -8.1820 -56.8829 -3.1017
# 4 -5.8521 -26.2599 -8.1820 29.1255 -5.1045 -7.7886
# 5 -27.4104 -26.9779 -56.8829 -5.1045 49.5537 3.4455
# 6 -6.4046 -11.2365 -3.1017 -7.7886 3.4455 33.0416
#
#
#
# Elastic Compliance Matrix: (Units=1/GPa)
#
#
# Indices 1 2 3 4 5 6 
#
# 1 0.020109 -0.004935 -0.007713 -0.002438 -0.000737 0.000998
# 2 -0.004935 0.029719 0.004827 0.035112 0.021521 0.015636
# 3 -0.007713 0.004827 0.018512 0.012335 0.020700 0.002634
# 4 -0.002438 0.035112 0.012335 0.083273 0.038542 0.028236
# 5 -0.000737 0.021521 0.020700 0.038542 0.058378 0.012117
# 6 0.000998 0.015636 0.002634 0.028236 0.012117 0.041415
#
#
# Mechanical properties :
#
#
# Convention : Reuss Voigt Hill
#
# Bulk Modulus (GPa) = 18.97528 63.73895 41.35712
# Shear Modulus (GPa) = 17.56765 33.89668 25.73217
#
# Velocity S-wave (km/s) = 2.69940 3.74964 3.26700
# Velocity P-wave (km/s) = 4.19360 6.72192 5.60225
#
# Compressibility (1/GPa) = 0.05270015
#
# Stress axis : x y z
#
# Youngs Moduli (GPa) = 49.72782 33.64873 54.01801
#
# Poissons Ratio (x) = 0.16605 0.41663
# Poissons Ratio (y) = 0.24540 -0.26077
# Poissons Ratio (z) = 0.38354 -0.16244
#
# Static dielectric constant tensor:
#      x y z
#    x 1.998470 -0.007620 0.149170 
#    y -0.007620 1.996850 0.022920 
#    z 0.149170 0.022920 2.114850 
# 
# From -- ./inp_files/348550.got.cif
#   From: 2010.05.17/outbox.cif.g08.bks.cpg/sg2_175_cif.got.tgz:348550.got - 2010.06.03 11:33:40.
