data_PCOD9078389
_publ_section_title
;
Structure prediction by ZEFSAII (Michael W. Deem and Ramdas Pophale) SiO2 
 PCOD9078389
Probable space group: P -1
;
_chemical_formula_sum "Si O2"
_cell_formula_units_Z 14
_cell_length_a 7.102581
_cell_length_b 11.484954
_cell_length_c 14.792680
_cell_angle_alpha 57.954813
_cell_angle_beta 102.019598
_cell_angle_gamma 56.454431
_cell_volume 600.469222
_symmetry_space_group_name_H-M "P -1"
_symmetry_group_IT_number 2
_symmetry_cell_setting 'triclinic'
loop_
_space_group_symop_operation_xyz
x,y,z
-x,-y,-z
loop_
_atom_site_type_symbol
_atom_site_label
_atom_site_fract_x
_atom_site_fract_y
_atom_site_fract_z
Si Si1 0.297674 0.261100 0.077739
Si Si2 0.555637 0.065766 0.892242
Si Si3 0.196712 0.862508 0.316526
Si Si4 0.553048 0.392262 0.308177
Si Si5 0.816291 0.005901 0.377150
Si Si6 0.325638 0.775020 0.019405
Si Si7 0.152717 0.572321 0.373913
O O1 0.558810 0.082372 0.255681
O O2 0.247849 0.148128 0.065763
O O3 0.446913 0.281991 0.009983
O O4 0.000000 0.500000 0.000000
O O5 0.674479 0.133406 0.927433
O O6 0.199347 0.289200 0.723270
O O7 0.500000 0.000000 0.000000
O O8 0.146621 0.726495 0.355255
O O9 0.571899 0.670888 0.447444
O O10 0.006493 0.004099 0.330916
O O11 0.017512 0.028395 0.145754
O O12 0.629313 0.200716 0.352258
O O13 0.445865 0.559033 0.152446
O O14 0.294103 0.522547 0.308172
O O15 0.893956 0.244934 0.446562
#
# Coordination Sequence:
#
# PCOD9078389 Si02
#       7
#     2   2   2   2   2   2   2
#     4  10  21  37  62  80 115 159 192 227 292 349
#     4  10  19  37  59  86 115 152 191 237 284 348
#     4   9  18  34  58  84 111 153 190 237 273 349
#     4  10  22  35  62  88 114 150 190 248 284 341
#     4   9  19  39  58  81 116 154 195 227 295 347
#     4  10  21  39  58  90 119 143 199 246 279 337
#     4  10  18  35  62  82 113 156 193 223 296 347
#
# _framework density 23.315100000000001
#
# number of rings (size 3 to 8) (size 9 to 14) (size 15 to 20)
#    0.000    2.286    4.286    0.000    4.000    2.857 
#    0.000    2.857    3.143    0.000    0.000    0.000 
#    0.000    0.000    0.000    0.000    0.000    0.000 
#
# Total GULP energy -78212.237100 kJ/mol
# GULP energy per Si atom -5586.588364 kJ/mol
# Density = 2.326203 g / cm^3
# Si number density = 23.315100 Si / 1000 Ang^3
#
#
#
# Elastic Constant Matrix: (Units=GPa)
#
#
# Indices 1 2 3 4 5 6 
#
# 1 57.2133 18.5571 34.6546 -1.4568 2.8948 -8.9891
# 2 18.5571 143.7032 22.6451 -2.2905 11.8582 -20.5309
# 3 34.6546 22.6451 191.8016 1.9718 16.3090 -2.0324
# 4 -1.4568 -2.2905 1.9718 33.3910 1.6278 2.0046
# 5 2.8948 11.8582 16.3090 1.6278 21.6132 5.4953
# 6 -8.9891 -20.5309 -2.0324 2.0046 5.4953 21.2285
#
#
#
# Elastic Compliance Matrix: (Units=1/GPa)
#
#
# Indices 1 2 3 4 5 6 
#
# 1 0.021291 -0.000845 -0.003504 0.000673 -0.001903 0.008292
# 2 -0.000845 0.009211 -0.000192 0.000344 -0.007475 0.010435
# 3 -0.003504 -0.000192 0.006222 -0.000335 -0.004100 0.000019
# 4 0.000673 0.000344 -0.000335 0.030218 -0.001847 -0.001790
# 5 -0.001903 -0.007475 -0.004100 -0.001847 0.059897 -0.023758
# 6 0.008292 0.010435 0.000019 -0.001790 -0.023758 0.067031
#
#
# Mechanical properties :
#
#
# Convention : Reuss Voigt Hill
#
# Bulk Modulus (GPa) = 36.17751 60.49241 48.33496
# Shear Modulus (GPa) = 23.56634 36.37063 29.96848
#
# Velocity S-wave (km/s) = 3.18272 3.95392 3.58909
# Velocity P-wave (km/s) = 5.39043 6.84445 6.16049
#
# Compressibility (1/GPa) = 0.02764149
#
# Stress axis : x y z
#
# Youngs Moduli (GPa) = 46.96744 108.56256 160.72446
#
# Poissons Ratio (x) = 0.09171 0.56325
# Poissons Ratio (y) = 0.03968 0.03091
# Poissons Ratio (z) = 0.16459 0.02088
#
# Static dielectric constant tensor:
#      x y z
#    x 1.916690 -0.034560 0.052820 
#    y -0.034560 1.922870 0.026790 
#    z 0.052820 0.026790 1.925080 
# 
# From -- ./inp_files/332806.got.cif
#   From: 2010.05.17/outbox.cif.g08.bks.cpg/sg2_167_cif.got.tgz:332806.got - 2010.06.03 11:33:40.
