data_PCOD9078516
_publ_section_title
;
Structure prediction by ZEFSAII (Michael W. Deem and Ramdas Pophale) SiO2 
 PCOD9078516
Probable space group: P -1
;
_chemical_formula_sum "Si O2"
_cell_formula_units_Z 14
_cell_length_a 22.288331
_cell_length_b 12.859129
_cell_length_c 22.378638
_cell_angle_alpha 19.724306
_cell_angle_beta 162.173579
_cell_angle_gamma 151.884098
_cell_volume 656.444234
_symmetry_space_group_name_H-M "P -1"
_symmetry_group_IT_number 2
_symmetry_cell_setting 'triclinic'
loop_
_space_group_symop_operation_xyz
x,y,z
-x,-y,-z
loop_
_atom_site_type_symbol
_atom_site_label
_atom_site_fract_x
_atom_site_fract_y
_atom_site_fract_z
Si Si1 0.203888 0.707601 0.740452
Si Si2 0.609208 0.974947 0.359348
Si Si3 0.788872 0.267976 0.886575
Si Si4 0.443219 0.237443 0.870999
Si Si5 0.100837 0.757593 0.274523
Si Si6 0.818213 0.862135 0.742318
Si Si7 0.159535 0.823341 0.878900
O O1 0.070069 0.432384 0.759836
O O2 0.318821 0.775681 0.752039
O O3 0.363787 0.664424 0.968036
O O4 0.038492 0.010519 0.429845
O O5 0.690700 0.628605 0.597862
O O6 0.376731 0.958857 0.152768
O O7 0.695097 0.998958 0.494172
O O8 0.882860 0.217222 0.069201
O O9 0.954540 0.199223 0.031117
O O10 0.278786 0.520484 0.543332
O O11 0.328416 0.043126 0.914494
O O12 0.500000 0.000000 0.000000
O O13 0.195526 0.924715 0.328563
O O14 0.000000 0.000000 0.000000
O O15 0.765332 0.516869 0.891156
#
# Coordination Sequence:
#
# PCOD9078516 Si02
#       7
#     2   2   2   2   2   2   2
#     4  11  22  44  70  96 137 172 225 277 328 395
#     4  10  19  35  67 104 137 173 218 271 327 402
#     4  10  18  35  64 107 138 168 217 268 333 398
#     4  11  27  46  71  99 125 180 234 278 329 399
#     4  11  30  49  64  96 140 179 225 277 339 398
#     4  11  22  40  67 100 138 180 212 271 342 395
#     4  10  20  39  71 101 132 174 226 272 327 403
#
# _framework density 21.327021999999999
#
# number of rings (size 3 to 8) (size 9 to 14) (size 15 to 20)
#    0.000    1.429    4.286    0.857    4.000    3.429 
#    0.000    1.429    0.000    0.000    0.000    0.000 
#    0.000    0.000    0.000    0.000    0.000    0.000 
#
# Total GULP energy -78269.265051 kJ/mol
# GULP energy per Si atom -5590.661789 kJ/mol
# Density = 2.127848 g / cm^3
# Si number density = 21.327022 Si / 1000 Ang^3
#
#
#
# Elastic Constant Matrix: (Units=GPa)
#
#
# Indices 1 2 3 4 5 6 
#
# 1 39.1931 9.1298 22.7213 -11.5891 -4.0115 -16.6456
# 2 9.1298 91.2371 33.3135 9.8508 -9.5377 -13.5066
# 3 22.7213 33.3135 87.8367 1.6072 -8.7073 -10.9282
# 4 -11.5891 9.8508 1.6072 33.5678 3.0001 0.0280
# 5 -4.0115 -9.5377 -8.7073 3.0001 29.3777 -3.2579
# 6 -16.6456 -13.5066 -10.9282 0.0280 -3.2579 29.3890
#
#
#
# Elastic Compliance Matrix: (Units=1/GPa)
#
#
# Indices 1 2 3 4 5 6 
#
# 1 0.045520 0.001076 -0.009062 0.015375 0.004908 0.023436
# 2 0.001076 0.014267 -0.004414 -0.004015 0.004550 0.006033
# 3 -0.009062 -0.004414 0.015516 -0.002761 0.002082 -0.001158
# 4 0.015375 -0.004015 -0.002761 0.036688 -0.003165 0.005450
# 5 0.004908 0.004550 0.002082 -0.003165 0.038223 0.009885
# 6 0.023436 0.006033 -0.001158 0.005450 0.009885 0.050733
#
#
# Mechanical properties :
#
#
# Convention : Reuss Voigt Hill
#
# Bulk Modulus (GPa) = 19.80101 38.73290 29.26696
# Shear Modulus (GPa) = 20.61170 28.67370 24.64270
#
# Velocity S-wave (km/s) = 3.11217 3.67069 3.40291
# Velocity P-wave (km/s) = 4.71367 6.01383 5.40300
#
# Compressibility (1/GPa) = 0.05050247
#
# Stress axis : x y z
#
# Youngs Moduli (GPa) = 21.96840 70.09274 64.45018
#
# Poissons Ratio (x) = -0.07544 0.58406
# Poissons Ratio (y) = -0.02365 0.28450
# Poissons Ratio (z) = 0.19908 0.30941
#
# Static dielectric constant tensor:
#      x y z
#    x 1.757810 0.030490 0.005760 
#    y 0.030490 1.771040 -0.008840 
#    z 0.005760 -0.008840 1.788530 
# 
# From -- ./inp_files/257236.got.cif
#   From: 2010.05.17/outbox.cif.g08.bks.cpg/sg2_129_cif.got.tgz:257236.got - 2010.06.03 11:33:40.
