data_PCOD9078743
_publ_section_title
;
Structure prediction by ZEFSAII (Michael W. Deem and Ramdas Pophale) SiO2 
 PCOD9078743
Probable space group: P -1
;
_chemical_formula_sum "Si O2"
_cell_formula_units_Z 16
_cell_length_a 8.391108
_cell_length_b 8.587087
_cell_length_c 12.708808
_cell_angle_alpha 94.426293
_cell_angle_beta 127.292137
_cell_angle_gamma 71.961962
_cell_volume 685.292066
_symmetry_space_group_name_H-M "P -1"
_symmetry_group_IT_number 2
_symmetry_cell_setting 'triclinic'
loop_
_space_group_symop_operation_xyz
x,y,z
-x,-y,-z
loop_
_atom_site_type_symbol
_atom_site_label
_atom_site_fract_x
_atom_site_fract_y
_atom_site_fract_z
Si Si1 0.904404 0.188661 0.735774
Si Si2 0.756345 0.012695 0.826337
Si Si3 0.435725 0.505174 0.285806
Si Si4 0.154757 0.772800 0.532200
Si Si5 0.669949 0.322475 0.964960
Si Si6 0.358111 0.177616 0.907354
Si Si7 0.913800 0.640834 0.883988
Si Si8 0.701844 0.924938 0.357779
O O1 0.912427 0.028031 0.797043
O O2 0.688964 0.325727 0.696302
O O3 0.887750 0.173456 0.604019
O O4 0.114256 0.235290 0.850264
O O5 0.749609 0.149507 0.919474
O O6 0.525585 0.047894 0.681499
O O7 0.817236 0.831596 0.891443
O O8 0.676643 0.408864 0.406258
O O9 0.427102 0.546433 0.160402
O O10 0.284706 0.397067 0.247339
O O11 0.921008 0.804316 0.487752
O O12 0.258757 0.900215 0.630833
O O13 0.496119 0.299829 0.974256
O O14 0.874857 0.359593 0.093363
O O15 0.329081 0.148793 0.770737
O O16 0.500000 0.000000 0.000000
O O17 0.000000 0.500000 0.000000
#
# Coordination Sequence:
#
# PCOD9078743 Si02
#       8
#     2   2   2   2   2   2   2   2
#     4  10  22  36  60  86 118 154 192 234 290 334
#     4  10  18  36  57  88 111 149 199 232 282 344
#     4  10  20  37  57  86 119 150 188 239 286 340
#     4  10  19  39  59  84 118 150 195 235 286 337
#     4   9  20  35  58  84 112 155 192 228 286 347
#     4  10  20  38  60  84 117 147 194 238 285 339
#     4  10  19  32  55  84 116 148 188 236 283 337
#     4   9  20  35  61  87 107 153 195 232 283 338
#
# _framework density 23.347709999999999
#
# number of rings (size 3 to 8) (size 9 to 14) (size 15 to 20)
#    0.000    2.250    1.250    1.500    0.000    5.500 
#    0.000   11.875    5.500    0.000    0.000    0.000 
#    0.000    0.000    0.000    0.000    0.000    0.000 
#
# Total GULP energy -89269.564985 kJ/mol
# GULP energy per Si atom -5579.347812 kJ/mol
# Density = 2.329457 g / cm^3
# Si number density = 23.347710 Si / 1000 Ang^3
#
#
#
# Elastic Constant Matrix: (Units=GPa)
#
#
# Indices 1 2 3 4 5 6 
#
# 1 98.2978 28.6061 34.6012 -11.7595 34.4259 23.4058
# 2 28.6061 77.0060 20.2508 -12.1474 8.5456 10.6857
# 3 34.6012 20.2508 62.3805 -15.1594 29.1597 9.7882
# 4 -11.7595 -12.1474 -15.1594 32.0198 -3.7676 8.8044
# 5 34.4259 8.5456 29.1597 -3.7676 43.3345 7.9635
# 6 23.4058 10.6857 9.7882 8.8044 7.9635 39.8492
#
#
#
# Elastic Compliance Matrix: (Units=1/GPa)
#
#
# Indices 1 2 3 4 5 6 
#
# 1 0.018047 -0.003048 -0.001107 0.006054 -0.010870 -0.008676
# 2 -0.003048 0.015804 -0.002826 0.004686 0.002207 -0.003230
# 3 -0.001107 -0.002826 0.028569 0.011553 -0.015866 -0.004991
# 4 0.006054 0.004686 0.011553 0.044344 -0.006692 -0.016111
# 5 -0.010870 0.002207 -0.015866 -0.006692 0.040817 0.003011
# 6 -0.008676 -0.003230 -0.004991 -0.016111 0.003011 0.035241
#
#
# Mechanical properties :
#
#
# Convention : Reuss Voigt Hill
#
# Bulk Modulus (GPa) = 20.63621 44.95563 32.79592
# Shear Modulus (GPa) = 23.48119 33.32245 28.40182
#
# Velocity S-wave (km/s) = 3.17474 3.78196 3.49158
# Velocity P-wave (km/s) = 4.72192 6.19416 5.50746
#
# Compressibility (1/GPa) = 0.04845852
#
# Stress axis : x y z
#
# Youngs Moduli (GPa) = 55.41121 63.27578 35.00262
#
# Poissons Ratio (x) = 0.19284 0.03875
# Poissons Ratio (y) = 0.16888 0.09892
# Poissons Ratio (z) = 0.06134 0.17883
#
# Static dielectric constant tensor:
#      x y z
#    x 1.983530 -0.026160 0.056000 
#    y -0.026160 1.922150 -0.014840 
#    z 0.056000 -0.014840 1.876210 
# 
# From -- ./inp_files/203693.got.cif
#   From: 2010.05.17/outbox.cif.g08.bks.cpg/sg2_102_cif.got.tgz:203693.got - 2010.06.03 11:33:40.
