data_PCOD9078440
_publ_section_title
;
Structure prediction by ZEFSAII (Michael W. Deem and Ramdas Pophale) SiO2 
 PCOD9078440
Probable space group: P -1
;
_chemical_formula_sum "Si O2"
_cell_formula_units_Z 16
_cell_length_a 10.661865
_cell_length_b 8.392561
_cell_length_c 11.395055
_cell_angle_alpha 109.761783
_cell_angle_beta 134.741182
_cell_angle_gamma 59.256330
_cell_volume 622.062524
_symmetry_space_group_name_H-M "P -1"
_symmetry_group_IT_number 2
_symmetry_cell_setting 'triclinic'
loop_
_space_group_symop_operation_xyz
x,y,z
-x,-y,-z
loop_
_atom_site_type_symbol
_atom_site_label
_atom_site_fract_x
_atom_site_fract_y
_atom_site_fract_z
Si Si1 0.811567 0.475645 0.161227
Si Si2 0.201103 0.219655 0.898951
Si Si3 0.685842 0.154145 0.790907
Si Si4 0.799658 0.142354 0.187124
Si Si5 0.036237 0.256713 0.049434
Si Si6 0.268720 0.348593 0.606523
Si Si7 0.833814 0.285443 0.504078
Si Si8 0.237576 0.967940 0.428557
O O1 0.691617 0.659031 0.052698
O O2 0.729904 0.326600 0.109593
O O3 0.998676 0.374241 0.174627
O O4 0.848680 0.543884 0.329705
O O5 0.031077 0.243594 0.697002
O O6 0.303304 0.997971 0.921420
O O7 0.114220 0.301233 0.989721
O O8 0.495260 0.262162 0.764703
O O9 0.625157 0.118688 0.612095
O O10 0.821768 0.263594 0.893206
O O11 0.814095 0.952458 0.876449
O O12 0.841582 0.188348 0.358805
O O13 0.017612 0.022163 0.251998
O O14 0.251325 0.498252 0.531518
O O15 0.232683 0.164956 0.512515
O O16 0.723060 0.189962 0.487226
#
# Coordination Sequence:
#
# PCOD9078440 Si02
#       8
#     2   2   2   2   2   2   2   2
#     4  11  22  39  64  95 124 165 207 257 307 363
#     4  11  20  38  64  95 122 164 214 254 297 370
#     4  11  23  43  65  90 125 173 206 252 312 367
#     4  10  18  35  62  93 130 159 201 258 310 367
#     4  11  22  43  65  87 123 172 219 245 293 374
#     4  11  25  40  64  98 129 157 201 263 324 368
#     4  10  21  35  62  99 127 158 199 260 319 365
#     4  11  19  40  62  93 129 161 201 256 317 370
#
# _framework density 25.720884999999999
#
# number of rings (size 3 to 8) (size 9 to 14) (size 15 to 20)
#    0.000    1.250    3.750    5.250    0.000    3.000 
#    0.000    1.875    0.000    0.000    0.000    0.000 
#    0.000    0.000    0.000    0.000    0.000    0.000 
#
# Total GULP energy -89410.283311 kJ/mol
# GULP energy per Si atom -5588.142707 kJ/mol
# Density = 2.566234 g / cm^3
# Si number density = 25.720885 Si / 1000 Ang^3
#
#
#
# Elastic Constant Matrix: (Units=GPa)
#
#
# Indices 1 2 3 4 5 6 
#
# 1 107.9313 65.4846 58.7586 -6.5355 -32.7585 37.0349
# 2 65.4846 183.9558 50.2420 4.4753 -12.6570 44.2435
# 3 58.7586 50.2420 80.7807 17.8097 -37.8144 1.2723
# 4 -6.5355 4.4753 17.8097 35.5831 0.1362 -9.7463
# 5 -32.7585 -12.6570 -37.8144 0.1362 44.7354 -8.1755
# 6 37.0349 44.2435 1.2723 -9.7463 -8.1755 56.8832
#
#
#
# Elastic Compliance Matrix: (Units=1/GPa)
#
#
# Indices 1 2 3 4 5 6 
#
# 1 0.027624 0.000001 -0.024115 0.012859 -0.003061 -0.015683
# 2 0.000001 0.009225 -0.008785 0.001159 -0.006221 -0.007675
# 3 -0.024115 -0.008785 0.054556 -0.024896 0.029949 0.021352
# 4 0.012859 0.001159 -0.024896 0.041933 -0.012024 -0.003260
# 5 -0.003061 -0.006221 0.029949 -0.012024 0.045653 0.010663
# 6 -0.015683 -0.007675 0.021352 -0.003260 0.010663 0.034257
#
#
# Mechanical properties :
#
#
# Convention : Reuss Voigt Hill
#
# Bulk Modulus (GPa) = 39.05095 80.18203 59.61649
# Shear Modulus (GPa) = 17.38644 40.65251 29.01947
#
# Velocity S-wave (km/s) = 2.60275 3.97989 3.36258
# Velocity P-wave (km/s) = 4.92422 7.23609 6.18906
#
# Compressibility (1/GPa) = 0.02560757
#
# Stress axis : x y z
#
# Youngs Moduli (GPa) = 36.20079 108.40518 18.32979
#
# Poissons Ratio (x) = -0.00014 0.44202
# Poissons Ratio (y) = -0.00005 0.16103
# Poissons Ratio (z) = 0.87297 0.95234
#
# Static dielectric constant tensor:
#      x y z
#    x 2.020200 0.029130 -0.036930 
#    y 0.029130 2.094960 0.054080 
#    z -0.036930 0.054080 2.062630 
# 
# From -- ./inp_files/419629.got.cif
#   From: 2010.05.17/outbox.cif.g08.bks.cpg/sg2_210_cif.got.tgz:419629.got - 2010.06.03 11:33:40.
