data_PCOD9078784
_publ_section_title
;
Structure prediction by ZEFSAII (Michael W. Deem and Ramdas Pophale) SiO2 
 PCOD9078784
Probable space group: P -1
;
_chemical_formula_sum "Si O2"
_cell_formula_units_Z 16
_cell_length_a 9.802916
_cell_length_b 9.646225
_cell_length_c 12.851351
_cell_angle_alpha 72.281062
_cell_angle_beta 144.857300
_cell_angle_gamma 116.527201
_cell_volume 621.480573
_symmetry_space_group_name_H-M "P -1"
_symmetry_group_IT_number 2
_symmetry_cell_setting 'triclinic'
loop_
_space_group_symop_operation_xyz
x,y,z
-x,-y,-z
loop_
_atom_site_type_symbol
_atom_site_label
_atom_site_fract_x
_atom_site_fract_y
_atom_site_fract_z
Si Si1 0.509610 0.149976 0.856913
Si Si2 0.226963 0.954125 0.285664
Si Si3 0.027369 0.604165 0.158201
Si Si4 0.660760 0.489491 0.769682
Si Si5 0.834673 0.582330 0.436047
Si Si6 0.525533 0.892191 0.783372
Si Si7 0.258304 0.680381 0.828741
Si Si8 0.981465 0.883648 0.356633
O O1 0.562188 0.307243 0.786617
O O2 0.208283 0.056871 0.710621
O O3 0.611248 0.037915 0.881224
O O4 0.644539 0.206523 0.038435
O O5 0.151957 0.778716 0.235402
O O6 0.031755 0.947564 0.257113
O O7 0.500000 0.000000 0.500000
O O8 0.276308 0.075283 0.193902
O O9 0.227783 0.518915 0.272504
O O10 0.826709 0.493794 0.139814
O O11 0.881751 0.591474 0.960963
O O12 0.417655 0.531360 0.639842
O O13 0.811252 0.699065 0.305228
O O14 0.000000 0.500000 0.500000
O O15 0.003045 0.681839 0.613216
O O16 0.462312 0.738567 0.849413
O O17 0.258028 0.896414 0.568691
#
# Coordination Sequence:
#
# PCOD9078784 Si02
#       8
#     2   2   2   2   2   2   2   2
#     4  10  18  36  58  85 114 155 203 247 289 359
#     4  10  20  36  60  88 114 154 197 245 298 352
#     4  10  19  38  61  87 122 151 202 248 293 359
#     4   9  20  35  61  89 113 162 200 243 298 353
#     4  10  20  37  56  85 124 155 195 247 305 356
#     4  10  19  36  58  82 118 155 196 248 301 349
#     4  10  22  34  58  86 118 154 193 245 307 350
#     4   9  20  34  57  85 111 155 211 235 295 357
#
# _framework density 25.744972000000001
#
# number of rings (size 3 to 8) (size 9 to 14) (size 15 to 20)
#    0.000    2.250    1.250    1.500    0.000    1.500 
#    0.000    4.375    5.500    0.000    0.000    0.000 
#    0.000    0.000    0.000    0.000    0.000    0.000 
#
# Total GULP energy -89388.152574 kJ/mol
# GULP energy per Si atom -5586.759536 kJ/mol
# Density = 2.568638 g / cm^3
# Si number density = 25.744972 Si / 1000 Ang^3
#
#
#
# Elastic Constant Matrix: (Units=GPa)
#
#
# Indices 1 2 3 4 5 6 
#
# 1 118.4808 38.1313 39.1168 -7.3830 -10.9711 36.2776
# 2 38.1313 105.3569 16.5831 9.7066 -16.0863 26.0162
# 3 39.1168 16.5831 89.0148 25.2583 3.8166 2.9773
# 4 -7.3830 9.7066 25.2583 37.6811 3.6962 -4.8820
# 5 -10.9711 -16.0863 3.8166 3.6962 39.9398 -9.3171
# 6 36.2776 26.0162 2.9773 -4.8820 -9.3171 43.5817
#
#
#
# Elastic Compliance Matrix: (Units=1/GPa)
#
#
# Indices 1 2 3 4 5 6 
#
# 1 0.015592 -0.002470 -0.008354 0.007915 0.001063 -0.009819
# 2 -0.002470 0.012675 0.000129 -0.004877 0.003632 -0.005289
# 3 -0.008354 0.000129 0.018679 -0.013527 -0.001918 0.003676
# 4 0.007915 -0.004877 -0.013527 0.038745 -0.001803 0.001202
# 5 0.001063 0.003632 -0.001918 -0.001803 0.027800 0.002819
# 6 -0.009819 -0.005289 0.003676 0.001202 0.002819 0.034763
#
#
# Mechanical properties :
#
#
# Convention : Reuss Voigt Hill
#
# Bulk Modulus (GPa) = 39.13139 55.61277 47.37208
# Shear Modulus (GPa) = 28.06419 38.84195 33.45307
#
# Velocity S-wave (km/s) = 3.30522 3.88844 3.60863
# Velocity P-wave (km/s) = 5.45881 6.46593 5.98360
#
# Compressibility (1/GPa) = 0.02555493
#
# Stress axis : x y z
#
# Youngs Moduli (GPa) = 64.13677 78.89489 53.53645
#
# Poissons Ratio (x) = 0.19488 0.44727
# Poissons Ratio (y) = 0.15843 -0.00692
# Poissons Ratio (z) = 0.53583 -0.01020
#
# Static dielectric constant tensor:
#      x y z
#    x 2.090450 0.011610 0.075990 
#    y 0.011610 2.024800 -0.034170 
#    z 0.075990 -0.034170 2.113250 
# 
# From -- ./inp_files/392537.got.cif
#   From: 2010.05.17/outbox.cif.g08.bks.cpg/sg2_197_cif.got.tgz:392537.got - 2010.06.03 11:33:40.
