data_PCOD9078316
_publ_section_title
;
Structure prediction by ZEFSAII (Michael W. Deem and Ramdas Pophale) SiO2 
 PCOD9078316
Probable space group: P -1
;
_chemical_formula_sum "Si O2"
_cell_formula_units_Z 16
_cell_length_a 9.439806
_cell_length_b 19.687869
_cell_length_c 11.486105
_cell_angle_alpha 57.901594
_cell_angle_beta 77.452253
_cell_angle_gamma 126.216570
_cell_volume 918.002075
_symmetry_space_group_name_H-M "P -1"
_symmetry_group_IT_number 2
_symmetry_cell_setting 'triclinic'
loop_
_space_group_symop_operation_xyz
x,y,z
-x,-y,-z
loop_
_atom_site_type_symbol
_atom_site_label
_atom_site_fract_x
_atom_site_fract_y
_atom_site_fract_z
Si Si1 0.821328 0.805850 0.405452
Si Si2 0.705516 0.032614 0.494770
Si Si3 0.180764 0.158069 0.879662
Si Si4 0.556263 0.938383 0.865293
Si Si5 0.726340 0.318078 0.697668
Si Si6 0.738889 0.951461 0.337869
Si Si7 0.265146 0.797956 0.413325
Si Si8 0.773904 0.653617 0.742733
O O1 0.763764 0.762834 0.318005
O O2 0.704068 0.686912 0.626731
O O3 0.727548 0.850685 0.415870
O O4 0.154310 0.959168 0.227530
O O5 0.778312 0.999225 0.418371
O O6 0.994163 0.205029 0.335904
O O7 0.500000 0.000000 0.500000
O O8 0.559523 0.933661 0.729461
O O9 0.463163 0.254023 0.792539
O O10 0.984050 0.097687 0.073148
O O11 0.000000 0.000000 0.000000
O O12 0.583259 0.046241 0.791081
O O13 0.320103 0.771293 0.113689
O O14 0.731285 0.266772 0.627291
O O15 0.000000 0.500000 0.500000
O O16 0.449646 0.851775 0.436259
O O17 0.952530 0.671054 0.625351
O O18 0.500000 0.500000 0.000000
#
# Coordination Sequence:
#
# PCOD9078316 Si02
#       8
#     2   2   2   2   2   2   2   2
#     4   9  18  37  63  87 108 156 206 234 284 356
#     4  10  20  38  59  87 114 151 209 242 275 357
#     4  10  18  35  61  84 116 152 196 246 286 352
#     4  10  20  38  61  88 117 161 201 241 290 358
#     4  12  23  38  57  97 127 143 198 261 302 340
#     4  11  17  35  67  89 107 152 215 237 282 344
#     4  10  20  38  66  83 115 166 199 234 300 364
#     4  10  23  41  58  84 126 155 192 246 301 349
#
# _framework density 17.429152999999999
#
# number of rings (size 3 to 8) (size 9 to 14) (size 15 to 20)
#    0.000    2.000    7.500    0.375    0.000    4.000 
#    4.500    0.625    0.000    4.500    0.000    0.000 
#    0.000    0.000    0.000    0.000    0.000    0.000 
#
# Total GULP energy -89114.513198 kJ/mol
# GULP energy per Si atom -5569.657075 kJ/mol
# Density = 1.738948 g / cm^3
# Si number density = 17.429153 Si / 1000 Ang^3
#
#
#
# Elastic Constant Matrix: (Units=GPa)
#
#
# Indices 1 2 3 4 5 6 
#
# 1 67.2667 -3.9698 6.3829 2.1275 3.1373 8.8363
# 2 -3.9698 75.7170 21.1598 19.9898 2.3344 -2.6665
# 3 6.3829 21.1598 95.7336 0.6561 5.2446 0.8741
# 4 2.1275 19.9898 0.6561 24.7434 -0.0869 -5.1992
# 5 3.1373 2.3344 5.2446 -0.0869 18.4075 5.3041
# 6 8.8363 -2.6665 0.8741 -5.1992 5.3041 28.4576
#
#
#
# Elastic Compliance Matrix: (Units=1/GPa)
#
#
# Indices 1 2 3 4 5 6 
#
# 1 0.016010 0.002200 -0.001416 -0.004232 -0.001100 -0.005290
# 2 0.002200 0.018485 -0.004047 -0.015313 -0.001237 -0.001394
# 3 -0.001416 -0.004047 0.011556 0.003246 -0.002757 0.000812
# 4 -0.004232 -0.015313 0.003246 0.055167 -0.000890 0.010024
# 5 -0.001100 -0.001237 -0.002757 -0.000890 0.058553 -0.010766
# 6 -0.005290 -0.001394 0.000812 0.010024 -0.010766 0.040465
#
#
# Mechanical properties :
#
#
# Convention : Reuss Voigt Hill
#
# Bulk Modulus (GPa) = 25.30029 31.76255 28.53142
# Shear Modulus (GPa) = 22.73368 28.66466 25.69917
#
# Velocity S-wave (km/s) = 3.61549 4.05981 3.84408
# Velocity P-wave (km/s) = 5.65479 6.34346 6.00900
#
# Compressibility (1/GPa) = 0.03952523
#
# Stress axis : x y z
#
# Youngs Moduli (GPa) = 62.45922 54.09757 86.53574
#
# Poissons Ratio (x) = -0.11902 0.12255
# Poissons Ratio (y) = -0.13741 0.35021
# Poissons Ratio (z) = 0.08845 0.21893
#
# Static dielectric constant tensor:
#      x y z
#    x 1.621060 -0.007110 0.020010 
#    y -0.007110 1.597650 0.036600 
#    z 0.020010 0.036600 1.626240 
# 
# From -- ./inp_files/404178.got.cif
#   From: 2010.05.17/outbox.cif.g08.bks.cpg/sg2_203_cif.got.tgz:404178.got - 2010.06.03 11:33:40.
