data_PCOD9078217
_publ_section_title
;
Structure prediction by ZEFSAII (Michael W. Deem and Ramdas Pophale) SiO2 
 PCOD9078217
Probable space group: P -1
;
_chemical_formula_sum "Si O2"
_cell_formula_units_Z 16
_cell_length_a 8.518176
_cell_length_b 13.631489
_cell_length_c 8.486422
_cell_angle_alpha 111.309704
_cell_angle_beta 51.550332
_cell_angle_gamma 90.719556
_cell_volume 687.515263
_symmetry_space_group_name_H-M "P -1"
_symmetry_group_IT_number 2
_symmetry_cell_setting 'triclinic'
loop_
_space_group_symop_operation_xyz
x,y,z
-x,-y,-z
loop_
_atom_site_type_symbol
_atom_site_label
_atom_site_fract_x
_atom_site_fract_y
_atom_site_fract_z
Si Si1 0.942223 0.938063 0.748262
Si Si2 0.574376 0.852343 0.004181
Si Si3 0.346304 0.686154 0.896521
Si Si4 0.572147 0.945522 0.591106
Si Si5 0.656343 0.496276 0.750629
Si Si6 0.815856 0.143018 0.130460
Si Si7 0.040856 0.224350 0.603032
Si Si8 0.924945 0.659757 0.669415
O O1 0.041909 0.866040 0.494141
O O2 0.053039 0.880274 0.805151
O O3 0.710332 0.921325 0.870152
O O4 0.931869 0.063145 0.866711
O O5 0.456458 0.777329 0.943832
O O6 0.418827 0.946245 0.256910
O O7 0.766583 0.762843 0.921585
O O8 0.148443 0.696002 0.137471
O O9 0.509023 0.567169 0.747661
O O10 0.257546 0.732837 0.810542
O O11 0.381715 0.901247 0.739953
O O12 0.774799 0.843358 0.437476
O O13 0.500000 0.000000 0.500000
O O14 0.821735 0.564638 0.725565
O O15 0.821217 0.383636 0.518543
O O16 0.500000 0.500000 0.000000
O O17 0.114254 0.295114 0.462069
#
# Coordination Sequence:
#
# PCOD9078217 Si02
#       8
#     2   2   2   2   2   2   2   2
#     4   9  20  36  58  77 117 157 200 233 293 351
#     4   9  20  37  54  83 117 158 191 241 293 346
#     4  11  22  34  62  88 119 153 203 245 295 359
#     4  11  24  37  56  85 123 161 202 243 294 352
#     4  10  18  35  59  94 114 147 201 253 302 349
#     4  10  21  37  53  83 116 160 195 248 292 343
#     4  11  22  36  58  90 117 163 198 237 294 359
#     4   9  19  36  60  86 120 152 195 253 295 353
#
# _framework density 23.272212
#
# number of rings (size 3 to 8) (size 9 to 14) (size 15 to 20)
#    0.000    2.000    1.250    3.000    7.000    4.500 
#    0.000    0.000    0.000    3.000    3.250   13.125 
#    0.000    0.000    0.000    0.000    0.000    0.000 
#
# Total GULP energy -89104.110870 kJ/mol
# GULP energy per Si atom -5569.006929 kJ/mol
# Density = 2.321924 g / cm^3
# Si number density = 23.272212 Si / 1000 Ang^3
#
#
#
# Elastic Constant Matrix: (Units=GPa)
#
#
# Indices 1 2 3 4 5 6 
#
# 1 67.6690 28.5138 17.5601 2.1793 -11.4575 -13.7814
# 2 28.5138 95.5242 30.5140 -1.0430 -8.2141 -34.2470
# 3 17.5601 30.5140 61.0511 -3.4023 -22.9840 -9.1878
# 4 2.1793 -1.0430 -3.4023 49.4442 -1.5484 -19.4364
# 5 -11.4575 -8.2141 -22.9840 -1.5484 31.2895 -1.3353
# 6 -13.7814 -34.2470 -9.1878 -19.4364 -1.3353 47.8682
#
#
#
# Elastic Compliance Matrix: (Units=1/GPa)
#
#
# Indices 1 2 3 4 5 6 
#
# 1 0.017955 -0.003670 -0.001069 0.000221 0.004946 0.002566
# 2 -0.003670 0.018080 -0.005758 0.005213 -0.000019 0.012889
# 3 -0.001069 -0.005758 0.027011 0.003394 0.018219 0.002644
# 4 0.000221 0.005213 0.003394 0.026841 0.005933 0.015509
# 5 0.004946 -0.000019 0.018219 0.005933 0.047811 0.008650
# 6 0.002566 0.012889 0.002644 0.015509 0.008650 0.037897
#
#
# Mechanical properties :
#
#
# Convention : Reuss Voigt Hill
#
# Bulk Modulus (GPa) = 23.78066 41.93557 32.85811
# Shear Modulus (GPa) = 23.74102 35.56415 29.65258
#
# Velocity S-wave (km/s) = 3.19744 3.91344 3.57341
# Velocity P-wave (km/s) = 4.88591 6.20312 5.58349
#
# Compressibility (1/GPa) = 0.04205098
#
# Stress axis : x y z
#
# Youngs Moduli (GPa) = 55.69565 55.31082 37.02202
#
# Poissons Ratio (x) = 0.20300 0.03959
# Poissons Ratio (y) = 0.20441 0.21316
# Poissons Ratio (z) = 0.05956 0.31846
#
# Static dielectric constant tensor:
#      x y z
#    x 1.949710 -0.024220 0.021810 
#    y -0.024220 1.952700 0.023910 
#    z 0.021810 0.023910 2.019650 
# 
# From -- ./inp_files/202445.got.cif
#   From: 2010.05.17/outbox.cif.g08.bks.cpg/sg2_102_cif.got.tgz:202445.got - 2010.06.03 11:33:40.
