data_PCOD9078390
_publ_section_title
;
Structure prediction by ZEFSAII (Michael W. Deem and Ramdas Pophale) SiO2 
 PCOD9078390
Probable space group: P -1
;
_chemical_formula_sum "Si O2"
_cell_formula_units_Z 14
_cell_length_a 12.769588
_cell_length_b 8.598931
_cell_length_c 8.777075
_cell_angle_alpha 52.982017
_cell_angle_beta 46.868995
_cell_angle_gamma 69.722763
_cell_volume 558.075734
_symmetry_space_group_name_H-M "P -1"
_symmetry_group_IT_number 2
_symmetry_cell_setting 'triclinic'
loop_
_space_group_symop_operation_xyz
x,y,z
-x,-y,-z
loop_
_atom_site_type_symbol
_atom_site_label
_atom_site_fract_x
_atom_site_fract_y
_atom_site_fract_z
Si Si1 0.088555 0.391604 0.236440
Si Si2 0.243377 0.070425 0.792794
Si Si3 0.545820 0.375054 0.799934
Si Si4 0.806056 0.254487 0.470841
Si Si5 0.344810 0.672017 0.938081
Si Si6 0.290765 0.148120 0.024108
Si Si7 0.917854 0.952570 0.314305
O O1 0.186025 0.561354 0.125220
O O2 0.180974 0.310009 0.058333
O O3 0.070374 0.205503 0.474874
O O4 0.932577 0.412965 0.313826
O O5 0.199014 0.152997 0.626760
O O6 0.331120 0.890022 0.773291
O O7 0.079553 0.004204 0.058509
O O8 0.326916 0.159915 0.803807
O O9 0.662679 0.361290 0.559498
O O10 0.616763 0.339313 0.914567
O O11 0.464755 0.567050 0.790730
O O12 0.419132 0.207024 0.979760
O O13 0.775672 0.068431 0.727973
O O14 0.857729 0.146534 0.331953
#
# Coordination Sequence:
#
# PCOD9078390 Si02
#       7
#     2   2   2   2   2   2   2
#     4  10  19  37  63  87 115 142 198 237 285 329
#     4  11  20  37  60  86 118 146 193 235 292 332
#     4  10  21  35  60  82 119 151 198 223 285 338
#     4  11  18  35  60  91 107 151 196 240 268 342
#     4  10  22  37  59  90 114 152 187 241 281 342
#     4  10  18  35  62  83 111 155 194 230 273 349
#     4  10  21  35  60  90 114 146 190 247 281 333
#
# _framework density 25.086202
#
# number of rings (size 3 to 8) (size 9 to 14) (size 15 to 20)
#    0.000    1.714    4.286    1.286    0.000    2.286 
#    0.000    2.143    6.286    0.000    0.000    0.000 
#    0.000    0.000    0.000    0.000    0.000    0.000 
#
# Total GULP energy -78249.785816 kJ/mol
# GULP energy per Si atom -5589.270415 kJ/mol
# Density = 2.502911 g / cm^3
# Si number density = 25.086202 Si / 1000 Ang^3
#
#
#
# Elastic Constant Matrix: (Units=GPa)
#
#
# Indices 1 2 3 4 5 6 
#
# 1 83.7483 36.8262 25.9905 -2.3112 -9.9508 32.3440
# 2 36.8262 66.2516 10.5368 14.6154 -6.9972 1.0409
# 3 25.9905 10.5368 43.9783 1.6383 -13.0448 -3.8857
# 4 -2.3112 14.6154 1.6383 19.2682 0.3064 -13.3583
# 5 -9.9508 -6.9972 -13.0448 0.3064 34.9871 3.9009
# 6 32.3440 1.0409 -3.8857 -13.3583 3.9009 37.4695
#
#
#
# Elastic Compliance Matrix: (Units=1/GPa)
#
#
# Indices 1 2 3 4 5 6 
#
# 1 0.045120 -0.017533 -0.024487 -0.010763 0.005352 -0.045394
# 2 -0.017533 0.028020 0.005634 -0.018132 0.001954 0.008273
# 3 -0.024487 0.005634 0.039705 0.008368 0.005830 0.027475
# 4 -0.010763 -0.018132 0.008368 0.095477 -0.009498 0.045690
# 5 0.005352 0.001954 0.005830 -0.009498 0.033977 -0.010993
# 6 -0.045394 0.008273 0.027475 0.045690 -0.010993 0.085926
#
#
# Mechanical properties :
#
#
# Convention : Reuss Voigt Hill
#
# Bulk Modulus (GPa) = 24.95370 37.85391 31.40380
# Shear Modulus (GPa) = 12.06701 26.38661 19.22681
#
# Velocity S-wave (km/s) = 2.19560 3.24672 2.77145
# Velocity P-wave (km/s) = 4.04924 5.40160 4.77355
#
# Compressibility (1/GPa) = 0.04007422
#
# Stress axis : x y z
#
# Youngs Moduli (GPa) = 22.16327 35.68910 25.18589
#
# Poissons Ratio (x) = 0.62572 0.61672
# Poissons Ratio (y) = 0.38858 -0.14190
# Poissons Ratio (z) = 0.54271 -0.20108
#
# Static dielectric constant tensor:
#      x y z
#    x 1.957840 0.039660 -0.013490 
#    y 0.039660 2.008000 0.001230 
#    z -0.013490 0.001230 1.990250 
# 
# From -- ./inp_files/154093.got.cif
#   From: 2010.05.17/outbox.cif.g08.bks.cpg/sg2_78_cif.got.tgz:154093.got - 2010.06.03 11:33:40.
