data_PCOD9078938
_publ_section_title
;
Structure prediction by ZEFSAII (Michael W. Deem and Ramdas Pophale) SiO2 
 PCOD9078938
Probable space group: P -1
;
_chemical_formula_sum "Si O2"
_cell_formula_units_Z 16
_cell_length_a 9.341458
_cell_length_b 11.556540
_cell_length_c 7.764118
_cell_angle_alpha 55.610356
_cell_angle_beta 62.520441
_cell_angle_gamma 82.636242
_cell_volume 603.510223
_symmetry_space_group_name_H-M "P -1"
_symmetry_group_IT_number 2
_symmetry_cell_setting 'triclinic'
loop_
_space_group_symop_operation_xyz
x,y,z
-x,-y,-z
loop_
_atom_site_type_symbol
_atom_site_label
_atom_site_fract_x
_atom_site_fract_y
_atom_site_fract_z
Si Si1 0.453955 0.186877 0.338162
Si Si2 0.212784 0.623419 0.003716
Si Si3 0.403539 0.998036 0.831827
Si Si4 0.090599 0.263650 0.784613
Si Si5 0.683044 0.634036 0.989500
Si Si6 0.141781 0.783084 0.349343
Si Si7 0.790289 0.918853 0.870212
Si Si8 0.677458 0.454746 0.608717
O O1 0.640665 0.248342 0.237784
O O2 0.363606 0.101825 0.616820
O O3 0.456812 0.074342 0.274513
O O4 0.386224 0.321169 0.192640
O O5 0.218008 0.491528 0.986419
O O6 0.258088 0.572526 0.211949
O O7 0.042205 0.672459 0.082275
O O8 0.393424 0.085002 0.941493
O O9 0.263087 0.864040 0.065308
O O10 0.106746 0.116053 0.990470
O O11 0.255209 0.381516 0.609829
O O12 0.026407 0.258823 0.626888
O O13 0.787269 0.782672 0.869785
O O14 0.518779 0.585314 0.235571
O O15 0.229077 0.652237 0.464217
O O16 0.146331 0.918267 0.360196
#
# Coordination Sequence:
#
# PCOD9078938 Si02
#       8
#     2   2   2   2   2   2   2   2
#     4  10  18  36  60  90 113 148 196 247 289 333
#     4  10  20  35  58  83 116 157 191 242 284 341
#     4   9  19  34  61  91 110 144 202 241 290 333
#     4  11  21  38  60  86 116 156 202 236 280 349
#     4  11  22  36  59  87 125 148 187 241 299 344
#     4   9  18  37  60  87 110 147 198 248 279 338
#     4  10  23  36  58  88 121 153 191 236 298 340
#     4  10  20  37  62  88 111 152 200 240 289 340
#
# _framework density 26.511564
#
# number of rings (size 3 to 8) (size 9 to 14) (size 15 to 20)
#    0.750    1.250    3.750    3.375    3.500    3.000 
#    0.000    0.000    0.000    5.250    0.000    0.000 
#    0.000    0.000    0.000    0.000    0.000    0.000 
#
# Total GULP energy -89405.014301 kJ/mol
# GULP energy per Si atom -5587.813394 kJ/mol
# Density = 2.645122 g / cm^3
# Si number density = 26.511564 Si / 1000 Ang^3
#
#
#
# Elastic Constant Matrix: (Units=GPa)
#
#
# Indices 1 2 3 4 5 6 
#
# 1 54.8276 20.7282 5.7411 10.0992 -10.3886 1.2555
# 2 20.7282 178.3915 -2.6076 -11.3090 -6.3124 6.0587
# 3 5.7411 -2.6076 68.7494 -13.3818 -5.0175 7.5516
# 4 10.0992 -11.3090 -13.3818 26.5416 -1.1317 -5.8769
# 5 -10.3886 -6.3124 -5.0175 -1.1317 25.6883 -9.2328
# 6 1.2555 6.0587 7.5516 -5.8769 -9.2328 40.1236
#
#
#
# Elastic Compliance Matrix: (Units=1/GPa)
#
#
# Indices 1 2 3 4 5 6 
#
# 1 0.023506 -0.003290 -0.003901 -0.011877 0.007593 0.000503
# 2 -0.003290 0.006338 0.001503 0.004667 0.000614 -0.000312
# 3 -0.003901 0.001503 0.017303 0.010653 0.002173 -0.001301
# 4 -0.011877 0.004667 0.010653 0.050946 0.002737 0.005754
# 5 0.007593 0.000614 0.002173 0.002737 0.046412 0.010341
# 6 0.000503 -0.000312 -0.001301 0.005754 0.010341 0.028422
#
#
# Mechanical properties :
#
#
# Convention : Reuss Voigt Hill
#
# Bulk Modulus (GPa) = 27.95468 38.85465 33.40466
# Shear Modulus (GPa) = 25.48072 37.01115 31.24593
#
# Velocity S-wave (km/s) = 3.10355 3.74041 3.43677
# Velocity P-wave (km/s) = 4.83838 5.77424 5.32690
#
# Compressibility (1/GPa) = 0.03577219
#
# Stress axis : x y z
#
# Youngs Moduli (GPa) = 42.54205 157.77772 57.79215
#
# Poissons Ratio (x) = 0.51903 0.22543
# Poissons Ratio (y) = 0.13995 -0.08684
# Poissons Ratio (z) = 0.16594 -0.23707
#
# Static dielectric constant tensor:
#      x y z
#    x 2.131410 0.012100 0.040720 
#    y 0.012100 2.154150 0.057560 
#    z 0.040720 0.057560 2.037650 
# 
# From -- ./inp_files/261435.got.cif
#   From: 2010.05.17/outbox.cif.g08.bks.cpg/sg2_131_cif.got.tgz:261435.got - 2010.06.03 11:33:40.
