data_PCOD9078618
_publ_section_title
;
Structure prediction by ZEFSAII (Michael W. Deem and Ramdas Pophale) SiO2 
 PCOD9078618
Probable space group: P -1
;
_chemical_formula_sum "Si O2"
_cell_formula_units_Z 12
_cell_length_a 9.486598
_cell_length_b 7.268797
_cell_length_c 6.985297
_cell_angle_alpha 102.007846
_cell_angle_beta 78.973764
_cell_angle_gamma 73.412457
_cell_volume 435.092500
_symmetry_space_group_name_H-M "P -1"
_symmetry_group_IT_number 2
_symmetry_cell_setting 'triclinic'
loop_
_space_group_symop_operation_xyz
x,y,z
-x,-y,-z
loop_
_atom_site_type_symbol
_atom_site_label
_atom_site_fract_x
_atom_site_fract_y
_atom_site_fract_z
Si Si1 0.081577 0.923779 0.759259
Si Si2 0.331346 0.009113 0.082039
Si Si3 0.831129 0.561742 0.968983
Si Si4 0.587255 0.419387 0.158782
Si Si5 0.163233 0.159532 0.484126
Si Si6 0.744672 0.469616 0.569827
O O1 0.217090 0.718675 0.621340
O O2 0.955491 0.882445 0.642844
O O3 0.131703 0.096743 0.686847
O O4 0.000000 0.000000 0.000000
O O5 0.227535 0.217800 0.061139
O O6 0.316188 0.813829 0.949223
O O7 0.315176 0.007318 0.315297
O O8 0.500000 0.000000 0.000000
O O9 0.819646 0.626514 0.500616
O O10 0.706934 0.539631 0.148299
O O11 0.000000 0.500000 0.000000
O O12 0.438737 0.442981 0.334912
O O13 0.500000 0.500000 0.000000
O O14 0.820304 0.426765 0.755089
#
# Coordination Sequence:
#
# PCOD9078618 Si02
#       6
#     2   2   2   2   2   2
#     4  11  25  45  72 112 163 215 277 348 419 490
#     4  11  19  39  75 114 154 217 272 334 421 505
#     4  10  22  38  65 125 174 210 268 346 425 504
#     4  10  18  35  69 111 155 217 271 336 412 505
#     4  10  22  44  72 112 155 210 270 345 413 497
#     4  10  21  42  74 110 158 215 280 333 417 497
#
# _framework density 27.580342999999999
#
# number of rings (size 3 to 8) (size 9 to 14) (size 15 to 20)
#    0.000    1.667    5.000    2.500    0.000    1.333 
#   18.000    0.000    0.000    4.000    0.000    0.000 
#    0.000    0.333    0.000    0.000    0.000    0.000 
#
# Total GULP energy -67170.807717 kJ/mol
# GULP energy per Si atom -5597.567310 kJ/mol
# Density = 2.751757 g / cm^3
# Si number density = 27.580343 Si / 1000 Ang^3
#
#
#
# Elastic Constant Matrix: (Units=GPa)
#
#
# Indices 1 2 3 4 5 6 
#
# 1 153.6039 45.6008 65.2276 -7.4658 -27.2661 6.8294
# 2 45.6008 181.6858 80.8839 6.5030 -27.2506 1.0453
# 3 65.2276 80.8839 208.1427 5.5390 -19.4185 7.3431
# 4 -7.4658 6.5030 5.5390 52.1831 19.8426 -14.2298
# 5 -27.2661 -27.2506 -19.4185 19.8426 76.1998 0.8679
# 6 6.8294 1.0453 7.3431 -14.2298 0.8679 44.7514
#
#
#
# Elastic Compliance Matrix: (Units=1/GPa)
#
#
# Indices 1 2 3 4 5 6 
#
# 1 0.008007 -0.000851 -0.001987 0.000527 0.001926 -0.000746
# 2 -0.000851 0.007087 -0.002242 -0.001620 0.002083 -0.000223
# 3 -0.001987 -0.002242 0.006406 -0.001138 0.000428 -0.001066
# 4 0.000527 -0.001620 -0.001138 0.024479 -0.007147 0.008066
# 5 0.001926 0.002083 0.000428 -0.007147 0.016562 -0.003007
# 6 -0.000746 -0.000223 -0.001066 0.008066 -0.003007 0.025263
#
#
# Mechanical properties :
#
#
# Convention : Reuss Voigt Hill
#
# Bulk Modulus (GPa) = 88.17402 102.98413 95.57907
# Shear Modulus (GPa) = 49.14283 58.07484 53.60883
#
# Velocity S-wave (km/s) = 4.22572 4.59373 4.41356
# Velocity P-wave (km/s) = 7.47317 8.09674 7.79120
#
# Compressibility (1/GPa) = 0.01134121
#
# Stress axis : x y z
#
# Youngs Moduli (GPa) = 124.88878 141.09373 156.10064
#
# Poissons Ratio (x) = 0.12007 0.31011
# Poissons Ratio (y) = 0.10628 0.35000
# Poissons Ratio (z) = 0.24810 0.31636
#
# Static dielectric constant tensor:
#      x y z
#    x 2.372910 -0.196590 0.040400 
#    y -0.196590 2.258010 0.044950 
#    z 0.040400 0.044950 2.254680 
# 
# From -- ./inp_files/59087.got.cif
#   From: 2010.05.17/outbox.cif.g08.bks.cpg/sg2_30_cif.got.tgz:59087.got - 2010.06.03 11:33:40.
