data_PCOD9078572
_publ_section_title
;
Structure prediction by ZEFSAII (Michael W. Deem and Ramdas Pophale) SiO2 
 PCOD9078572
Probable space group: P -1
;
_chemical_formula_sum "Si O2"
_cell_formula_units_Z 16
_cell_length_a 13.363898
_cell_length_b 13.603445
_cell_length_c 14.326749
_cell_angle_alpha 145.797719
_cell_angle_beta 140.171957
_cell_angle_gamma 32.697957
_cell_volume 768.356829
_symmetry_space_group_name_H-M "P -1"
_symmetry_group_IT_number 2
_symmetry_cell_setting 'triclinic'
loop_
_space_group_symop_operation_xyz
x,y,z
-x,-y,-z
loop_
_atom_site_type_symbol
_atom_site_label
_atom_site_fract_x
_atom_site_fract_y
_atom_site_fract_z
Si Si1 0.256790 0.763562 0.770887
Si Si2 0.865538 0.144053 0.734672
Si Si3 0.499872 0.123022 0.457523
Si Si4 0.598898 0.577357 0.538182
Si Si5 0.185198 0.757971 0.426244
Si Si6 0.410287 0.800733 0.086972
Si Si7 0.752769 0.337520 0.999371
Si Si8 0.189455 0.483948 0.640249
O O1 0.404533 0.586062 0.664437
O O2 0.195003 0.648021 0.705595
O O3 0.328818 0.863715 0.973445
O O4 0.074443 0.929636 0.710548
O O5 0.698707 0.102684 0.586870
O O6 0.832701 0.278916 0.724786
O O7 0.864968 0.240941 0.909299
O O8 0.382512 0.274168 0.402916
O O9 0.374064 0.252712 0.559914
O O10 0.512738 0.909864 0.279530
O O11 0.391106 0.725886 0.553908
O O12 0.769027 0.429166 0.616372
O O13 0.000000 0.000000 0.500000
O O14 0.548392 0.542427 0.979727
O O15 0.263091 0.833220 0.087687
O O16 0.817033 0.439740 0.199809
O O17 0.000000 0.500000 0.500000
#
# Coordination Sequence:
#
# PCOD9078572 Si02
#       8
#     2   2   2   2   2   2   2   2
#     4  10  21  37  58  88 121 157 200 239 293 357
#     4  11  22  36  61  89 116 155 202 244 295 359
#     4  10  22  37  59  88 119 157 199 248 299 347
#     4   9  19  38  61  90 122 149 200 250 293 362
#     4  10  18  35  65  93 112 154 199 247 303 353
#     4  10  21  38  59  82 120 164 197 238 298 350
#     4  10  22  37  55  83 121 160 202 242 287 359
#     4  10  23  37  55  85 119 159 199 248 294 346
#
# _framework density 20.823657000000001
#
# number of rings (size 3 to 8) (size 9 to 14) (size 15 to 20)
#    0.000    2.000    1.250    3.750    5.250    2.000 
#    0.000    0.000    0.000   12.750    0.000    0.000 
#    0.000    0.000    0.000    0.000    0.000    0.000 
#
# Total GULP energy -89167.530514 kJ/mol
# GULP energy per Si atom -5572.970657 kJ/mol
# Density = 2.077626 g / cm^3
# Si number density = 20.823657 Si / 1000 Ang^3
#
#
#
# Elastic Constant Matrix: (Units=GPa)
#
#
# Indices 1 2 3 4 5 6 
#
# 1 59.1059 26.7275 34.1542 -4.0717 -23.7760 4.1186
# 2 26.7275 113.8308 20.1671 -7.7079 -7.7359 3.0735
# 3 34.1542 20.1671 77.4758 -9.8446 -1.8176 11.4392
# 4 -4.0717 -7.7079 -9.8446 31.0446 -0.3241 -8.3331
# 5 -23.7760 -7.7359 -1.8176 -0.3241 23.5174 -4.1710
# 6 4.1186 3.0735 11.4392 -8.3331 -4.1710 27.7452
#
#
#
# Elastic Compliance Matrix: (Units=1/GPa)
#
#
# Indices 1 2 3 4 5 6 
#
# 1 0.051022 -0.004951 -0.021240 0.001888 0.050082 0.009827
# 2 -0.004951 0.009991 -0.000236 0.001735 -0.001715 -0.000011
# 3 -0.021240 -0.000236 0.023420 0.001915 -0.021330 -0.009108
# 4 0.001888 0.001735 0.001915 0.036341 0.004973 0.010400
# 5 0.050082 -0.001715 -0.021330 0.004973 0.094058 0.017183
# 6 0.009827 -0.000011 -0.009108 0.010400 0.017183 0.044047
#
#
# Mechanical properties :
#
#
# Convention : Reuss Voigt Hill
#
# Bulk Modulus (GPa) = 31.66699 45.83445 38.75072
# Shear Modulus (GPa) = 15.51548 27.75235 21.63392
#
# Velocity S-wave (km/s) = 2.73259 3.65462 3.22671
# Velocity P-wave (km/s) = 5.01959 6.31402 5.70365
#
# Compressibility (1/GPa) = 0.03157863
#
# Stress axis : x y z
#
# Youngs Moduli (GPa) = 19.59922 100.09499 42.69889
#
# Poissons Ratio (x) = 0.49557 0.90693
# Poissons Ratio (y) = 0.09704 0.01008
# Poissons Ratio (z) = 0.41629 0.02363
#
# Static dielectric constant tensor:
#      x y z
#    x 1.804730 0.001450 -0.045160 
#    y 0.001450 1.856330 -0.005790 
#    z -0.045160 -0.005790 1.736850 
# 
# From -- ./inp_files/534605.got.cif
#   From: 2010.05.17/outbox.cif.g08.bks.cpg/sg2_268_cif.got.tgz:534605.got - 2010.06.03 11:33:40.
