data_PCOD9078118
_publ_section_title
;
Structure prediction by ZEFSAII (Michael W. Deem and Ramdas Pophale) SiO2 
 PCOD9078118
Probable space group: P -1
;
_chemical_formula_sum "Si O2"
_cell_formula_units_Z 16
_cell_length_a 18.246572
_cell_length_b 8.927422
_cell_length_c 12.582088
_cell_angle_alpha 124.409805
_cell_angle_beta 27.963920
_cell_angle_gamma 122.979898
_cell_volume 787.463612
_symmetry_space_group_name_H-M "P -1"
_symmetry_group_IT_number 2
_symmetry_cell_setting 'triclinic'
loop_
_space_group_symop_operation_xyz
x,y,z
-x,-y,-z
loop_
_atom_site_type_symbol
_atom_site_label
_atom_site_fract_x
_atom_site_fract_y
_atom_site_fract_z
Si Si1 0.653384 0.614538 0.299942
Si Si2 0.165098 0.941989 0.087378
Si Si3 0.085641 0.761228 0.721796
Si Si4 0.765539 0.957247 0.196610
Si Si5 0.120511 0.846647 0.482377
Si Si6 0.061153 0.433305 0.782177
Si Si7 0.310690 0.232043 0.460551
Si Si8 0.317683 0.750757 0.991832
O O1 0.500000 0.500000 0.500000
O O2 0.634289 0.785562 0.316754
O O3 0.733692 0.714690 0.340668
O O4 0.725496 0.452495 0.082688
O O5 0.289514 0.908275 0.005428
O O6 0.044998 0.757381 0.177671
O O7 0.054530 0.105162 0.304808
O O8 0.237972 0.957554 0.881946
O O9 0.121954 0.725698 0.538296
O O10 0.053595 0.583189 0.762721
O O11 0.217078 0.892969 0.672042
O O12 0.929298 0.865139 0.955942
O O13 0.208965 0.773258 0.240698
O O14 0.218840 0.038182 0.469546
O O15 0.239635 0.385836 0.544576
O O16 0.000000 0.500000 0.000000
O O17 0.496845 0.231723 0.211930
#
# Coordination Sequence:
#
# PCOD9078118 Si02
#       8
#     2   2   2   2   2   2   2   2
#     4  10  21  37  57  82 121 157 194 237 296 355
#     4  10  21  35  60  90 118 152 199 248 299 350
#     4  10  19  32  61  90 116 146 202 255 292 338
#     4  10  18  35  58  90 116 149 198 254 292 344
#     4  10  21  39  60  87 118 156 202 243 293 358
#     4  11  19  34  61  92 115 152 201 256 291 343
#     4  10  21  38  60  84 116 158 205 238 291 356
#     4  11  22  39  58  85 124 162 190 240 307 360
#
# _framework density 20.318398999999999
#
# number of rings (size 3 to 8) (size 9 to 14) (size 15 to 20)
#    0.000    1.750    2.500    3.000    0.000    0.000 
#    0.000   13.750    0.000    0.000    0.000    0.000 
#    0.000    0.000    0.000    0.000    0.000    0.000 
#
# Total GULP energy -89266.377695 kJ/mol
# GULP energy per Si atom -5579.148606 kJ/mol
# Density = 2.027215 g / cm^3
# Si number density = 20.318399 Si / 1000 Ang^3
#
#
#
# Elastic Constant Matrix: (Units=GPa)
#
#
# Indices 1 2 3 4 5 6 
#
# 1 94.1794 39.9547 56.5670 0.0031 9.7791 -33.4732
# 2 39.9547 92.4197 27.3832 -13.2049 15.6761 -22.3350
# 3 56.5670 27.3832 67.8677 5.3424 4.0227 -8.3124
# 4 0.0031 -13.2049 5.3424 25.1834 2.8714 9.5962
# 5 9.7791 15.6761 4.0227 2.8714 42.5163 -4.6863
# 6 -33.4732 -22.3350 -8.3124 9.5962 -4.6863 39.9982
#
#
#
# Elastic Compliance Matrix: (Units=1/GPa)
#
#
# Indices 1 2 3 4 5 6 
#
# 1 0.035559 -0.002465 -0.025191 -0.004922 -0.001897 0.024105
# 2 -0.002465 0.016124 -0.004424 0.008718 -0.005182 0.003323
# 3 -0.025191 -0.004424 0.035928 -0.004668 0.002727 -0.014646
# 4 -0.004922 0.008718 -0.004668 0.051062 -0.006548 -0.013239
# 5 -0.001897 -0.005182 0.002727 -0.006548 0.026131 0.000718
# 6 0.024105 0.003323 -0.014646 -0.013239 0.000718 0.047246
#
#
# Mechanical properties :
#
#
# Convention : Reuss Voigt Hill
#
# Bulk Modulus (GPa) = 42.64028 55.80852 49.22440
# Shear Modulus (GPa) = 17.60403 30.24370 23.92386
#
# Velocity S-wave (km/s) = 2.94667 3.86228 3.43512
# Velocity P-wave (km/s) = 5.71041 6.88594 6.32554
#
# Compressibility (1/GPa) = 0.02345200
#
# Stress axis : x y z
#
# Youngs Moduli (GPa) = 28.12247 62.01900 27.83346
#
# Poissons Ratio (x) = 0.15286 0.70116
# Poissons Ratio (y) = 0.06931 0.12312
# Poissons Ratio (z) = 0.70844 0.27434
#
# Static dielectric constant tensor:
#      x y z
#    x 1.793790 0.038900 -0.042220 
#    y 0.038900 1.799260 -0.039370 
#    z -0.042220 -0.039370 1.757030 
# 
# From -- ./inp_files/262286.got.cif
#   From: 2010.05.17/outbox.cif.g08.bks.cpg/sg2_132_cif.got.tgz:262286.got - 2010.06.03 11:33:40.
