data_PCOD9078039
_publ_section_title
;
Structure prediction by ZEFSAII (Michael W. Deem and Ramdas Pophale) SiO2 
 PCOD9078039
Probable space group: P -1
;
_chemical_formula_sum "Si O2"
_cell_formula_units_Z 16
_cell_length_a 12.207108
_cell_length_b 9.289554
_cell_length_c 7.875984
_cell_angle_alpha 129.645819
_cell_angle_beta 114.291368
_cell_angle_gamma 60.603569
_cell_volume 592.709819
_symmetry_space_group_name_H-M "P -1"
_symmetry_group_IT_number 2
_symmetry_cell_setting 'triclinic'
loop_
_space_group_symop_operation_xyz
x,y,z
-x,-y,-z
loop_
_atom_site_type_symbol
_atom_site_label
_atom_site_fract_x
_atom_site_fract_y
_atom_site_fract_z
Si Si1 0.882654 0.123400 0.247656
Si Si2 0.478377 0.231714 0.877977
Si Si3 0.170017 0.881116 0.171484
Si Si4 0.822469 0.765476 0.040510
Si Si5 0.588869 0.352401 0.700503
Si Si6 0.411085 0.215990 0.281623
Si Si7 0.001902 0.558989 0.311950
Si Si8 0.241072 0.279865 0.543155
O O1 0.912532 0.301567 0.493478
O O2 0.821121 0.184934 0.069092
O O3 0.022946 0.961974 0.189028
O O4 0.807395 0.997282 0.200345
O O5 0.551928 0.241838 0.756599
O O6 0.337258 0.259632 0.743794
O O7 0.540612 0.019985 0.841683
O O8 0.477854 0.418260 0.129181
O O9 0.258910 0.718408 0.232721
O O10 0.211949 0.075662 0.353527
O O11 0.685911 0.737884 0.902324
O O12 0.908525 0.653873 0.850918
O O13 0.906987 0.663717 0.176348
O O14 0.531650 0.287291 0.447088
O O15 0.319182 0.308792 0.452635
O O16 0.895689 0.562558 0.387825
#
# Coordination Sequence:
#
# PCOD9078039 Si02
#       8
#     2   2   2   2   2   2   2   2
#     4  10  21  37  60  85 118 154 188 246 287 339
#     4  10  19  31  57  85 118 152 183 228 298 342
#     4  10  18  35  57  93 122 140 197 240 287 346
#     4  11  23  42  60  82 119 158 194 239 291 343
#     4  10  19  32  53  89 118 151 180 236 293 344
#     4  11  20  37  59  85 120 148 190 241 286 341
#     4  10  25  40  58  87 114 157 202 234 287 349
#     4  10  18  37  58  85 120 145 188 242 282 341
#
# _framework density 26.994658000000001
#
# number of rings (size 3 to 8) (size 9 to 14) (size 15 to 20)
#    0.000    1.750    3.750    1.125    1.750    4.500 
#    0.000    0.625    0.000    0.750    0.000    0.000 
#    0.000    0.000    0.000    0.000    0.000    0.000 
#
# Total GULP energy -89722.906838 kJ/mol
# GULP energy per Si atom -5607.681677 kJ/mol
# Density = 2.693322 g / cm^3
# Si number density = 26.994658 Si / 1000 Ang^3
#
#
#
# Elastic Constant Matrix: (Units=GPa)
#
#
# Indices 1 2 3 4 5 6 
#
# 1 64.2363 22.1997 18.8844 -5.3554 0.8680 -17.2887
# 2 22.1997 135.6684 64.5159 -17.3683 14.2983 -18.9561
# 3 18.8844 64.5159 153.8797 -19.5221 37.1276 -6.8717
# 4 -5.3554 -17.3683 -19.5221 42.9712 -7.8249 8.3245
# 5 0.8680 14.2983 37.1276 -7.8249 38.8270 -2.6450
# 6 -17.2887 -18.9561 -6.8717 8.3245 -2.6450 35.2764
#
#
#
# Elastic Compliance Matrix: (Units=1/GPa)
#
#
# Indices 1 2 3 4 5 6 
#
# 1 0.018803 -0.001220 -0.002061 -0.000256 0.002521 0.008407
# 2 -0.001220 0.010057 -0.003839 0.001547 0.000561 0.003735
# 3 -0.002061 -0.003839 0.010523 0.001852 -0.008371 -0.002088
# 4 -0.000256 0.001547 0.001852 0.026129 0.002597 -0.004904
# 5 0.002521 0.000561 -0.008371 0.002597 0.034147 0.001854
# 6 0.008407 0.003735 -0.002088 -0.004904 0.001854 0.035365
#
#
# Mechanical properties :
#
#
# Convention : Reuss Voigt Hill
#
# Bulk Modulus (GPa) = 39.77543 62.77604 51.27574
# Shear Modulus (GPa) = 31.71697 39.96054 35.83876
#
# Velocity S-wave (km/s) = 3.43145 3.85166 3.64761
# Velocity P-wave (km/s) = 5.51963 6.56398 6.06433
#
# Compressibility (1/GPa) = 0.02514115
#
# Stress axis : x y z
#
# Youngs Moduli (GPa) = 53.18433 99.43239 95.03358
#
# Poissons Ratio (x) = 0.12134 0.19588
# Poissons Ratio (y) = 0.06490 0.36484
# Poissons Ratio (z) = 0.10962 0.38173
#
# Static dielectric constant tensor:
#      x y z
#    x 2.179860 0.006960 -0.056670 
#    y 0.006960 2.061410 -0.067070 
#    z -0.056670 -0.067070 2.121750 
# 
# From -- ./inp_files/308900.got.cif
#   From: 2010.05.17/outbox.cif.g08.bks.cpg/sg2_155_cif.got.tgz:308900.got - 2010.06.03 11:33:40.
