data_PCOD9078151
_publ_section_title
;
Structure prediction by ZEFSAII (Michael W. Deem and Ramdas Pophale) SiO2 
 PCOD9078151
Probable space group: P -1
;
_chemical_formula_sum "Si O2"
_cell_formula_units_Z 12
_cell_length_a 10.269523
_cell_length_b 11.450170
_cell_length_c 9.219672
_cell_angle_alpha 48.960652
_cell_angle_beta 127.280477
_cell_angle_gamma 129.727885
_cell_volume 595.659135
_symmetry_space_group_name_H-M "P -1"
_symmetry_group_IT_number 2
_symmetry_cell_setting 'triclinic'
loop_
_space_group_symop_operation_xyz
x,y,z
-x,-y,-z
loop_
_atom_site_type_symbol
_atom_site_label
_atom_site_fract_x
_atom_site_fract_y
_atom_site_fract_z
Si Si1 0.095055 0.176769 0.581412
Si Si2 0.162271 0.180983 0.946249
Si Si3 0.347139 0.408436 0.354532
Si Si4 0.677321 0.491542 0.056180
Si Si5 0.523188 0.125151 0.279702
Si Si6 0.286447 0.047086 0.606019
O O1 0.161686 0.326972 0.385492
O O2 0.205565 0.066330 0.691372
O O3 0.152401 0.241732 0.726919
O O4 0.887399 0.060117 0.519930
O O5 0.168879 0.330374 0.936771
O O6 0.340828 0.148030 0.113457
O O7 0.000000 0.000000 0.000000
O O8 0.500000 0.500000 0.500000
O O9 0.342324 0.514634 0.125834
O O10 0.371343 0.240843 0.450378
O O11 0.500000 0.500000 0.000000
O O12 0.675541 0.313988 0.252173
O O13 0.500000 0.000000 0.500000
O O14 0.579107 0.041664 0.248415
#
# Coordination Sequence:
#
# PCOD9078151 Si02
#       6
#     2   2   2   2   2   2
#     4   9  20  38  63  82 114 160 192 231 302 350
#     4  11  22  39  65  87 118 157 199 236 298 355
#     4  10  18  35  59  83 113 155 194 235 294 350
#     4  10  21  36  58  86 118 154 197 238 292 356
#     4  11  22  38  59  87 121 155 193 250 291 337
#     4   9  20  38  62  80 121 149 199 235 296 341
#
# _framework density 20.145748999999999
#
# number of rings (size 3 to 8) (size 9 to 14) (size 15 to 20)
#    1.000    1.000    0.000    6.000    0.000    0.667 
#    0.000    5.833    0.000    0.000    0.000    0.000 
#    0.000    0.000    0.000    0.000    0.000    0.000 
#
# Total GULP energy -66847.551402 kJ/mol
# GULP energy per Si atom -5570.629283 kJ/mol
# Density = 2.009990 g / cm^3
# Si number density = 20.145749 Si / 1000 Ang^3
#
#
#
# Elastic Constant Matrix: (Units=GPa)
#
#
# Indices 1 2 3 4 5 6 
#
# 1 47.4934 18.7021 17.3964 -4.3065 -4.6613 0.8002
# 2 18.7021 119.7314 42.8873 -8.8708 -2.4377 15.4827
# 3 17.3964 42.8873 80.2310 -1.8159 -27.6263 -2.3763
# 4 -4.3065 -8.8708 -1.8159 36.8768 -4.4766 -2.6302
# 5 -4.6613 -2.4377 -27.6263 -4.4766 28.3732 -0.3381
# 6 0.8002 15.4827 -2.3763 -2.6302 -0.3381 22.0866
#
#
#
# Elastic Compliance Matrix: (Units=1/GPa)
#
#
# Indices 1 2 3 4 5 6 
#
# 1 0.023519 -0.002272 -0.003668 0.002116 0.000438 0.000605
# 2 -0.002272 0.013617 -0.010263 0.000627 -0.009224 -0.010634
# 3 -0.003668 -0.010263 0.028284 0.002513 0.026584 0.011077
# 4 0.002116 0.000627 0.002513 0.028775 0.007427 0.003295
# 5 0.000438 -0.009224 0.026584 0.007427 0.061713 0.011140
# 6 0.000605 -0.010634 0.011077 0.003295 0.011140 0.054464
#
#
# Mechanical properties :
#
#
# Convention : Reuss Voigt Hill
#
# Bulk Modulus (GPa) = 30.29190 45.04749 37.66970
# Shear Modulus (GPa) = 19.70183 28.69864 24.20024
#
# Velocity S-wave (km/s) = 3.13064 3.77842 3.46968
# Velocity P-wave (km/s) = 5.30442 6.43775 5.89837
#
# Compressibility (1/GPa) = 0.03301212
#
# Stress axis : x y z
#
# Youngs Moduli (GPa) = 42.51956 73.43803 35.35524
#
# Poissons Ratio (x) = 0.16686 0.12970
# Poissons Ratio (y) = 0.09661 0.36286
# Poissons Ratio (z) = 0.15598 0.75372
#
# Static dielectric constant tensor:
#      x y z
#    x 1.741950 0.003680 -0.027250 
#    y 0.003680 1.794790 -0.039060 
#    z -0.027250 -0.039060 1.733510 
# 
# From -- ./inp_files/256525.got.cif
#   From: 2010.05.17/outbox.cif.g08.bks.cpg/sg2_129_cif.got.tgz:256525.got - 2010.06.03 11:33:40.
