data_PCOD9078765
_publ_section_title
;
Structure prediction by ZEFSAII (Michael W. Deem and Ramdas Pophale) SiO2 
 PCOD9078765
Probable space group: P -1
;
_chemical_formula_sum "Si O2"
_cell_formula_units_Z 16
_cell_length_a 13.992179
_cell_length_b 15.263987
_cell_length_c 8.607925
_cell_angle_alpha 145.438165
_cell_angle_beta 48.176578
_cell_angle_gamma 141.547372
_cell_volume 647.319188
_symmetry_space_group_name_H-M "P -1"
_symmetry_group_IT_number 2
_symmetry_cell_setting 'triclinic'
loop_
_space_group_symop_operation_xyz
x,y,z
-x,-y,-z
loop_
_atom_site_type_symbol
_atom_site_label
_atom_site_fract_x
_atom_site_fract_y
_atom_site_fract_z
Si Si1 0.828581 0.909927 0.979055
Si Si2 0.157385 0.760643 0.422536
Si Si3 0.164986 0.432470 0.020667
Si Si4 0.720938 0.763616 0.201602
Si Si5 0.577632 0.387437 0.259198
Si Si6 0.498247 0.025360 0.719093
Si Si7 0.453282 0.795958 0.680855
Si Si8 0.987478 0.828175 0.456508
O O1 0.710688 0.770789 0.035790
O O2 0.818661 0.087358 0.255950
O O3 0.842639 0.826262 0.682184
O O4 0.000000 0.000000 0.000000
O O5 0.314616 0.865140 0.299357
O O6 0.026564 0.719170 0.379158
O O7 0.121078 0.581588 0.294033
O O8 0.239097 0.384094 0.008211
O O9 0.294046 0.525702 0.883046
O O10 0.033895 0.248056 0.804499
O O11 0.583156 0.757461 0.431668
O O12 0.868334 0.961772 0.383073
O O13 0.500000 0.500000 0.500000
O O14 0.636696 0.361045 0.322065
O O15 0.458164 0.171942 0.025347
O O16 0.500000 0.000000 0.500000
O O17 0.399519 0.828063 0.621777
O O18 0.500000 0.000000 0.000000
#
# Coordination Sequence:
#
# PCOD9078765 Si02
#       8
#     2   2   2   2   2   2   2   2
#     4   8  17  35  57  74 107 152 190 218 284 331
#     4   9  18  36  55  79 114 146 178 235 290 319
#     4  11  21  33  58  88 117 145 191 232 283 340
#     4  10  18  36  58  82 114 153 184 234 283 336
#     4  10  21  37  55  85 121 148 180 238 292 327
#     4  10  20  36  61  82 105 151 199 229 277 345
#     4  10  19  37  59  81 117 152 189 231 286 337
#     4  10  20  37  59  85 107 153 195 229 278 343
#
# _framework density 24.717327999999998
#
# number of rings (size 3 to 8) (size 9 to 14) (size 15 to 20)
#    0.000    2.500    3.750    0.750    0.000    1.000 
#    0.000    8.750    0.000    0.000    0.000    0.000 
#    0.000    0.000    0.000    0.000    0.000    0.000 
#
# Total GULP energy -89220.078420 kJ/mol
# GULP energy per Si atom -5576.254901 kJ/mol
# Density = 2.466107 g / cm^3
# Si number density = 24.717328 Si / 1000 Ang^3
#
#
#
# Elastic Constant Matrix: (Units=GPa)
#
#
# Indices 1 2 3 4 5 6 
#
# 1 46.9147 8.5607 30.1012 13.2421 -11.8585 -21.5896
# 2 8.5607 63.5888 8.7130 14.1466 -7.4367 -28.9754
# 3 30.1012 8.7130 117.7305 21.0842 -27.5833 -18.7416
# 4 13.2421 14.1466 21.0842 34.8284 -10.0924 -16.0320
# 5 -11.8585 -7.4367 -27.5833 -10.0924 34.0434 3.8340
# 6 -21.5896 -28.9754 -18.7416 -16.0320 3.8340 48.1410
#
#
#
# Elastic Compliance Matrix: (Units=1/GPa)
#
#
# Indices 1 2 3 4 5 6 
#
# 1 0.031997 0.003807 -0.004355 -0.003162 0.006001 0.013415
# 2 0.003807 0.022991 0.001396 -0.003559 0.004789 0.014523
# 3 -0.004355 0.001396 0.012134 -0.003199 0.007451 0.001952
# 4 -0.003162 -0.003559 -0.003199 0.038537 0.006105 0.007542
# 5 0.006001 0.004789 0.007451 0.006105 0.039529 0.007359
# 6 0.013415 0.014523 0.001952 0.007542 0.007359 0.038215
#
#
# Mechanical properties :
#
#
# Convention : Reuss Voigt Hill
#
# Bulk Modulus (GPa) = 14.53097 35.88710 25.20903
# Shear Modulus (GPa) = 24.43237 35.45984 29.94611
#
# Velocity S-wave (km/s) = 3.14741 3.79174 3.48450
# Velocity P-wave (km/s) = 4.37034 5.80691 5.13907
#
# Compressibility (1/GPa) = 0.06881854
#
# Stress axis : x y z
#
# Youngs Moduli (GPa) = 31.25252 43.49434 82.41645
#
# Poissons Ratio (x) = -0.16558 0.35894
# Poissons Ratio (y) = -0.11897 -0.11509
# Poissons Ratio (z) = 0.13611 -0.06074
#
# Static dielectric constant tensor:
#      x y z
#    x 2.211290 0.012290 0.036580 
#    y 0.012290 2.019120 0.016790 
#    z 0.036580 0.016790 2.075060 
# 
# From -- ./inp_files/314191.got.cif
#   From: 2010.05.17/outbox.cif.g08.bks.cpg/sg2_158_cif.got.tgz:314191.got - 2010.06.03 11:33:40.
