data_PCOD9078530
_publ_section_title
;
Structure prediction by ZEFSAII (Michael W. Deem and Ramdas Pophale) SiO2 
 PCOD9078530
Probable space group: P -1
;
_chemical_formula_sum "Si O2"
_cell_formula_units_Z 13
_cell_length_a 11.451851
_cell_length_b 22.117447
_cell_length_c 8.968961
_cell_angle_alpha 140.268187
_cell_angle_beta 35.381443
_cell_angle_gamma 152.090868
_cell_volume 605.718395
_symmetry_space_group_name_H-M "P -1"
_symmetry_group_IT_number 2
_symmetry_cell_setting 'triclinic'
loop_
_space_group_symop_operation_xyz
x,y,z
-x,-y,-z
loop_
_atom_site_type_symbol
_atom_site_label
_atom_site_fract_x
_atom_site_fract_y
_atom_site_fract_z
Si Si1 0.688368 0.266408 0.401586
Si Si2 0.276550 0.422809 0.951960
Si Si3 0.074045 0.120025 0.237263
Si Si4 0.500000 0.000000 0.500000
Si Si5 0.434243 0.322689 0.010171
Si Si6 0.170053 0.165348 0.559459
Si Si7 0.164973 0.889593 0.932217
O O1 0.450664 0.214863 0.432697
O O2 0.690412 0.159109 0.251848
O O3 0.620876 0.309172 0.696557
O O4 0.991941 0.377767 0.222827
O O5 0.408895 0.526636 0.877449
O O6 0.216223 0.294030 0.736453
O O7 0.500000 0.500000 0.000000
O O8 0.349056 0.254097 0.129004
O O9 0.100610 0.106555 0.357203
O O10 0.811419 0.102166 0.446922
O O11 0.000000 0.000000 0.000000
O O12 0.356972 0.987432 0.784962
O O13 0.138816 0.233670 0.058901
O O14 0.920146 0.076114 0.771349
#
# Coordination Sequence:
#
# PCOD9078530 Si02
#       7
#     2   2   2   1   2   2   2
#     4  10  18  35  64  90 121 155 193 249 310 368
#     4  11  19  36  65  93 121 154 198 250 306 369
#     4  11  25  44  60  85 124 165 210 255 301 349
#     4  10  22  42  66  82 120 164 202 258 300 348
#     4  10  20  36  61  91 120 159 203 244 302 361
#     4  10  23  38  60  94 124 156 206 247 301 372
#     4   9  19  37  61  91 117 160 207 243 301 360
#
# _framework density 21.462118
#
# number of rings (size 3 to 8) (size 9 to 14) (size 15 to 20)
#    0.000    1.846    4.615    1.385    0.000    3.692 
#    0.000   11.538    0.000    0.000    0.000    0.000 
#    0.000    0.000    0.000    0.000    0.000    0.000 
#
# Total GULP energy -72394.449790 kJ/mol
# GULP energy per Si atom -5568.803830 kJ/mol
# Density = 2.141327 g / cm^3
# Si number density = 21.462118 Si / 1000 Ang^3
#
#
#
# Elastic Constant Matrix: (Units=GPa)
#
#
# Indices 1 2 3 4 5 6 
#
# 1 97.4333 15.2967 65.2155 -9.5780 17.5395 -13.5740
# 2 15.2967 81.8940 60.6969 -23.1174 7.7525 -16.5976
# 3 65.2155 60.6969 137.4053 -25.5817 8.7560 -0.3619
# 4 -9.5780 -23.1174 -25.5817 33.7205 -0.2034 4.5076
# 5 17.5395 7.7525 8.7560 -0.2034 49.5431 -7.0163
# 6 -13.5740 -16.5976 -0.3619 4.5076 -7.0163 29.6058
#
#
#
# Elastic Compliance Matrix: (Units=1/GPa)
#
#
# Indices 1 2 3 4 5 6 
#
# 1 0.020554 0.009407 -0.013559 0.000176 -0.004447 0.013452
# 2 0.009407 0.027643 -0.015016 0.007830 -0.002441 0.017856
# 3 -0.013559 -0.015016 0.020902 0.003673 0.001402 -0.014606
# 4 0.000176 0.007830 0.003673 0.038083 -0.002030 -0.001764
# 5 -0.004447 -0.002441 0.001402 -0.002030 0.022193 0.002178
# 6 0.013452 0.017856 -0.014606 -0.001764 0.002178 0.050562
#
#
# Mechanical properties :
#
#
# Convention : Reuss Voigt Hill
#
# Bulk Modulus (GPa) = 32.50540 66.57229 49.53884
# Shear Modulus (GPa) = 21.87924 34.27543 28.07734
#
# Velocity S-wave (km/s) = 3.19632 4.00061 3.62087
# Velocity P-wave (km/s) = 5.36659 7.24056 6.37283
#
# Compressibility (1/GPa) = 0.03076412
#
# Stress axis : x y z
#
# Youngs Moduli (GPa) = 48.65211 36.17546 47.84185
#
# Poissons Ratio (x) = -0.34032 0.64871
# Poissons Ratio (y) = -0.45769 0.71837
# Poissons Ratio (z) = 0.65970 0.54319
#
# Static dielectric constant tensor:
#      x y z
#    x 1.799940 -0.043110 -0.008360 
#    y -0.043110 1.805110 0.026820 
#    z -0.008360 0.026820 1.779180 
# 
# From -- ./inp_files/87757.got.cif
#   From: 2010.05.17/outbox.cif.g08.bks.cpg/sg2_44_cif.got.tgz:87757.got - 2010.06.03 11:33:40.
