data_PCOD9078763
_publ_section_title
;
Structure prediction by ZEFSAII (Michael W. Deem and Ramdas Pophale) SiO2 
 PCOD9078763
Probable space group: P -1
;
_chemical_formula_sum "Si O2"
_cell_formula_units_Z 15
_cell_length_a 7.480337
_cell_length_b 13.344404
_cell_length_c 14.304563
_cell_angle_alpha 32.450696
_cell_angle_beta 96.321328
_cell_angle_gamma 116.932889
_cell_volume 561.791048
_symmetry_space_group_name_H-M "P -1"
_symmetry_group_IT_number 2
_symmetry_cell_setting 'triclinic'
loop_
_space_group_symop_operation_xyz
x,y,z
-x,-y,-z
loop_
_atom_site_type_symbol
_atom_site_label
_atom_site_fract_x
_atom_site_fract_y
_atom_site_fract_z
Si Si1 0.000000 0.500000 0.000000
Si Si2 0.132434 0.935867 0.777805
Si Si3 0.630660 0.542917 0.150034
Si Si4 0.185962 0.687660 0.544878
Si Si5 0.456196 0.853490 0.233699
Si Si6 0.166172 0.004671 0.079428
Si Si7 0.766069 0.602734 0.529857
Si Si8 0.528213 0.835229 0.695444
O O1 0.131870 0.794762 0.803443
O O2 0.267873 0.607849 0.904108
O O3 0.278168 0.937676 0.869922
O O4 0.263562 0.228043 0.546823
O O5 0.854953 0.770483 0.920374
O O6 0.738272 0.434887 0.292558
O O7 0.420777 0.308277 0.256015
O O8 0.626451 0.711861 0.088691
O O9 0.288711 0.715549 0.426347
O O10 0.902662 0.537637 0.646822
O O11 0.297947 0.960151 0.376359
O O12 0.317835 0.928375 0.117055
O O13 0.448511 0.654834 0.332673
O O14 0.966148 0.797889 0.307574
O O15 0.000000 0.000000 0.000000
O O16 0.500000 0.000000 0.500000
#
# Coordination Sequence:
#
# PCOD9078763 Si02
#       8
#     1   2   2   2   2   2   2   2
#     4  10  18  38  58  84 120 152 192 254 282 348
#     4  10  21  37  55  82 115 150 189 234 300 337
#     4   9  19  35  55  80 116 147 186 242 281 349
#     4  10  18  36  58  82 110 152 195 231 290 345
#     4  11  20  35  58  84 112 149 193 235 289 349
#     4  10  19  35  55  83 112 148 188 239 288 339
#     4  10  21  35  55  84 113 150 192 239 281 357
#     4   9  18  33  60  85 115 155 199 237 299 351
#
# _framework density 26.700317999999999
#
# number of rings (size 3 to 8) (size 9 to 14) (size 15 to 20)
#    0.000    2.133    1.333    3.600    0.000    0.000 
#    2.400   11.333    0.000    2.400    0.000    0.000 
#    0.000    0.000    0.000    0.000    0.000    0.000 
#
# Total GULP energy -83564.983859 kJ/mol
# GULP energy per Si atom -5570.998924 kJ/mol
# Density = 2.663955 g / cm^3
# Si number density = 26.700318 Si / 1000 Ang^3
#
#
#
# Elastic Constant Matrix: (Units=GPa)
#
#
# Indices 1 2 3 4 5 6 
#
# 1 85.5021 22.8014 24.6621 -14.9396 38.0834 -8.4107
# 2 22.8014 69.6701 39.9633 -42.1619 30.8051 -28.6966
# 3 24.6621 39.9633 121.1078 -27.6058 28.8530 -11.9054
# 4 -14.9396 -42.1619 -27.6058 58.2857 -6.3204 24.9760
# 5 38.0834 30.8051 28.8530 -6.3204 48.6960 -10.5743
# 6 -8.4107 -28.6966 -11.9054 24.9760 -10.5743 35.6322
#
#
#
# Elastic Compliance Matrix: (Units=1/GPa)
#
#
# Indices 1 2 3 4 5 6 
#
# 1 0.019504 0.005744 0.000145 0.007990 -0.018318 -0.001759
# 2 0.005744 0.045900 -0.003261 0.025238 -0.025735 0.011904
# 3 0.000145 -0.003261 0.010958 0.003570 -0.004694 -0.002826
# 4 0.007990 0.025238 0.003570 0.042204 -0.021585 -0.012583
# 5 -0.018318 -0.025735 -0.004694 -0.021585 0.051976 0.003936
# 6 -0.001759 0.011904 -0.002826 -0.012583 0.003936 0.046280
#
#
# Mechanical properties :
#
#
# Convention : Reuss Voigt Hill
#
# Bulk Modulus (GPa) = 12.25235 50.12593 31.18914
# Shear Modulus (GPa) = 20.94058 41.11298 31.02678
#
# Velocity S-wave (km/s) = 2.80354 3.92828 3.41257
# Velocity P-wave (km/s) = 3.88312 6.27610 5.21862
#
# Compressibility (1/GPa) = 0.08161698
#
# Stress axis : x y z
#
# Youngs Moduli (GPa) = 51.27147 21.78672 91.25851
#
# Poissons Ratio (x) = -0.12514 -0.01327
# Poissons Ratio (y) = -0.29449 0.29763
# Poissons Ratio (z) = -0.00746 0.07106
#
# Static dielectric constant tensor:
#      x y z
#    x 2.048040 0.009540 -0.014190 
#    y 0.009540 2.195660 0.022050 
#    z -0.014190 0.022050 2.108070 
# 
# From -- ./inp_files/200129.got.cif
#   From: 2010.05.17/outbox.cif.g08.bks.cpg/sg2_101_cif.got.tgz:200129.got - 2010.06.03 11:33:40.
