data_PCOD9078917
_publ_section_title
;
Structure prediction by ZEFSAII (Michael W. Deem and Ramdas Pophale) SiO2 
 PCOD9078917
Probable space group: P -1
;
_chemical_formula_sum "Si O2"
_cell_formula_units_Z 15
_cell_length_a 17.225523
_cell_length_b 6.207268
_cell_length_c 9.019725
_cell_angle_alpha 130.441431
_cell_angle_beta 106.934394
_cell_angle_gamma 76.949088
_cell_volume 701.262828
_symmetry_space_group_name_H-M "P -1"
_symmetry_group_IT_number 2
_symmetry_cell_setting 'triclinic'
loop_
_space_group_symop_operation_xyz
x,y,z
-x,-y,-z
loop_
_atom_site_type_symbol
_atom_site_label
_atom_site_fract_x
_atom_site_fract_y
_atom_site_fract_z
Si Si1 0.000000 0.500000 0.500000
Si Si2 0.381124 0.685294 0.067227
Si Si3 0.915053 0.528235 0.767976
Si Si4 0.344362 0.693143 0.712441
Si Si5 0.065557 0.124101 0.782830
Si Si6 0.449378 0.068713 0.778095
Si Si7 0.200058 0.958641 0.569043
Si Si8 0.679188 0.925769 0.554007
O O1 0.948539 0.635023 0.678059
O O2 0.955152 0.202105 0.366071
O O3 0.458369 0.882465 0.189272
O O4 0.323309 0.814883 0.218887
O O5 0.340734 0.688863 0.885159
O O6 0.415348 0.363514 0.965679
O O7 0.837324 0.340571 0.623007
O O8 0.986068 0.310106 0.773391
O O9 0.902976 0.765827 0.993655
O O10 0.273929 0.896481 0.695496
O O11 0.333189 0.374421 0.510253
O O12 0.429450 0.811203 0.758962
O O13 0.130581 0.149866 0.697277
O O14 0.396003 0.029149 0.582692
O O15 0.238884 0.090381 0.504311
#
# Coordination Sequence:
#
# PCOD9078917 Si02
#       8
#     1   2   2   2   2   2   2   2
#     4  10  18  36  60  88 114 134 178 234 276 326
#     4  10  20  37  60  83 112 150 192 235 282 336
#     4  10  22  39  61  85 110 149 191 232 281 335
#     4  10  22  36  54  84 115 148 190 232 284 338
#     4  10  22  40  62  85 112 149 190 231 281 337
#     4   9  20  38  58  83 114 148 190 240 283 330
#     4  10  22  38  55  81 120 150 182 235 284 335
#     4  10  22  37  56  84 114 151 191 231 282 336
#
# _framework density 21.389983000000001
#
# number of rings (size 3 to 8) (size 9 to 14) (size 15 to 20)
#    0.000    2.133    0.000    2.800    0.000   11.200 
#    0.000    2.667    0.000    0.000    0.000    0.000 
#    0.000    0.000    0.000    0.000    0.000    0.000 
#
# Total GULP energy -83563.547164 kJ/mol
# GULP energy per Si atom -5570.903144 kJ/mol
# Density = 2.134130 g / cm^3
# Si number density = 21.389983 Si / 1000 Ang^3
#
#
#
# Elastic Constant Matrix: (Units=GPa)
#
#
# Indices 1 2 3 4 5 6 
#
# 1 64.6629 18.1234 21.2343 2.8979 -4.4968 21.6684
# 2 18.1234 42.9621 4.6719 10.4610 -7.4514 20.4432
# 3 21.2343 4.6719 74.2386 -2.7478 -21.0077 7.9508
# 4 2.8979 10.4610 -2.7478 17.6980 -1.2539 5.1129
# 5 -4.4968 -7.4514 -21.0077 -1.2539 34.5622 -3.6973
# 6 21.6684 20.4432 7.9508 5.1129 -3.6973 32.7490
#
#
#
# Elastic Compliance Matrix: (Units=1/GPa)
#
#
# Indices 1 2 3 4 5 6 
#
# 1 0.021892 -0.004047 -0.005498 0.000971 -0.002514 -0.011059
# 2 -0.004047 0.038702 0.001949 -0.016047 0.006417 -0.018725
# 3 -0.005498 0.001949 0.018260 0.003746 0.010792 -0.001379
# 4 0.000971 -0.016047 0.003746 0.067034 0.001176 -0.001868
# 5 -0.002514 0.006417 0.010792 0.001176 0.036482 -0.001027
# 6 -0.011059 -0.018725 -0.001379 -0.001868 -0.001027 0.050052
#
#
# Mechanical properties :
#
#
# Convention : Reuss Voigt Hill
#
# Bulk Modulus (GPa) = 15.70779 29.99140 22.84960
# Shear Modulus (GPa) = 18.59875 26.19078 22.39476
#
# Velocity S-wave (km/s) = 2.95194 3.50300 3.23921
# Velocity P-wave (km/s) = 4.35638 5.51480 4.96946
#
# Compressibility (1/GPa) = 0.06366267
#
# Stress axis : x y z
#
# Youngs Moduli (GPa) = 45.67837 25.83841 54.76359
#
# Poissons Ratio (x) = 0.10457 0.30110
# Poissons Ratio (y) = 0.18487 -0.10676
# Poissons Ratio (z) = 0.25115 -0.05037
#
# Static dielectric constant tensor:
#      x y z
#    x 1.783170 0.006840 0.002420 
#    y 0.006840 1.759130 -0.017740 
#    z 0.002420 -0.017740 1.778190 
# 
# From -- ./inp_files/44474.got.cif
#   From: 2010.05.17/outbox.cif.g08.bks.cpg/sg2_23_cif.got.tgz:44474.got - 2010.06.03 11:33:40.
