data_PCOD9078954
_publ_section_title
;
Structure prediction by ZEFSAII (Michael W. Deem and Ramdas Pophale) SiO2 
 PCOD9078954
Probable space group: P -1
;
_chemical_formula_sum "Si O2"
_cell_formula_units_Z 16
_cell_length_a 20.335193
_cell_length_b 10.083149
_cell_length_c 8.966799
_cell_angle_alpha 45.070732
_cell_angle_beta 58.586352
_cell_angle_gamma 37.380492
_cell_volume 786.828289
_symmetry_space_group_name_H-M "P -1"
_symmetry_group_IT_number 2
_symmetry_cell_setting 'triclinic'
loop_
_space_group_symop_operation_xyz
x,y,z
-x,-y,-z
loop_
_atom_site_type_symbol
_atom_site_label
_atom_site_fract_x
_atom_site_fract_y
_atom_site_fract_z
Si Si1 0.761827 0.082081 0.865239
Si Si2 0.162305 0.392335 0.022948
Si Si3 0.488091 0.220416 0.706993
Si Si4 0.094040 0.266081 0.467526
Si Si5 0.672781 0.656530 0.004044
Si Si6 0.514942 0.456252 0.763647
Si Si7 0.107645 0.883086 0.549625
Si Si8 0.733063 0.192902 0.149674
O O1 0.632578 0.259255 0.858611
O O2 0.808752 0.161341 0.633098
O O3 0.822547 0.787450 0.979058
O O4 0.780175 0.094598 0.006674
O O5 0.091335 0.420610 0.212808
O O6 0.271879 0.243793 0.104274
O O7 0.140688 0.634383 0.791477
O O8 0.365556 0.377261 0.771554
O O9 0.520887 0.303117 0.738017
O O10 0.497041 0.316881 0.469726
O O11 0.559681 0.910995 0.859768
O O12 0.000000 0.500000 0.500000
O O13 0.081717 0.087839 0.539841
O O14 0.203337 0.046821 0.614872
O O15 0.741407 0.392866 0.038469
O O16 0.398288 0.615396 0.851071
O O17 0.000000 0.000000 0.500000
#
# Coordination Sequence:
#
# PCOD9078954 Si02
#       8
#     2   2   2   2   2   2   2   2
#     4  11  25  43  67  99 142 173 217 274 334 394
#     4  11  23  44  71  92 130 173 224 264 334 393
#     4   9  18  30  63  91 127 172 225 259 315 387
#     4  11  27  45  71  99 130 172 226 279 331 389
#     4  10  18  36  60  95 125 172 220 267 312 392
#     4  10  19  37  63  93 135 177 216 266 328 395
#     4  11  27  47  70  98 130 176 226 274 331 396
#     4  11  24  41  64 100 141 170 219 277 330 391
#
# _framework density 20.334806
#
# number of rings (size 3 to 8) (size 9 to 14) (size 15 to 20)
#    0.000    1.500    2.500    1.875   10.500    2.500 
#    2.250    0.625    0.000    0.000    0.000    0.000 
#    0.000    0.000    0.000    0.000    0.000    0.000 
#
# Total GULP energy -89104.231411 kJ/mol
# GULP energy per Si atom -5569.014463 kJ/mol
# Density = 2.028852 g / cm^3
# Si number density = 20.334806 Si / 1000 Ang^3
#
#
#
# Elastic Constant Matrix: (Units=GPa)
#
#
# Indices 1 2 3 4 5 6 
#
# 1 65.4166 34.5251 22.1021 6.4024 0.0057 -3.4237
# 2 34.5251 124.1801 58.9996 13.0871 -1.6533 14.2480
# 3 22.1021 58.9996 110.0659 -8.0932 -13.1705 16.6826
# 4 6.4024 13.0871 -8.0932 22.4731 4.7472 7.3928
# 5 0.0057 -1.6533 -13.1705 4.7472 25.6005 -3.4729
# 6 -3.4237 14.2480 16.6826 7.3928 -3.4729 25.2218
#
#
#
# Elastic Compliance Matrix: (Units=1/GPa)
#
#
# Indices 1 2 3 4 5 6 
#
# 1 0.020062 -0.003971 -0.003968 -0.008283 0.000604 0.010102
# 2 -0.003971 0.013550 -0.007086 -0.008653 -0.001321 -0.001152
# 3 -0.003968 -0.007086 0.016934 0.014226 0.004078 -0.011345
# 4 -0.008283 -0.008653 0.014226 0.067845 -0.009459 -0.026834
# 5 0.000604 -0.001321 0.004078 -0.009459 0.043769 0.006930
# 6 0.010102 -0.001152 -0.011345 -0.026834 0.006930 0.057994
#
#
# Mechanical properties :
#
#
# Convention : Reuss Voigt Hill
#
# Bulk Modulus (GPa) = 48.78686 58.99068 53.88877
# Shear Modulus (GPa) = 19.45261 26.92813 23.19037
#
# Velocity S-wave (km/s) = 3.09628 3.64296 3.38068
# Velocity P-wave (km/s) = 6.06848 6.83868 6.46506
#
# Compressibility (1/GPa) = 0.02049732
#
# Stress axis : x y z
#
# Youngs Moduli (GPa) = 49.84475 73.80246 59.05271
#
# Poissons Ratio (x) = 0.29303 0.23434
# Poissons Ratio (y) = 0.19791 0.41842
# Poissons Ratio (z) = 0.19780 0.52293
#
# Static dielectric constant tensor:
#      x y z
#    x 1.824890 -0.077840 0.021290 
#    y -0.077840 1.735880 -0.002830 
#    z 0.021290 -0.002830 1.756510 
# 
# From -- ./inp_files/343317.got.cif
#   From: 2010.05.17/outbox.cif.g08.bks.cpg/sg2_172_cif.got.tgz:343317.got - 2010.06.03 11:33:40.
