data_PCOD9078722
_publ_section_title
;
Structure prediction by ZEFSAII (Michael W. Deem and Ramdas Pophale) SiO2 
 PCOD9078722
Probable space group: P -1
;
_chemical_formula_sum "Si O2"
_cell_formula_units_Z 12
_cell_length_a 12.834619
_cell_length_b 10.097919
_cell_length_c 14.662098
_cell_angle_alpha 151.542761
_cell_angle_beta 139.711707
_cell_angle_gamma 35.612590
_cell_volume 519.291094
_symmetry_space_group_name_H-M "P -1"
_symmetry_group_IT_number 2
_symmetry_cell_setting 'triclinic'
loop_
_space_group_symop_operation_xyz
x,y,z
-x,-y,-z
loop_
_atom_site_type_symbol
_atom_site_label
_atom_site_fract_x
_atom_site_fract_y
_atom_site_fract_z
Si Si1 0.077179 0.129692 0.353458
Si Si2 0.306637 0.608345 0.676467
Si Si3 0.834667 0.855881 0.768624
Si Si4 0.778387 0.731698 0.297232
Si Si5 0.568445 0.195346 0.298273
Si Si6 0.581195 0.218766 0.975528
O O1 0.150417 0.971927 0.209459
O O2 0.221150 0.069098 0.492818
O O3 0.000000 0.500000 0.500000
O O4 0.899308 0.128125 0.275858
O O5 0.285350 0.317695 0.444723
O O6 0.397243 0.725671 0.731717
O O7 0.407978 0.540838 0.800014
O O8 0.748846 0.056725 0.921935
O O9 0.033346 0.580550 0.760241
O O10 0.752395 0.933717 0.310936
O O11 0.602115 0.674936 0.141034
O O12 0.500000 0.500000 0.500000
O O13 0.430242 0.049290 0.130421
#
# Coordination Sequence:
#
# PCOD9078722 Si02
#       6
#     2   2   2   2   2   2
#     4   8  18  35  57  79 109 147 178 223 273 320
#     4  10  18  36  57  78 113 146 175 231 271 313
#     4  10  20  40  57  79 114 145 181 223 275 322
#     4   8  19  35  55  83 109 143 184 222 270 324
#     4  10  19  36  57  82 110 146 181 223 275 325
#     4  10  21  35  57  84 107 146 183 224 271 323
#
# _framework density 23.108426000000001
#
# number of rings (size 3 to 8) (size 9 to 14) (size 15 to 20)
#    1.000    2.000    1.667    0.500    0.000    4.000 
#    0.000   15.000    0.000    0.000    0.000    0.000 
#    0.000    0.000    0.000    0.000    0.000    0.000 
#
# Total GULP energy -66979.137940 kJ/mol
# GULP energy per Si atom -5581.594828 kJ/mol
# Density = 2.305583 g / cm^3
# Si number density = 23.108426 Si / 1000 Ang^3
#
#
#
# Elastic Constant Matrix: (Units=GPa)
#
#
# Indices 1 2 3 4 5 6 
#
# 1 136.2236 23.6083 36.4176 3.9161 -36.8494 0.1949
# 2 23.6083 77.8854 29.7881 -14.0838 -17.0027 -9.6298
# 3 36.4176 29.7881 102.3322 -21.8106 -19.0487 2.3529
# 4 3.9161 -14.0838 -21.8106 30.3772 5.7593 -1.6381
# 5 -36.8494 -17.0027 -19.0487 5.7593 43.1093 -8.9580
# 6 0.1949 -9.6298 2.3529 -1.6381 -8.9580 27.5197
#
#
#
# Elastic Compliance Matrix: (Units=1/GPa)
#
#
# Indices 1 2 3 4 5 6 
#
# 1 0.010902 -0.000865 -0.003256 -0.005683 0.008802 0.002425
# 2 -0.000865 0.017535 -0.002667 0.005648 0.006046 0.008674
# 3 -0.003256 -0.002667 0.013772 0.008850 0.000797 -0.001301
# 4 -0.005683 0.005648 0.008850 0.043522 -0.004004 0.002547
# 5 0.008802 0.006046 0.000797 -0.004004 0.036848 0.013741
# 6 0.002425 0.008674 -0.001301 0.002547 0.013741 0.044092
#
#
# Mechanical properties :
#
#
# Convention : Reuss Voigt Hill
#
# Bulk Modulus (GPa) = 34.92524 55.11882 45.02203
# Shear Modulus (GPa) = 26.34461 35.30972 30.82717
#
# Velocity S-wave (km/s) = 3.38012 3.91321 3.65639
# Velocity P-wave (km/s) = 5.51181 6.65745 6.11153
#
# Compressibility (1/GPa) = 0.02863259
#
# Stress axis : x y z
#
# Youngs Moduli (GPa) = 91.72316 57.02782 72.61191
#
# Poissons Ratio (x) = 0.04935 0.23646
# Poissons Ratio (y) = 0.07938 0.19362
# Poissons Ratio (z) = 0.29870 0.15207
#
# Static dielectric constant tensor:
#      x y z
#    x 1.898980 -0.001200 0.011180 
#    y -0.001200 1.899860 -0.005810 
#    z 0.011180 -0.005810 1.922150 
# 
# From -- ./inp_files/326468.got.cif
#   From: 2010.05.17/outbox.cif.g08.bks.cpg/sg2_164_cif.got.tgz:326468.got - 2010.06.03 11:33:40.
