data_PCOD9078701
_publ_section_title
;
Structure prediction by ZEFSAII (Michael W. Deem and Ramdas Pophale) SiO2 
 PCOD9078701
Probable space group: P -1
;
_chemical_formula_sum "Si O2"
_cell_formula_units_Z 16
_cell_length_a 29.911537
_cell_length_b 9.514020
_cell_length_c 16.235726
_cell_angle_alpha 41.017999
_cell_angle_beta 18.075138
_cell_angle_gamma 32.578604
_cell_volume 741.301031
_symmetry_space_group_name_H-M "P -1"
_symmetry_group_IT_number 2
_symmetry_cell_setting 'triclinic'
loop_
_space_group_symop_operation_xyz
x,y,z
-x,-y,-z
loop_
_atom_site_type_symbol
_atom_site_label
_atom_site_fract_x
_atom_site_fract_y
_atom_site_fract_z
Si Si1 0.766164 0.849686 0.328370
Si Si2 0.122064 0.668907 0.714745
Si Si3 0.586027 0.275587 0.875651
Si Si4 0.785151 0.639263 0.828951
Si Si5 0.347303 0.325189 0.127946
Si Si6 0.849091 0.842691 0.365118
Si Si7 0.766935 0.390789 0.284686
Si Si8 0.416389 0.361653 0.668774
O O1 0.860455 0.534025 0.292642
O O2 0.734041 0.926566 0.445806
O O3 0.572692 0.040113 0.540895
O O4 0.913753 0.878194 0.017948
O O5 0.225141 0.779927 0.453585
O O6 0.233265 0.492050 0.679862
O O7 0.656767 0.971244 0.907354
O O8 0.500000 0.500000 0.000000
O O9 0.438732 0.399385 0.002695
O O10 0.711423 0.568480 0.909980
O O11 0.000000 0.500000 0.500000
O O12 0.747461 0.559135 0.018094
O O13 0.176707 0.348910 0.454266
O O14 0.500000 0.000000 0.000000
O O15 0.783921 0.123399 0.395539
O O16 0.050326 0.702936 0.041240
O O17 0.621000 0.560744 0.395359
O O18 0.500000 0.500000 0.500000
#
# Coordination Sequence:
#
# PCOD9078701 Si02
#       8
#     2   2   2   2   2   2   2   2
#     4  10  21  39  60  89 119 154 196 249 298 356
#     4  10  22  39  62  87 116 155 204 243 297 352
#     4  11  23  40  65  88 123 159 206 250 304 362
#     4  11  25  41  62  92 127 161 201 253 307 361
#     4  10  20  35  61  83 119 157 205 246 293 363
#     4  10  18  36  56  84 113 148 201 239 296 340
#     4  10  21  33  59  84 112 153 193 249 286 356
#     4  12  24  36  61  87 124 155 198 242 305 345
#
# _framework density 21.583674999999999
#
# number of rings (size 3 to 8) (size 9 to 14) (size 15 to 20)
#    0.000    1.500    1.250    5.250    3.500    0.500 
#    0.000    0.625    0.000    0.000    0.000    0.000 
#    0.000    0.000    0.000    0.000    0.000    0.000 
#
# Total GULP energy -89234.298797 kJ/mol
# GULP energy per Si atom -5577.143675 kJ/mol
# Density = 2.153455 g / cm^3
# Si number density = 21.583675 Si / 1000 Ang^3
#
#
#
# Elastic Constant Matrix: (Units=GPa)
#
#
# Indices 1 2 3 4 5 6 
#
# 1 74.2850 6.0301 3.8009 5.1854 -8.2735 24.7184
# 2 6.0301 33.3080 12.0496 -3.2617 4.8187 13.4364
# 3 3.8009 12.0496 99.8733 -19.6024 7.6029 7.3017
# 4 5.1854 -3.2617 -19.6024 31.1622 -1.6773 -0.3738
# 5 -8.2735 4.8187 7.6029 -1.6773 32.4496 2.6949
# 6 24.7184 13.4364 7.3017 -0.3738 2.6949 27.0504
#
#
#
# Elastic Compliance Matrix: (Units=1/GPa)
#
#
# Indices 1 2 3 4 5 6 
#
# 1 0.021577 0.004046 -0.000917 -0.003646 0.006771 -0.022204
# 2 0.004046 0.039857 -0.002894 0.001286 -0.002276 -0.022469
# 3 -0.000917 -0.002894 0.012045 0.007300 -0.002194 -0.000656
# 4 -0.003646 0.001286 0.007300 0.037385 -0.001010 0.001339
# 5 0.006771 -0.002276 -0.002194 -0.001010 0.033997 -0.007865
# 6 -0.022204 -0.022469 -0.000656 0.001339 -0.007865 0.069398
#
#
# Mechanical properties :
#
#
# Convention : Reuss Voigt Hill
#
# Bulk Modulus (GPa) = 13.52305 27.91415 20.71860
# Shear Modulus (GPa) = 20.96981 30.50483 25.73732
#
# Velocity S-wave (km/s) = 3.12037 3.76350 3.45692
# Velocity P-wave (km/s) = 4.38876 5.64326 5.05508
#
# Compressibility (1/GPa) = 0.07394780
#
# Stress axis : x y z
#
# Youngs Moduli (GPa) = 46.34508 25.08998 83.02458
#
# Poissons Ratio (x) = -0.10151 0.07613
# Poissons Ratio (y) = -0.18751 0.24030
# Poissons Ratio (z) = 0.04250 0.07262
#
# Static dielectric constant tensor:
#      x y z
#    x 1.846530 -0.023240 -0.014490 
#    y -0.023240 1.799270 -0.010150 
#    z -0.014490 -0.010150 1.909650 
# 
# From -- ./inp_files/299050.got.cif
#   From: 2010.05.17/outbox.cif.g08.bks.cpg/sg2_150_cif.got.tgz:299050.got - 2010.06.03 11:33:40.
