data_PCOD9078793
_publ_section_title
;
Structure prediction by ZEFSAII (Michael W. Deem and Ramdas Pophale) SiO2 
 PCOD9078793
Probable space group: P -1
;
_chemical_formula_sum "Si O2"
_cell_formula_units_Z 16
_cell_length_a 9.396136
_cell_length_b 11.233666
_cell_length_c 9.405657
_cell_angle_alpha 122.416069
_cell_angle_beta 98.041540
_cell_angle_gamma 62.140844
_cell_volume 732.777073
_symmetry_space_group_name_H-M "P -1"
_symmetry_group_IT_number 2
_symmetry_cell_setting 'triclinic'
loop_
_space_group_symop_operation_xyz
x,y,z
-x,-y,-z
loop_
_atom_site_type_symbol
_atom_site_label
_atom_site_fract_x
_atom_site_fract_y
_atom_site_fract_z
Si Si1 0.457719 0.516759 0.336459
Si Si2 0.450498 0.824935 0.892039
Si Si3 0.148303 0.570115 0.156949
Si Si4 0.920686 0.430114 0.145591
Si Si5 0.222084 0.177455 0.115296
Si Si6 0.903992 0.898712 0.426405
Si Si7 0.796387 0.729621 0.516482
Si Si8 0.444643 0.844178 0.558841
O O1 0.500000 0.500000 0.500000
O O2 0.557947 0.336608 0.174512
O O3 0.276620 0.559589 0.285871
O O4 0.471856 0.672636 0.395285
O O5 0.629694 0.810126 0.940549
O O6 0.437201 0.841068 0.728230
O O7 0.309813 0.988317 0.039106
O O8 0.063609 0.466552 0.129121
O O9 0.001847 0.749152 0.242753
O O10 0.205310 0.531185 0.976741
O O11 0.843960 0.558563 0.342800
O O12 0.036184 0.245170 0.080317
O O13 0.192451 0.281358 0.320284
O O14 0.898326 0.810591 0.514922
O O15 0.721938 0.013651 0.425967
O O16 0.000000 0.000000 0.500000
O O17 0.606871 0.849499 0.539769
#
# Coordination Sequence:
#
# PCOD9078793 Si02
#       8
#     2   2   2   2   2   2   2   2
#     4  10  19  36  59  88 119 155 204 249 291 359
#     4   9  19  33  60  89 118 161 204 248 293 364
#     4  10  20  36  59  92 115 158 211 246 296 358
#     4  10  20  36  60  87 124 158 200 255 301 360
#     4  10  18  36  58  88 125 159 204 252 303 354
#     4  11  21  38  62  88 119 156 201 256 302 367
#     4  10  23  38  58  92 121 161 203 250 309 365
#     4  10  20  38  60  88 120 161 201 248 305 356
#
# _framework density 21.834744000000001
#
# number of rings (size 3 to 8) (size 9 to 14) (size 15 to 20)
#    0.000    2.000    2.500    1.500    0.000    0.000 
#    4.500    1.875    0.000    2.250    0.000    0.000 
#    0.000    0.000    0.000    0.000    0.000    0.000 
#
# Total GULP energy -89094.050186 kJ/mol
# GULP energy per Si atom -5568.378137 kJ/mol
# Density = 2.178505 g / cm^3
# Si number density = 21.834744 Si / 1000 Ang^3
#
#
#
# Elastic Constant Matrix: (Units=GPa)
#
#
# Indices 1 2 3 4 5 6 
#
# 1 45.6921 7.0263 13.0295 -8.9245 7.3436 -15.1827
# 2 7.0263 77.8713 21.9730 18.6888 -2.3393 -25.9323
# 3 13.0295 21.9730 78.1280 10.8992 -7.3356 -12.9121
# 4 -8.9245 18.6888 10.8992 35.0087 -4.7398 7.2532
# 5 7.3436 -2.3393 -7.3356 -4.7398 25.5827 3.9788
# 6 -15.1827 -25.9323 -12.9121 7.2532 3.9788 38.3643
#
#
#
# Elastic Compliance Matrix: (Units=1/GPa)
#
#
# Indices 1 2 3 4 5 6 
#
# 1 0.029410 0.000783 -0.005064 0.005031 -0.010540 0.010606
# 2 0.000783 0.023405 -0.001702 -0.016346 -0.004575 0.019123
# 3 -0.005064 -0.001702 0.015706 -0.005225 0.004420 0.002661
# 4 0.005031 -0.016346 -0.005225 0.045329 0.007090 -0.020122
# 5 -0.010540 -0.004575 0.004420 0.007090 0.046128 -0.011901
# 6 0.010606 0.019123 0.002661 -0.020122 -0.011901 0.049123
#
#
# Mechanical properties :
#
#
# Convention : Reuss Voigt Hill
#
# Bulk Modulus (GPa) = 17.68159 31.74990 24.71575
# Shear Modulus (GPa) = 20.84038 30.43529 25.63783
#
# Velocity S-wave (km/s) = 3.09278 3.73754 3.43034
# Velocity P-wave (km/s) = 4.56829 5.76178 5.19939
#
# Compressibility (1/GPa) = 0.05655600
#
# Stress axis : x y z
#
# Youngs Moduli (GPa) = 34.00200 42.72600 63.66834
#
# Poissons Ratio (x) = -0.03345 0.32240
# Poissons Ratio (y) = -0.02662 0.10836
# Poissons Ratio (z) = 0.17217 0.07272
#
# Static dielectric constant tensor:
#      x y z
#    x 1.802360 -0.028690 0.030400 
#    y -0.028690 2.250190 -0.007250 
#    z 0.030400 -0.007250 1.830660 
# 
# From -- ./inp_files/190178.got.cif
#   From: 2010.05.17/outbox.cif.g08.bks.cpg/sg2_96_cif.got.tgz:190178.got - 2010.06.03 11:33:40.
