data_PCOD9078745
_publ_section_title
;
Structure prediction by ZEFSAII (Michael W. Deem and Ramdas Pophale) SiO2 
 PCOD9078745
Probable space group: P -1
;
_chemical_formula_sum "Si O2"
_cell_formula_units_Z 14
_cell_length_a 10.801260
_cell_length_b 9.888406
_cell_length_c 8.501983
_cell_angle_alpha 60.284561
_cell_angle_beta 108.113913
_cell_angle_gamma 69.358341
_cell_volume 591.779682
_symmetry_space_group_name_H-M "P -1"
_symmetry_group_IT_number 2
_symmetry_cell_setting 'triclinic'
loop_
_space_group_symop_operation_xyz
x,y,z
-x,-y,-z
loop_
_atom_site_type_symbol
_atom_site_label
_atom_site_fract_x
_atom_site_fract_y
_atom_site_fract_z
Si Si1 0.423733 0.465594 0.840431
Si Si2 0.343455 0.181387 0.937609
Si Si3 0.996965 0.846087 0.692607
Si Si4 0.274543 0.826718 0.386546
Si Si5 0.168786 0.211351 0.584762
Si Si6 0.514042 0.887841 0.417439
Si Si7 0.242889 0.824012 0.013667
O O1 0.376690 0.323928 0.943127
O O2 0.278445 0.665558 0.583230
O O3 0.500000 0.500000 0.000000
O O4 0.563676 0.339569 0.837316
O O5 0.182265 0.303054 0.695723
O O6 0.500000 0.000000 0.000000
O O7 0.353978 0.050329 0.154973
O O8 0.836623 0.977847 0.664112
O O9 0.974464 0.719132 0.637076
O O10 0.000000 0.000000 0.500000
O O11 0.150072 0.754420 0.923301
O O12 0.465730 0.745416 0.510679
O O13 0.207149 0.852004 0.169252
O O14 0.317417 0.182182 0.558763
O O15 0.205306 0.013332 0.793971
O O16 0.500000 0.000000 0.500000
#
# Coordination Sequence:
#
# PCOD9078745 Si02
#       7
#     2   2   2   2   2   2   2
#     4  12  23  39  63  95 130 159 204 260 323 357
#     4  10  19  36  60  86 125 162 198 257 304 366
#     4  10  22  38  61  89 126 167 206 252 306 382
#     4  12  23  37  63  99 120 158 213 265 308 357
#     4  10  18  36  57  88 119 159 209 244 307 351
#     4  11  18  32  59  88 121 147 210 257 295 355
#     4  11  21  39  61  89 128 166 206 251 306 385
#
# _framework density 23.657454000000001
#
# number of rings (size 3 to 8) (size 9 to 14) (size 15 to 20)
#    0.000    1.143    5.714    4.286    0.000    0.000 
#    0.000    0.000    0.000   11.143    7.429    0.000 
#    0.000    0.000    0.000    0.000    0.000    0.000 
#
# Total GULP energy -78010.321665 kJ/mol
# GULP energy per Si atom -5572.165833 kJ/mol
# Density = 2.360361 g / cm^3
# Si number density = 23.657454 Si / 1000 Ang^3
#
#
#
# Elastic Constant Matrix: (Units=GPa)
#
#
# Indices 1 2 3 4 5 6 
#
# 1 71.6771 4.4631 9.9517 7.9945 -1.4595 8.6392
# 2 4.4631 71.7224 6.9687 26.1506 6.2113 18.7916
# 3 9.9517 6.9687 35.1097 19.6018 0.2045 -8.0295
# 4 7.9945 26.1506 19.6018 48.3018 8.3958 2.8648
# 5 -1.4595 6.2113 0.2045 8.3958 32.5861 11.2186
# 6 8.6392 18.7916 -8.0295 2.8648 11.2186 40.0819
#
#
#
# Elastic Compliance Matrix: (Units=1/GPa)
#
#
# Indices 1 2 3 4 5 6 
#
# 1 0.015479 0.001245 -0.005245 -0.001252 0.002758 -0.005653
# 2 0.001245 0.020179 -0.000622 -0.010705 0.002324 -0.009739
# 3 -0.005245 -0.000622 0.041749 -0.016400 0.000083 0.010935
# 4 -0.001252 -0.010705 -0.016400 0.034547 -0.007363 0.001595
# 5 0.002758 0.002324 0.000083 -0.007363 0.036140 -0.011257
# 6 -0.005653 -0.009739 0.010935 0.001595 -0.011257 0.035961
#
#
# Mechanical properties :
#
#
# Convention : Reuss Voigt Hill
#
# Bulk Modulus (GPa) = 14.67073 24.58623 19.62848
# Shear Modulus (GPa) = 23.14601 34.66903 28.90752
#
# Velocity S-wave (km/s) = 3.13130 3.83228 3.49939
# Velocity P-wave (km/s) = 4.39183 5.47695 4.96413
#
# Compressibility (1/GPa) = 0.06816296
#
# Stress axis : x y z
#
# Youngs Moduli (GPa) = 64.60260 49.55618 23.95270
#
# Poissons Ratio (x) = -0.06170 0.12563
# Poissons Ratio (y) = -0.08043 0.01491
# Poissons Ratio (z) = 0.33883 0.03085
#
# Static dielectric constant tensor:
#      x y z
#    x 1.970490 0.027750 -0.025820 
#    y 0.027750 1.911210 -0.002500 
#    z -0.025820 -0.002500 1.988690 
# 
# From -- ./inp_files/174572.got.cif
#   From: 2010.05.17/outbox.cif.g08.bks.cpg/sg2_88_cif.got.tgz:174572.got - 2010.06.03 11:33:40.
