data_PCOD9078518
_publ_section_title
;
Structure prediction by ZEFSAII (Michael W. Deem and Ramdas Pophale) SiO2 
 PCOD9078518
Probable space group: P -1
;
_chemical_formula_sum "Si O2"
_cell_formula_units_Z 14
_cell_length_a 7.092515
_cell_length_b 7.720568
_cell_length_c 12.959647
_cell_angle_alpha 104.311796
_cell_angle_beta 131.993038
_cell_angle_gamma 85.514857
_cell_volume 507.300783
_symmetry_space_group_name_H-M "P -1"
_symmetry_group_IT_number 2
_symmetry_cell_setting 'triclinic'
loop_
_space_group_symop_operation_xyz
x,y,z
-x,-y,-z
loop_
_atom_site_type_symbol
_atom_site_label
_atom_site_fract_x
_atom_site_fract_y
_atom_site_fract_z
Si Si1 0.558462 0.920158 0.349028
Si Si2 0.705255 0.268828 0.947282
Si Si3 0.702745 0.864281 0.079134
Si Si4 0.970509 0.397344 0.255477
Si Si5 0.411352 0.390440 0.160230
Si Si6 0.152890 0.819996 0.364456
Si Si7 0.248119 0.406962 0.550081
O O1 0.386547 0.906726 0.181529
O O2 0.376346 0.854153 0.367535
O O3 0.733393 0.757116 0.388282
O O4 0.731271 0.098986 0.474018
O O5 0.456172 0.284687 0.929306
O O6 0.717398 0.438872 0.902441
O O7 0.929772 0.289495 0.116650
O O8 0.936836 0.928354 0.248788
O O9 0.766119 0.776774 0.980558
O O10 0.500000 0.000000 0.000000
O O11 0.692313 0.373533 0.208236
O O12 0.051240 0.609669 0.297815
O O13 0.187561 0.339228 0.402399
O O14 0.504228 0.447394 0.317629
O O15 0.000000 0.500000 0.500000
#
# Coordination Sequence:
#
# PCOD9078518 Si02
#       7
#     2   2   2   2   2   2   2
#     4  10  25  41  59  85 129 160 192 239 304 357
#     4  10  19  40  60  89 112 155 202 246 293 348
#     4  11  22  35  64  91 118 151 204 250 292 343
#     4  10  18  35  64  84 119 153 199 244 293 343
#     4   9  17  37  56  92 115 146 199 249 294 341
#     4  11  23  41  59  86 125 164 192 238 305 361
#     4   9  20  36  62  90 117 152 198 252 285 345
#
# _framework density 27.597041000000001
#
# number of rings (size 3 to 8) (size 9 to 14) (size 15 to 20)
#    0.000    2.000    2.857    0.857    6.000    2.857 
#    0.000    0.714    0.000    0.000    0.000    0.000 
#    0.000    0.000    0.000    0.000    0.000    0.000 
#
# Total GULP energy -78240.810329 kJ/mol
# GULP energy per Si atom -5588.629309 kJ/mol
# Density = 2.753423 g / cm^3
# Si number density = 27.597041 Si / 1000 Ang^3
#
#
#
# Elastic Constant Matrix: (Units=GPa)
#
#
# Indices 1 2 3 4 5 6 
#
# 1 50.4263 0.8844 21.2808 8.8593 6.5656 0.5081
# 2 0.8844 67.1171 44.9448 2.4540 0.6178 -0.0930
# 3 21.2808 44.9448 315.9741 27.2480 -39.1014 1.3573
# 4 8.8593 2.4540 27.2480 54.5201 -5.9484 -3.9118
# 5 6.5656 0.6178 -39.1014 -5.9484 45.7811 5.8237
# 6 0.5081 -0.0930 1.3573 -3.9118 5.8237 20.2429
#
#
#
# Elastic Compliance Matrix: (Units=1/GPa)
#
#
# Indices 1 2 3 4 5 6 
#
# 1 0.021924 0.001251 -0.002053 -0.003143 -0.005391 0.000537
# 2 0.001251 0.016825 -0.002870 0.000231 -0.002973 0.001138
# 3 -0.002053 -0.002870 0.004343 -0.001384 0.004078 -0.001693
# 4 -0.003143 0.000231 -0.001384 0.019946 0.001396 0.003626
# 5 -0.005391 -0.002973 0.004078 0.001396 0.027305 -0.007737
# 6 0.000537 0.001138 -0.001693 0.003626 -0.007737 0.052432
#
#
# Mechanical properties :
#
#
# Convention : Reuss Voigt Hill
#
# Bulk Modulus (GPa) = 27.97371 63.08196 45.52783
# Shear Modulus (GPa) = 30.85754 48.53598 39.69676
#
# Velocity S-wave (km/s) = 3.34750 4.19828 3.79680
# Velocity P-wave (km/s) = 5.00994 6.81239 5.97947
#
# Compressibility (1/GPa) = 0.03574785
#
# Stress axis : x y z
#
# Youngs Moduli (GPa) = 45.61213 59.43402 230.27658
#
# Poissons Ratio (x) = -0.07436 0.47276
# Poissons Ratio (y) = -0.05707 0.66095
# Poissons Ratio (z) = 0.09364 0.17059
#
# Static dielectric constant tensor:
#      x y z
#    x 2.314250 0.032810 -0.037640 
#    y 0.032810 2.152650 0.050550 
#    z -0.037640 0.050550 2.252700 
# 
# From -- ./inp_files/276582.got.cif
#   From: 2010.05.17/outbox.cif.g08.bks.cpg/sg2_139_cif.got.tgz:276582.got - 2010.06.03 11:33:40.
