data_PCOD9078333
_publ_section_title
;
Structure prediction by ZEFSAII (Michael W. Deem and Ramdas Pophale) SiO2 
 PCOD9078333
Probable space group: P -1
;
_chemical_formula_sum "Si O2"
_cell_formula_units_Z 16
_cell_length_a 8.801828
_cell_length_b 11.485031
_cell_length_c 17.280995
_cell_angle_alpha 104.127397
_cell_angle_beta 137.799533
_cell_angle_gamma 110.679602
_cell_volume 651.833232
_symmetry_space_group_name_H-M "P -1"
_symmetry_group_IT_number 2
_symmetry_cell_setting 'triclinic'
loop_
_space_group_symop_operation_xyz
x,y,z
-x,-y,-z
loop_
_atom_site_type_symbol
_atom_site_label
_atom_site_fract_x
_atom_site_fract_y
_atom_site_fract_z
Si Si1 0.100484 0.477056 0.685316
Si Si2 0.947556 0.889394 0.780460
Si Si3 0.143537 0.870151 0.405841
Si Si4 0.858365 0.277845 0.188606
Si Si5 0.320844 0.241856 0.179481
Si Si6 0.851957 0.762238 0.125483
Si Si7 0.380883 0.776346 0.255190
Si Si8 0.940992 0.335439 0.046290
O O1 0.900109 0.502026 0.655944
O O2 0.283288 0.597941 0.693539
O O3 0.892678 0.259023 0.572292
O O4 0.470872 0.616418 0.905941
O O5 0.944518 0.760194 0.716262
O O6 0.648522 0.753709 0.716677
O O7 0.929409 0.012271 0.756937
O O8 0.406773 0.082694 0.017463
O O9 0.782185 0.717597 0.183998
O O10 0.500000 0.000000 0.500000
O O11 0.229371 0.021674 0.515968
O O12 0.814711 0.271056 0.077850
O O13 0.161169 0.305211 0.109413
O O14 0.000000 0.000000 0.000000
O O15 0.088223 0.753713 0.175252
O O16 0.216950 0.572963 0.179322
O O17 0.377666 0.790521 0.163494
#
# Coordination Sequence:
#
# PCOD9078333 Si02
#       8
#     2   2   2   2   2   2   2   2
#     4  11  20  35  63  90 113 153 198 236 285 347
#     4   9  18  31  54  89 113 148 187 242 283 330
#     4  10  22  36  58  85 121 154 189 241 289 339
#     4   9  17  30  54  90 113 139 194 238 285 332
#     4  11  18  35  60  89 113 146 197 247 277 337
#     4  10  18  35  61  87 116 150 198 232 283 345
#     4  10  20  38  56  84 117 156 189 237 293 339
#     4  10  20  34  61  83 116 151 192 236 288 348
#
# _framework density 24.546157000000001
#
# number of rings (size 3 to 8) (size 9 to 14) (size 15 to 20)
#    0.000    2.000    3.750    1.875    0.000    1.000 
#    0.000    0.625    0.000   20.250    0.000    0.000 
#    0.000    0.000    0.000    0.000    0.000    0.000 
#
# Total GULP energy -89333.725908 kJ/mol
# GULP energy per Si atom -5583.357869 kJ/mol
# Density = 2.449029 g / cm^3
# Si number density = 24.546157 Si / 1000 Ang^3
#
#
#
# Elastic Constant Matrix: (Units=GPa)
#
#
# Indices 1 2 3 4 5 6 
#
# 1 98.9800 50.9523 30.8644 4.0372 -16.6473 -3.3452
# 2 50.9523 165.5016 13.7471 23.3539 -11.8107 -17.2036
# 3 30.8644 13.7471 79.0976 -4.4233 -22.7875 0.1076
# 4 4.0372 23.3539 -4.4233 35.3421 -4.2640 -8.8394
# 5 -16.6473 -11.8107 -22.7875 -4.2640 38.6659 -0.0721
# 6 -3.3452 -17.2036 0.1076 -8.8394 -0.0721 55.8954
#
#
#
# Elastic Compliance Matrix: (Units=1/GPa)
#
#
# Indices 1 2 3 4 5 6 
#
# 1 0.013679 -0.003835 -0.003913 0.000723 0.002491 -0.000237
# 2 -0.003835 0.008039 -0.000074 -0.004465 0.000271 0.001539
# 3 -0.003913 -0.000074 0.016884 0.003731 0.008655 0.000312
# 4 0.000723 -0.004465 0.003731 0.033190 0.004814 0.003917
# 5 0.002491 0.000271 0.008655 0.004814 0.032652 0.001019
# 6 -0.000237 0.001539 0.000312 0.003917 0.001019 0.018970
#
#
# Mechanical properties :
#
#
# Convention : Reuss Voigt Hill
#
# Bulk Modulus (GPa) = 43.55908 59.41188 51.48548
# Shear Modulus (GPa) = 34.08079 42.51503 38.29791
#
# Velocity S-wave (km/s) = 3.73022 4.16630 3.95427
# Velocity P-wave (km/s) = 6.02802 6.88482 6.47062
#
# Compressibility (1/GPa) = 0.02295733
#
# Stress axis : x y z
#
# Youngs Moduli (GPa) = 73.10579 124.40078 59.22757
#
# Poissons Ratio (x) = 0.47709 0.23173
# Poissons Ratio (y) = 0.28037 0.00441
# Poissons Ratio (z) = 0.28603 0.00925
#
# Static dielectric constant tensor:
#      x y z
#    x 1.988360 -0.036430 0.043120 
#    y -0.036430 1.994550 -0.008100 
#    z 0.043120 -0.008100 2.105620 
# 
# From -- ./inp_files/396960.got.cif
#   From: 2010.05.17/outbox.cif.g08.bks.cpg/sg2_199_cif.got.tgz:396960.got - 2010.06.03 11:33:40.
