data_PCOD9078406
_publ_section_title
;
Structure prediction by ZEFSAII (Michael W. Deem and Ramdas Pophale) SiO2 
 PCOD9078406
Probable space group: P -1
;
_chemical_formula_sum "Si O2"
_cell_formula_units_Z 16
_cell_length_a 14.974162
_cell_length_b 14.808401
_cell_length_c 8.345734
_cell_angle_alpha 131.066168
_cell_angle_beta 34.370419
_cell_angle_gamma 140.041143
_cell_volume 669.472082
_symmetry_space_group_name_H-M "P -1"
_symmetry_group_IT_number 2
_symmetry_cell_setting 'triclinic'
loop_
_space_group_symop_operation_xyz
x,y,z
-x,-y,-z
loop_
_atom_site_type_symbol
_atom_site_label
_atom_site_fract_x
_atom_site_fract_y
_atom_site_fract_z
Si Si1 0.572420 0.711133 0.636487
Si Si2 0.935478 0.607132 0.682957
Si Si3 0.278078 0.163636 0.794969
Si Si4 0.812451 0.003345 0.749553
Si Si5 0.261583 0.460461 0.648684
Si Si6 0.109055 0.734784 0.888816
Si Si7 0.363974 0.603906 0.323822
Si Si8 0.114949 0.879073 0.574912
O O1 0.665121 0.768661 0.389541
O O2 0.357720 0.598950 0.781899
O O3 0.655959 0.630581 0.511832
O O4 0.633076 0.847734 0.813037
O O5 0.724919 0.510374 0.819748
O O6 0.000000 0.500000 0.500000
O O7 0.976514 0.697098 0.886840
O O8 0.074116 0.724756 0.489204
O O9 0.424460 0.271129 0.831895
O O10 0.260515 0.012699 0.623326
O O11 0.081943 0.138077 0.109978
O O12 0.837514 0.076744 0.626525
O O13 0.800087 0.103501 0.013072
O O14 0.000000 0.000000 0.500000
O O15 0.321797 0.512970 0.441198
O O16 0.040048 0.365698 0.874932
O O17 0.250935 0.683755 0.592575
#
# Coordination Sequence:
#
# PCOD9078406 Si02
#       8
#     2   2   2   2   2   2   2   2
#     4   9  19  35  58  93 124 153 199 261 296 359
#     4  10  23  41  59  88 124 161 205 248 299 360
#     4   9  20  39  64  91 122 159 206 251 302 361
#     4  11  22  38  62  94 120 154 205 249 306 366
#     4  10  18  35  62  88 122 158 199 249 308 354
#     4  11  22  39  60  86 127 162 201 255 302 358
#     4  10  22  41  61  88 122 165 209 248 296 370
#     4  10  21  39  66  89 121 162 197 255 312 353
#
# _framework density 23.899429999999999
#
# number of rings (size 3 to 8) (size 9 to 14) (size 15 to 20)
#    0.000    2.000    1.250    1.875    3.500    1.500 
#    2.250   10.625    0.000    0.000    0.000    0.000 
#    0.000    0.000    0.000    0.000    0.000    0.000 
#
# Total GULP energy -89474.157089 kJ/mol
# GULP energy per Si atom -5592.134818 kJ/mol
# Density = 2.384503 g / cm^3
# Si number density = 23.899430 Si / 1000 Ang^3
#
#
#
# Elastic Constant Matrix: (Units=GPa)
#
#
# Indices 1 2 3 4 5 6 
#
# 1 90.0355 63.2904 11.3455 16.6851 13.8297 15.5908
# 2 63.2904 166.9108 19.5362 34.8452 6.5927 31.0844
# 3 11.3455 19.5362 33.7249 18.3011 1.1963 7.7704
# 4 16.6851 34.8452 18.3011 30.9535 5.4533 1.9563
# 5 13.8297 6.5927 1.1963 5.4533 27.7941 10.0781
# 6 15.5908 31.0844 7.7704 1.9563 10.0781 43.6657
#
#
#
# Elastic Compliance Matrix: (Units=1/GPa)
#
#
# Indices 1 2 3 4 5 6 
#
# 1 0.016415 -0.005747 -0.001969 -0.000032 -0.006765 0.000143
# 2 -0.005747 0.011517 0.003490 -0.012359 0.005081 -0.007387
# 3 -0.001969 0.003490 0.047788 -0.031896 0.008255 -0.010762
# 4 -0.000032 -0.012359 -0.031896 0.066648 -0.014106 0.014755
# 5 -0.006765 0.005081 0.008255 -0.014106 0.045063 -0.012439
# 6 0.000143 -0.007387 -0.010762 0.014755 -0.012439 0.032233
#
#
# Mechanical properties :
#
#
# Convention : Reuss Voigt Hill
#
# Bulk Modulus (GPa) = 14.86570 53.22395 34.04482
# Shear Modulus (GPa) = 19.95716 33.58260 26.76988
#
# Velocity S-wave (km/s) = 2.89285 3.75262 3.35043
# Velocity P-wave (km/s) = 4.17034 6.41050 5.40769
#
# Compressibility (1/GPa) = 0.06726893
#
# Stress axis : x y z
#
# Youngs Moduli (GPa) = 60.92103 86.82955 20.92586
#
# Poissons Ratio (x) = 0.49897 0.04120
# Poissons Ratio (y) = 0.35008 -0.07303
# Poissons Ratio (z) = 0.11994 -0.30305
#
# Static dielectric constant tensor:
#      x y z
#    x 1.936660 -0.011390 0.038200 
#    y -0.011390 1.962040 0.002920 
#    z 0.038200 0.002920 1.924910 
# 
# From -- ./inp_files/314085.got.cif
#   From: 2010.05.17/outbox.cif.g08.bks.cpg/sg2_158_cif.got.tgz:314085.got - 2010.06.03 11:33:40.
