data_PCOD9078111
_publ_section_title
;
Structure prediction by ZEFSAII (Michael W. Deem and Ramdas Pophale) SiO2 
 PCOD9078111
Probable space group: P -1
;
_chemical_formula_sum "Si O2"
_cell_formula_units_Z 16
_cell_length_a 11.295226
_cell_length_b 19.327264
_cell_length_c 5.470532
_cell_angle_alpha 73.858798
_cell_angle_beta 96.660314
_cell_angle_gamma 37.874778
_cell_volume 579.274616
_symmetry_space_group_name_H-M "P -1"
_symmetry_group_IT_number 2
_symmetry_cell_setting 'triclinic'
loop_
_space_group_symop_operation_xyz
x,y,z
-x,-y,-z
loop_
_atom_site_type_symbol
_atom_site_label
_atom_site_fract_x
_atom_site_fract_y
_atom_site_fract_z
Si Si1 0.740792 0.725683 0.986697
Si Si2 0.938810 0.913020 0.699004
Si Si3 0.140187 0.151761 0.658245
Si Si4 0.207495 0.538626 0.252348
Si Si5 0.312604 0.667031 0.388310
Si Si6 0.548323 0.870179 0.294250
Si Si7 0.711615 0.587889 0.102192
Si Si8 0.229045 0.854670 0.475784
O O1 0.593083 0.811182 0.621700
O O2 0.606090 0.793721 0.143834
O O3 0.856407 0.586695 0.130181
O O4 0.928984 0.692748 0.068236
O O5 0.811179 0.916744 0.513188
O O6 0.013752 0.926076 0.479395
O O7 0.838617 0.029400 0.736215
O O8 0.170519 0.754980 0.019386
O O9 0.261277 0.164948 0.639974
O O10 0.866337 0.286644 0.531575
O O11 0.289919 0.036630 0.025258
O O12 0.409000 0.494494 0.360840
O O13 0.262463 0.462789 0.581568
O O14 0.218479 0.498643 0.023784
O O15 0.314835 0.749646 0.409029
O O16 0.442282 0.748572 0.824407
#
# Coordination Sequence:
#
# PCOD9078111 Si02
#       8
#     2   2   2   2   2   2   2   2
#     4  12  25  44  68  93 130 172 218 264 310 375
#     4  10  18  35  58  88 129 163 205 249 324 379
#     4  10  25  42  66  91 125 169 212 273 328 371
#     4  11  23  42  65  98 133 169 209 255 318 393
#     4  10  21  37  63  93 131 170 203 260 324 384
#     4  11  27  46  66  95 123 167 225 272 314 372
#     4  11  21  38  64  96 132 170 207 254 322 380
#     4   9  19  31  53  96 128 161 202 254 306 394
#
# _framework density 27.620754000000002
#
# number of rings (size 3 to 8) (size 9 to 14) (size 15 to 20)
#    0.000    1.500    1.250    3.375    5.250    1.000 
#    0.000    1.250    0.000    0.000    0.000    0.000 
#    0.000    0.000    0.000    0.000    0.000    0.000 
#
# Total GULP energy -89501.802696 kJ/mol
# GULP energy per Si atom -5593.862669 kJ/mol
# Density = 2.755789 g / cm^3
# Si number density = 27.620754 Si / 1000 Ang^3
#
#
#
# Elastic Constant Matrix: (Units=GPa)
#
#
# Indices 1 2 3 4 5 6 
#
# 1 104.1442 -1.1877 22.6730 9.2938 16.0111 -2.4248
# 2 -1.1877 57.9014 19.1688 9.3554 2.8867 -29.1905
# 3 22.6730 19.1688 170.3482 10.2228 4.7400 5.4874
# 4 9.2938 9.3554 10.2228 47.4668 -0.2104 6.5490
# 5 16.0111 2.8867 4.7400 -0.2104 47.1381 -7.1598
# 6 -2.4248 -29.1905 5.4874 6.5490 -7.1598 40.0313
#
#
#
# Elastic Compliance Matrix: (Units=1/GPa)
#
#
# Indices 1 2 3 4 5 6 
#
# 1 0.010781 0.002694 -0.001572 -0.002689 -0.003272 0.002688
# 2 0.002694 0.034446 -0.004567 -0.010170 0.001621 0.027861
# 3 -0.001572 -0.004567 0.006731 0.000378 -0.000546 -0.004508
# 4 -0.002689 -0.010170 0.000378 0.025141 -0.000178 -0.011775
# 5 -0.003272 0.001621 -0.000546 -0.000178 0.023073 0.005215
# 6 0.002688 0.027861 -0.004508 -0.011775 0.005215 0.048936
#
#
# Mechanical properties :
#
#
# Convention : Reuss Voigt Hill
#
# Bulk Modulus (GPa) = 22.18873 45.96688 34.07780
# Shear Modulus (GPa) = 29.23628 46.37654 37.80641
#
# Velocity S-wave (km/s) = 3.25697 4.10206 3.70370
# Velocity P-wave (km/s) = 4.71112 6.25413 5.53664
#
# Compressibility (1/GPa) = 0.04506793
#
# Stress axis : x y z
#
# Youngs Moduli (GPa) = 92.75840 29.03081 148.56130
#
# Poissons Ratio (x) = -0.07821 0.23357
# Poissons Ratio (y) = -0.24990 0.67848
# Poissons Ratio (z) = 0.14584 0.13258
#
# Static dielectric constant tensor:
#      x y z
#    x 2.207340 0.002680 0.044110 
#    y 0.002680 2.372650 -0.045910 
#    z 0.044110 -0.045910 2.067900 
# 
# From -- ./inp_files/82621.got.cif
#   From: 2010.05.17/outbox.cif.g08.bks.cpg/sg2_42_cif.got.tgz:82621.got - 2010.06.03 11:33:40.
