data_PCOD9078645
_publ_section_title
;
Structure prediction by ZEFSAII (Michael W. Deem and Ramdas Pophale) SiO2 
 PCOD9078645
Probable space group: P -1
;
_chemical_formula_sum "Si O2"
_cell_formula_units_Z 12
_cell_length_a 12.091397
_cell_length_b 9.005005
_cell_length_c 17.145313
_cell_angle_alpha 62.910541
_cell_angle_beta 21.035975
_cell_angle_gamma 50.627318
_cell_volume 450.791843
_symmetry_space_group_name_H-M "P -1"
_symmetry_group_IT_number 2
_symmetry_cell_setting 'triclinic'
loop_
_space_group_symop_operation_xyz
x,y,z
-x,-y,-z
loop_
_atom_site_type_symbol
_atom_site_label
_atom_site_fract_x
_atom_site_fract_y
_atom_site_fract_z
Si Si1 0.034185 0.527651 0.124020
Si Si2 0.019818 0.465929 0.668428
Si Si3 0.136554 0.087447 0.950853
Si Si4 0.990758 0.839512 0.810035
Si Si5 0.824485 0.228743 0.765706
Si Si6 0.855520 0.864283 0.635169
O O1 0.852240 0.627293 0.306070
O O2 0.892326 0.391932 0.228724
O O3 0.930157 0.704794 0.088536
O O4 0.523007 0.357848 0.860170
O O5 0.077717 0.300655 0.607288
O O6 0.143033 0.608941 0.529214
O O7 0.520451 0.660792 0.963079
O O8 0.607145 0.904225 0.710909
O O9 0.908243 0.149741 0.169317
O O10 0.000000 0.000000 0.000000
O O11 0.062963 0.969561 0.674288
O O12 0.495113 0.000840 0.100102
O O13 0.000000 0.000000 0.500000
#
# Coordination Sequence:
#
# PCOD9078645 Si02
#       6
#     2   2   2   2   2   2
#     4  10  15  26  46  77  91 109 157 211 229 250
#     4   8  15  27  47  66  90 122 157 186 226 273
#     4  10  18  29  48  71  95 120 155 194 230 268
#     4   9  18  27  47  72  95 119 150 199 237 260
#     4   8  14  26  44  70  91 115 153 192 230 265
#     4   9  19  32  46  67  99 127 152 179 231 294
#
# _framework density 26.619826
#
# number of rings (size 3 to 8) (size 9 to 14) (size 15 to 20)
#    2.000    1.000    0.000    3.000    0.000    0.000 
#    0.000    0.833    0.000    4.000    0.000    2.333 
#    0.000    0.000    0.000    0.000    0.000    0.000 
#
# Total GULP energy -67063.770391 kJ/mol
# GULP energy per Si atom -5588.647533 kJ/mol
# Density = 2.655924 g / cm^3
# Si number density = 26.619826 Si / 1000 Ang^3
#
#
#
# Elastic Constant Matrix: (Units=GPa)
#
#
# Indices 1 2 3 4 5 6 
#
# 1 89.2792 -10.9440 10.1427 14.2679 -10.9635 -3.2483
# 2 -10.9440 72.9419 9.9160 -5.3521 9.1982 -25.0110
# 3 10.1427 9.9160 69.6685 6.4627 2.1999 8.1467
# 4 14.2679 -5.3521 6.4627 34.9252 -4.4000 -11.2709
# 5 -10.9635 9.1982 2.1999 -4.4000 42.1017 -9.1853
# 6 -3.2483 -25.0110 8.1467 -11.2709 -9.1853 54.2832
#
#
#
# Elastic Compliance Matrix: (Units=1/GPa)
#
#
# Indices 1 2 3 4 5 6 
#
# 1 0.012708 0.002218 -0.002160 -0.003464 0.002988 0.001893
# 2 0.002218 0.018930 -0.004870 0.006367 -0.000268 0.010862
# 3 -0.002160 -0.004870 0.016670 -0.005294 -0.002312 -0.006365
# 4 -0.003464 0.006367 -0.005294 0.036363 0.004360 0.011809
# 5 0.002988 -0.000268 -0.002312 0.004360 0.026426 0.005779
# 6 0.001893 0.010862 -0.006365 0.011809 0.005779 0.027925
#
#
# Mechanical properties :
#
#
# Convention : Reuss Voigt Hill
#
# Bulk Modulus (GPa) = 25.85024 27.79101 26.82063
# Shear Modulus (GPa) = 30.95222 41.11369 36.03295
#
# Velocity S-wave (km/s) = 3.41361 3.93425 3.68314
# Velocity P-wave (km/s) = 5.02683 5.57677 5.30892
#
# Compressibility (1/GPa) = 0.03868435
#
# Stress axis : x y z
#
# Youngs Moduli (GPa) = 78.69281 52.82631 59.98939
#
# Poissons Ratio (x) = -0.11719 0.12959
# Poissons Ratio (y) = -0.17457 0.29213
# Poissons Ratio (z) = 0.16999 0.25725
#
# Static dielectric constant tensor:
#      x y z
#    x 2.059560 0.059430 0.105040 
#    y 0.059430 2.089650 0.125250 
#    z 0.105040 0.125250 2.313670 
# 
# From -- ./inp_files/380267.got.cif
#   From: 2010.05.17/outbox.cif.g08.bks.cpg/sg2_191_cif.got.tgz:380267.got - 2010.06.03 11:33:40.
