data_PCOD9078536
_publ_section_title
;
Structure prediction by ZEFSAII (Michael W. Deem and Ramdas Pophale) SiO2 
 PCOD9078536
Probable space group: P -1
;
_chemical_formula_sum "Si O2"
_cell_formula_units_Z 16
_cell_length_a 31.379165
_cell_length_b 8.668251
_cell_length_c 16.680180
_cell_angle_alpha 30.105185
_cell_angle_beta 17.459502
_cell_angle_gamma 29.330586
_cell_volume 649.295650
_symmetry_space_group_name_H-M "P -1"
_symmetry_group_IT_number 2
_symmetry_cell_setting 'triclinic'
loop_
_space_group_symop_operation_xyz
x,y,z
-x,-y,-z
loop_
_atom_site_type_symbol
_atom_site_label
_atom_site_fract_x
_atom_site_fract_y
_atom_site_fract_z
Si Si1 0.626859 0.934146 0.175591
Si Si2 0.605107 0.059634 0.717565
Si Si3 0.849607 0.782357 0.300512
Si Si4 0.068314 0.550947 0.143419
Si Si5 0.641754 0.631493 0.459482
Si Si6 0.831282 0.933220 0.092629
Si Si7 0.634214 0.689073 0.097956
Si Si8 0.093007 0.194579 0.521910
O O1 0.608206 0.764357 0.369418
O O2 0.581671 0.825788 0.219238
O O3 0.507204 0.278853 0.257777
O O4 0.808238 0.793748 0.905726
O O5 0.698699 0.251990 0.512334
O O6 0.501370 0.262517 0.741494
O O7 0.715534 0.764163 0.605582
O O8 0.500000 0.000000 0.000000
O O9 0.994996 0.562052 0.183217
O O10 0.818078 0.746548 0.281410
O O11 0.858837 0.153807 0.119053
O O12 0.943354 0.664060 0.386108
O O13 0.760951 0.777050 0.219380
O O14 0.729767 0.311673 0.105763
O O15 0.002432 0.939325 0.783590
O O16 0.741687 0.871389 0.780309
O O17 0.000000 0.500000 0.500000
#
# Coordination Sequence:
#
# PCOD9078536 Si02
#       8
#     2   2   2   2   2   2   2   2
#     4  11  20  38  66  96 126 163 206 262 309 363
#     4  12  25  42  65  89 124 169 209 262 320 375
#     4  10  20  37  63  92 121 169 217 244 308 380
#     4  10  18  35  64  92 127 163 211 258 293 372
#     4  11  24  39  62  95 130 156 213 267 310 369
#     4  10  20  38  65  94 127 163 208 262 305 365
#     4  11  20  38  68  94 124 170 211 249 308 377
#     4   9  17  34  60  94 123 161 211 246 299 371
#
# _framework density 24.642088000000001
#
# number of rings (size 3 to 8) (size 9 to 14) (size 15 to 20)
#    0.000    1.500    5.000    3.000    0.000    1.500 
#    0.000    3.750    5.500    0.000    0.000    0.000 
#    0.000    0.000    0.000    0.000    0.000    0.000 
#
# Total GULP energy -89281.786069 kJ/mol
# GULP energy per Si atom -5580.111629 kJ/mol
# Density = 2.458600 g / cm^3
# Si number density = 24.642088 Si / 1000 Ang^3
#
#
#
# Elastic Constant Matrix: (Units=GPa)
#
#
# Indices 1 2 3 4 5 6 
#
# 1 168.9682 42.9959 50.3421 14.3948 16.7100 0.7481
# 2 42.9959 65.0241 20.9733 32.0863 10.1922 6.2899
# 3 50.3421 20.9733 107.4231 19.1314 16.8697 24.5692
# 4 14.3948 32.0863 19.1314 21.2045 0.9344 -0.0379
# 5 16.7100 10.1922 16.8697 0.9344 42.5214 10.4650
# 6 0.7481 6.2899 24.5692 -0.0379 10.4650 27.0375
#
#
#
# Elastic Compliance Matrix: (Units=1/GPa)
#
#
# Indices 1 2 3 4 5 6 
#
# 1 0.013902 -0.033937 -0.014630 0.055047 0.002350 0.019972
# 2 -0.033937 0.176767 0.056592 -0.294560 -0.024720 -0.082453
# 3 -0.014630 0.056592 0.035035 -0.106978 -0.009231 -0.041174
# 4 0.055047 -0.294560 -0.106978 0.550412 0.042791 0.148423
# 5 0.002350 -0.024720 -0.009231 0.042791 0.030686 0.002257
# 6 0.019972 -0.082453 -0.041174 0.148423 0.002257 0.092364
#
#
# Mechanical properties :
#
#
# Convention : Reuss Voigt Hill
#
# Bulk Modulus (GPa) = 4.13644 63.33756 33.73700
# Shear Modulus (GPa) = 5.18833 33.29297 19.24065
#
# Velocity S-wave (km/s) = 1.45260 3.67967 2.79732
# Velocity P-wave (km/s) = 2.12029 6.61907 4.91466
#
# Compressibility (1/GPa) = 0.24175392
#
# Stress axis : x y z
#
# Youngs Moduli (GPa) = 71.93078 5.65715 28.54301
#
# Poissons Ratio (x) = 0.19199 0.41757
# Poissons Ratio (y) = 2.44113 -1.61529
# Poissons Ratio (z) = 1.05232 -0.32015
#
# Static dielectric constant tensor:
#      x y z
#    x 1.929050 -0.006010 0.004700 
#    y -0.006010 2.008000 0.023950 
#    z 0.004700 0.023950 2.019950 
# 
# From -- ./inp_files/544857.got.cif
#   From: 2010.05.17/outbox.cif.g08.bks.cpg/sg2_273_cif.got.tgz:544857.got - 2010.06.03 11:33:40.
