data_PCOD9078321
_publ_section_title
;
Structure prediction by ZEFSAII (Michael W. Deem and Ramdas Pophale) SiO2 
 PCOD9078321
Probable space group: P -1
;
_chemical_formula_sum "Si O2"
_cell_formula_units_Z 16
_cell_length_a 17.004948
_cell_length_b 12.476041
_cell_length_c 11.241869
_cell_angle_alpha 50.874718
_cell_angle_beta 35.995824
_cell_angle_gamma 34.643097
_cell_volume 792.548578
_symmetry_space_group_name_H-M "P -1"
_symmetry_group_IT_number 2
_symmetry_cell_setting 'triclinic'
loop_
_space_group_symop_operation_xyz
x,y,z
-x,-y,-z
loop_
_atom_site_type_symbol
_atom_site_label
_atom_site_fract_x
_atom_site_fract_y
_atom_site_fract_z
Si Si1 0.182874 0.331230 0.545627
Si Si2 0.829412 0.980903 0.499340
Si Si3 0.146247 0.465802 0.757050
Si Si4 0.132502 0.613998 0.243923
Si Si5 0.383434 0.483200 0.824402
Si Si6 0.747102 0.355965 0.378203
Si Si7 0.591541 0.053107 0.930240
Si Si8 0.478217 0.943620 0.348277
O O1 0.122513 0.432069 0.675513
O O2 0.229197 0.429203 0.335701
O O3 0.011491 0.371629 0.669424
O O4 0.352243 0.104377 0.490558
O O5 0.821003 0.151410 0.401344
O O6 0.786083 0.947287 0.705394
O O7 0.664654 0.040001 0.573448
O O8 0.015625 0.794547 0.345882
O O9 0.139375 0.633048 0.676830
O O10 0.355272 0.271009 0.667529
O O11 0.000000 0.500000 0.000000
O O12 0.258889 0.607833 0.001964
O O13 0.546473 0.472345 0.599786
O O14 0.272646 0.550678 0.789033
O O15 0.474957 0.273842 0.896579
O O16 0.500000 0.000000 0.000000
O O17 0.574011 0.001583 0.117580
#
# Coordination Sequence:
#
# PCOD9078321 Si02
#       8
#     2   2   2   2   2   2   2   2
#     4  10  22  37  58  89 123 150 192 243 284 345
#     4   9  20  34  61  89 119 150 190 246 281 339
#     4  12  25  39  60  84 119 157 192 239 294 353
#     4  10  20  37  62  91 115 148 200 242 285 332
#     4  10  18  35  61  85 116 151 196 241 281 340
#     4  10  21  38  56  87 119 153 194 235 293 349
#     4   9  16  28  54  86 112 147 185 233 287 328
#     4  10  19  37  59  88 116 153 193 237 295 337
#
# _framework density 20.188037999999999
#
# number of rings (size 3 to 8) (size 9 to 14) (size 15 to 20)
#    0.000    2.000    1.250    4.125    3.500    0.500 
#    0.000    3.750    0.000    0.000    0.000    0.000 
#    0.000    0.000    0.000    0.000    0.000    0.000 
#
# Total GULP energy -89277.130495 kJ/mol
# GULP energy per Si atom -5579.820656 kJ/mol
# Density = 2.014209 g / cm^3
# Si number density = 20.188038 Si / 1000 Ang^3
#
#
#
# Elastic Constant Matrix: (Units=GPa)
#
#
# Indices 1 2 3 4 5 6 
#
# 1 53.9876 35.0506 18.5577 0.0278 6.1579 26.7299
# 2 35.0506 96.5254 41.0225 10.5670 0.2331 21.1378
# 3 18.5577 41.0225 87.2533 8.3568 19.5204 23.4751
# 4 0.0278 10.5670 8.3568 31.7832 3.8303 4.9748
# 5 6.1579 0.2331 19.5204 3.8303 23.1198 4.4417
# 6 26.7299 21.1378 23.4751 4.9748 4.4417 31.6194
#
#
#
# Elastic Compliance Matrix: (Units=1/GPa)
#
#
# Indices 1 2 3 4 5 6 
#
# 1 0.040730 -0.011902 0.007359 0.008402 -0.012275 -0.031536
# 2 -0.011902 0.018215 -0.008943 -0.005596 0.010715 0.003899
# 3 0.007359 -0.008943 0.021720 0.001607 -0.017761 -0.014126
# 4 0.008402 -0.005596 0.001607 0.035227 -0.007641 -0.009024
# 5 -0.012275 0.010715 -0.017761 -0.007641 0.060939 0.009042
# 6 -0.031536 0.003899 -0.014126 -0.009024 0.009042 0.066317
#
#
# Mechanical properties :
#
#
# Convention : Reuss Voigt Hill
#
# Bulk Modulus (GPa) = 18.62377 47.44757 33.03567
# Shear Modulus (GPa) = 17.36005 26.84683 22.10344
#
# Velocity S-wave (km/s) = 2.93562 3.65065 3.31248
# Velocity P-wave (km/s) = 4.55364 6.42834 5.57042
#
# Compressibility (1/GPa) = 0.05369482
#
# Stress axis : x y z
#
# Youngs Moduli (GPa) = 24.55201 54.89907 46.03965
#
# Poissons Ratio (x) = 0.65338 -0.33880
# Poissons Ratio (y) = 0.29221 0.41172
# Poissons Ratio (z) = -0.18068 0.49095
#
# Static dielectric constant tensor:
#      x y z
#    x 1.723020 -0.019610 0.012250 
#    y -0.019610 1.732290 0.015610 
#    z 0.012250 0.015610 1.718940 
# 
# From -- ./inp_files/464353.got.cif
#   From: 2010.05.17/outbox.cif.g08.bks.cpg/sg2_233_cif.got.tgz:464353.got - 2010.06.03 11:33:40.
