data_PCOD9078707
_publ_section_title
;
Structure prediction by ZEFSAII (Michael W. Deem and Ramdas Pophale) SiO2 
 PCOD9078707
Probable space group: P -1
;
_chemical_formula_sum "Si O2"
_cell_formula_units_Z 14
_cell_length_a 11.392075
_cell_length_b 9.511499
_cell_length_c 12.732068
_cell_angle_alpha 32.469077
_cell_angle_beta 91.346295
_cell_angle_gamma 103.297121
_cell_volume 681.283644
_symmetry_space_group_name_H-M "P -1"
_symmetry_group_IT_number 2
_symmetry_cell_setting 'triclinic'
loop_
_space_group_symop_operation_xyz
x,y,z
-x,-y,-z
loop_
_atom_site_type_symbol
_atom_site_label
_atom_site_fract_x
_atom_site_fract_y
_atom_site_fract_z
Si Si1 0.710743 0.087738 0.902378
Si Si2 0.926058 0.696484 0.836165
Si Si3 0.699485 0.707223 0.960323
Si Si4 0.130772 0.292462 0.419676
Si Si5 0.542385 0.875401 0.701894
Si Si6 0.512834 0.722413 0.268018
Si Si7 0.616010 0.809162 0.520356
O O1 0.821930 0.398332 0.720678
O O2 0.590799 0.138202 0.816069
O O3 0.742029 0.864036 0.972996
O O4 0.653394 0.950317 0.100965
O O5 0.804702 0.630109 0.950854
O O6 0.889010 0.657793 0.735778
O O7 0.010760 0.036896 0.627435
O O8 0.000000 0.500000 0.000000
O O9 0.658604 0.911735 0.756796
O O10 0.565636 0.435683 0.128347
O O11 0.244238 0.176319 0.506508
O O12 0.610912 0.949683 0.543443
O O13 0.458598 0.038216 0.644268
O O14 0.500000 0.500000 0.500000
O O15 0.469785 0.523663 0.287301
#
# Coordination Sequence:
#
# PCOD9078707 Si02
#       7
#     2   2   2   2   2   2   2
#     4  10  22  37  59  88 125 155 196 248 300 360
#     4  11  24  43  64  83 114 164 213 249 295 353
#     4  11  21  38  59  92 122 157 199 250 300 352
#     4  10  23  42  61  86 119 163 201 250 296 357
#     4  10  20  31  61  90 122 149 190 247 302 350
#     4  10  20  35  56  88 128 161 190 230 308 367
#     4  10  18  36  56  89 117 153 196 238 293 365
#
# _framework density 20.549443
#
# number of rings (size 3 to 8) (size 9 to 14) (size 15 to 20)
#    0.000    1.714    2.857    1.714    0.000    4.000 
#    0.000    0.714    0.000    0.000    0.000    0.000 
#    0.000    0.000    0.000    0.000    0.000    0.000 
#
# Total GULP energy -77955.824504 kJ/mol
# GULP energy per Si atom -5568.273179 kJ/mol
# Density = 2.050267 g / cm^3
# Si number density = 20.549443 Si / 1000 Ang^3
#
#
#
# Elastic Constant Matrix: (Units=GPa)
#
#
# Indices 1 2 3 4 5 6 
#
# 1 75.1284 8.4602 1.0479 12.4207 13.3828 -4.9390
# 2 8.4602 67.4235 9.6034 -8.8944 -1.8074 -8.3351
# 3 1.0479 9.6034 58.3921 6.3170 3.0403 5.4750
# 4 12.4207 -8.8944 6.3170 27.3650 2.4045 -5.0395
# 5 13.3828 -1.8074 3.0403 2.4045 31.5132 -6.8317
# 6 -4.9390 -8.3351 5.4750 -5.0395 -6.8317 21.5885
#
#
#
# Elastic Compliance Matrix: (Units=1/GPa)
#
#
# Indices 1 2 3 4 5 6 
#
# 1 0.016357 -0.004070 0.001995 -0.009076 -0.007277 -0.002757
# 2 -0.004070 0.019293 -0.005733 0.011239 0.005183 0.012235
# 3 0.001995 -0.005733 0.020228 -0.008952 -0.004714 -0.010468
# 4 -0.009076 0.011239 -0.008952 0.049169 0.005456 0.017738
# 5 -0.007277 0.005183 -0.004714 0.005456 0.038402 0.014957
# 6 -0.002757 0.012235 -0.010468 0.017738 0.014957 0.061943
#
#
# Mechanical properties :
#
#
# Convention : Reuss Voigt Hill
#
# Bulk Modulus (GPa) = 24.83707 26.57411 25.70559
# Shear Modulus (GPa) = 21.32861 28.21551 24.77206
#
# Velocity S-wave (km/s) = 3.22517 3.70950 3.47578
# Velocity P-wave (km/s) = 5.09722 5.59527 5.35204
#
# Compressibility (1/GPa) = 0.04026239
#
# Stress axis : x y z
#
# Youngs Moduli (GPa) = 61.13777 51.83228 49.43625
#
# Poissons Ratio (x) = 0.21094 -0.09862
# Poissons Ratio (y) = 0.24881 0.28341
# Poissons Ratio (z) = -0.12197 0.29715
#
# Static dielectric constant tensor:
#      x y z
#    x 1.749810 0.026520 0.069150 
#    y 0.026520 1.784530 0.054790 
#    z 0.069150 0.054790 1.870770 
# 
# From -- ./inp_files/416093.got.cif
#   From: 2010.05.17/outbox.cif.g08.bks.cpg/sg2_209_cif.got.tgz:416093.got - 2010.06.03 11:33:40.
