data_PCOD9078563
_publ_section_title
;
Structure prediction by ZEFSAII (Michael W. Deem and Ramdas Pophale) SiO2 
 PCOD9078563
Probable space group: P -1
;
_chemical_formula_sum "Si O2"
_cell_formula_units_Z 16
_cell_length_a 15.519141
_cell_length_b 21.927252
_cell_length_c 11.004828
_cell_angle_alpha 155.495302
_cell_angle_beta 143.383725
_cell_angle_gamma 23.981121
_cell_volume 622.056385
_symmetry_space_group_name_H-M "P -1"
_symmetry_group_IT_number 2
_symmetry_cell_setting 'triclinic'
loop_
_space_group_symop_operation_xyz
x,y,z
-x,-y,-z
loop_
_atom_site_type_symbol
_atom_site_label
_atom_site_fract_x
_atom_site_fract_y
_atom_site_fract_z
Si Si1 0.624922 0.631213 0.555680
Si Si2 0.901024 0.328593 0.508991
Si Si3 0.739186 0.277272 0.909624
Si Si4 0.282924 0.846827 0.957936
Si Si5 0.418725 0.918156 0.612126
Si Si6 0.186192 0.856333 0.586164
Si Si7 0.401145 0.188480 0.635496
Si Si8 0.969779 0.350333 0.905250
O O1 0.755100 0.562828 0.702620
O O2 0.581654 0.756701 0.612323
O O3 0.382242 0.760770 0.550810
O O4 0.773906 0.380611 0.230235
O O5 0.957578 0.345071 0.736432
O O6 0.759707 0.287017 0.291007
O O7 0.116640 0.094243 0.270461
O O8 0.700716 0.144124 0.676963
O O9 0.500000 0.500000 0.000000
O O10 0.949296 0.108710 0.757689
O O11 0.506081 0.729831 0.054907
O O12 0.257221 0.856331 0.801505
O O13 0.526785 0.897517 0.576051
O O14 0.220596 0.159261 0.876235
O O15 0.136900 0.718829 0.285612
O O16 0.500000 0.000000 0.500000
O O17 0.149087 0.412683 0.757183
#
# Coordination Sequence:
#
# PCOD9078563 Si02
#       8
#     2   2   2   2   2   2   2   2
#     4  11  20  31  55  89 124 156 186 232 304 356
#     4  10  18  35  65  90 121 154 185 244 301 354
#     4   9  18  30  50  84 126 159 176 224 295 359
#     4  10  19  36  61  89 122 151 202 240 287 349
#     4  10  22  37  53  83 123 152 193 241 290 353
#     4  10  19  32  58  92 122 151 190 236 293 364
#     4  12  25  41  62  84 113 158 209 249 287 345
#     4  10  21  38  61  87 116 156 195 243 294 348
#
# _framework density 25.721142
#
# number of rings (size 3 to 8) (size 9 to 14) (size 15 to 20)
#    0.000    1.750    2.500    3.000    0.000    9.000 
#    0.000    0.000    0.000    3.750    0.000    0.000 
#    0.000    0.000    0.000    0.000    0.000    0.000 
#
# Total GULP energy -89455.598669 kJ/mol
# GULP energy per Si atom -5590.974917 kJ/mol
# Density = 2.566260 g / cm^3
# Si number density = 25.721142 Si / 1000 Ang^3
#
#
#
# Elastic Constant Matrix: (Units=GPa)
#
#
# Indices 1 2 3 4 5 6 
#
# 1 132.2764 39.5112 54.0597 17.8541 -16.3039 26.6894
# 2 39.5112 108.4569 23.6069 25.0490 4.7443 24.1760
# 3 54.0597 23.6069 95.4263 30.9049 -10.6858 -6.2586
# 4 17.8541 25.0490 30.9049 53.6779 -9.0654 1.7431
# 5 -16.3039 4.7443 -10.6858 -9.0654 27.7922 6.3171
# 6 26.6894 24.1760 -6.2586 1.7431 6.3171 40.2183
#
#
#
# Elastic Compliance Matrix: (Units=1/GPa)
#
#
# Indices 1 2 3 4 5 6 
#
# 1 0.014673 -0.002027 -0.008452 0.002861 0.009230 -0.011407
# 2 -0.002027 0.012869 -0.001210 -0.005166 -0.004244 -0.005688
# 3 -0.008452 -0.001210 0.018546 -0.008050 -0.002512 0.009966
# 4 0.002861 -0.005166 -0.008050 0.026259 0.008607 -0.002536
# 5 0.009230 -0.004244 -0.002512 0.008607 0.046612 -0.011660
# 6 -0.011407 -0.005688 0.009966 -0.002536 -0.011660 0.039346
#
#
# Mechanical properties :
#
#
# Convention : Reuss Voigt Hill
#
# Bulk Modulus (GPa) = 44.03552 63.39060 53.71306
# Shear Modulus (GPa) = 26.41944 38.93647 32.67796
#
# Velocity S-wave (km/s) = 3.20839 3.89497 3.56823
# Velocity P-wave (km/s) = 5.55721 6.70273 6.15667
#
# Compressibility (1/GPa) = 0.02270894
#
# Stress axis : x y z
#
# Youngs Moduli (GPa) = 68.15272 77.70578 53.91969
#
# Poissons Ratio (x) = 0.15755 0.45573
# Poissons Ratio (y) = 0.13818 0.06525
# Poissons Ratio (z) = 0.57602 0.09403
#
# Static dielectric constant tensor:
#      x y z
#    x 2.090470 -0.007920 0.034280 
#    y -0.007920 2.126620 -0.048710 
#    z 0.034280 -0.048710 2.111330 
# 
# From -- ./inp_files/457556.got.cif
#   From: 2010.05.17/outbox.cif.g08.bks.cpg/sg2_229_cif.got.tgz:457556.got - 2010.06.03 11:33:40.
