data_PCOD9078274
_publ_section_title
;
Structure prediction by ZEFSAII (Michael W. Deem and Ramdas Pophale) SiO2 
 PCOD9078274
Probable space group: P -1
;
_chemical_formula_sum "Si O2"
_cell_formula_units_Z 12
_cell_length_a 8.752981
_cell_length_b 13.291410
_cell_length_c 6.950799
_cell_angle_alpha 65.081984
_cell_angle_beta 98.915134
_cell_angle_gamma 135.605464
_cell_volume 499.282539
_symmetry_space_group_name_H-M "P -1"
_symmetry_group_IT_number 2
_symmetry_cell_setting 'triclinic'
loop_
_space_group_symop_operation_xyz
x,y,z
-x,-y,-z
loop_
_atom_site_type_symbol
_atom_site_label
_atom_site_fract_x
_atom_site_fract_y
_atom_site_fract_z
Si Si1 0.954328 0.074421 0.074632
Si Si2 0.441510 0.341607 0.105013
Si Si3 0.590009 0.874734 0.484009
Si Si4 0.185962 0.814444 0.578955
Si Si5 0.743197 0.176233 0.949811
Si Si6 0.168156 0.542497 0.168304
O O1 0.913619 0.175206 0.895180
O O2 0.175566 0.198028 0.145553
O O3 0.735037 0.937578 0.270306
O O4 0.000000 0.000000 0.000000
O O5 0.492966 0.288429 0.336127
O O6 0.500000 0.500000 0.000000
O O7 0.591602 0.365614 0.946604
O O8 0.375998 0.844822 0.478304
O O9 0.759566 0.025773 0.548712
O O10 0.226015 0.816872 0.816368
O O11 0.952828 0.631583 0.638952
O O12 0.792605 0.330178 0.792261
O O13 0.500000 0.000000 0.000000
O O14 0.000000 0.500000 0.000000
#
# Coordination Sequence:
#
# PCOD9078274 Si02
#       6
#     2   2   2   2   2   2
#     4  11  25  39  58  92 128 166 200 251 322 364
#     4  12  22  37  65  94 125 160 204 256 314 365
#     4  10  20  38  63  91 125 159 212 253 299 370
#     4   9  19  36  66  93 113 156 219 257 289 357
#     4  10  19  36  62  86 120 165 204 248 303 368
#     4  10  18  35  60  89 114 157 211 247 290 362
#
# _framework density 24.034488
#
# number of rings (size 3 to 8) (size 9 to 14) (size 15 to 20)
#    0.000    1.667    3.333    4.500    0.000    0.000 
#    0.000    0.833    0.000   14.000    0.000    0.000 
#    0.000    0.000    0.000    0.000    0.000    0.000 
#
# Total GULP energy -67022.719696 kJ/mol
# GULP energy per Si atom -5585.226641 kJ/mol
# Density = 2.397978 g / cm^3
# Si number density = 24.034488 Si / 1000 Ang^3
#
#
#
# Elastic Constant Matrix: (Units=GPa)
#
#
# Indices 1 2 3 4 5 6 
#
# 1 123.3054 21.8985 27.6582 -1.6469 -18.7512 -31.8572
# 2 21.8985 114.3073 26.8736 -9.2266 -0.7369 -36.5806
# 3 27.6582 26.8736 82.9158 -19.7610 -19.4246 -22.7108
# 4 -1.6469 -9.2266 -19.7610 37.7989 -8.0103 -0.1965
# 5 -18.7512 -0.7369 -19.4246 -8.0103 40.8093 -5.8833
# 6 -31.8572 -36.5806 -22.7108 -0.1965 -5.8833 55.1512
#
#
#
# Elastic Compliance Matrix: (Units=1/GPa)
#
#
# Indices 1 2 3 4 5 6 
#
# 1 0.010936 0.000438 0.000372 0.002243 0.006729 0.007486
# 2 0.000438 0.011584 -0.000598 0.002967 0.001847 0.007898
# 3 0.000372 -0.000598 0.022027 0.014627 0.015036 0.010545
# 4 0.002243 0.002967 0.014627 0.038640 0.017255 0.011265
# 5 0.006729 0.001847 0.015036 0.017255 0.040433 0.015678
# 6 0.007486 0.007898 0.010545 0.011265 0.015678 0.033749
#
#
# Mechanical properties :
#
#
# Convention : Reuss Voigt Hill
#
# Bulk Modulus (GPa) = 22.23696 52.59878 37.41787
# Shear Modulus (GPa) = 29.08063 43.02513 36.05288
#
# Velocity S-wave (km/s) = 3.48221 4.23560 3.87725
# Velocity P-wave (km/s) = 5.04380 6.77145 5.97045
#
# Compressibility (1/GPa) = 0.04497018
#
# Stress axis : x y z
#
# Youngs Moduli (GPa) = 91.43837 86.32805 45.39945
#
# Poissons Ratio (x) = -0.03779 -0.01687
# Poissons Ratio (y) = -0.04002 0.02713
# Poissons Ratio (z) = -0.03398 0.05159
#
# Static dielectric constant tensor:
#      x y z
#    x 1.957190 0.031950 0.129610 
#    y 0.031950 2.029140 0.051070 
#    z 0.129610 0.051070 2.061720 
# 
# From -- ./inp_files/169502.got.cif
#   From: 2010.05.17/outbox.cif.g08.bks.cpg/sg2_85_cif.got.tgz:169502.got - 2010.06.03 11:33:40.
