data_PCOD9078223
_publ_section_title
;
Structure prediction by ZEFSAII (Michael W. Deem and Ramdas Pophale) SiO2 
 PCOD9078223
Probable space group: P -1
;
_chemical_formula_sum "Si O2"
_cell_formula_units_Z 14
_cell_length_a 8.560442
_cell_length_b 10.120503
_cell_length_c 9.688485
_cell_angle_alpha 117.320848
_cell_angle_beta 96.495868
_cell_angle_gamma 57.616174
_cell_volume 619.834889
_symmetry_space_group_name_H-M "P -1"
_symmetry_group_IT_number 2
_symmetry_cell_setting 'triclinic'
loop_
_space_group_symop_operation_xyz
x,y,z
-x,-y,-z
loop_
_atom_site_type_symbol
_atom_site_label
_atom_site_fract_x
_atom_site_fract_y
_atom_site_fract_z
Si Si1 0.899299 0.138196 0.397954
Si Si2 0.102706 0.568283 0.638742
Si Si3 0.334853 0.446490 0.137065
Si Si4 0.733287 0.800297 0.844530
Si Si5 0.510844 0.389614 0.584525
Si Si6 0.947841 0.801461 0.282027
Si Si7 0.583650 0.876737 0.158628
O O1 0.880463 0.275558 0.349542
O O2 0.697887 0.202099 0.477916
O O3 0.015128 0.159415 0.540534
O O4 0.974754 0.940123 0.264145
O O5 0.316601 0.407847 0.601415
O O6 0.000000 0.500000 0.500000
O O7 0.956106 0.670550 0.795191
O O8 0.338818 0.332031 0.214789
O O9 0.445021 0.532612 0.239997
O O10 0.117858 0.602366 0.166579
O O11 0.417288 0.299798 0.954898
O O12 0.624448 0.945123 0.782732
O O13 0.674952 0.894986 0.032929
O O14 0.500000 0.500000 0.500000
O O15 0.742741 0.836406 0.263494
#
# Coordination Sequence:
#
# PCOD9078223 Si02
#       7
#     2   2   2   2   2   2   2
#     4   9  21  34  56  84 111 147 188 223 280 331
#     4  11  21  34  57  86 114 140 183 240 281 320
#     4   9  18  36  57  83 103 147 194 214 274 331
#     4   9  20  35  56  89 106 138 194 229 272 323
#     4   9  18  31  55  79 109 141 179 230 269 321
#     4  10  18  35  60  80 110 151 190 221 266 343
#     4   9  20  34  62  82 110 150 185 229 268 332
#
# _framework density 22.586658
#
# number of rings (size 3 to 8) (size 9 to 14) (size 15 to 20)
#    0.857    1.714    0.000    3.000    6.000    0.000 
#    0.000    3.571    9.429    4.286    0.000    0.000 
#    0.000    0.000    0.000    0.000    0.000    0.000 
#
# Total GULP energy -77949.462552 kJ/mol
# GULP energy per Si atom -5567.818754 kJ/mol
# Density = 2.253525 g / cm^3
# Si number density = 22.586658 Si / 1000 Ang^3
#
#
#
# Elastic Constant Matrix: (Units=GPa)
#
#
# Indices 1 2 3 4 5 6 
#
# 1 79.3913 10.9166 18.8402 4.0990 1.9027 -25.4963
# 2 10.9166 71.9940 14.3841 25.6370 5.7808 -9.9442
# 3 18.8402 14.3841 32.3604 12.8886 6.6563 -7.6527
# 4 4.0990 25.6370 12.8886 27.4120 0.1928 8.5158
# 5 1.9027 5.7808 6.6563 0.1928 22.7564 2.8499
# 6 -25.4963 -9.9442 -7.6527 8.5158 2.8499 42.8279
#
#
#
# Elastic Compliance Matrix: (Units=1/GPa)
#
#
# Indices 1 2 3 4 5 6 
#
# 1 0.017598 0.001922 -0.006324 -0.004815 -0.001427 0.010845
# 2 0.001922 0.027465 0.006090 -0.033742 -0.010640 0.016027
# 3 -0.006324 0.006090 0.052721 -0.034087 -0.018035 0.015048
# 4 -0.004815 -0.033742 -0.034087 0.096258 0.022819 -0.037450
# 5 -0.001427 -0.010640 -0.018035 0.022819 0.053683 -0.014652
# 6 0.010845 0.016027 0.015048 -0.037450 -0.014652 0.044637
#
#
# Mechanical properties :
#
#
# Convention : Reuss Voigt Hill
#
# Bulk Modulus (GPa) = 9.88517 30.22527 20.05522
# Shear Modulus (GPa) = 15.49399 27.90624 21.70011
#
# Velocity S-wave (km/s) = 2.62196 3.51881 3.10296
# Velocity P-wave (km/s) = 3.68135 5.46995 4.66222
#
# Compressibility (1/GPa) = 0.10116167
#
# Stress axis : x y z
#
# Youngs Moduli (GPa) = 56.82481 36.40936 18.96780
#
# Poissons Ratio (x) = -0.06999 0.11995
# Poissons Ratio (y) = -0.10923 -0.11552
# Poissons Ratio (z) = 0.35936 -0.22174
#
# Static dielectric constant tensor:
#      x y z
#    x 1.843640 -0.017820 -0.023720 
#    y -0.017820 1.983920 0.009380 
#    z -0.023720 0.009380 1.876630 
# 
# From -- ./inp_files/330957.got.cif
#   From: 2010.05.17/outbox.cif.g08.bks.cpg/sg2_166_cif.got.tgz:330957.got - 2010.06.03 11:33:40.
