data_PCOD9078559
_publ_section_title
;
Structure prediction by ZEFSAII (Michael W. Deem and Ramdas Pophale) SiO2 
 PCOD9078559
Probable space group: P -1
;
_chemical_formula_sum "Si O2"
_cell_formula_units_Z 14
_cell_length_a 7.917748
_cell_length_b 9.141285
_cell_length_c 9.135244
_cell_angle_alpha 107.101284
_cell_angle_beta 87.792541
_cell_angle_gamma 64.741114
_cell_volume 561.157688
_symmetry_space_group_name_H-M "P -1"
_symmetry_group_IT_number 2
_symmetry_cell_setting 'triclinic'
loop_
_space_group_symop_operation_xyz
x,y,z
-x,-y,-z
loop_
_atom_site_type_symbol
_atom_site_label
_atom_site_fract_x
_atom_site_fract_y
_atom_site_fract_z
Si Si1 0.560850 0.019423 0.250578
Si Si2 0.554062 0.320660 0.030816
Si Si3 0.226599 0.059075 0.067125
Si Si4 0.631001 0.766176 0.422276
Si Si5 0.975717 0.351075 0.543802
Si Si6 0.872347 0.590115 0.890422
Si Si7 0.673894 0.406301 0.356806
O O1 0.566836 0.865218 0.303363
O O2 0.732548 0.971746 0.118314
O O3 0.520230 0.160459 0.419736
O O4 0.383596 0.079712 0.166578
O O5 0.733402 0.131624 0.930684
O O6 0.351649 0.316278 0.032376
O O7 0.606476 0.337380 0.201629
O O8 0.500000 0.500000 0.000000
O O9 0.072233 0.262013 0.129233
O O10 0.700584 0.566578 0.338334
O O11 0.811749 0.792740 0.475347
O O12 0.889515 0.446582 0.728097
O O13 0.849186 0.297531 0.428185
O O14 0.000000 0.500000 0.500000
O O15 0.000000 0.500000 0.000000
O O16 0.500000 0.500000 0.500000
#
# Coordination Sequence:
#
# PCOD9078559 Si02
#       7
#     2   2   2   2   2   2   2
#     4  10  18  35  65  89 118 157 221 263 303 373
#     4  12  25  41  65  97 130 171 209 267 328 380
#     4  11  21  40  64  92 125 168 217 253 316 389
#     4  10  21  36  63  94 117 164 219 264 309 378
#     4  10  22  37  63  93 123 166 216 263 311 376
#     4  12  24  42  70  95 126 169 221 265 314 383
#     4  11  21  38  60  88 132 166 207 256 329 384
#
# _framework density 24.948422999999998
#
# number of rings (size 3 to 8) (size 9 to 14) (size 15 to 20)
#    0.000    1.143    4.286    4.286    4.000    0.000 
#    0.000    0.714    6.286    5.143    0.000    0.000 
#    0.000    0.000    0.000    0.000    0.000    0.000 
#
# Total GULP energy -78029.664563 kJ/mol
# GULP energy per Si atom -5573.547469 kJ/mol
# Density = 2.489164 g / cm^3
# Si number density = 24.948423 Si / 1000 Ang^3
#
#
#
# Elastic Constant Matrix: (Units=GPa)
#
#
# Indices 1 2 3 4 5 6 
#
# 1 64.6371 15.3773 28.9204 -8.8002 24.2431 -15.4092
# 2 15.3773 168.1530 36.2012 -12.3512 7.9727 -7.5377
# 3 28.9204 36.2012 145.4898 -9.4862 15.6804 -14.8603
# 4 -8.8002 -12.3512 -9.4862 46.8663 -6.5523 8.1656
# 5 24.2431 7.9727 15.6804 -6.5523 36.8717 -4.8985
# 6 -15.4092 -7.5377 -14.8603 8.1656 -4.8985 26.8763
#
#
#
# Elastic Compliance Matrix: (Units=1/GPa)
#
#
# Indices 1 2 3 4 5 6 
#
# 1 0.023982 -0.000633 -0.002143 0.000318 -0.013354 0.009857
# 2 -0.000633 0.006404 -0.001343 0.001226 -0.000140 0.000292
# 3 -0.002143 -0.001343 0.008053 0.000245 -0.001346 0.002527
# 4 0.000318 0.001226 0.000245 0.023180 0.002760 -0.005878
# 5 -0.013354 -0.000140 -0.001346 0.002760 0.036649 -0.002599
# 6 0.009857 0.000292 0.002527 -0.005878 -0.002599 0.045650
#
#
# Mechanical properties :
#
#
# Convention : Reuss Voigt Hill
#
# Bulk Modulus (GPa) = 33.11152 59.91975 46.51563
# Shear Modulus (GPa) = 30.82190 41.97495 36.39842
#
# Velocity S-wave (km/s) = 3.51867 4.10624 3.82376
# Velocity P-wave (km/s) = 5.45975 6.82284 6.17900
#
# Compressibility (1/GPa) = 0.03020097
#
# Stress axis : x y z
#
# Youngs Moduli (GPa) = 41.69760 156.15813 124.18455
#
# Poissons Ratio (x) = 0.09892 0.26610
# Poissons Ratio (y) = 0.02641 0.16672
# Poissons Ratio (z) = 0.08935 0.20965
#
# Static dielectric constant tensor:
#      x y z
#    x 2.159550 -0.114910 0.021400 
#    y -0.114910 2.324050 -0.015360 
#    z 0.021400 -0.015360 2.102830 
# 
# From -- ./inp_files/159733.got.cif
#   From: 2010.05.17/outbox.cif.g08.bks.cpg/sg2_80_cif.got.tgz:159733.got - 2010.06.03 11:33:40.
