data_PCOD9078414
_publ_section_title
;
Structure prediction by ZEFSAII (Michael W. Deem and Ramdas Pophale) SiO2 
 PCOD9078414
Probable space group: P -1
;
_chemical_formula_sum "Si O2"
_cell_formula_units_Z 16
_cell_length_a 11.745976
_cell_length_b 9.425391
_cell_length_c 12.890877
_cell_angle_alpha 121.276936
_cell_angle_beta 93.612976
_cell_angle_gamma 129.769665
_cell_volume 748.961789
_symmetry_space_group_name_H-M "P -1"
_symmetry_group_IT_number 2
_symmetry_cell_setting 'triclinic'
loop_
_space_group_symop_operation_xyz
x,y,z
-x,-y,-z
loop_
_atom_site_type_symbol
_atom_site_label
_atom_site_fract_x
_atom_site_fract_y
_atom_site_fract_z
Si Si1 0.886336 0.094382 0.457733
Si Si2 0.954992 0.035695 0.666639
Si Si3 0.724444 0.234238 0.496472
Si Si4 0.633495 0.719511 0.679624
Si Si5 0.645415 0.360458 0.102381
Si Si6 0.625736 0.393000 0.699694
Si Si7 0.551108 0.141789 0.230920
Si Si8 0.492431 0.518113 0.127346
O O1 0.881505 0.035264 0.555702
O O2 0.894726 0.301501 0.525257
O O3 0.690925 0.815860 0.289691
O O4 0.036746 0.151596 0.430223
O O5 0.163038 0.338453 0.806168
O O6 0.834671 0.942489 0.723440
O O7 0.754862 0.423102 0.648534
O O8 0.651286 0.206949 0.368848
O O9 0.559588 0.931384 0.422649
O O10 0.500000 0.500000 0.500000
O O11 0.608413 0.548875 0.699293
O O12 0.568234 0.829469 0.743778
O O13 0.677092 0.322938 0.205334
O O14 0.489387 0.324680 0.093638
O O15 0.577394 0.151278 0.934431
O O16 0.655393 0.509139 0.858967
O O17 0.500000 0.500000 0.000000
#
# Coordination Sequence:
#
# PCOD9078414 Si02
#       8
#     2   2   2   2   2   2   2   2
#     4   9  20  37  60  90 122 161 209 249 311 374
#     4  10  23  39  65  91 129 170 203 259 322 369
#     4  10  20  36  62  96 123 160 204 267 312 356
#     4  12  22  38  65  94 121 167 213 259 308 376
#     4  10  22  41  60  96 125 170 211 254 310 376
#     4  10  20  33  57  93 124 154 208 254 308 363
#     4  11  23  38  68  95 127 162 217 259 305 376
#     4  10  18  35  62  89 121 162 208 254 304 370
#
# _framework density 21.362904
#
# number of rings (size 3 to 8) (size 9 to 14) (size 15 to 20)
#    0.000    1.750    2.500    3.000    5.250    0.500 
#    0.000    2.500    0.000    6.750    0.000    0.000 
#    0.000    0.000    0.000    0.000    0.000    0.000 
#
# Total GULP energy -89150.026856 kJ/mol
# GULP energy per Si atom -5571.876678 kJ/mol
# Density = 2.131428 g / cm^3
# Si number density = 21.362904 Si / 1000 Ang^3
#
#
#
# Elastic Constant Matrix: (Units=GPa)
#
#
# Indices 1 2 3 4 5 6 
#
# 1 149.0612 49.7505 59.2884 -12.5396 -45.3057 -29.0752
# 2 49.7505 72.1969 23.1754 -7.3735 -3.9372 4.1034
# 3 59.2884 23.1754 103.6596 -11.3445 -45.2623 -6.8789
# 4 -12.5396 -7.3735 -11.3445 31.8146 -1.7922 0.9304
# 5 -45.3057 -3.9372 -45.2623 -1.7922 42.2158 2.2270
# 6 -29.0752 4.1034 -6.8789 0.9304 2.2270 24.4182
#
#
#
# Elastic Compliance Matrix: (Units=1/GPa)
#
#
# Indices 1 2 3 4 5 6 
#
# 1 0.032363 -0.023883 0.007905 0.011061 0.039298 0.040770
# 2 -0.023883 0.033355 -0.011161 -0.006528 -0.032974 -0.033932
# 3 0.007905 -0.011161 0.024183 0.010584 0.033045 0.014684
# 4 0.011061 -0.006528 0.010584 0.038981 0.023546 0.013616
# 5 0.039298 -0.032974 0.033045 0.023546 0.096476 0.051948
# 6 0.040770 -0.033932 0.014684 0.013616 0.051948 0.094081
#
#
# Mechanical properties :
#
#
# Convention : Reuss Voigt Hill
#
# Bulk Modulus (GPa) = 28.07291 65.48291 46.77791
# Shear Modulus (GPa) = 12.96706 32.53661 22.75183
#
# Velocity S-wave (km/s) = 2.46639 3.90685 3.26700
# Velocity P-wave (km/s) = 4.61305 7.14636 6.01460
#
# Compressibility (1/GPa) = 0.03562152
#
# Stress axis : x y z
#
# Youngs Moduli (GPa) = 30.89946 29.98026 41.35173
#
# Poissons Ratio (x) = 0.71602 -0.32688
# Poissons Ratio (y) = 0.73798 0.46155
# Poissons Ratio (z) = -0.24426 0.33462
#
# Static dielectric constant tensor:
#      x y z
#    x 1.869940 -0.030350 -0.032850 
#    y -0.030350 1.855740 -0.065050 
#    z -0.032850 -0.065050 1.780530 
# 
# From -- ./inp_files/419749.got.cif
#   From: 2010.05.17/outbox.cif.g08.bks.cpg/sg2_210_cif.got.tgz:419749.got - 2010.06.03 11:33:40.
