data_PCOD9078517
_publ_section_title
;
Structure prediction by ZEFSAII (Michael W. Deem and Ramdas Pophale) SiO2 
 PCOD9078517
Probable space group: P -1
;
_chemical_formula_sum "Si O2"
_cell_formula_units_Z 12
_cell_length_a 9.577599
_cell_length_b 7.267661
_cell_length_c 12.872073
_cell_angle_alpha 105.700155
_cell_angle_beta 129.097312
_cell_angle_gamma 112.156764
_cell_volume 455.200896
_symmetry_space_group_name_H-M "P -1"
_symmetry_group_IT_number 2
_symmetry_cell_setting 'triclinic'
loop_
_space_group_symop_operation_xyz
x,y,z
-x,-y,-z
loop_
_atom_site_type_symbol
_atom_site_label
_atom_site_fract_x
_atom_site_fract_y
_atom_site_fract_z
Si Si1 0.753796 0.566975 0.123351
Si Si2 0.121868 0.853205 0.525169
Si Si3 0.707899 0.399635 0.873819
Si Si4 0.675780 0.406447 0.395405
Si Si5 0.198976 0.268886 0.212749
Si Si6 0.739344 0.125341 0.006424
O O1 0.689284 0.287686 0.064228
O O2 0.970355 0.793868 0.342038
O O3 0.500000 0.500000 0.000000
O O4 0.855775 0.649910 0.064546
O O5 0.209733 0.701486 0.524118
O O6 0.922506 0.705962 0.505758
O O7 0.396997 0.170663 0.722328
O O8 0.706524 0.471375 0.768272
O O9 0.790729 0.253318 0.930773
O O10 0.465636 0.352577 0.361747
O O11 0.500515 0.202726 0.180945
O O12 0.987866 0.203212 0.180996
O O13 0.000000 0.000000 0.000000
#
# Coordination Sequence:
#
# PCOD9078517 Si02
#       6
#     2   2   2   2   2   2
#     4  10  21  35  57  86 111 148 188 230 276 326
#     4  10  20  39  56  85 120 139 188 235 271 336
#     4   9  20  37  60  82 109 152 186 228 281 322
#     4   9  19  35  58  86 113 151 178 229 286 323
#     4  10  18  35  64  80 111 152 187 226 280 336
#     4   8  19  36  55  86 108 149 189 222 276 331
#
# _framework density 26.361985000000001
#
# number of rings (size 3 to 8) (size 9 to 14) (size 15 to 20)
#    1.000    1.667    0.000    1.500    0.000    3.333 
#    0.000    1.667    0.000    0.000    0.000    0.000 
#    0.000    0.000    0.000    0.000    0.000    0.000 
#
# Total GULP energy -66921.430398 kJ/mol
# GULP energy per Si atom -5576.785866 kJ/mol
# Density = 2.630198 g / cm^3
# Si number density = 26.361985 Si / 1000 Ang^3
#
#
#
# Elastic Constant Matrix: (Units=GPa)
#
#
# Indices 1 2 3 4 5 6 
#
# 1 117.5253 19.4762 33.5119 -22.0172 26.9369 -37.9155
# 2 19.4762 57.3966 27.0989 -0.9636 7.8053 -15.5197
# 3 33.5119 27.0989 107.7876 -33.5723 42.2940 -28.9520
# 4 -22.0172 -0.9636 -33.5723 38.0347 -9.2660 2.0949
# 5 26.9369 7.8053 42.2940 -9.2660 49.3306 -18.1169
# 6 -37.9155 -15.5197 -28.9520 2.0949 -18.1169 36.1879
#
#
#
# Elastic Compliance Matrix: (Units=1/GPa)
#
#
# Indices 1 2 3 4 5 6 
#
# 1 0.016523 -0.002883 0.006415 0.012936 -0.005051 0.017930
# 2 -0.002883 0.022175 -0.007938 -0.007157 0.004571 0.002841
# 3 0.006415 -0.007938 0.026163 0.022142 -0.014807 0.015554
# 4 0.012936 -0.007157 0.022142 0.050105 -0.007612 0.021487
# 5 -0.005051 0.004571 -0.014807 -0.007612 0.034502 0.002535
# 6 0.017930 0.002841 0.015554 0.021487 0.002535 0.060107
#
#
# Mechanical properties :
#
#
# Convention : Reuss Voigt Hill
#
# Bulk Modulus (GPa) = 17.84175 49.20927 33.52551
# Shear Modulus (GPa) = 21.09071 38.21880 29.65475
#
# Velocity S-wave (km/s) = 2.83157 3.81171 3.35760
# Velocity P-wave (km/s) = 4.18008 6.17086 5.27032
#
# Compressibility (1/GPa) = 0.05604833
#
# Stress axis : x y z
#
# Youngs Moduli (GPa) = 60.52156 45.09506 38.22204
#
# Poissons Ratio (x) = 0.13002 -0.24519
# Poissons Ratio (y) = 0.17449 0.30342
# Poissons Ratio (z) = -0.38824 0.35798
#
# Static dielectric constant tensor:
#      x y z
#    x 2.204170 0.076690 0.063320 
#    y 0.076690 2.188170 0.041550 
#    z 0.063320 0.041550 2.039260 
# 
# From -- ./inp_files/213828.got.cif
#   From: 2010.05.17/outbox.cif.g08.bks.cpg/sg2_107_cif.got.tgz:213828.got - 2010.06.03 11:33:40.
