data_PCOD9078663
_publ_section_title
;
Structure prediction by ZEFSAII (Michael W. Deem and Ramdas Pophale) SiO2 
 PCOD9078663
Probable space group: P -1
;
_chemical_formula_sum "Si O2"
_cell_formula_units_Z 16
_cell_length_a 7.981229
_cell_length_b 12.765398
_cell_length_c 18.573896
_cell_angle_alpha 136.469243
_cell_angle_beta 41.447987
_cell_angle_gamma 142.036275
_cell_volume 727.622088
_symmetry_space_group_name_H-M "P -1"
_symmetry_group_IT_number 2
_symmetry_cell_setting 'triclinic'
loop_
_space_group_symop_operation_xyz
x,y,z
-x,-y,-z
loop_
_atom_site_type_symbol
_atom_site_label
_atom_site_fract_x
_atom_site_fract_y
_atom_site_fract_z
Si Si1 0.265350 0.334756 0.541192
Si Si2 0.599996 0.731013 0.000974
Si Si3 0.489167 0.561089 0.806472
Si Si4 0.061133 0.680563 0.231056
Si Si5 0.201745 0.072497 0.188714
Si Si6 0.891517 0.974197 0.388015
Si Si7 0.338956 0.654624 0.447956
Si Si8 0.801438 0.105599 0.041154
O O1 0.500000 0.500000 0.500000
O O2 0.475297 0.329969 0.532794
O O3 0.037598 0.362153 0.675743
O O4 0.076693 0.155830 0.465412
O O5 0.452623 0.581784 0.912153
O O6 0.893732 0.746217 0.945628
O O7 0.379623 0.714542 0.126088
O O8 0.696525 0.917460 0.021530
O O9 0.593641 0.428658 0.684541
O O10 0.179789 0.481657 0.823238
O O11 0.737083 0.754122 0.788798
O O12 0.026317 0.849162 0.304406
O O13 0.969223 0.016054 0.299688
O O14 0.523864 0.129661 0.146733
O O15 0.136781 0.921119 0.075099
O O16 0.535650 0.865117 0.466876
O O17 0.000000 0.500000 0.500000
#
# Coordination Sequence:
#
# PCOD9078663 Si02
#       8
#     2   2   2   2   2   2   2   2
#     4  10  21  40  61  86 116 154 199 245 295 350
#     4  10  18  36  54  89 113 149 197 238 288 344
#     4   9  20  35  59  81 117 155 189 239 292 348
#     4  10  19  35  58  83 114 155 194 233 290 357
#     4  10  18  37  57  82 112 155 189 234 299 347
#     4  10  19  37  64  83 110 163 198 233 295 363
#     4  10  22  41  58  88 119 153 200 247 290 342
#     4   9  20  33  56  83 118 145 191 244 285 347
#
# _framework density 21.989436999999999
#
# number of rings (size 3 to 8) (size 9 to 14) (size 15 to 20)
#    0.000    2.500    1.250    3.375    0.000    1.000 
#   11.250    1.875    0.000    0.000    0.000    0.000 
#    0.000    0.000    0.000    0.000    0.000    0.000 
#
# Total GULP energy -89229.420456 kJ/mol
# GULP energy per Si atom -5576.838779 kJ/mol
# Density = 2.193939 g / cm^3
# Si number density = 21.989437 Si / 1000 Ang^3
#
#
#
# Elastic Constant Matrix: (Units=GPa)
#
#
# Indices 1 2 3 4 5 6 
#
# 1 34.0057 27.1936 26.7795 -13.4263 12.4541 -7.9945
# 2 27.1936 128.4362 61.1635 -15.2846 16.6189 8.2150
# 3 26.7795 61.1635 98.9375 -28.2700 27.7065 1.2485
# 4 -13.4263 -15.2846 -28.2700 39.0262 -5.7536 1.1868
# 5 12.4541 16.6189 27.7065 -5.7536 25.2454 -4.7606
# 6 -7.9945 8.2150 1.2485 1.1868 -4.7606 19.1143
#
#
#
# Elastic Compliance Matrix: (Units=1/GPa)
#
#
# Indices 1 2 3 4 5 6 
#
# 1 0.051409 -0.008153 -0.003719 0.009722 -0.009496 0.022280
# 2 -0.008153 0.012718 -0.006288 -0.002050 0.000537 -0.008204
# 3 -0.003719 -0.006288 0.023134 0.010521 -0.018057 -0.005514
# 4 0.009722 -0.002050 0.010521 0.034743 -0.007008 0.000358
# 5 -0.009496 0.000537 -0.018057 -0.007008 0.064714 0.013530
# 6 0.022280 -0.008204 -0.005514 0.000358 0.013530 0.068869
#
#
# Mechanical properties :
#
#
# Convention : Reuss Voigt Hill
#
# Bulk Modulus (GPa) = 19.63052 54.62806 37.12929
# Shear Modulus (GPa) = 16.18709 26.42671 21.30690
#
# Velocity S-wave (km/s) = 2.71612 3.47045 3.11619
# Velocity P-wave (km/s) = 4.33394 6.39965 5.46528
#
# Compressibility (1/GPa) = 0.05094109
#
# Stress axis : x y z
#
# Youngs Moduli (GPa) = 19.45171 78.62814 43.22661
#
# Poissons Ratio (x) = 0.64108 0.16075
# Poissons Ratio (y) = 0.15860 0.27181
# Poissons Ratio (z) = 0.07233 0.49442
#
# Static dielectric constant tensor:
#      x y z
#    x 1.842450 -0.044310 -0.025690 
#    y -0.044310 1.874060 -0.005810 
#    z -0.025690 -0.005810 1.801020 
# 
# From -- ./inp_files/590472.got.cif
#   From: 2010.05.17/outbox.cif.g08.bks.cpg/sg2_296_cif.got.tgz:590472.got - 2010.06.03 11:33:40.
