data_PCOD9078642
_publ_section_title
;
Structure prediction by ZEFSAII (Michael W. Deem and Ramdas Pophale) SiO2 
 PCOD9078642
Probable space group: P -1
;
_chemical_formula_sum "Si O2"
_cell_formula_units_Z 16
_cell_length_a 11.232637
_cell_length_b 12.168541
_cell_length_c 11.198360
_cell_angle_alpha 94.623778
_cell_angle_beta 40.730044
_cell_angle_gamma 76.119184
_cell_volume 882.465733
_symmetry_space_group_name_H-M "P -1"
_symmetry_group_IT_number 2
_symmetry_cell_setting 'triclinic'
loop_
_space_group_symop_operation_xyz
x,y,z
-x,-y,-z
loop_
_atom_site_type_symbol
_atom_site_label
_atom_site_fract_x
_atom_site_fract_y
_atom_site_fract_z
Si Si1 0.523247 0.256194 0.606784
Si Si2 0.396695 0.591663 0.246365
Si Si3 0.278378 0.508305 0.705842
Si Si4 0.163562 0.603203 0.200673
Si Si5 0.631403 0.930150 0.278991
Si Si6 0.782921 0.568424 0.497970
Si Si7 0.604274 0.178803 0.265195
Si Si8 0.062110 0.748891 0.053870
O O1 0.633252 0.308150 0.619657
O O2 0.323566 0.382583 0.729886
O O3 0.463340 0.157496 0.703785
O O4 0.625438 0.200503 0.394432
O O5 0.262546 0.647898 0.234870
O O6 0.324294 0.492465 0.342217
O O7 0.637418 0.513506 0.019572
O O8 0.500000 0.500000 0.500000
O O9 0.164084 0.510910 0.671715
O O10 0.165810 0.624886 0.884963
O O11 0.051502 0.704513 0.191384
O O12 0.990977 0.569209 0.380382
O O13 0.853752 0.840991 0.155686
O O14 0.500000 0.000000 0.500000
O O15 0.621898 0.043463 0.219033
O O16 0.609635 0.706984 0.605217
O O17 0.784445 0.191298 0.061766
#
# Coordination Sequence:
#
# PCOD9078642 Si02
#       8
#     2   2   2   2   2   2   2   2
#     4  10  18  36  53  77 119 140 178 233 275 332
#     4  11  21  38  51  84 116 145 188 225 275 332
#     4  11  17  31  56  86 112 139 173 229 302 331
#     4  11  23  32  56  83 112 154 181 220 280 339
#     4  10  23  34  53  83 110 149 190 226 276 333
#     4  11  20  37  58  81 118 140 184 230 281 336
#     4  10  19  37  57  82 111 147 179 236 279 324
#     4  12  19  35  57  83 115 144 182 231 282 338
#
# _framework density 18.131014
#
# number of rings (size 3 to 8) (size 9 to 14) (size 15 to 20)
#    0.000    1.250    6.250    3.000    1.750    1.000 
#    0.000    0.000    0.000    7.500    0.000    0.000 
#    0.000    0.000    0.000    0.000    0.000    0.000 
#
# Total GULP energy -89238.917978 kJ/mol
# GULP energy per Si atom -5577.432374 kJ/mol
# Density = 1.808975 g / cm^3
# Si number density = 18.131014 Si / 1000 Ang^3
#
#
#
# Elastic Constant Matrix: (Units=GPa)
#
#
# Indices 1 2 3 4 5 6 
#
# 1 65.0930 15.3982 17.8464 0.1117 -6.5036 4.6387
# 2 15.3982 122.3413 27.7710 -1.6254 -4.7857 10.5364
# 3 17.8464 27.7710 56.6570 -5.3016 -11.9461 4.4360
# 4 0.1117 -1.6254 -5.3016 17.9429 5.8582 -2.5679
# 5 -6.5036 -4.7857 -11.9461 5.8582 23.0426 -7.9167
# 6 4.6387 10.5364 4.4360 -2.5679 -7.9167 21.9903
#
#
#
# Elastic Compliance Matrix: (Units=1/GPa)
#
#
# Indices 1 2 3 4 5 6 
#
# 1 0.017196 -0.000920 -0.004575 -0.002555 0.002351 -0.001716
# 2 -0.000920 0.009604 -0.004540 -0.000431 -0.001970 -0.004251
# 3 -0.004575 -0.004540 0.023554 0.003700 0.009850 0.002367
# 4 -0.002555 -0.000431 0.003700 0.061625 -0.013794 0.002230
# 5 0.002351 -0.001970 0.009850 -0.013794 0.058408 0.017878
# 6 -0.001716 -0.004251 0.002367 0.002230 0.017878 0.054092
#
#
# Mechanical properties :
#
#
# Convention : Reuss Voigt Hill
#
# Bulk Modulus (GPa) = 33.02114 40.68027 36.85071
# Shear Modulus (GPa) = 19.63528 24.80021 22.21774
#
# Velocity S-wave (km/s) = 3.29442 3.70244 3.50437
# Velocity P-wave (km/s) = 5.72040 6.38458 6.06160
#
# Compressibility (1/GPa) = 0.03028363
#
# Stress axis : x y z
#
# Youngs Moduli (GPa) = 58.15288 104.12738 42.45526
#
# Poissons Ratio (x) = 0.09581 0.19422
# Poissons Ratio (y) = 0.05351 0.19276
# Poissons Ratio (z) = 0.26603 0.47277
#
# Static dielectric constant tensor:
#      x y z
#    x 1.514720 0.151690 0.008240 
#    y 0.151690 1.526330 -0.062510 
#    z 0.008240 -0.062510 1.633350 
# 
# From -- ./inp_files/426152.got.cif
#   From: 2010.05.17/outbox.cif.g08.bks.cpg/sg2_214_cif.got.tgz:426152.got - 2010.06.03 11:33:40.
