data_PCOD9078451
_publ_section_title
;
Structure prediction by ZEFSAII (Michael W. Deem and Ramdas Pophale) SiO2 
 PCOD9078451
Probable space group: P -1
;
_chemical_formula_sum "Si O2"
_cell_formula_units_Z 12
_cell_length_a 11.722736
_cell_length_b 8.573199
_cell_length_c 8.604686
_cell_angle_alpha 125.575801
_cell_angle_beta 43.090642
_cell_angle_gamma 127.187066
_cell_volume 454.726970
_symmetry_space_group_name_H-M "P -1"
_symmetry_group_IT_number 2
_symmetry_cell_setting 'triclinic'
loop_
_space_group_symop_operation_xyz
x,y,z
-x,-y,-z
loop_
_atom_site_type_symbol
_atom_site_label
_atom_site_fract_x
_atom_site_fract_y
_atom_site_fract_z
Si Si1 0.930204 0.244070 0.770935
Si Si2 0.380479 0.096120 0.015653
Si Si3 0.926063 0.762686 0.713650
Si Si4 0.368189 0.628782 0.262725
Si Si5 0.487856 0.495387 0.689697
Si Si6 0.073456 0.310533 0.999938
O O1 0.019094 0.819626 0.485939
O O2 0.032305 0.219100 0.813747
O O3 0.723351 0.121834 0.938132
O O4 0.969763 0.481814 0.851037
O O5 0.231812 0.140475 0.081407
O O6 0.427732 0.272897 0.200787
O O7 0.558391 0.157520 0.772037
O O8 0.823881 0.518241 0.670085
O O9 0.015247 0.803698 0.818851
O O10 0.399255 0.631442 0.415941
O O11 0.500000 0.500000 0.000000
O O12 0.500000 0.500000 0.500000
O O13 0.283022 0.384085 0.865342
#
# Coordination Sequence:
#
# PCOD9078451 Si02
#       6
#     2   2   2   2   2   2
#     4  11  25  34  56  87 120 144 186 232 278 335
#     4  10  19  38  56  87 110 137 195 246 263 315
#     4  10  18  39  61  78 111 155 185 223 285 337
#     4   8  15  33  57  77 103 140 186 227 272 315
#     4  10  18  35  63  82 106 149 193 226 278 338
#     4  11  21  40  56  80 117 158 180 220 292 343
#
# _framework density 26.389462000000002
#
# number of rings (size 3 to 8) (size 9 to 14) (size 15 to 20)
#    0.000    2.333    5.000    3.000    0.000    1.333 
#    3.000    0.000    0.000    3.000    0.000    0.000 
#    0.000    0.000    0.000    0.000    0.000    0.000 
#
# Total GULP energy -66974.996575 kJ/mol
# GULP energy per Si atom -5581.249715 kJ/mol
# Density = 2.632940 g / cm^3
# Si number density = 26.389462 Si / 1000 Ang^3
#
#
#
# Elastic Constant Matrix: (Units=GPa)
#
#
# Indices 1 2 3 4 5 6 
#
# 1 152.1136 28.7539 55.3991 -10.3831 51.1187 -2.3129
# 2 28.7539 73.8999 46.1743 -12.9727 21.7181 22.2441
# 3 55.3991 46.1743 110.5772 -25.4883 53.4319 -8.4609
# 4 -10.3831 -12.9727 -25.4883 41.1553 -3.1082 2.2325
# 5 51.1187 21.7181 53.4319 -3.1082 63.0751 -10.8683
# 6 -2.3129 22.2441 -8.4609 2.2325 -10.8683 26.1428
#
#
#
# Elastic Compliance Matrix: (Units=1/GPa)
#
#
# Indices 1 2 3 4 5 6 
#
# 1 0.009416 0.000439 -0.001460 0.001245 -0.007007 -0.003032
# 2 0.000439 0.037195 -0.013739 0.004873 -0.008152 -0.039861
# 3 -0.001460 -0.013739 0.024318 0.008718 -0.011888 0.013745
# 4 0.001245 0.004873 0.008718 0.031233 -0.009912 -0.008002
# 5 -0.007007 -0.008152 -0.011888 -0.009912 0.037154 0.018762
# 6 -0.003032 -0.039861 0.013745 -0.008002 0.018762 0.084832
#
#
# Mechanical properties :
#
#
# Convention : Reuss Voigt Hill
#
# Bulk Modulus (GPa) = 24.14974 66.36059 45.25516
# Shear Modulus (GPa) = 18.69350 39.82553 29.25952
#
# Velocity S-wave (km/s) = 2.66441 3.88899 3.33341
# Velocity P-wave (km/s) = 4.31701 6.73549 5.65701
#
# Compressibility (1/GPa) = 0.04140832
#
# Stress axis : x y z
#
# Youngs Moduli (GPa) = 106.19775 26.88509 41.12224
#
# Poissons Ratio (x) = -0.01180 0.06005
# Poissons Ratio (y) = -0.04662 0.56499
# Poissons Ratio (z) = 0.15508 0.36938
#
# Static dielectric constant tensor:
#      x y z
#    x 2.155800 -0.047810 0.004710 
#    y -0.047810 2.142350 -0.044540 
#    z 0.004710 -0.044540 2.218330 
# 
# From -- ./inp_files/235526.got.cif
#   From: 2010.05.17/outbox.cif.g08.bks.cpg/sg2_118_cif.got.tgz:235526.got - 2010.06.03 11:33:40.
