data_PCOD9078282
_publ_section_title
;
Structure prediction by ZEFSAII (Michael W. Deem and Ramdas Pophale) SiO2 
 PCOD9078282
Probable space group: P -1
;
_chemical_formula_sum "Si O2"
_cell_formula_units_Z 16
_cell_length_a 11.665380
_cell_length_b 10.101566
_cell_length_c 11.314791
_cell_angle_alpha 77.595839
_cell_angle_beta 130.209942
_cell_angle_gamma 124.593287
_cell_volume 813.435446
_symmetry_space_group_name_H-M "P -1"
_symmetry_group_IT_number 2
_symmetry_cell_setting 'triclinic'
loop_
_space_group_symop_operation_xyz
x,y,z
-x,-y,-z
loop_
_atom_site_type_symbol
_atom_site_label
_atom_site_fract_x
_atom_site_fract_y
_atom_site_fract_z
Si Si1 0.188285 0.537642 0.661642
Si Si2 0.315697 0.328721 0.863862
Si Si3 0.331669 0.947716 0.076417
Si Si4 0.300994 0.800131 0.868255
Si Si5 0.947124 0.971632 0.105748
Si Si6 0.794828 0.953102 0.343412
Si Si7 0.301246 0.047749 0.457256
Si Si8 0.563438 0.166735 0.400079
O O1 0.196161 0.382760 0.711621
O O2 0.216153 0.623535 0.789587
O O3 0.345812 0.670901 0.650549
O O4 0.000000 0.500000 0.500000
O O5 0.212435 0.216819 0.931064
O O6 0.306979 0.201126 0.786828
O O7 0.500000 0.500000 0.000000
O O8 0.496777 0.091842 0.076970
O O9 0.407908 0.009297 0.246758
O O10 0.301253 0.795643 0.011151
O O11 0.144500 0.932606 0.945530
O O12 0.207984 0.893022 0.739963
O O13 0.121709 0.024925 0.289731
O O14 0.000000 0.000000 0.000000
O O15 0.689110 0.908890 0.406981
O O16 0.000000 0.000000 0.500000
O O17 0.470516 0.167783 0.458759
O O18 0.290688 0.878098 0.474618
#
# Coordination Sequence:
#
# PCOD9078282 Si02
#       8
#     2   2   2   2   2   2   2   2
#     4  11  22  39  61  91 133 164 207 262 335 377
#     4  12  26  39  64 100 134 161 210 275 332 372
#     4  10  18  35  60  90 113 155 214 261 298 361
#     4  10  20  35  65  88 122 159 221 256 304 375
#     4  12  23  39  64  93 127 168 214 261 315 392
#     4  12  21  39  64  98 126 170 227 263 307 392
#     4  11  21  37  65  90 122 161 229 262 304 371
#     4  10  21  37  62  93 119 167 210 267 312 381
#
# _framework density 19.669661999999999
#
# number of rings (size 3 to 8) (size 9 to 14) (size 15 to 20)
#    0.000    1.000    6.250    3.000    1.750    0.000 
#    0.000    0.625    2.750    0.750    0.000    0.000 
#    0.000    0.000    0.000    0.000    0.000    0.000 
#
# Total GULP energy -89173.214074 kJ/mol
# GULP energy per Si atom -5573.325880 kJ/mol
# Density = 1.962489 g / cm^3
# Si number density = 19.669662 Si / 1000 Ang^3
#
#
#
# Elastic Constant Matrix: (Units=GPa)
#
#
# Indices 1 2 3 4 5 6 
#
# 1 136.4382 30.8075 38.2058 -1.1004 -20.0540 -1.4463
# 2 30.8075 54.3792 3.8485 -2.1701 -17.8169 -2.1224
# 3 38.2058 3.8485 74.1706 -5.6812 -4.6627 -2.1526
# 4 -1.1004 -2.1701 -5.6812 26.9968 -3.2472 1.9073
# 5 -20.0540 -17.8169 -4.6627 -3.2472 45.4027 -12.0382
# 6 -1.4463 -2.1224 -2.1526 1.9073 -12.0382 30.3242
#
#
#
# Elastic Compliance Matrix: (Units=1/GPa)
#
#
# Indices 1 2 3 4 5 6 
#
# 1 0.010063 -0.004609 -0.004836 -0.000757 0.002290 0.000771
# 2 -0.004609 0.024196 0.002073 0.002944 0.009236 0.005102
# 3 -0.004836 0.002073 0.016219 0.003406 0.000908 0.001212
# 4 -0.000757 0.002944 0.003406 0.038455 0.003787 -0.000503
# 5 0.002290 0.009236 0.000908 0.003787 0.030376 0.012641
# 6 0.000771 0.005102 0.001212 -0.000503 0.012641 0.038507
#
#
# Mechanical properties :
#
#
# Convention : Reuss Voigt Hill
#
# Bulk Modulus (GPa) = 27.98438 45.63461 36.80950
# Shear Modulus (GPa) = 27.10447 33.35315 30.22881
#
# Velocity S-wave (km/s) = 3.71615 4.12231 3.92449
# Velocity P-wave (km/s) = 5.71586 6.77560 6.26817
#
# Compressibility (1/GPa) = 0.03573422
#
# Stress axis : x y z
#
# Youngs Moduli (GPa) = 99.37689 41.32883 61.65585
#
# Poissons Ratio (x) = 0.19046 0.29816
# Poissons Ratio (y) = 0.45798 -0.12779
# Poissons Ratio (z) = 0.48058 -0.08566
#
# Static dielectric constant tensor:
#      x y z
#    x 1.712470 -0.024070 -0.010690 
#    y -0.024070 1.291960 -0.659740 
#    z -0.010690 -0.659740 0.710050 
# 
# From -- ./inp_files/417211.got.cif
#   From: 2010.05.17/outbox.cif.g08.bks.cpg/sg2_209_cif.got.tgz:417211.got - 2010.06.03 11:33:40.
