data_PCOD9078761
_publ_section_title
;
Structure prediction by ZEFSAII (Michael W. Deem and Ramdas Pophale) SiO2 
 PCOD9078761
Probable space group: P -1
;
_chemical_formula_sum "Si O2"
_cell_formula_units_Z 16
_cell_length_a 9.647263
_cell_length_b 10.790850
_cell_length_c 8.546317
_cell_angle_alpha 75.357048
_cell_angle_beta 46.426643
_cell_angle_gamma 80.131796
_cell_volume 623.632784
_symmetry_space_group_name_H-M "P -1"
_symmetry_group_IT_number 2
_symmetry_cell_setting 'triclinic'
loop_
_space_group_symop_operation_xyz
x,y,z
-x,-y,-z
loop_
_atom_site_type_symbol
_atom_site_label
_atom_site_fract_x
_atom_site_fract_y
_atom_site_fract_z
Si Si1 0.552710 0.331362 0.869449
Si Si2 0.242323 0.404818 0.887995
Si Si3 0.562772 0.208932 0.399057
Si Si4 0.759858 0.064498 0.730923
Si Si5 0.067791 0.759247 0.679011
Si Si6 0.600144 0.991969 0.183324
Si Si7 0.959137 0.517737 0.286113
Si Si8 0.316190 0.385139 0.319282
O O1 0.664380 0.200948 0.813622
O O2 0.654373 0.464429 0.790616
O O3 0.455235 0.365787 0.769505
O O4 0.376210 0.315368 0.135384
O O5 0.110636 0.280826 0.063347
O O6 0.162375 0.511926 0.040223
O O7 0.190373 0.454243 0.744684
O O8 0.748610 0.234343 0.352428
O O9 0.416087 0.130154 0.650237
O O10 0.459039 0.326885 0.356717
O O11 0.620825 0.112389 0.244230
O O12 0.933799 0.117799 0.471543
O O13 0.603813 0.003111 0.752924
O O14 0.756464 0.992364 0.922730
O O15 0.076801 0.631914 0.604540
O O16 0.895739 0.613384 0.440615
#
# Coordination Sequence:
#
# PCOD9078761 Si02
#       8
#     2   2   2   2   2   2   2   2
#     4  11  21  34  54  87 116 134 174 225 272 324
#     4   9  20  35  51  77 115 150 173 205 269 339
#     4  10  19  34  56  82 109 138 179 233 261 310
#     4  10  18  36  58  82 107 139 184 224 266 319
#     4   9  18  34  54  79 106 146 171 214 269 323
#     4   9  20  34  54  83 104 141 184 229 265 302
#     4   9  19  35  49  83 113 144 176 204 273 334
#     4  11  22  32  55  88 113 135 176 225 276 313
#
# _framework density 25.656124999999999
#
# number of rings (size 3 to 8) (size 9 to 14) (size 15 to 20)
#    0.750    1.500    2.500    0.750    3.500    1.500 
#    0.000    1.250    0.000    7.500    0.000    0.000 
#    0.000    0.000    0.000    0.000    0.000    0.000 
#
# Total GULP energy -89328.246544 kJ/mol
# GULP energy per Si atom -5583.015409 kJ/mol
# Density = 2.559773 g / cm^3
# Si number density = 25.656125 Si / 1000 Ang^3
#
#
#
# Elastic Constant Matrix: (Units=GPa)
#
#
# Indices 1 2 3 4 5 6 
#
# 1 67.2152 6.7180 12.3065 -4.1136 38.5552 -3.8793
# 2 6.7180 77.4996 16.1168 -2.1642 14.2842 -7.1104
# 3 12.3065 16.1168 121.3736 -1.9084 14.3857 7.4825
# 4 -4.1136 -2.1642 -1.9084 46.1220 -5.4565 14.1292
# 5 38.5552 14.2842 14.3857 -5.4565 36.9046 -5.6789
# 6 -3.8793 -7.1104 7.4825 14.1292 -5.6789 25.8198
#
#
#
# Elastic Compliance Matrix: (Units=1/GPa)
#
#
# Indices 1 2 3 4 5 6 
#
# 1 0.038676 0.004147 0.000724 -0.000683 -0.042746 -0.002285
# 2 0.004147 0.014862 -0.001578 -0.001255 -0.009060 0.003867
# 3 0.000724 -0.001578 0.009184 0.001285 -0.004248 -0.004625
# 4 -0.000683 -0.001255 0.001285 0.026413 0.002332 -0.014761
# 5 -0.042746 -0.009060 -0.004248 0.002332 0.078541 0.008312
# 6 -0.002285 0.003867 -0.004625 -0.014761 0.008312 0.050698
#
#
# Mechanical properties :
#
#
# Convention : Reuss Voigt Hill
#
# Bulk Modulus (GPa) = 14.42838 37.37456 25.90147
# Shear Modulus (GPa) = 21.28648 37.16575 29.22612
#
# Velocity S-wave (km/s) = 2.88355 3.81019 3.37879
# Velocity P-wave (km/s) = 4.08931 5.82717 5.03380
#
# Compressibility (1/GPa) = 0.06930784
#
# Stress axis : x y z
#
# Youngs Moduli (GPa) = 25.85549 67.28753 108.88642
#
# Poissons Ratio (x) = -0.27902 -0.07888
# Poissons Ratio (y) = -0.10721 0.17184
# Poissons Ratio (z) = -0.01873 0.10619
#
# Static dielectric constant tensor:
#      x y z
#    x 1.985110 -0.002910 -0.045070 
#    y -0.002910 2.045250 0.031560 
#    z -0.045070 0.031560 2.169730 
# 
# From -- ./inp_files/257904.got.cif
#   From: 2010.05.17/outbox.cif.g08.bks.cpg/sg2_129_cif.got.tgz:257904.got - 2010.06.03 11:33:40.
