data_PCOD9078035
_publ_section_title
;
Structure prediction by ZEFSAII (Michael W. Deem and Ramdas Pophale) SiO2 
 PCOD9078035
Probable space group: P -1
;
_chemical_formula_sum "Si O2"
_cell_formula_units_Z 16
_cell_length_a 11.550582
_cell_length_b 7.567271
_cell_length_c 19.252216
_cell_angle_alpha 125.962605
_cell_angle_beta 29.591978
_cell_angle_gamma 111.459346
_cell_volume 626.899534
_symmetry_space_group_name_H-M "P -1"
_symmetry_group_IT_number 2
_symmetry_cell_setting 'triclinic'
loop_
_space_group_symop_operation_xyz
x,y,z
-x,-y,-z
loop_
_atom_site_type_symbol
_atom_site_label
_atom_site_fract_x
_atom_site_fract_y
_atom_site_fract_z
Si Si1 0.301635 0.789853 0.131238
Si Si2 0.150665 0.648948 0.425844
Si Si3 0.892940 0.761313 0.179579
Si Si4 0.132473 0.407800 0.186077
Si Si5 0.825481 0.038719 0.032336
Si Si6 0.369256 0.366985 0.836107
Si Si7 0.318119 0.059785 0.326703
Si Si8 0.087627 0.844970 0.654507
O O1 0.113824 0.649335 0.213379
O O2 0.311245 0.930751 0.228405
O O3 0.195573 0.967118 0.164450
O O4 0.594282 0.640951 0.933076
O O5 0.438540 0.498127 0.226797
O O6 0.000000 0.500000 0.500000
O O7 0.165150 0.790717 0.521432
O O8 0.977123 0.777395 0.480087
O O9 0.695376 0.696210 0.221450
O O10 0.061488 0.831946 0.051217
O O11 0.784493 0.991903 0.336556
O O12 0.100887 0.520946 0.044637
O O13 0.152679 0.206733 0.071995
O O14 0.937524 0.363723 0.332961
O O15 0.530933 0.174536 0.234504
O O16 0.000000 0.000000 0.000000
O O17 0.548465 0.130810 0.727693
#
# Coordination Sequence:
#
# PCOD9078035 Si02
#       8
#     2   2   2   2   2   2   2   2
#     4   9  19  32  55  88 119 158 203 256 312 360
#     4  11  25  43  62  89 128 173 206 256 323 380
#     4  10  23  39  66  96 121 165 210 265 311 370
#     4   9  19  31  54  86 121 161 198 257 313 356
#     4  10  18  35  57  89 127 154 203 255 310 368
#     4  11  23  40  64  93 124 165 215 253 316 379
#     4  10  21  38  62  91 122 163 203 262 313 375
#     4  10  22  39  59  91 127 163 209 261 315 374
#
# _framework density 25.522432999999999
#
# number of rings (size 3 to 8) (size 9 to 14) (size 15 to 20)
#    0.000    2.000    1.250    1.500    7.000    2.500 
#    0.000    0.000    0.000    0.750    0.000    0.000 
#    0.000    0.000    0.000    0.000    0.000    0.000 
#
# Total GULP energy -89222.096290 kJ/mol
# GULP energy per Si atom -5576.381018 kJ/mol
# Density = 2.546434 g / cm^3
# Si number density = 25.522433 Si / 1000 Ang^3
#
#
#
# Elastic Constant Matrix: (Units=GPa)
#
#
# Indices 1 2 3 4 5 6 
#
# 1 161.3470 37.7631 48.4072 -0.9838 -7.8870 18.5748
# 2 37.7631 102.0884 15.4148 -9.0492 -16.3579 11.4340
# 3 48.4072 15.4148 79.7043 -17.2408 -27.9147 17.3448
# 4 -0.9838 -9.0492 -17.2408 29.9984 12.4099 1.7890
# 5 -7.8870 -16.3579 -27.9147 12.4099 44.6353 8.0898
# 6 18.5748 11.4340 17.3448 1.7890 8.0898 52.7177
#
#
#
# Elastic Compliance Matrix: (Units=1/GPa)
#
#
# Indices 1 2 3 4 5 6 
#
# 1 0.008615 -0.002964 -0.006324 -0.003149 -0.002680 0.000206
# 2 -0.002964 0.011986 0.002763 0.003095 0.005351 -0.003391
# 3 -0.006324 0.002763 0.024995 0.009523 0.014537 -0.009149
# 4 -0.003149 0.003095 0.009523 0.041677 -0.004432 -0.003429
# 5 -0.002680 0.005351 0.014537 -0.004432 0.036098 -0.010388
# 6 0.000206 -0.003391 -0.009149 -0.003429 -0.010388 0.024352
#
#
# Mechanical properties :
#
#
# Convention : Reuss Voigt Hill
#
# Bulk Modulus (GPa) = 30.72434 60.70110 45.71272
# Shear Modulus (GPa) = 29.13420 41.57392 35.35406
#
# Velocity S-wave (km/s) = 3.38229 4.04036 3.72589
# Velocity P-wave (km/s) = 5.22662 6.75286 6.03815
#
# Compressibility (1/GPa) = 0.03254748
#
# Stress axis : x y z
#
# Youngs Moduli (GPa) = 116.08051 83.43086 40.00829
#
# Poissons Ratio (x) = 0.24725 0.25300
# Poissons Ratio (y) = 0.34401 -0.11055
# Poissons Ratio (z) = 0.73406 -0.23054
#
# Static dielectric constant tensor:
#      x y z
#    x 2.016390 -0.055130 0.032530 
#    y -0.055130 2.206090 0.025910 
#    z 0.032530 0.025910 2.124230 
# 
# From -- ./inp_files/609643.got.cif
#   From: 2010.05.17/outbox.cif.g08.bks.cpg/sg2_305_cif.got.tgz:609643.got - 2010.06.03 11:33:40.
