data_PCOD9078261
_publ_section_title
;
Structure prediction by ZEFSAII (Michael W. Deem and Ramdas Pophale) SiO2 
 PCOD9078261
Probable space group: P -1
;
_chemical_formula_sum "Si O2"
_cell_formula_units_Z 14
_cell_length_a 9.974690
_cell_length_b 9.771932
_cell_length_c 18.904628
_cell_angle_alpha 134.717874
_cell_angle_beta 144.358675
_cell_angle_gamma 59.228091
_cell_volume 754.874235
_symmetry_space_group_name_H-M "P -1"
_symmetry_group_IT_number 2
_symmetry_cell_setting 'triclinic'
loop_
_space_group_symop_operation_xyz
x,y,z
-x,-y,-z
loop_
_atom_site_type_symbol
_atom_site_label
_atom_site_fract_x
_atom_site_fract_y
_atom_site_fract_z
Si Si1 0.194278 0.609724 0.070381
Si Si2 0.478920 0.989562 0.404409
Si Si3 0.954776 0.888815 0.514788
Si Si4 0.656969 0.583621 0.199234
Si Si5 0.870055 0.286627 0.081790
Si Si6 0.374692 0.281761 0.360790
Si Si7 0.555761 0.982379 0.224177
O O1 0.315630 0.803445 0.233537
O O2 0.415624 0.499596 0.104270
O O3 0.102067 0.664607 0.972847
O O4 0.000000 0.500000 0.000000
O O5 0.741976 0.976642 0.488805
O O6 0.500000 0.000000 0.500000
O O7 0.383044 0.177366 0.401476
O O8 0.856294 0.666434 0.371210
O O9 0.000000 0.000000 0.500000
O O10 0.199544 0.935189 0.677229
O O11 0.754173 0.450095 0.134301
O O12 0.593846 0.778329 0.203889
O O13 0.118333 0.274824 0.217538
O O14 0.690165 0.087644 0.943861
O O15 0.500000 0.500000 0.500000
O O16 0.511347 0.148339 0.320584
#
# Coordination Sequence:
#
# PCOD9078261 Si02
#       7
#     2   2   2   2   2   2   2
#     4  10  21  37  62  90 123 163 202 248 305 362
#     4  11  24  40  60  91 127 163 205 251 302 370
#     4   9  16  34  62  82 113 155 213 240 286 355
#     4   9  18  35  59  91 116 158 209 247 291 369
#     4  11  22  36  63  93 125 148 209 261 303 354
#     4  12  24  38  61  94 125 163 204 253 311 358
#     4  10  18  35  60  87 116 157 200 254 291 352
#
# _framework density 18.546135
#
# number of rings (size 3 to 8) (size 9 to 14) (size 15 to 20)
#    0.000    1.714    5.714    3.000    4.000    1.143 
#    0.000    0.000    3.143    4.286    0.000    0.000 
#    0.000    0.000    0.000    0.000    0.000    0.000 
#
# Total GULP energy -77946.133767 kJ/mol
# GULP energy per Si atom -5567.580983 kJ/mol
# Density = 1.850392 g / cm^3
# Si number density = 18.546135 Si / 1000 Ang^3
#
#
#
# Elastic Constant Matrix: (Units=GPa)
#
#
# Indices 1 2 3 4 5 6 
#
# 1 138.8653 51.5631 68.0255 -8.8927 6.1675 -1.5412
# 2 51.5631 80.0737 58.5281 -1.0067 -6.1294 -8.9066
# 3 68.0255 58.5281 152.7647 -18.8910 19.0273 1.6537
# 4 -8.8927 -1.0067 -18.8910 24.7507 -3.4251 -5.8772
# 5 6.1675 -6.1294 19.0273 -3.4251 39.7579 1.6030
# 6 -1.5412 -8.9066 1.6537 -5.8772 1.6030 22.8859
#
#
#
# Elastic Compliance Matrix: (Units=1/GPa)
#
#
# Indices 1 2 3 4 5 6 
#
# 1 0.010381 -0.005122 -0.002337 0.001420 -0.001132 -0.000681
# 2 -0.005122 0.023090 -0.008115 -0.004241 0.007566 0.007608
# 3 -0.002337 -0.008115 0.012335 0.006924 -0.006115 -0.002000
# 4 0.001420 -0.004241 0.006924 0.048438 -0.000435 0.010414
# 5 -0.001132 0.007566 -0.006115 -0.000435 0.029337 0.001144
# 6 -0.000681 0.007608 -0.002000 0.010414 0.001144 0.049349
#
#
# Mechanical properties :
#
#
# Convention : Reuss Voigt Hill
#
# Bulk Modulus (GPa) = 68.21263 80.88192 74.54727
# Shear Modulus (GPa) = 23.92762 30.38469 27.15615
#
# Velocity S-wave (km/s) = 3.59579 4.05202 3.83070
# Velocity P-wave (km/s) = 7.35523 8.09924 7.73618
#
# Compressibility (1/GPa) = 0.01466004
#
# Stress axis : x y z
#
# Youngs Moduli (GPa) = 96.32782 43.30856 81.07033
#
# Poissons Ratio (x) = 0.22181 0.18942
# Poissons Ratio (y) = 0.49336 0.65788
# Poissons Ratio (z) = 0.22507 0.35145
#
# Static dielectric constant tensor:
#      x y z
#    x 1.650110 0.001570 0.010950 
#    y 0.001570 1.630880 -0.009480 
#    z 0.010950 -0.009480 1.736130 
# 
# From -- ./inp_files/556632.got.cif
#   From: 2010.05.17/outbox.cif.g08.bks.cpg/sg2_279_cif.got.tgz:556632.got - 2010.06.03 11:33:40.
