data_PCOD9078449
_publ_section_title
;
Structure prediction by ZEFSAII (Michael W. Deem and Ramdas Pophale) SiO2 
 PCOD9078449
Probable space group: P -1
;
_chemical_formula_sum "Si O2"
_cell_formula_units_Z 16
_cell_length_a 8.025031
_cell_length_b 15.325202
_cell_length_c 8.191287
_cell_angle_alpha 86.888215
_cell_angle_beta 128.862104
_cell_angle_gamma 72.392123
_cell_volume 706.082898
_symmetry_space_group_name_H-M "P -1"
_symmetry_group_IT_number 2
_symmetry_cell_setting 'triclinic'
loop_
_space_group_symop_operation_xyz
x,y,z
-x,-y,-z
loop_
_atom_site_type_symbol
_atom_site_label
_atom_site_fract_x
_atom_site_fract_y
_atom_site_fract_z
Si Si1 0.047370 0.567114 0.648973
Si Si2 0.265689 0.863811 0.414528
Si Si3 0.213148 0.982307 0.973825
Si Si4 0.797612 0.722919 0.745514
Si Si5 0.307835 0.019564 0.655694
Si Si6 0.733610 0.308864 0.391529
Si Si7 0.877216 0.188852 0.186333
Si Si8 0.767710 0.573444 0.941846
O O1 0.104906 0.640167 0.565331
O O2 0.000000 0.500000 0.500000
O O3 0.856237 0.640578 0.650612
O O4 0.236175 0.484925 0.892347
O O5 0.539062 0.806360 0.536014
O O6 0.187669 0.780760 0.429591
O O7 0.285172 0.928582 0.569483
O O8 0.059382 0.940186 0.167511
O O9 0.232157 0.875124 0.964298
O O10 0.254259 0.017093 0.813718
O O11 0.429711 0.985936 0.208070
O O12 0.790158 0.675009 0.921449
O O13 0.005653 0.757818 0.861056
O O14 0.103867 0.113533 0.437045
O O15 0.701028 0.264535 0.201036
O O16 0.489977 0.393057 0.298104
O O17 0.000000 0.500000 0.000000
#
# Coordination Sequence:
#
# PCOD9078449 Si02
#       8
#     2   2   2   2   2   2   2   2
#     4  10  21  40  63  90 114 148 198 254 303 353
#     4  10  18  38  56  85 121 165 191 243 299 345
#     4  10  19  33  58  87 126 157 201 244 292 343
#     4   9  21  37  62  84 123 160 196 241 305 364
#     4  10  19  33  58  87 124 157 204 244 285 350
#     4  10  18  35  63  81 114 156 201 232 292 372
#     4  10  18  37  56  87 118 164 200 240 285 351
#     4   9  19  39  62  83 114 154 191 239 308 368
#
# _framework density 22.660231
#
# number of rings (size 3 to 8) (size 9 to 14) (size 15 to 20)
#    0.000    2.250    2.500    1.125    0.000    2.000 
#    9.000    8.125    8.250    0.000    0.000    0.000 
#    0.000    0.000    0.000    0.000    0.000    0.000 
#
# Total GULP energy -89170.062952 kJ/mol
# GULP energy per Si atom -5573.128934 kJ/mol
# Density = 2.260866 g / cm^3
# Si number density = 22.660231 Si / 1000 Ang^3
#
#
#
# Elastic Constant Matrix: (Units=GPa)
#
#
# Indices 1 2 3 4 5 6 
#
# 1 70.5519 23.1875 3.5030 -6.3603 13.8212 11.4829
# 2 23.1875 97.8466 35.1070 -6.4409 6.5129 1.2546
# 3 3.5030 35.1070 66.2599 -12.7953 8.6308 2.5883
# 4 -6.3603 -6.4409 -12.7953 31.6773 3.0903 7.2122
# 5 13.8212 6.5129 8.6308 3.0903 29.8265 -13.1966
# 6 11.4829 1.2546 2.5883 7.2122 -13.1966 31.7681
#
#
#
# Elastic Compliance Matrix: (Units=1/GPa)
#
#
# Indices 1 2 3 4 5 6 
#
# 1 0.026367 -0.006565 0.009497 0.015900 -0.026001 -0.024456
# 2 -0.006565 0.014279 -0.008874 -0.003805 0.005377 0.005630
# 3 0.009497 -0.008874 0.025493 0.016026 -0.018859 -0.016632
# 4 0.015900 -0.003805 0.016026 0.050408 -0.030035 -0.030823
# 5 -0.026001 0.005377 -0.018859 -0.030035 0.074407 0.048450
# 6 -0.024456 0.005630 -0.016632 -0.030823 0.048450 0.068575
#
#
# Mechanical properties :
#
#
# Convention : Reuss Voigt Hill
#
# Bulk Modulus (GPa) = 18.43135 39.80596 29.11866
# Shear Modulus (GPa) = 17.27125 30.17841 23.72483
#
# Velocity S-wave (km/s) = 2.76376 3.65331 3.23922
# Velocity P-wave (km/s) = 4.28205 5.94980 5.18344
#
# Compressibility (1/GPa) = 0.05425537
#
# Stress axis : x y z
#
# Youngs Moduli (GPa) = 37.92559 70.03229 39.22706
#
# Poissons Ratio (x) = 0.45977 -0.37254
# Poissons Ratio (y) = 0.24898 0.34809
# Poissons Ratio (z) = -0.36018 0.62145
#
# Static dielectric constant tensor:
#      x y z
#    x 1.982560 -0.004910 -0.043400 
#    y -0.004910 2.004100 -0.264890 
#    z -0.043400 -0.264890 2.216010 
# 
# From -- ./inp_files/202270.got.cif
#   From: 2010.05.17/outbox.cif.g08.bks.cpg/sg2_102_cif.got.tgz:202270.got - 2010.06.03 11:33:40.
