data_PCOD9078085
_publ_section_title
;
Structure prediction by ZEFSAII (Michael W. Deem and Ramdas Pophale) SiO2 
 PCOD9078085
Probable space group: P -1
;
_chemical_formula_sum "Si O2"
_cell_formula_units_Z 16
_cell_length_a 17.892503
_cell_length_b 8.108788
_cell_length_c 24.338386
_cell_angle_alpha 37.638745
_cell_angle_beta 18.683186
_cell_angle_gamma 43.485519
_cell_volume 685.292741
_symmetry_space_group_name_H-M "P -1"
_symmetry_group_IT_number 2
_symmetry_cell_setting 'triclinic'
loop_
_space_group_symop_operation_xyz
x,y,z
-x,-y,-z
loop_
_atom_site_type_symbol
_atom_site_label
_atom_site_fract_x
_atom_site_fract_y
_atom_site_fract_z
Si Si1 0.678391 0.821468 0.451267
Si Si2 0.687141 0.283912 0.823096
Si Si3 0.182785 0.686008 0.487331
Si Si4 0.034954 0.850869 0.434300
Si Si5 0.403446 0.915175 0.448725
Si Si6 0.158200 0.323667 0.741015
Si Si7 0.625265 0.297185 0.102431
Si Si8 0.311629 0.707575 0.063503
O O1 0.612081 0.501417 0.597284
O O2 0.725643 0.971560 0.437814
O O3 0.834792 0.782627 0.298551
O O4 0.500000 0.000000 0.500000
O O5 0.800805 0.124735 0.738721
O O6 0.454946 0.408911 0.932136
O O7 0.678627 0.134300 0.927148
O O8 0.868391 0.564839 0.626896
O O9 0.191702 0.841381 0.382442
O O10 0.946104 0.466550 0.711013
O O11 0.122004 0.907179 0.514427
O O12 0.447631 0.140429 0.311179
O O13 0.731977 0.364344 0.406887
O O14 0.662245 0.844323 0.306551
O O15 0.881360 0.304802 0.949365
O O16 0.632428 0.172468 0.067848
O O17 0.500000 0.500000 0.000000
#
# Coordination Sequence:
#
# PCOD9078085 Si02
#       8
#     2   2   2   2   2   2   2   2
#     4  10  21  40  65  93 128 170 215 271 330 389
#     4   9  19  35  57  92 126 169 212 263 325 391
#     4  10  18  35  58  84 124 169 211 264 323 384
#     4   9  19  34  59  90 125 168 220 262 321 396
#     4  10  23  41  68  93 127 171 219 271 331 392
#     4  10  22  43  65  96 128 167 220 274 331 388
#     4  11  20  37  66  93 128 170 215 268 331 385
#     4   9  19  35  53  81 126 162 204 254 323 378
#
# _framework density 23.347684999999998
#
# number of rings (size 3 to 8) (size 9 to 14) (size 15 to 20)
#    0.000    2.250    1.250    1.125    1.750    0.000 
#    0.000    5.000    5.500    8.250    0.000    0.000 
#    0.000    0.000    0.000    0.000    0.000    0.000 
#
# Total GULP energy -89191.357669 kJ/mol
# GULP energy per Si atom -5574.459854 kJ/mol
# Density = 2.329454 g / cm^3
# Si number density = 23.347685 Si / 1000 Ang^3
#
#
#
# Elastic Constant Matrix: (Units=GPa)
#
#
# Indices 1 2 3 4 5 6 
#
# 1 121.1820 49.8846 44.8890 7.2806 23.9844 -5.6499
# 2 49.8846 120.1568 32.5161 6.8418 6.3323 10.2836
# 3 44.8890 32.5161 70.4952 7.3322 16.9455 15.1559
# 4 7.2806 6.8418 7.3322 24.7399 -4.6245 13.0035
# 5 23.9844 6.3323 16.9455 -4.6245 34.9434 14.1168
# 6 -5.6499 10.2836 15.1559 13.0035 14.1168 32.2731
#
#
#
# Elastic Compliance Matrix: (Units=1/GPa)
#
#
# Indices 1 2 3 4 5 6 
#
# 1 0.021922 -0.006633 -0.009147 -0.022154 -0.024398 0.029846
# 2 -0.006633 0.011582 -0.001511 0.006003 0.008055 -0.010084
# 3 -0.009147 -0.001511 0.022928 0.004199 0.001792 -0.014363
# 4 -0.022154 0.006003 0.004199 0.087384 0.049808 -0.064759
# 5 -0.024398 0.008055 0.001792 0.049808 0.073896 -0.060071
# 6 0.029846 -0.010084 -0.014363 -0.064759 -0.060071 0.098537
#
#
# Mechanical properties :
#
#
# Convention : Reuss Voigt Hill
#
# Bulk Modulus (GPa) = 45.76946 62.93484 54.35215
# Shear Modulus (GPa) = 13.96201 30.69423 22.32812
#
# Velocity S-wave (km/s) = 2.44806 3.62976 3.09582
# Velocity P-wave (km/s) = 5.25706 6.67689 6.00906
#
# Compressibility (1/GPa) = 0.02184863
#
# Stress axis : x y z
#
# Youngs Moduli (GPa) = 45.61540 86.34160 43.61566
#
# Poissons Ratio (x) = 0.57270 0.39897
# Poissons Ratio (y) = 0.30257 0.06591
# Poissons Ratio (z) = 0.41727 0.13047
#
# Static dielectric constant tensor:
#      x y z
#    x 1.981370 0.001100 -0.015270 
#    y 0.001100 1.950920 0.019080 
#    z -0.015270 0.019080 1.911280 
# 
# From -- ./inp_files/620621.got.cif
#   From: 2010.05.17/outbox.cif.g08.bks.cpg/sg2_311_cif.got.tgz:620621.got - 2010.06.03 11:33:40.
