data_PCOD9078408
_publ_section_title
;
Structure prediction by ZEFSAII (Michael W. Deem and Ramdas Pophale) SiO2 
 PCOD9078408
Probable space group: P -1
;
_chemical_formula_sum "Si O2"
_cell_formula_units_Z 16
_cell_length_a 20.817586
_cell_length_b 11.812940
_cell_length_c 21.140067
_cell_angle_alpha 27.823174
_cell_angle_beta 24.720489
_cell_angle_gamma 20.900258
_cell_volume 752.913960
_symmetry_space_group_name_H-M "P -1"
_symmetry_group_IT_number 2
_symmetry_cell_setting 'triclinic'
loop_
_space_group_symop_operation_xyz
x,y,z
-x,-y,-z
loop_
_atom_site_type_symbol
_atom_site_label
_atom_site_fract_x
_atom_site_fract_y
_atom_site_fract_z
Si Si1 0.639300 0.112743 0.056257
Si Si2 0.021962 0.166760 0.840054
Si Si3 0.898009 0.230652 0.154293
Si Si4 0.719803 0.205304 0.583856
Si Si5 0.844810 0.790271 0.855882
Si Si6 0.760950 0.458268 0.302316
Si Si7 0.112652 0.568994 0.599829
Si Si8 0.554001 0.856255 0.916772
O O1 0.568968 0.091324 0.061855
O O2 0.650088 0.841001 0.218681
O O3 0.500000 0.500000 0.000000
O O4 0.869219 0.968085 0.931616
O O5 0.784784 0.509409 0.876988
O O6 0.165569 0.244537 0.690701
O O7 0.096740 0.987410 0.794159
O O8 0.000000 0.000000 0.000000
O O9 0.769797 0.361401 0.269682
O O10 0.844427 0.519516 0.016937
O O11 0.673219 0.363186 0.478692
O O12 0.716757 0.426563 0.528498
O O13 0.586746 0.110659 0.765224
O O14 0.961617 0.860136 0.540877
O O15 0.999482 0.761264 0.780245
O O16 0.960136 0.684735 0.738698
O O17 0.599965 0.100951 0.915194
#
# Coordination Sequence:
#
# PCOD9078408 Si02
#       8
#     2   2   2   2   2   2   2   2
#     4  11  20  35  61  94 121 143 194 254 299 339
#     4  11  22  35  58  90 119 155 195 251 296 337
#     4  11  19  35  60  90 119 152 189 249 295 344
#     4   9  21  36  58  85 118 163 193 238 290 364
#     4  10  18  35  62  89 112 147 203 255 281 334
#     4  10  20  37  61  88 121 157 193 235 303 356
#     4   9  19  39  58  83 117 159 207 231 294 354
#     4  11  21  36  60  94 115 149 204 246 297 344
#
# _framework density 21.250768999999998
#
# number of rings (size 3 to 8) (size 9 to 14) (size 15 to 20)
#    0.000    1.750    5.000    0.750    0.000    2.500 
#    0.000    2.500    0.000    0.750    3.250    0.000 
#    0.000    0.000    0.000    0.000    0.000    0.000 
#
# Total GULP energy -89124.223158 kJ/mol
# GULP energy per Si atom -5570.263947 kJ/mol
# Density = 2.120240 g / cm^3
# Si number density = 21.250769 Si / 1000 Ang^3
#
#
#
# Elastic Constant Matrix: (Units=GPa)
#
#
# Indices 1 2 3 4 5 6 
#
# 1 125.8573 28.1243 61.3690 -15.7584 -9.6535 28.1575
# 2 28.1243 67.5584 38.4758 -7.7555 -2.2962 4.1786
# 3 61.3690 38.4758 95.4151 -15.8871 -6.4065 9.3664
# 4 -15.7584 -7.7555 -15.8871 26.8205 -7.1524 -4.4682
# 5 -9.6535 -2.2962 -6.4065 -7.1524 41.2545 -10.5676
# 6 28.1575 4.1786 9.3664 -4.4682 -10.5676 29.5182
#
#
#
# Elastic Compliance Matrix: (Units=1/GPa)
#
#
# Indices 1 2 3 4 5 6 
#
# 1 0.014573 -0.000810 -0.007669 0.001814 -0.000385 -0.011216
# 2 -0.000810 0.019289 -0.007138 0.000971 0.000066 0.000478
# 3 -0.007669 -0.007138 0.019111 0.006248 0.002952 0.004264
# 4 0.001814 0.000971 0.006248 0.046582 0.011389 0.007278
# 5 -0.000385 0.000066 0.002952 0.011389 0.029594 0.011739
# 6 -0.011216 0.000478 0.004264 0.007278 0.011739 0.048460
#
#
# Mechanical properties :
#
#
# Convention : Reuss Voigt Hill
#
# Bulk Modulus (GPa) = 46.00046 60.52989 53.26517
# Shear Modulus (GPa) = 23.13859 30.24277 26.69068
#
# Velocity S-wave (km/s) = 3.30333 3.77654 3.54784
# Velocity P-wave (km/s) = 6.02020 6.89651 6.47320
#
# Compressibility (1/GPa) = 0.02173891
#
# Stress axis : x y z
#
# Youngs Moduli (GPa) = 68.61979 51.84434 52.32493
#
# Poissons Ratio (x) = 0.04200 0.40129
# Poissons Ratio (y) = 0.05559 0.37349
# Poissons Ratio (z) = 0.52625 0.37006
#
# Static dielectric constant tensor:
#      x y z
#    x 1.814590 0.009070 0.003460 
#    y 0.009070 1.890240 0.005940 
#    z 0.003460 0.005940 1.790530 
# 
# From -- ./inp_files/358776.got.cif
#   From: 2010.05.17/outbox.cif.g08.bks.cpg/sg2_180_cif.got.tgz:358776.got - 2010.06.03 11:33:40.
