data_PCOD9078983
_publ_section_title
;
Structure prediction by ZEFSAII (Michael W. Deem and Ramdas Pophale) SiO2 
 PCOD9078983
Probable space group: P -1
;
_chemical_formula_sum "Si O2"
_cell_formula_units_Z 16
_cell_length_a 10.912080
_cell_length_b 19.801594
_cell_length_c 11.782693
_cell_angle_alpha 32.601670
_cell_angle_beta 129.756499
_cell_angle_gamma 148.621079
_cell_volume 684.838985
_symmetry_space_group_name_H-M "P -1"
_symmetry_group_IT_number 2
_symmetry_cell_setting 'triclinic'
loop_
_space_group_symop_operation_xyz
x,y,z
-x,-y,-z
loop_
_atom_site_type_symbol
_atom_site_label
_atom_site_fract_x
_atom_site_fract_y
_atom_site_fract_z
Si Si1 0.508502 0.528298 0.186643
Si Si2 0.175682 0.817190 0.443797
Si Si3 0.854925 0.453093 0.633469
Si Si4 0.143704 0.057985 0.147562
Si Si5 0.029041 0.370867 0.173347
Si Si6 0.354923 0.056018 0.492543
Si Si7 0.414339 0.321641 0.638451
Si Si8 0.698253 0.420440 0.332984
O O1 0.403515 0.360211 0.446472
O O2 0.621392 0.518696 0.163291
O O3 0.287313 0.494116 0.092398
O O4 0.723628 0.732134 0.088214
O O5 0.999366 0.703364 0.610674
O O6 0.406540 0.866082 0.533070
O O7 0.029991 0.676731 0.449320
O O8 0.253163 0.007076 0.213979
O O9 0.622113 0.337549 0.740546
O O10 0.760197 0.403318 0.519312
O O11 0.045873 0.453105 0.761193
O O12 0.214163 0.062708 0.312532
O O13 0.855633 0.885805 0.197910
O O14 0.822969 0.168245 0.270648
O O15 0.000000 0.500000 0.000000
O O16 0.474046 0.208555 0.446916
O O17 0.500000 0.500000 0.500000
#
# Coordination Sequence:
#
# PCOD9078983 Si02
#       8
#     2   2   2   2   2   2   2   2
#     4  11  22  37  59  89 117 156 198 238 286 355
#     4  10  18  36  61  85 118 150 190 249 299 339
#     4   9  18  38  62  78 115 160 192 237 293 342
#     4  11  21  36  59  93 115 149 195 244 302 339
#     4  11  20  35  58  92 121 146 193 247 302 347
#     4  10  20  37  60  85 118 157 189 242 297 345
#     4  11  20  39  60  88 120 151 193 247 298 341
#     4   9  21  37  60  83 115 162 200 229 287 353
#
# _framework density 23.363154999999999
#
# number of rings (size 3 to 8) (size 9 to 14) (size 15 to 20)
#    0.000    1.750    3.750    3.000    0.000    1.500 
#    0.000    0.625    5.500    0.000    0.000    0.000 
#    0.000    0.000    0.000    0.000    0.000    0.000 
#
# Total GULP energy -89307.627932 kJ/mol
# GULP energy per Si atom -5581.726746 kJ/mol
# Density = 2.330998 g / cm^3
# Si number density = 23.363155 Si / 1000 Ang^3
#
#
#
# Elastic Constant Matrix: (Units=GPa)
#
#
# Indices 1 2 3 4 5 6 
#
# 1 149.5826 52.7680 40.5718 -18.2806 36.9986 36.0382
# 2 52.7680 141.6819 38.9608 -31.1774 13.0305 -2.7324
# 3 40.5718 38.9608 85.7318 -15.9505 16.5162 4.4041
# 4 -18.2806 -31.1774 -15.9505 42.3028 -2.0209 2.6630
# 5 36.9986 13.0305 16.5162 -2.0209 34.4984 -5.0560
# 6 36.0382 -2.7324 4.4041 2.6630 -5.0560 53.4561
#
#
#
# Elastic Compliance Matrix: (Units=1/GPa)
#
#
# Indices 1 2 3 4 5 6 
#
# 1 0.015875 -0.003393 -0.001402 0.003823 -0.016685 -0.012529
# 2 -0.003393 0.009970 -0.002523 0.004832 0.001794 0.002934
# 3 -0.001402 -0.002523 0.014994 0.003028 -0.004694 -0.001014
# 4 0.003823 0.004832 0.003028 0.029987 -0.006302 -0.004670
# 5 -0.016685 0.001794 -0.004694 -0.006302 0.050547 0.016822
# 6 -0.012529 0.002934 -0.001014 -0.004670 0.016822 0.029211
#
#
# Mechanical properties :
#
#
# Convention : Reuss Voigt Hill
#
# Bulk Modulus (GPa) = 38.16097 71.28860 54.72479
# Shear Modulus (GPa) = 28.74343 42.36450 35.55397
#
# Velocity S-wave (km/s) = 3.51135 4.26291 3.90525
# Velocity P-wave (km/s) = 5.72789 7.40334 6.61884
#
# Compressibility (1/GPa) = 0.02620478
#
# Stress axis : x y z
#
# Youngs Moduli (GPa) = 62.99176 100.29796 66.69488
#
# Poissons Ratio (x) = 0.34031 0.09347
# Poissons Ratio (y) = 0.21373 0.16825
# Poissons Ratio (z) = 0.08828 0.25301
#
# Static dielectric constant tensor:
#      x y z
#    x 1.947730 0.010960 -0.000510 
#    y 0.010960 1.926940 0.056090 
#    z -0.000510 0.056090 1.920150 
# 
# From -- ./inp_files/424453.got.cif
#   From: 2010.05.17/outbox.cif.g08.bks.cpg/sg2_213_cif.got.tgz:424453.got - 2010.06.03 11:33:40.
