data_PCOD9078801
_publ_section_title
;
Structure prediction by ZEFSAII (Michael W. Deem and Ramdas Pophale) SiO2 
 PCOD9078801
Probable space group: P -1
;
_chemical_formula_sum "Si O2"
_cell_formula_units_Z 15
_cell_length_a 24.789994
_cell_length_b 11.384728
_cell_length_c 9.450610
_cell_angle_alpha 38.534783
_cell_angle_beta 151.312321
_cell_angle_gamma 147.073237
_cell_volume 685.109376
_symmetry_space_group_name_H-M "P -1"
_symmetry_group_IT_number 2
_symmetry_cell_setting 'triclinic'
loop_
_space_group_symop_operation_xyz
x,y,z
-x,-y,-z
loop_
_atom_site_type_symbol
_atom_site_label
_atom_site_fract_x
_atom_site_fract_y
_atom_site_fract_z
Si Si1 0.228733 0.902566 0.965997
Si Si2 0.701876 0.203147 0.269584
Si Si3 0.284601 0.249906 0.544497
Si Si4 0.545205 0.417766 0.818029
Si Si5 0.000000 0.000000 0.000000
Si Si6 0.627625 0.250990 0.742573
Si Si7 0.334775 0.116158 0.282033
Si Si8 0.975231 0.604810 0.484794
O O1 0.095850 0.711117 0.770605
O O2 0.263616 0.132495 0.757102
O O3 0.340156 0.853939 0.215685
O O4 0.230325 0.938063 0.102592
O O5 0.845537 0.405937 0.440158
O O6 0.684582 0.990012 0.508062
O O7 0.599616 0.263424 0.044175
O O8 0.681259 0.196998 0.059460
O O9 0.421773 0.299638 0.748263
O O10 0.297008 0.486631 0.352592
O O11 0.155352 0.086329 0.313528
O O12 0.500000 0.500000 0.500000
O O13 0.657425 0.651137 0.918961
O O14 0.953979 0.796945 0.198071
O O15 0.477027 0.171905 0.499236
O O16 0.000000 0.500000 0.500000
#
# Coordination Sequence:
#
# PCOD9078801 Si02
#       8
#     2   2   2   2   1   2   2   2
#     4  11  24  40  62  93 127 165 203 255 315 367
#     4  12  23  40  66  94 122 164 210 259 305 369
#     4  10  21  36  64  89 125 161 208 255 305 361
#     4  11  22  39  61  93 125 160 208 256 312 359
#     4  10  18  36  58  92 118 154 208 254 294 354
#     4  11  21  40  65  92 121 161 212 256 305 362
#     4  11  26  39  61  95 131 161 200 256 319 371
#     4  11  22  40  65  91 120 161 211 257 304 368
#
# _framework density 21.894314000000001
#
# number of rings (size 3 to 8) (size 9 to 14) (size 15 to 20)
#    0.000    1.067    5.333    1.600    1.867    4.800 
#    0.000    0.667    0.000    0.000    0.000    0.000 
#    0.000    0.000    0.000    0.000    0.000    0.000 
#
# Total GULP energy -83648.404901 kJ/mol
# GULP energy per Si atom -5576.560327 kJ/mol
# Density = 2.184448 g / cm^3
# Si number density = 21.894314 Si / 1000 Ang^3
#
#
#
# Elastic Constant Matrix: (Units=GPa)
#
#
# Indices 1 2 3 4 5 6 
#
# 1 40.9127 18.3131 9.9910 -2.4012 -7.3744 -6.7541
# 2 18.3131 115.2694 17.6446 -1.5877 -5.0359 10.1774
# 3 9.9910 17.6446 34.8136 3.7291 0.6998 -1.8224
# 4 -2.4012 -1.5877 3.7291 35.4960 -3.6408 -3.5362
# 5 -7.3744 -5.0359 0.6998 -3.6408 18.6622 8.6301
# 6 -6.7541 10.1774 -1.8224 -3.5362 8.6301 37.4539
#
#
#
# Elastic Compliance Matrix: (Units=1/GPa)
#
#
# Indices 1 2 3 4 5 6 
#
# 1 0.030650 -0.003595 -0.007409 0.004163 0.010307 0.004162
# 2 -0.003595 0.010546 -0.004700 0.000662 0.003842 -0.004565
# 3 -0.007409 -0.004700 0.034056 -0.004793 -0.007765 0.002935
# 4 0.004163 0.000662 -0.004793 0.029869 0.007130 0.001515
# 5 0.010307 0.003842 -0.007765 0.007130 0.067002 -0.014328
# 6 0.004162 -0.004565 0.002935 0.001515 -0.014328 0.032278
#
#
# Mechanical properties :
#
#
# Convention : Reuss Voigt Hill
#
# Bulk Modulus (GPa) = 22.80876 31.43257 27.12066
# Shear Modulus (GPa) = 19.96612 27.99224 23.97918
#
# Velocity S-wave (km/s) = 3.02310 3.57951 3.31301
# Velocity P-wave (km/s) = 4.75666 5.60995 5.20083
#
# Compressibility (1/GPa) = 0.04384281
#
# Stress axis : x y z
#
# Youngs Moduli (GPa) = 32.62657 94.82248 29.36327
#
# Poissons Ratio (x) = 0.34090 0.21756
# Poissons Ratio (y) = 0.11730 0.13802
# Poissons Ratio (z) = 0.24174 0.44570
#
# Static dielectric constant tensor:
#      x y z
#    x 1.787000 -0.031550 0.010010 
#    y -0.031550 1.839020 0.027010 
#    z 0.010010 0.027010 1.797760 
# 
# From -- ./inp_files/356951.got.cif
#   From: 2010.05.17/outbox.cif.g08.bks.cpg/sg2_179_cif.got.tgz:356951.got - 2010.06.03 11:33:40.
