data_PCOD9078598
_publ_section_title
;
Structure prediction by ZEFSAII (Michael W. Deem and Ramdas Pophale) SiO2 
 PCOD9078598
Probable space group: P -1
;
_chemical_formula_sum "Si O2"
_cell_formula_units_Z 16
_cell_length_a 8.461791
_cell_length_b 13.472059
_cell_length_c 8.859053
_cell_angle_alpha 51.796564
_cell_angle_beta 103.150502
_cell_angle_gamma 75.683333
_cell_volume 666.095886
_symmetry_space_group_name_H-M "P -1"
_symmetry_group_IT_number 2
_symmetry_cell_setting 'triclinic'
loop_
_space_group_symop_operation_xyz
x,y,z
-x,-y,-z
loop_
_atom_site_type_symbol
_atom_site_label
_atom_site_fract_x
_atom_site_fract_y
_atom_site_fract_z
Si Si1 0.453745 0.262962 0.964663
Si Si2 0.032550 0.368832 0.243749
Si Si3 0.312088 0.153382 0.298442
Si Si4 0.336009 0.586257 0.003791
Si Si5 0.956317 0.832902 0.027681
Si Si6 0.713127 0.090771 0.948996
Si Si7 0.860591 0.427448 0.469620
Si Si8 0.528918 0.389007 0.473133
O O1 0.367235 0.248902 0.114125
O O2 0.605431 0.310461 0.994164
O O3 0.576917 0.114287 0.037681
O O4 0.280928 0.397570 0.711376
O O5 0.864810 0.340102 0.183999
O O6 0.997469 0.401360 0.383368
O O7 0.226417 0.229716 0.366055
O O8 0.000000 0.500000 0.000000
O O9 0.500000 0.000000 0.500000
O O10 0.152569 0.146340 0.170785
O O11 0.500000 0.500000 0.000000
O O12 0.357708 0.469991 0.245708
O O13 0.115934 0.878166 0.005006
O O14 0.043160 0.669543 0.269714
O O15 0.807897 0.941024 0.018912
O O16 0.577875 0.230957 0.684739
O O17 0.716039 0.370512 0.450409
O O18 0.500000 0.500000 0.500000
#
# Coordination Sequence:
#
# PCOD9078598 Si02
#       8
#     2   2   2   2   2   2   2   2
#     4  11  22  43  68 102 132 171 228 278 334 406
#     4  12  24  45  66  99 139 178 222 281 337 404
#     4  12  29  48  63  95 144 182 228 274 345 404
#     4  11  20  38  67 102 133 170 220 280 337 393
#     4  10  25  45  69  97 134 178 228 281 335 404
#     4  10  21  42  70 101 129 174 230 274 341 396
#     4  10  21  42  66 101 128 168 224 274 332 398
#     4  10  18  35  67 100 133 163 218 277 327 400
#
# _framework density 24.020564
#
# number of rings (size 3 to 8) (size 9 to 14) (size 15 to 20)
#    0.000    1.250    6.250    0.750    3.500    3.000 
#    4.500    1.250    0.000    0.000    0.000    0.000 
#    0.000    0.000    0.000    0.000    0.000    0.000 
#
# Total GULP energy -89441.639616 kJ/mol
# GULP energy per Si atom -5590.102476 kJ/mol
# Density = 2.396589 g / cm^3
# Si number density = 24.020564 Si / 1000 Ang^3
#
#
#
# Elastic Constant Matrix: (Units=GPa)
#
#
# Indices 1 2 3 4 5 6 
#
# 1 67.0796 26.1371 4.4668 4.4189 0.6828 -11.5855
# 2 26.1371 133.9279 12.2566 -9.4703 8.5963 -47.3311
# 3 4.4668 12.2566 89.3783 -7.5996 11.9757 -3.2978
# 4 4.4189 -9.4703 -7.5996 33.0369 -2.2658 2.3690
# 5 0.6828 8.5963 11.9757 -2.2658 26.0687 8.8668
# 6 -11.5855 -47.3311 -3.2978 2.3690 8.8668 48.2819
#
#
#
# Elastic Compliance Matrix: (Units=1/GPa)
#
#
# Indices 1 2 3 4 5 6 
#
# 1 0.016535 -0.003037 -0.000683 -0.003300 0.000234 0.001063
# 2 -0.003037 0.013990 0.000265 0.002788 -0.009375 0.014588
# 3 -0.000683 0.000265 0.012291 0.002432 -0.006167 0.001949
# 4 -0.003300 0.002788 0.002432 0.032088 0.000701 0.000405
# 5 0.000234 -0.009375 -0.006167 0.000701 0.050773 -0.018914
# 6 0.001063 0.014588 0.001949 0.000405 -0.018914 0.038855
#
#
# Mechanical properties :
#
#
# Convention : Reuss Voigt Hill
#
# Bulk Modulus (GPa) = 27.85039 41.78963 34.82001
# Shear Modulus (GPa) = 27.26125 37.97921 32.62023
#
# Velocity S-wave (km/s) = 3.37250 3.98063 3.68912
# Velocity P-wave (km/s) = 5.17538 6.20987 5.71608
#
# Compressibility (1/GPa) = 0.03590614
#
# Stress axis : x y z
#
# Youngs Moduli (GPa) = 60.47756 71.48064 81.35888
#
# Poissons Ratio (x) = 0.21711 0.05553
# Poissons Ratio (y) = 0.18369 -0.02155
# Poissons Ratio (z) = 0.04128 -0.01893
#
# Static dielectric constant tensor:
#      x y z
#    x 1.982810 -0.001520 -0.013770 
#    y -0.001520 1.933970 0.030140 
#    z -0.013770 0.030140 1.941270 
# 
# From -- ./inp_files/214423.got.cif
#   From: 2010.05.17/outbox.cif.g08.bks.cpg/sg2_108_cif.got.tgz:214423.got - 2010.06.03 11:33:40.
