data_PCOD9078182
_publ_section_title
;
Structure prediction by ZEFSAII (Michael W. Deem and Ramdas Pophale) SiO2 
 PCOD9078182
Probable space group: P -1
;
_chemical_formula_sum "Si O2"
_cell_formula_units_Z 16
_cell_length_a 11.368268
_cell_length_b 13.231853
_cell_length_c 9.686909
_cell_angle_alpha 83.865636
_cell_angle_beta 56.841111
_cell_angle_gamma 43.708624
_cell_volume 730.579609
_symmetry_space_group_name_H-M "P -1"
_symmetry_group_IT_number 2
_symmetry_cell_setting 'triclinic'
loop_
_space_group_symop_operation_xyz
x,y,z
-x,-y,-z
loop_
_atom_site_type_symbol
_atom_site_label
_atom_site_fract_x
_atom_site_fract_y
_atom_site_fract_z
Si Si1 0.014310 0.992114 0.325530
Si Si2 0.484994 0.665626 0.160930
Si Si3 0.144507 0.487486 0.248570
Si Si4 0.858730 0.747934 0.787153
Si Si5 0.442953 0.838173 0.425239
Si Si6 0.556531 0.975144 0.196897
Si Si7 0.643833 0.721555 0.594315
Si Si8 0.716000 0.358461 0.483366
O O1 0.835258 0.007948 0.394779
O O2 0.887498 0.170038 0.341595
O O3 0.000000 0.000000 0.500000
O O4 0.288382 0.818482 0.155500
O O5 0.502431 0.738073 0.264439
O O6 0.388108 0.622569 0.307568
O O7 0.724781 0.519154 0.945305
O O8 0.152054 0.367192 0.202957
O O9 0.281544 0.399854 0.317791
O O10 0.873681 0.659260 0.429975
O O11 0.668739 0.901696 0.778858
O O12 0.110285 0.648339 0.610374
O O13 0.776125 0.827825 0.980228
O O14 0.564298 0.724191 0.499422
O O15 0.529541 0.901499 0.334922
O O16 0.549943 0.089874 0.250471
O O17 0.500000 0.500000 0.500000
#
# Coordination Sequence:
#
# PCOD9078182 Si02
#       8
#     2   2   2   2   2   2   2   2
#     4   8  18  33  58  81 116 153 195 237 288 348
#     4  10  20  39  65  86 115 157 211 235 289 358
#     4  10  22  40  60  86 116 163 191 243 292 365
#     4  10  20  34  64  86 115 151 208 234 290 349
#     4  10  18  35  59  87 115 153 195 249 290 347
#     4  10  19  35  59  89 114 155 197 248 284 356
#     4  10  23  35  56  87 129 148 189 246 314 335
#     4  10  21  33  54  95 122 143 187 267 291 328
#
# _framework density 21.900417999999998
#
# number of rings (size 3 to 8) (size 9 to 14) (size 15 to 20)
#    0.000    2.500    1.250    2.625    7.000    1.500 
#    0.000    0.625    0.000   12.000    0.000    0.000 
#    0.000    0.000    0.000    0.000    0.000    0.000 
#
# Total GULP energy -89309.426907 kJ/mol
# GULP energy per Si atom -5581.839182 kJ/mol
# Density = 2.185057 g / cm^3
# Si number density = 21.900418 Si / 1000 Ang^3
#
#
#
# Elastic Constant Matrix: (Units=GPa)
#
#
# Indices 1 2 3 4 5 6 
#
# 1 45.7227 21.5398 37.5669 -14.1584 -10.7637 -12.6011
# 2 21.5398 64.5825 16.6117 -6.5559 3.0336 -8.3142
# 3 37.5669 16.6117 98.7780 2.5662 -4.4552 -1.4197
# 4 -14.1584 -6.5559 2.5662 18.8208 4.2021 6.9711
# 5 -10.7637 3.0336 -4.4552 4.2021 23.9338 0.3943
# 6 -12.6011 -8.3142 -1.4197 6.9711 0.3943 28.5320
#
#
#
# Elastic Compliance Matrix: (Units=1/GPa)
#
#
# Indices 1 2 3 4 5 6 
#
# 1 0.069001 -0.011603 -0.024197 0.040776 0.020581 0.015642
# 2 -0.011603 0.019533 0.000824 -0.000705 -0.007432 0.000883
# 3 -0.024197 0.000824 0.019387 -0.017741 -0.004179 -0.005090
# 4 0.040776 -0.000705 -0.017741 0.087693 -0.000197 -0.004502
# 5 0.020581 -0.007432 -0.004179 -0.000197 0.051137 0.006058
# 6 0.015642 0.000883 -0.005090 -0.004502 0.006058 0.042977
#
#
# Mechanical properties :
#
#
# Convention : Reuss Voigt Hill
#
# Bulk Modulus (GPa) = 26.33795 40.05777 33.19786
# Shear Modulus (GPa) = 13.42871 23.14831 18.28851
#
# Velocity S-wave (km/s) = 2.47892 3.25465 2.89290
# Velocity P-wave (km/s) = 4.49952 5.69686 5.13322
#
# Compressibility (1/GPa) = 0.03796802
#
# Stress axis : x y z
#
# Youngs Moduli (GPa) = 14.49261 51.19440 51.58108
#
# Poissons Ratio (x) = 0.59402 1.24811
# Poissons Ratio (y) = 0.16816 -0.04249
# Poissons Ratio (z) = 0.35068 -0.04217
#
# Static dielectric constant tensor:
#      x y z
#    x 1.825050 0.005700 -0.018540 
#    y 0.005700 1.834390 0.004650 
#    z -0.018540 0.004650 1.840530 
# 
# From -- ./inp_files/270137.got.cif
#   From: 2010.05.17/outbox.cif.g08.bks.cpg/sg2_136_cif.got.tgz:270137.got - 2010.06.03 11:33:40.
