data_PCOD9078104
_publ_section_title
;
Structure prediction by ZEFSAII (Michael W. Deem and Ramdas Pophale) SiO2 
 PCOD9078104
Probable space group: P -1
;
_chemical_formula_sum "Si O2"
_cell_formula_units_Z 16
_cell_length_a 18.559362
_cell_length_b 7.000891
_cell_length_c 10.825349
_cell_angle_alpha 57.585565
_cell_angle_beta 36.371195
_cell_angle_gamma 78.278684
_cell_volume 626.548389
_symmetry_space_group_name_H-M "P -1"
_symmetry_group_IT_number 2
_symmetry_cell_setting 'triclinic'
loop_
_space_group_symop_operation_xyz
x,y,z
-x,-y,-z
loop_
_atom_site_type_symbol
_atom_site_label
_atom_site_fract_x
_atom_site_fract_y
_atom_site_fract_z
Si Si1 0.298861 0.343376 0.812176
Si Si2 0.673732 0.346591 0.866708
Si Si3 0.941862 0.420507 0.387122
Si Si4 0.834558 0.625756 0.773352
Si Si5 0.694525 0.859340 0.733254
Si Si6 0.489615 0.191655 0.767546
Si Si7 0.087696 0.988960 0.043391
Si Si8 0.115741 0.793673 0.834470
O O1 0.396133 0.240802 0.776938
O O2 0.369066 0.563657 0.537643
O O3 0.176185 0.114647 0.994682
O O4 0.250267 0.451163 0.956383
O O5 0.751774 0.390833 0.876112
O O6 0.661174 0.606490 0.784822
O O7 0.780036 0.310753 0.640336
O O8 0.533898 0.091325 0.133647
O O9 0.981238 0.693335 0.305392
O O10 0.028124 0.510925 0.109046
O O11 0.013365 0.301169 0.418334
O O12 0.812423 0.853722 0.664127
O O13 0.767761 0.108914 0.462387
O O14 0.569889 0.811029 0.012804
O O15 0.175822 0.968967 0.813456
O O16 0.001785 0.132649 0.072251
#
# Coordination Sequence:
#
# PCOD9078104 Si02
#       8
#     2   2   2   2   2   2   2   2
#     4  10  21  39  54  87 120 153 206 234 296 345
#     4  10  19  35  57  87 122 143 190 243 288 347
#     4  10  18  35  58  88 114 152 191 231 302 348
#     4   9  20  33  57  89 117 146 194 248 289 346
#     4   9  19  38  57  89 117 149 203 233 294 347
#     4  10  22  38  59  85 119 161 191 252 287 335
#     4   9  17  34  61  78 114 157 186 238 280 358
#     4   9  18  36  62  82 117 160 191 228 302 358
#
# _framework density 25.536735
#
# number of rings (size 3 to 8) (size 9 to 14) (size 15 to 20)
#    1.500    1.000    1.250    1.125    0.000    2.500 
#    2.250    8.750    0.000    5.250    0.000    0.000 
#    0.000    0.000    0.000    0.000    0.000    0.000 
#
# Total GULP energy -89350.051019 kJ/mol
# GULP energy per Si atom -5584.378189 kJ/mol
# Density = 2.547861 g / cm^3
# Si number density = 25.536735 Si / 1000 Ang^3
#
#
#
# Elastic Constant Matrix: (Units=GPa)
#
#
# Indices 1 2 3 4 5 6 
#
# 1 61.1159 9.2313 11.8525 0.1441 9.4868 -17.0256
# 2 9.2313 92.6957 30.0058 1.6096 13.7430 11.6334
# 3 11.8525 30.0058 140.2945 7.1740 30.7309 18.8739
# 4 0.1441 1.6096 7.1740 34.2441 12.9472 8.7760
# 5 9.4868 13.7430 30.7309 12.9472 29.9816 4.6100
# 6 -17.0256 11.6334 18.8739 8.7760 4.6100 30.8482
#
#
#
# Elastic Compliance Matrix: (Units=1/GPa)
#
#
# Indices 1 2 3 4 5 6 
#
# 1 0.022520 -0.002713 -0.002222 -0.001580 -0.005393 0.016067
# 2 -0.002713 0.012675 -0.000885 0.002741 -0.004326 -0.005869
# 3 -0.002222 -0.000885 0.010430 0.003375 -0.010003 -0.006739
# 4 -0.001580 0.002741 0.003375 0.038686 -0.019057 -0.012129
# 5 -0.005393 -0.004326 -0.010003 -0.019057 0.055227 0.001944
# 6 0.016067 -0.005869 -0.006739 -0.012129 0.001944 0.050781
#
#
# Mechanical properties :
#
#
# Convention : Reuss Voigt Hill
#
# Bulk Modulus (GPa) = 29.42380 44.03168 36.72774
# Shear Modulus (GPa) = 23.44265 35.21588 29.32927
#
# Velocity S-wave (km/s) = 3.03313 3.71756 3.39265
# Velocity P-wave (km/s) = 4.87993 5.97552 5.45530
#
# Compressibility (1/GPa) = 0.03398610
#
# Stress axis : x y z
#
# Youngs Moduli (GPa) = 44.40550 78.89624 95.87708
#
# Poissons Ratio (x) = 0.21404 0.21301
# Poissons Ratio (y) = 0.12047 0.08482
# Poissons Ratio (z) = 0.09865 0.06980
#
# Static dielectric constant tensor:
#      x y z
#    x 2.037480 -0.016340 0.024540 
#    y -0.016340 2.013460 0.038420 
#    z 0.024540 0.038420 2.034540 
# 
# From -- ./inp_files/473864.got.cif
#   From: 2010.05.17/outbox.cif.g08.bks.cpg/sg2_237_cif.got.tgz:473864.got - 2010.06.03 11:33:40.
