data_PCOD9078300
_publ_section_title
;
Structure prediction by ZEFSAII (Michael W. Deem and Ramdas Pophale) SiO2 
 PCOD9078300
Probable space group: P -1
;
_chemical_formula_sum "Si O2"
_cell_formula_units_Z 16
_cell_length_a 9.630221
_cell_length_b 15.966687
_cell_length_c 9.701310
_cell_angle_alpha 101.677508
_cell_angle_beta 58.117163
_cell_angle_gamma 137.002726
_cell_volume 819.088733
_symmetry_space_group_name_H-M "P -1"
_symmetry_group_IT_number 2
_symmetry_cell_setting 'triclinic'
loop_
_space_group_symop_operation_xyz
x,y,z
-x,-y,-z
loop_
_atom_site_type_symbol
_atom_site_label
_atom_site_fract_x
_atom_site_fract_y
_atom_site_fract_z
Si Si1 0.430526 0.379495 0.444645
Si Si2 0.617934 0.859516 0.871951
Si Si3 0.652923 0.948467 0.421452
Si Si4 0.138206 0.765471 0.774540
Si Si5 0.251887 0.972304 0.919836
Si Si6 0.102471 0.128463 0.698942
Si Si7 0.192281 0.614247 0.828746
Si Si8 0.854496 0.772619 0.731446
O O1 0.500000 0.500000 0.500000
O O2 0.221205 0.257146 0.612356
O O3 0.666285 0.407842 0.328407
O O4 0.314074 0.331071 0.335947
O O5 0.402273 0.747136 0.848485
O O6 0.729897 0.813832 0.857109
O O7 0.848260 0.994998 0.717928
O O8 0.557345 0.904323 0.037906
O O9 0.376846 0.861335 0.581120
O O10 0.702247 0.870552 0.410586
O O11 0.700693 0.978361 0.243170
O O12 0.873192 0.091298 0.419973
O O13 0.231386 0.861927 0.884472
O O14 0.078323 0.644723 0.804763
O O15 0.915429 0.729031 0.805039
O O16 0.993405 0.898498 0.102704
O O17 0.000000 0.500000 0.000000
#
# Coordination Sequence:
#
# PCOD9078300 Si02
#       8
#     2   2   2   2   2   2   2   2
#     4  11  24  44  63  85 118 167 213 243 291 365
#     4   8  20  38  63  89 117 163 201 244 294 363
#     4  10  18  35  60  96 127 151 189 256 311 352
#     4  11  22  37  61  92 127 156 191 252 314 351
#     4   9  19  34  59  95 121 150 200 242 299 360
#     4   9  19  36  65  88 115 160 202 249 293 357
#     4  11  25  44  59  85 128 161 200 252 304 350
#     4   9  20  37  62  88 120 155 199 245 299 361
#
# _framework density 19.533902999999999
#
# number of rings (size 3 to 8) (size 9 to 14) (size 15 to 20)
#    0.750    1.500    1.250    1.875    5.250    2.000 
#    4.500    4.375    0.000    0.000    0.000    0.000 
#    0.000    0.000    0.000    0.000    0.000    0.000 
#
# Total GULP energy -89105.054481 kJ/mol
# GULP energy per Si atom -5569.065905 kJ/mol
# Density = 1.948944 g / cm^3
# Si number density = 19.533903 Si / 1000 Ang^3
#
#
#
# Elastic Constant Matrix: (Units=GPa)
#
#
# Indices 1 2 3 4 5 6 
#
# 1 68.2853 33.2888 15.8909 -2.5053 6.3336 -28.9443
# 2 33.2888 116.6040 35.1025 8.8287 3.7809 -33.2119
# 3 15.8909 35.1025 69.3480 3.7762 -3.5060 -9.6140
# 4 -2.5053 8.8287 3.7762 33.7543 -3.0333 -0.6229
# 5 6.3336 3.7809 -3.5060 -3.0333 19.5611 -3.0180
# 6 -28.9443 -33.2119 -9.6140 -0.6229 -3.0180 24.0463
#
#
#
# Elastic Compliance Matrix: (Units=1/GPa)
#
#
# Indices 1 2 3 4 5 6 
#
# 1 0.031796 0.003943 -0.003883 0.002080 -0.005014 0.041591
# 2 0.003943 0.016639 -0.005789 -0.003143 -0.002151 0.025061
# 3 -0.003883 -0.005789 0.017815 -0.000433 0.004736 -0.004963
# 4 0.002080 -0.003143 -0.000433 0.031050 0.004574 -0.000631
# 5 -0.005014 -0.002151 0.004736 0.004574 0.054699 -0.000128
# 6 0.041591 0.025061 -0.004963 -0.000631 -0.000128 0.124244
#
#
# Mechanical properties :
#
#
# Convention : Reuss Voigt Hill
#
# Bulk Modulus (GPa) = 18.25080 46.97796 32.61438
# Shear Modulus (GPa) = 16.34168 26.80268 21.57218
#
# Velocity S-wave (km/s) = 2.89551 3.70822 3.32678
# Velocity P-wave (km/s) = 4.53233 6.51431 5.61152
#
# Compressibility (1/GPa) = 0.05479213
#
# Stress axis : x y z
#
# Youngs Moduli (GPa) = 31.45011 60.10036 56.13258
#
# Poissons Ratio (x) = -0.23695 0.21794
# Poissons Ratio (y) = -0.12399 0.32495
# Poissons Ratio (z) = 0.12211 0.34792
#
# Static dielectric constant tensor:
#      x y z
#    x 1.739260 -0.010970 0.010200 
#    y -0.010970 1.686690 0.019960 
#    z 0.010200 0.019960 1.705100 
# 
# From -- ./inp_files/202026.got.cif
#   From: 2010.05.17/outbox.cif.g08.bks.cpg/sg2_102_cif.got.tgz:202026.got - 2010.06.03 11:33:40.
