data_PCOD9078658
_publ_section_title
;
Structure prediction by ZEFSAII (Michael W. Deem and Ramdas Pophale) SiO2 
 PCOD9078658
Probable space group: P -1
;
_chemical_formula_sum "Si O2"
_cell_formula_units_Z 14
_cell_length_a 6.970829
_cell_length_b 18.750398
_cell_length_c 5.475048
_cell_angle_alpha 87.687564
_cell_angle_beta 132.461160
_cell_angle_gamma 105.126491
_cell_volume 500.292957
_symmetry_space_group_name_H-M "P -1"
_symmetry_group_IT_number 2
_symmetry_cell_setting 'triclinic'
loop_
_space_group_symop_operation_xyz
x,y,z
-x,-y,-z
loop_
_atom_site_type_symbol
_atom_site_label
_atom_site_fract_x
_atom_site_fract_y
_atom_site_fract_z
Si Si1 0.790112 0.195909 0.476321
Si Si2 0.326628 0.660212 0.784510
Si Si3 0.761496 0.752546 0.492502
Si Si4 0.289458 0.519440 0.003926
Si Si5 0.724998 0.617654 0.753802
Si Si6 0.695455 0.888216 0.662614
Si Si7 0.641600 0.935636 0.109523
O O1 0.786099 0.281674 0.468419
O O2 0.590893 0.146557 0.100277
O O3 0.083071 0.204030 0.617473
O O4 0.638788 0.144410 0.579057
O O5 0.156753 0.575844 0.742802
O O6 0.569373 0.647235 0.829919
O O7 0.469017 0.705231 0.141771
O O8 0.882729 0.690094 0.718314
O O9 0.766027 0.811907 0.696749
O O10 0.500000 0.500000 0.000000
O O11 0.486342 0.567386 0.378199
O O12 0.126491 0.438977 0.996602
O O13 0.206687 0.065502 0.014601
O O14 0.786522 0.933845 0.488485
O O15 0.500000 0.000000 0.000000
#
# Coordination Sequence:
#
# PCOD9078658 Si02
#       7
#     2   2   2   2   2   2   2
#     4  10  23  36  62  90 119 161 204 248 306 363
#     4  10  18  36  54  83 121 155 202 255 300 357
#     4  11  20  37  59  89 119 161 205 248 303 365
#     4   8  16  28  54  81 112 159 196 245 312 347
#     4   9  16  31  55  81 115 158 198 249 303 355
#     4  10  21  41  61  90 126 156 200 255 301 361
#     4  10  21  42  66  88 125 162 198 252 308 363
#
# _framework density 27.983605000000001
#
# number of rings (size 3 to 8) (size 9 to 14) (size 15 to 20)
#    0.857    1.429    2.857    0.429    0.000    1.143 
#    0.000    2.143    0.000   29.143    0.000    0.000 
#    0.000    0.000    0.000    0.000    0.000    0.000 
#
# Total GULP energy -78268.603552 kJ/mol
# GULP energy per Si atom -5590.614539 kJ/mol
# Density = 2.791991 g / cm^3
# Si number density = 27.983605 Si / 1000 Ang^3
#
#
#
# Elastic Constant Matrix: (Units=GPa)
#
#
# Indices 1 2 3 4 5 6 
#
# 1 94.9501 26.5114 39.6587 13.1267 -20.0660 -1.3821
# 2 26.5114 162.9867 56.3221 6.8327 -18.0746 -24.8643
# 3 39.6587 56.3221 123.0145 7.2507 -38.9347 -5.4583
# 4 13.1267 6.8327 7.2507 46.9032 2.3607 -9.2494
# 5 -20.0660 -18.0746 -38.9347 2.3607 48.8683 0.9029
# 6 -1.3821 -24.8643 -5.4583 -9.2494 0.9029 38.1483
#
#
#
# Elastic Compliance Matrix: (Units=1/GPa)
#
#
# Indices 1 2 3 4 5 6 
#
# 1 0.013019 -0.000932 -0.002648 -0.003539 0.003089 -0.001446
# 2 -0.000932 0.008136 -0.003269 0.000560 -0.000096 0.004939
# 3 -0.002648 -0.003269 0.013135 -0.001403 0.008253 -0.000883
# 4 -0.003539 0.000560 -0.001403 0.023790 -0.003622 0.005890
# 5 0.003089 -0.000096 0.008253 -0.003622 0.028452 -0.000322
# 6 -0.001446 0.004939 -0.000883 0.005890 -0.000322 0.030690
#
#
# Mechanical properties :
#
#
# Convention : Reuss Voigt Hill
#
# Bulk Modulus (GPa) = 48.56392 69.54841 59.05617
# Shear Modulus (GPa) = 36.28840 44.01457 40.15149
#
# Velocity S-wave (km/s) = 3.60498 3.97024 3.79201
# Velocity P-wave (km/s) = 5.89236 6.77675 6.34997
#
# Compressibility (1/GPa) = 0.02059142
#
# Stress axis : x y z
#
# Youngs Moduli (GPa) = 76.80906 122.90907 76.13192
#
# Poissons Ratio (x) = 0.11458 0.20163
# Poissons Ratio (y) = 0.07160 0.24886
# Poissons Ratio (z) = 0.20343 0.40177
#
# Static dielectric constant tensor:
#      x y z
#    x 2.177030 0.002600 -0.027850 
#    y 0.002600 2.160970 -0.065850 
#    z -0.027850 -0.065850 2.190320 
# 
# From -- ./inp_files/42335.got.cif
#   From: 2010.05.17/outbox.cif.g08.bks.cpg/sg2_22_cif.got.tgz:42335.got - 2010.06.03 11:33:40.
