data_PCOD9078970
_publ_section_title
;
Structure prediction by ZEFSAII (Michael W. Deem and Ramdas Pophale) SiO2 
 PCOD9078970
Probable space group: P -1
;
_chemical_formula_sum "Si O2"
_cell_formula_units_Z 14
_cell_length_a 9.193554
_cell_length_b 7.093686
_cell_length_c 11.573350
_cell_angle_alpha 78.093263
_cell_angle_beta 88.432626
_cell_angle_gamma 47.822464
_cell_volume 540.830337
_symmetry_space_group_name_H-M "P -1"
_symmetry_group_IT_number 2
_symmetry_cell_setting 'triclinic'
loop_
_space_group_symop_operation_xyz
x,y,z
-x,-y,-z
loop_
_atom_site_type_symbol
_atom_site_label
_atom_site_fract_x
_atom_site_fract_y
_atom_site_fract_z
Si Si1 0.185435 0.120183 0.986573
Si Si2 0.455015 0.281137 0.606313
Si Si3 0.867812 0.297762 0.789337
Si Si4 0.822390 0.143824 0.575246
Si Si5 0.915807 0.564945 0.366833
Si Si6 0.499485 0.426257 0.842337
Si Si7 0.889452 0.395306 0.163027
O O1 0.217104 0.301972 0.906568
O O2 0.019225 0.160859 0.909516
O O3 0.082631 0.233617 0.099825
O O4 0.380147 0.820003 0.042115
O O5 0.674929 0.093483 0.571896
O O6 0.319255 0.544935 0.497063
O O7 0.324448 0.207212 0.638329
O O8 0.487308 0.345083 0.724247
O O9 0.885630 0.123488 0.709200
O O10 0.642045 0.482925 0.816557
O O11 0.946658 0.411769 0.707320
O O12 0.000000 0.000000 0.500000
O O13 0.927729 0.374748 0.301923
O O14 0.000000 0.500000 0.500000
O O15 0.269851 0.628120 0.857514
#
# Coordination Sequence:
#
# PCOD9078970 Si02
#       7
#     2   2   2   2   2   2   2
#     4  10  20  39  60  85 117 147 196 233 287 343
#     4   9  20  36  59  84 111 155 186 234 293 337
#     4  10  21  35  58  87 115 154 186 244 284 332
#     4  10  20  38  60  82 115 150 192 235 288 345
#     4  10  18  36  61  80 120 150 189 243 284 334
#     4  10  20  36  59  84 121 148 189 240 283 343
#     4   9  21  37  62  86 107 162 191 227 295 345
#
# _framework density 25.886120999999999
#
# number of rings (size 3 to 8) (size 9 to 14) (size 15 to 20)
#    0.000    2.286    1.429    0.857    0.000    5.143 
#    0.000    5.000    6.286    0.000    0.000    0.000 
#    0.000    0.000    0.000    0.000    0.000    0.000 
#
# Total GULP energy -78171.366866 kJ/mol
# GULP energy per Si atom -5583.669062 kJ/mol
# Density = 2.582720 g / cm^3
# Si number density = 25.886121 Si / 1000 Ang^3
#
#
#
# Elastic Constant Matrix: (Units=GPa)
#
#
# Indices 1 2 3 4 5 6 
#
# 1 206.3211 32.8691 20.6817 3.6436 -3.5547 -43.6294
# 2 32.8691 43.7994 2.4445 5.3853 -1.0854 -23.2337
# 3 20.6817 2.4445 138.7795 -0.4455 6.5335 1.0471
# 4 3.6436 5.3853 -0.4455 34.2855 -3.7734 -1.0672
# 5 -3.5547 -1.0854 6.5335 -3.7734 55.0975 -1.5939
# 6 -43.6294 -23.2337 1.0471 -1.0672 -1.5939 44.5358
#
#
#
# Elastic Compliance Matrix: (Units=1/GPa)
#
#
# Indices 1 2 3 4 5 6 
#
# 1 0.006383 -0.001881 -0.000989 -0.000161 0.000635 0.005314
# 2 -0.001881 0.032929 -0.000463 -0.004424 0.000721 0.015267
# 3 -0.000989 -0.000463 0.007419 0.000122 -0.000985 -0.001417
# 4 -0.000161 -0.004424 0.000122 0.030037 0.001897 -0.001680
# 5 0.000635 0.000721 -0.000985 0.001897 0.018502 0.001729
# 6 0.005314 0.015267 -0.001417 -0.001680 0.001729 0.035679
#
#
# Mechanical properties :
#
#
# Convention : Reuss Voigt Hill
#
# Bulk Modulus (GPa) = 24.95896 55.65452 40.30674
# Shear Modulus (GPa) = 33.11970 48.97740 41.04855
#
# Velocity S-wave (km/s) = 3.58080 4.35447 3.98645
# Velocity P-wave (km/s) = 5.17291 6.84312 6.06578
#
# Compressibility (1/GPa) = 0.04006578
#
# Stress axis : x y z
#
# Youngs Moduli (GPa) = 156.66541 30.36875 134.79585
#
# Poissons Ratio (x) = 0.05711 0.13326
# Poissons Ratio (y) = 0.29461 0.06242
# Poissons Ratio (z) = 0.15488 0.01406
#
# Static dielectric constant tensor:
#      x y z
#    x 2.086130 0.091080 -0.037670 
#    y 0.091080 2.243850 -0.057500 
#    z -0.037670 -0.057500 2.004390 
# 
# From -- ./inp_files/297432.got.cif
#   From: 2010.05.17/outbox.cif.g08.bks.cpg/sg2_149_cif.got.tgz:297432.got - 2010.06.03 11:33:40.
