data_PCOD9078294
_publ_section_title
;
Structure prediction by ZEFSAII (Michael W. Deem and Ramdas Pophale) SiO2 
 PCOD9078294
Probable space group: P -1
;
_chemical_formula_sum "Si O2"
_cell_formula_units_Z 16
_cell_length_a 14.943824
_cell_length_b 11.188909
_cell_length_c 12.395238
_cell_angle_alpha 81.582667
_cell_angle_beta 33.723437
_cell_angle_gamma 107.663293
_cell_volume 720.499860
_symmetry_space_group_name_H-M "P -1"
_symmetry_group_IT_number 2
_symmetry_cell_setting 'triclinic'
loop_
_space_group_symop_operation_xyz
x,y,z
-x,-y,-z
loop_
_atom_site_type_symbol
_atom_site_label
_atom_site_fract_x
_atom_site_fract_y
_atom_site_fract_z
Si Si1 0.678629 0.071604 0.107612
Si Si2 0.390792 0.052656 0.043521
Si Si3 0.082910 0.738876 0.766123
Si Si4 0.349808 0.681159 0.816459
Si Si5 0.346544 0.294053 0.317556
Si Si6 0.996721 0.113349 0.359366
Si Si7 0.446125 0.605131 0.143766
Si Si8 0.856325 0.043520 0.137969
O O1 0.720101 0.239782 0.055723
O O2 0.378216 0.875600 0.461733
O O3 0.841157 0.094896 0.029656
O O4 0.703138 0.039811 0.966421
O O5 0.164304 0.967394 0.358773
O O6 0.599082 0.281436 0.798146
O O7 0.500000 0.000000 0.000000
O O8 0.056538 0.804855 0.675735
O O9 0.023345 0.792072 0.919511
O O10 0.889906 0.516625 0.976296
O O11 0.482512 0.658250 0.763406
O O12 0.569719 0.851974 0.492070
O O13 0.275678 0.394220 0.379974
O O14 0.112739 0.067010 0.568242
O O15 0.510682 0.377007 0.030860
O O16 0.287772 0.269665 0.079272
O O17 0.000000 0.000000 0.000000
#
# Coordination Sequence:
#
# PCOD9078294 Si02
#       8
#     2   2   2   2   2   2   2   2
#     4  11  24  44  66  96 135 173 220 270 326 390
#     4  11  21  39  64  93 134 171 211 268 322 382
#     4  11  22  43  70  93 128 174 222 260 332 394
#     4  11  22  43  71  93 130 178 218 269 331 392
#     4  10  18  35  60  93 124 163 218 264 315 384
#     4  11  20  39  66  91 128 178 213 267 325 387
#     4  10  22  34  60  94 127 171 221 266 323 382
#     4  11  27  44  69  98 129 168 220 282 326 387
#
# _framework density 22.206804999999999
#
# number of rings (size 3 to 8) (size 9 to 14) (size 15 to 20)
#    0.000    1.250    5.000    3.750    1.750    3.500 
#    0.000    6.875    0.000    0.000    0.000    0.000 
#    0.000    0.000    0.000    0.000    0.000    0.000 
#
# Total GULP energy -89536.978747 kJ/mol
# GULP energy per Si atom -5596.061172 kJ/mol
# Density = 2.215626 g / cm^3
# Si number density = 22.206805 Si / 1000 Ang^3
#
#
#
# Elastic Constant Matrix: (Units=GPa)
#
#
# Indices 1 2 3 4 5 6 
#
# 1 120.1691 34.1573 2.7865 8.8347 13.2362 4.6958
# 2 34.1573 177.2684 43.7612 -18.9092 8.5978 -0.9348
# 3 2.7865 43.7612 44.5502 -18.6204 -0.2427 4.5129
# 4 8.8347 -18.9092 -18.6204 38.7028 -1.8183 2.7996
# 5 13.2362 8.5978 -0.2427 -1.8183 29.9112 -0.9511
# 6 4.6958 -0.9348 4.5129 2.7996 -0.9511 44.1513
#
#
#
# Elastic Compliance Matrix: (Units=1/GPa)
#
#
# Indices 1 2 3 4 5 6 
#
# 1 0.009604 -0.002044 0.000128 -0.003243 -0.003889 -0.000956
# 2 -0.002044 0.008065 -0.007677 0.000567 -0.001406 0.001107
# 3 0.000128 -0.007677 0.036426 0.014236 0.003161 -0.004734
# 4 -0.003243 0.000567 0.014236 0.034093 0.003359 -0.003188
# 5 -0.003889 -0.001406 0.003161 0.003359 0.035807 0.000619
# 6 -0.000956 0.001107 -0.004734 -0.003188 0.000619 0.023474
#
#
# Mechanical properties :
#
#
# Convention : Reuss Voigt Hill
#
# Bulk Modulus (GPa) = 28.64664 55.93308 42.28986
# Shear Modulus (GPa) = 28.04389 39.97189 34.00789
#
# Velocity S-wave (km/s) = 3.55752 4.24722 3.91758
# Velocity P-wave (km/s) = 5.45917 7.02096 6.28874
#
# Compressibility (1/GPa) = 0.03490811
#
# Stress axis : x y z
#
# Youngs Moduli (GPa) = 104.12441 123.99649 27.45264
#
# Poissons Ratio (x) = 0.25350 -0.00350
# Poissons Ratio (y) = 0.21288 0.21074
# Poissons Ratio (z) = -0.01329 0.95187
#
# Static dielectric constant tensor:
#      x y z
#    x 1.785840 -0.028430 -0.000740 
#    y -0.028430 1.838830 0.003600 
#    z -0.000740 0.003600 1.841320 
# 
# From -- ./inp_files/452343.got.cif
#   From: 2010.05.17/outbox.cif.g08.bks.cpg/sg2_227_cif.got.tgz:452343.got - 2010.06.03 11:33:40.
