data_PCOD9078112
_publ_section_title
;
Structure prediction by ZEFSAII (Michael W. Deem and Ramdas Pophale) SiO2 
 PCOD9078112
Probable space group: P -1
;
_chemical_formula_sum "Si O2"
_cell_formula_units_Z 16
_cell_length_a 17.131488
_cell_length_b 7.435077
_cell_length_c 12.652418
_cell_angle_alpha 119.665544
_cell_angle_beta 34.173701
_cell_angle_gamma 97.651181
_cell_volume 648.371751
_symmetry_space_group_name_H-M "P -1"
_symmetry_group_IT_number 2
_symmetry_cell_setting 'triclinic'
loop_
_space_group_symop_operation_xyz
x,y,z
-x,-y,-z
loop_
_atom_site_type_symbol
_atom_site_label
_atom_site_fract_x
_atom_site_fract_y
_atom_site_fract_z
Si Si1 0.225744 0.402998 0.913349
Si Si2 0.950412 0.810733 0.032548
Si Si3 0.088432 0.684450 0.468208
Si Si4 0.908592 0.686809 0.488587
Si Si5 0.405202 0.227439 0.862150
Si Si6 0.705969 0.593548 0.563838
Si Si7 0.444183 0.332322 0.464845
Si Si8 0.737621 0.156229 0.544644
O O1 0.194690 0.182144 0.869273
O O2 0.374370 0.335212 0.808796
O O3 0.272561 0.435653 0.753673
O O4 0.054115 0.624477 0.224778
O O5 0.875728 0.897826 0.257479
O O6 0.119343 0.547933 0.739454
O O7 0.000000 0.000000 0.000000
O O8 0.933516 0.818407 0.598478
O O9 0.176403 0.824716 0.441781
O O10 0.043875 0.580600 0.589965
O O11 0.238184 0.429516 0.170573
O O12 0.729318 0.782365 0.663149
O O13 0.562601 0.182118 0.739610
O O14 0.433189 0.962050 0.735651
O O15 0.573961 0.666992 0.640856
O O16 0.702829 0.394696 0.584229
O O17 0.500000 0.500000 0.500000
#
# Coordination Sequence:
#
# PCOD9078112 Si02
#       8
#     2   2   2   2   2   2   2   2
#     4  10  20  37  60  84 115 150 193 239 288 335
#     4   9  18  31  57  85 110 145 185 239 285 334
#     4   9  18  35  61  89 110 144 202 237 282 329
#     4   8  17  36  59  82 111 145 188 242 282 324
#     4  11  22  36  59  84 119 153 192 236 282 345
#     4   9  20  36  56  84 120 150 186 237 296 332
#     4  12  25  37  54  88 123 155 187 231 296 351
#     4  10  18  35  58  89 113 150 193 238 281 343
#
# _framework density 24.677199999999999
#
# number of rings (size 3 to 8) (size 9 to 14) (size 15 to 20)
#    0.000    2.250    1.250    2.250    3.500    2.000 
#    0.000    2.500    0.000    1.500    0.000    0.000 
#    0.000    0.000    0.000    0.000    0.000    0.000 
#
# Total GULP energy -89224.491306 kJ/mol
# GULP energy per Si atom -5576.530707 kJ/mol
# Density = 2.462103 g / cm^3
# Si number density = 24.677200 Si / 1000 Ang^3
#
#
#
# Elastic Constant Matrix: (Units=GPa)
#
#
# Indices 1 2 3 4 5 6 
#
# 1 177.6706 47.8813 -0.9110 -10.6593 -5.6150 32.2311
# 2 47.8813 69.0721 11.0143 -15.4843 -7.1789 20.0684
# 3 -0.9110 11.0143 52.6037 -9.9626 5.3167 7.2384
# 4 -10.6593 -15.4843 -9.9626 8.5557 -1.8158 -8.8013
# 5 -5.6150 -7.1789 5.3167 -1.8158 26.1416 -12.6465
# 6 32.2311 20.0684 7.2384 -8.8013 -12.6465 39.6002
#
#
#
# Elastic Compliance Matrix: (Units=1/GPa)
#
#
# Indices 1 2 3 4 5 6 
#
# 1 0.007779 -0.005444 0.001414 -0.005640 -0.003505 -0.006204
# 2 -0.005444 0.031723 0.003010 0.064192 0.014655 0.006751
# 3 0.001414 0.003010 0.025498 0.037208 -0.001206 0.000547
# 4 -0.005640 0.064192 0.037208 0.347216 0.063268 0.062634
# 5 -0.003505 0.014655 -0.001206 0.063268 0.060155 0.028919
# 6 -0.006204 0.006751 0.000547 0.062634 0.028919 0.049937
#
#
# Mechanical properties :
#
#
# Convention : Reuss Voigt Hill
#
# Bulk Modulus (GPa) = 15.88280 46.14618 31.01449
# Shear Modulus (GPa) = 9.16870 30.95028 20.05949
#
# Velocity S-wave (km/s) = 1.92964 3.54532 2.85419
# Velocity P-wave (km/s) = 3.37859 5.95815 4.84327
#
# Compressibility (1/GPa) = 0.06296118
#
# Stress axis : x y z
#
# Youngs Moduli (GPa) = 128.54878 31.52253 39.21931
#
# Poissons Ratio (x) = 0.17162 -0.05547
# Poissons Ratio (y) = 0.69986 -0.11807
# Poissons Ratio (z) = -0.18182 -0.09490
#
# Static dielectric constant tensor:
#      x y z
#    x 2.141400 -0.007410 -0.012150 
#    y -0.007410 1.989700 -0.021610 
#    z -0.012150 -0.021610 1.941330 
# 
# From -- ./inp_files/320313.got.cif
#   From: 2010.05.17/outbox.cif.g08.bks.cpg/sg2_161_cif.got.tgz:320313.got - 2010.06.03 11:33:40.
