data_PCOD9078363
_publ_section_title
;
Structure prediction by ZEFSAII (Michael W. Deem and Ramdas Pophale) SiO2 
 PCOD9078363
Probable space group: P -1
;
_chemical_formula_sum "Si O2"
_cell_formula_units_Z 16
_cell_length_a 12.271404
_cell_length_b 8.850378
_cell_length_c 12.017602
_cell_angle_alpha 124.192558
_cell_angle_beta 134.676683
_cell_angle_gamma 51.610469
_cell_volume 708.818354
_symmetry_space_group_name_H-M "P -1"
_symmetry_group_IT_number 2
_symmetry_cell_setting 'triclinic'
loop_
_space_group_symop_operation_xyz
x,y,z
-x,-y,-z
loop_
_atom_site_type_symbol
_atom_site_label
_atom_site_fract_x
_atom_site_fract_y
_atom_site_fract_z
Si Si1 0.113881 0.781724 0.657012
Si Si2 0.252945 0.104731 0.593855
Si Si3 0.311080 0.354440 0.547542
Si Si4 0.705788 0.883433 0.883004
Si Si5 0.209136 0.132622 0.813332
Si Si6 0.460946 0.718236 0.518238
Si Si7 0.980838 0.574841 0.815247
Si Si8 0.860361 0.159399 0.041599
O O1 0.259075 0.570489 0.653284
O O2 0.092745 0.841012 0.795638
O O3 0.943083 0.768923 0.492045
O O4 0.148508 0.951652 0.687051
O O5 0.325810 0.198110 0.588905
O O6 0.308148 0.123358 0.766587
O O7 0.280709 0.882170 0.482554
O O8 0.476288 0.296748 0.568822
O O9 0.159681 0.369192 0.360131
O O10 0.570157 0.813710 0.704857
O O11 0.881583 0.708792 0.902483
O O12 0.695632 0.897943 0.014308
O O13 0.711099 0.081479 0.910842
O O14 0.056206 0.343297 0.797083
O O15 0.500000 0.500000 0.500000
O O16 0.134268 0.637214 0.917095
O O17 0.000000 0.000000 0.000000
#
# Coordination Sequence:
#
# PCOD9078363 Si02
#       8
#     2   2   2   2   2   2   2   2
#     4  11  21  36  64  97 126 157 206 262 305 358
#     4  12  23  38  64  92 125 167 205 250 306 367
#     4  11  22  41  62  94 127 159 210 255 303 364
#     4   9  22  39  58  86 125 164 201 252 306 368
#     4  11  22  35  61  96 125 158 206 257 311 359
#     4  11  26  45  64  87 125 168 206 252 307 373
#     4  10  18  35  61  91 126 154 203 258 311 353
#     4   9  18  36  58  91 121 160 196 259 307 352
#
# _framework density 22.572778
#
# number of rings (size 3 to 8) (size 9 to 14) (size 15 to 20)
#    0.000    1.500    2.500    3.000    3.500    0.500 
#    0.000    0.000    0.000    4.500    0.000    0.000 
#    0.000    0.000    0.000    0.000    0.000    0.000 
#
# Total GULP energy -89366.887334 kJ/mol
# GULP energy per Si atom -5585.430458 kJ/mol
# Density = 2.252140 g / cm^3
# Si number density = 22.572778 Si / 1000 Ang^3
#
#
#
# Elastic Constant Matrix: (Units=GPa)
#
#
# Indices 1 2 3 4 5 6 
#
# 1 84.4078 20.2883 31.0619 -2.4095 -40.2744 5.6774
# 2 20.2883 92.7350 2.0826 17.3293 -15.3837 3.3378
# 3 31.0619 2.0826 72.1907 7.5180 -18.7538 7.9519
# 4 -2.4095 17.3293 7.5180 25.4793 0.2596 1.4465
# 5 -40.2744 -15.3837 -18.7538 0.2596 40.9591 5.0844
# 6 5.6774 3.3378 7.9519 1.4465 5.0844 38.6516
#
#
#
# Elastic Compliance Matrix: (Units=1/GPa)
#
#
# Indices 1 2 3 4 5 6 
#
# 1 0.025689 -0.002637 -0.005082 0.005815 0.022613 -0.005692
# 2 -0.002637 0.014086 0.003178 -0.010718 0.004428 -0.001664
# 3 -0.005082 0.003178 0.018536 -0.007952 0.005197 -0.003727
# 4 0.005815 -0.010718 -0.007952 0.049448 -0.002282 0.000157
# 5 0.022613 0.004428 0.005197 -0.002282 0.052139 -0.011546
# 6 -0.005692 -0.001664 -0.003727 0.000157 -0.011546 0.029132
#
#
# Mechanical properties :
#
#
# Convention : Reuss Voigt Hill
#
# Bulk Modulus (GPa) = 20.31263 39.57765 29.94514
# Shear Modulus (GPa) = 23.30771 34.07806 28.69289
#
# Velocity S-wave (km/s) = 3.21683 3.88970 3.56916
# Velocity P-wave (km/s) = 4.77657 6.14365 5.50273
#
# Compressibility (1/GPa) = 0.04923045
#
# Stress axis : x y z
#
# Youngs Moduli (GPa) = 38.92672 70.99185 53.94949
#
# Poissons Ratio (x) = 0.18718 0.27415
# Poissons Ratio (y) = 0.10264 -0.17144
# Poissons Ratio (z) = 0.19781 -0.22560
#
# Static dielectric constant tensor:
#      x y z
#    x 1.873820 -0.028740 0.032900 
#    y -0.028740 1.852100 -0.003900 
#    z 0.032900 -0.003900 1.846120 
# 
# From -- ./inp_files/304893.got.cif
#   From: 2010.05.17/outbox.cif.g08.bks.cpg/sg2_153_cif.got.tgz:304893.got - 2010.06.03 11:33:40.
