data_PCOD9078499
_publ_section_title
;
Structure prediction by ZEFSAII (Michael W. Deem and Ramdas Pophale) SiO2 
 PCOD9078499
Probable space group: P -1
;
_chemical_formula_sum "Si O2"
_cell_formula_units_Z 16
_cell_length_a 14.705818
_cell_length_b 8.069085
_cell_length_c 14.833826
_cell_angle_alpha 76.120994
_cell_angle_beta 130.255933
_cell_angle_gamma 138.960079
_cell_volume 766.885995
_symmetry_space_group_name_H-M "P -1"
_symmetry_group_IT_number 2
_symmetry_cell_setting 'triclinic'
loop_
_space_group_symop_operation_xyz
x,y,z
-x,-y,-z
loop_
_atom_site_type_symbol
_atom_site_label
_atom_site_fract_x
_atom_site_fract_y
_atom_site_fract_z
Si Si1 0.955847 0.125078 0.404267
Si Si2 0.334468 0.500771 0.493235
Si Si3 0.757998 0.099151 0.630780
Si Si4 0.042559 0.588494 0.878797
Si Si5 0.666026 0.897579 0.396985
Si Si6 0.731387 0.818401 0.112845
Si Si7 0.773647 0.459165 0.870122
Si Si8 0.909882 0.907283 0.786208
O O1 0.178892 0.418080 0.469289
O O2 0.835738 0.102100 0.401189
O O3 0.810110 0.921927 0.252175
O O4 0.000000 0.000000 0.500000
O O5 0.377809 0.357724 0.578129
O O6 0.226557 0.339887 0.348397
O O7 0.530298 0.841487 0.556343
O O8 0.923398 0.419477 0.732335
O O9 0.747851 0.065111 0.521781
O O10 0.830439 0.003078 0.731397
O O11 0.864776 0.437263 0.854694
O O12 0.201961 0.926388 0.924464
O O13 0.158738 0.557113 0.993945
O O14 0.461946 0.763062 0.258287
O O15 0.500000 0.500000 0.000000
O O16 0.866059 0.836281 0.143833
O O17 0.886847 0.766189 0.877948
#
# Coordination Sequence:
#
# PCOD9078499 Si02
#       8
#     2   2   2   2   2   2   2   2
#     4   9  20  38  61  95 122 150 208 257 293 368
#     4   9  16  34  62  94 126 156 200 246 306 356
#     4  11  19  36  64  97 121 159 201 254 311 353
#     4  10  25  39  59  91 127 158 205 260 303 358
#     4  10  18  35  63  92 126 162 202 246 299 366
#     4  10  22  45  64  81 120 173 205 243 316 372
#     4  10  19  41  56  88 132 155 208 254 294 358
#     4   9  17  35  65  90 120 160 204 249 292 369
#
# _framework density 20.863596000000001
#
# number of rings (size 3 to 8) (size 9 to 14) (size 15 to 20)
#    0.000    2.250    2.500    1.500    0.000    2.000 
#   13.500    3.125    0.000    0.000    0.000    0.000 
#    0.000    0.000    0.000    0.000    0.000    0.000 
#
# Total GULP energy -89285.086404 kJ/mol
# GULP energy per Si atom -5580.317900 kJ/mol
# Density = 2.081611 g / cm^3
# Si number density = 20.863596 Si / 1000 Ang^3
#
#
#
# Elastic Constant Matrix: (Units=GPa)
#
#
# Indices 1 2 3 4 5 6 
#
# 1 94.9481 43.4878 54.5424 8.1428 19.3952 19.6073
# 2 43.4878 66.1362 45.6384 -0.3222 15.3590 10.9194
# 3 54.5424 45.6384 119.6481 0.4262 26.1019 8.0480
# 4 8.1428 -0.3222 0.4262 46.1884 0.4618 7.9178
# 5 19.3952 15.3590 26.1019 0.4618 32.7308 -0.8096
# 6 19.6073 10.9194 8.0480 7.9178 -0.8096 23.7901
#
#
#
# Elastic Compliance Matrix: (Units=1/GPa)
#
#
# Indices 1 2 3 4 5 6 
#
# 1 0.019773 -0.006824 -0.004516 -0.001501 -0.005172 -0.011313
# 2 -0.006824 0.024910 -0.005287 0.002303 -0.003583 -0.004909
# 3 -0.004516 -0.005287 0.013584 0.000485 -0.005653 0.001200
# 4 -0.001501 0.002303 0.000485 0.023269 -0.001098 -0.007766
# 5 -0.005172 -0.003583 -0.005653 -0.001098 0.040058 0.009548
# 6 -0.011313 -0.004909 0.001200 -0.007766 0.009548 0.056115
#
#
# Mechanical properties :
#
#
# Convention : Reuss Voigt Hill
#
# Bulk Modulus (GPa) = 39.97997 63.11887 51.54942
# Shear Modulus (GPa) = 22.79973 29.67945 26.23959
#
# Velocity S-wave (km/s) = 3.30934 3.77576 3.55022
# Velocity P-wave (km/s) = 5.81433 7.02334 6.44724
#
# Compressibility (1/GPa) = 0.02501253
#
# Stress axis : x y z
#
# Youngs Moduli (GPa) = 50.57333 40.14531 73.61508
#
# Poissons Ratio (x) = 0.27394 0.33247
# Poissons Ratio (y) = 0.34509 0.38922
# Poissons Ratio (z) = 0.22841 0.21226
#
# Static dielectric constant tensor:
#      x y z
#    x 1.786640 -0.012780 -0.032150 
#    y -0.012780 1.782200 0.030370 
#    z -0.032150 0.030370 1.886370 
# 
# From -- ./inp_files/346171.got.cif
#   From: 2010.05.17/outbox.cif.g08.bks.cpg/sg2_174_cif.got.tgz:346171.got - 2010.06.03 11:33:40.
