data_PCOD9078215
_publ_section_title
;
Structure prediction by ZEFSAII (Michael W. Deem and Ramdas Pophale) SiO2 
 PCOD9078215
Probable space group: P -1
;
_chemical_formula_sum "Si O2"
_cell_formula_units_Z 16
_cell_length_a 13.237733
_cell_length_b 13.711575
_cell_length_c 8.899386
_cell_angle_alpha 49.438310
_cell_angle_beta 124.157016
_cell_angle_gamma 136.878530
_cell_volume 827.023516
_symmetry_space_group_name_H-M "P -1"
_symmetry_group_IT_number 2
_symmetry_cell_setting 'triclinic'
loop_
_space_group_symop_operation_xyz
x,y,z
-x,-y,-z
loop_
_atom_site_type_symbol
_atom_site_label
_atom_site_fract_x
_atom_site_fract_y
_atom_site_fract_z
Si Si1 0.855217 0.232411 0.407266
Si Si2 0.963734 0.693468 0.956701
Si Si3 0.359883 0.803812 0.475113
Si Si4 0.431328 0.120984 0.155139
Si Si5 0.899525 0.985219 0.067957
Si Si6 0.837731 0.439087 0.687938
Si Si7 0.290422 0.625683 0.028489
Si Si8 0.994840 0.876181 0.509209
O O1 0.762559 0.204814 0.507352
O O2 0.028497 0.381615 0.421751
O O3 0.861285 0.090444 0.495461
O O4 0.782663 0.282894 0.173539
O O5 0.797634 0.531602 0.991093
O O6 0.967688 0.746363 0.735709
O O7 0.015159 0.841601 0.956510
O O8 0.076668 0.644082 0.126834
O O9 0.485225 0.821497 0.671522
O O10 0.276305 0.653416 0.450157
O O11 0.426067 0.964108 0.276694
O O12 0.264762 0.072263 0.060855
O O13 0.536910 0.257116 0.987779
O O14 0.887336 0.862749 0.302250
O O15 0.000000 0.000000 0.000000
O O16 0.749147 0.419337 0.785775
O O17 0.000000 0.000000 0.500000
#
# Coordination Sequence:
#
# PCOD9078215 Si02
#       8
#     2   2   2   2   2   2   2   2
#     4  10  18  35  59  93 118 150 198 247 298 342
#     4  10  19  39  59  93 116 148 205 240 291 349
#     4  10  21  35  59  88 127 148 191 255 299 350
#     4  10  22  41  54  89 123 153 197 242 303 347
#     4  11  23  41  63  82 117 163 203 236 283 356
#     4  11  18  34  64  94 118 151 190 252 303 347
#     4  10  20  36  65  88 124 148 185 264 302 342
#     4  10  20  34  59  85 116 154 201 239 278 346
#
# _framework density 19.346488000000001
#
# number of rings (size 3 to 8) (size 9 to 14) (size 15 to 20)
#    0.000    1.750    3.750    1.875    0.000    0.500 
#    0.000    5.000    0.000    0.000    0.000    0.000 
#    0.000    0.000    0.000    0.000    0.000    0.000 
#
# Total GULP energy -89165.406224 kJ/mol
# GULP energy per Si atom -5572.837889 kJ/mol
# Density = 1.930245 g / cm^3
# Si number density = 19.346488 Si / 1000 Ang^3
#
#
#
# Elastic Constant Matrix: (Units=GPa)
#
#
# Indices 1 2 3 4 5 6 
#
# 1 102.3095 69.9584 30.9948 15.4209 -4.5457 6.7300
# 2 69.9584 94.6723 19.8398 18.1681 -5.9560 1.0038
# 3 30.9948 19.8398 73.4141 14.3194 7.5336 2.8388
# 4 15.4209 18.1681 14.3194 27.9950 0.1724 0.5303
# 5 -4.5457 -5.9560 7.5336 0.1724 25.0620 -4.6493
# 6 6.7300 1.0038 2.8388 0.5303 -4.6493 27.1349
#
#
#
# Elastic Compliance Matrix: (Units=1/GPa)
#
#
# Indices 1 2 3 4 5 6 
#
# 1 0.021921 -0.015070 -0.005234 0.000453 0.001198 -0.004136
# 2 -0.015070 0.023023 0.001113 -0.007294 0.003092 0.003442
# 3 -0.005234 0.001113 0.017539 -0.006744 -0.006190 -0.001507
# 4 0.000453 -0.007294 -0.006744 0.043653 0.000080 0.000024
# 5 0.001198 0.003092 -0.006190 0.000080 0.044161 0.007801
# 6 -0.004136 0.003442 -0.001507 0.000024 0.007801 0.039245
#
#
# Mechanical properties :
#
#
# Convention : Reuss Voigt Hill
#
# Bulk Modulus (GPa) = 41.49036 56.88687 49.18862
# Shear Modulus (GPa) = 21.19014 26.01191 23.60102
#
# Velocity S-wave (km/s) = 3.31312 3.67076 3.49651
# Velocity P-wave (km/s) = 6.01067 6.88724 6.46383
#
# Compressibility (1/GPa) = 0.02410199
#
# Stress axis : x y z
#
# Youngs Moduli (GPa) = 45.61736 43.43440 57.01518
#
# Poissons Ratio (x) = 0.65455 0.29841
# Poissons Ratio (y) = 0.68744 -0.06344
# Poissons Ratio (z) = 0.23875 -0.04833
#
# Static dielectric constant tensor:
#      x y z
#    x 1.676540 0.000300 -0.026330 
#    y 0.000300 1.721640 -0.032470 
#    z -0.026330 -0.032470 1.715530 
# 
# From -- ./inp_files/257126.got.cif
#   From: 2010.05.17/outbox.cif.g08.bks.cpg/sg2_129_cif.got.tgz:257126.got - 2010.06.03 11:33:40.
