data_PCOD9078806
_publ_section_title
;
Structure prediction by ZEFSAII (Michael W. Deem and Ramdas Pophale) SiO2 
 PCOD9078806
Probable space group: P -1
;
_chemical_formula_sum "Si O2"
_cell_formula_units_Z 16
_cell_length_a 8.987866
_cell_length_b 10.110329
_cell_length_c 16.206723
_cell_angle_alpha 37.171212
_cell_angle_beta 117.729939
_cell_angle_gamma 130.173062
_cell_volume 676.104470
_symmetry_space_group_name_H-M "P -1"
_symmetry_group_IT_number 2
_symmetry_cell_setting 'triclinic'
loop_
_space_group_symop_operation_xyz
x,y,z
-x,-y,-z
loop_
_atom_site_type_symbol
_atom_site_label
_atom_site_fract_x
_atom_site_fract_y
_atom_site_fract_z
Si Si1 0.902888 0.234862 0.653674
Si Si2 0.779915 0.777117 0.530781
Si Si3 0.820463 0.002124 0.910933
Si Si4 0.584943 0.135289 0.076655
Si Si5 0.143649 0.494144 0.177665
Si Si6 0.755811 0.488748 0.106665
Si Si7 0.467515 0.965055 0.606999
Si Si8 0.147285 0.056464 0.709213
O O1 0.897141 0.231912 0.752040
O O2 0.000000 0.500000 0.500000
O O3 0.029854 0.113387 0.717715
O O4 0.679747 0.075113 0.646430
O O5 0.756579 0.553757 0.694318
O O6 0.780322 0.749225 0.446176
O O7 0.635126 0.879117 0.466196
O O8 0.000000 0.000000 0.500000
O O9 0.646248 0.984089 0.928967
O O10 0.729485 0.730435 0.974186
O O11 0.000000 0.000000 0.000000
O O12 0.656155 0.303365 0.095377
O O13 0.669716 0.949184 0.202954
O O14 0.696794 0.315675 0.939509
O O15 0.984131 0.571143 0.121540
O O16 0.007312 0.222071 0.230284
O O17 0.664587 0.321627 0.249213
O O18 0.500000 0.000000 0.500000
#
# Coordination Sequence:
#
# PCOD9078806 Si02
#       8
#     2   2   2   2   2   2   2   2
#     4  12  28  47  66  99 141 182 225 279 348 411
#     4  10  18  36  59 100 135 163 219 281 323 396
#     4  12  28  45  65 100 143 179 224 279 349 407
#     4  11  21  43  71  97 128 177 228 280 333 402
#     4  10  20  34  69 103 129 168 228 281 332 387
#     4  11  22  42  70 101 135 173 229 284 333 399
#     4  12  24  39  72 106 136 175 232 282 343 394
#     4  10  20  41  67  91 132 172 226 278 331 401
#
# _framework density 23.664982999999999
#
# number of rings (size 3 to 8) (size 9 to 14) (size 15 to 20)
#    0.000    1.000    5.000    4.875    5.250    0.000 
#    0.000    6.250    0.000    0.000    0.000    0.000 
#    0.000    0.000    0.000    0.000    0.000    0.000 
#
# Total GULP energy -89624.613502 kJ/mol
# GULP energy per Si atom -5601.538344 kJ/mol
# Density = 2.361112 g / cm^3
# Si number density = 23.664983 Si / 1000 Ang^3
#
#
#
# Elastic Constant Matrix: (Units=GPa)
#
#
# Indices 1 2 3 4 5 6 
#
# 1 175.5684 38.5985 60.1969 8.7620 -9.1601 37.8026
# 2 38.5985 61.1575 24.3114 10.7507 -4.9266 29.2228
# 3 60.1969 24.3114 166.7416 23.7664 -32.7580 22.4984
# 4 8.7620 10.7507 23.7664 35.4588 -6.4967 8.5372
# 5 -9.1601 -4.9266 -32.7580 -6.4967 58.4395 4.3963
# 6 37.8026 29.2228 22.4984 8.5372 4.3963 42.4724
#
#
#
# Elastic Compliance Matrix: (Units=1/GPa)
#
#
# Indices 1 2 3 4 5 6 
#
# 1 0.007814 -0.002034 -0.001963 0.001243 0.000453 -0.004812
# 2 -0.002034 0.025869 0.000056 -0.003104 0.002728 -0.015677
# 3 -0.001963 0.000056 0.008380 -0.003812 0.004150 -0.002393
# 4 0.001243 -0.003104 -0.003812 0.032586 0.001696 -0.003678
# 5 0.000453 0.002728 0.004150 0.001696 0.020450 -0.006936
# 6 -0.004812 -0.015677 -0.002393 -0.003678 -0.006936 0.041339
#
#
# Mechanical properties :
#
#
# Convention : Reuss Voigt Hill
#
# Bulk Modulus (GPa) = 29.25693 72.18680 50.72186
# Shear Modulus (GPa) = 32.11052 45.96486 39.03769
#
# Velocity S-wave (km/s) = 3.68758 4.41195 4.06593
# Velocity P-wave (km/s) = 5.52456 7.51822 6.59714
#
# Compressibility (1/GPa) = 0.03417994
#
# Stress axis : x y z
#
# Youngs Moduli (GPa) = 127.97899 38.65687 119.33837
#
# Poissons Ratio (x) = 0.07862 0.23430
# Poissons Ratio (y) = 0.26028 -0.00669
# Poissons Ratio (z) = 0.25126 -0.00217
#
# Static dielectric constant tensor:
#      x y z
#    x 1.840180 -0.016310 -0.033360 
#    y -0.016310 1.961220 -0.036790 
#    z -0.033360 -0.036790 1.934300 
# 
# From -- ./inp_files/559565.got.cif
#   From: 2010.05.17/outbox.cif.g08.bks.cpg/sg2_280_cif.got.tgz:559565.got - 2010.06.03 11:33:40.
