data_PCOD9078935
_publ_section_title
;
Structure prediction by ZEFSAII (Michael W. Deem and Ramdas Pophale) SiO2 
 PCOD9078935
Probable space group: P -1
;
_chemical_formula_sum "Si O2"
_cell_formula_units_Z 16
_cell_length_a 10.729738
_cell_length_b 17.866582
_cell_length_c 22.242372
_cell_angle_alpha 20.014897
_cell_angle_beta 31.700198
_cell_angle_gamma 39.439530
_cell_volume 758.102126
_symmetry_space_group_name_H-M "P -1"
_symmetry_group_IT_number 2
_symmetry_cell_setting 'triclinic'
loop_
_space_group_symop_operation_xyz
x,y,z
-x,-y,-z
loop_
_atom_site_type_symbol
_atom_site_label
_atom_site_fract_x
_atom_site_fract_y
_atom_site_fract_z
Si Si1 0.261977 0.235878 0.457778
Si Si2 0.757479 0.574258 0.260607
Si Si3 0.381740 0.723564 0.039831
Si Si4 0.644727 0.978218 0.537150
Si Si5 0.299010 0.642489 0.996768
Si Si6 0.558163 0.844690 0.235462
Si Si7 0.213492 0.074580 0.117783
Si Si8 0.918116 0.732724 0.847701
O O1 0.269068 0.482771 0.292874
O O2 0.254731 0.192779 0.420647
O O3 0.529384 0.173066 0.404821
O O4 0.017281 0.085257 0.693483
O O5 0.740711 0.715164 0.222438
O O6 0.597245 0.337862 0.519512
O O7 0.688562 0.731652 0.115831
O O8 0.033054 0.547653 0.156439
O O9 0.300360 0.701291 0.021620
O O10 0.669542 0.730510 0.917754
O O11 0.336065 0.938529 0.933362
O O12 0.406693 0.869731 0.749470
O O13 0.865561 0.092400 0.399588
O O14 0.500000 0.500000 0.000000
O O15 0.396745 0.930676 0.183164
O O16 0.118589 0.189439 0.128045
O O17 0.000000 0.500000 0.000000
#
# Coordination Sequence:
#
# PCOD9078935 Si02
#       8
#     2   2   2   2   2   2   2   2
#     4  10  18  36  60  89 126 165 204 254 313 385
#     4  11  24  46  70  91 127 170 221 264 317 385
#     4  11  23  39  60  91 131 166 212 265 318 375
#     4  10  20  35  56  87 126 169 204 241 323 385
#     4  12  25  38  62  96 127 166 212 262 318 388
#     4  10  25  46  66  94 126 171 217 270 320 368
#     4  10  21  40  70  92 120 169 217 261 316 380
#     4  10  21  34  57  91 130 165 196 259 322 377
#
# _framework density 21.105336000000001
#
# number of rings (size 3 to 8) (size 9 to 14) (size 15 to 20)
#    0.000    1.500    3.750    1.125    5.250    2.000 
#    0.000    0.625    0.000    0.000    0.000    0.000 
#    0.000    0.000    0.000    0.000    0.000    0.000 
#
# Total GULP energy -89104.396002 kJ/mol
# GULP energy per Si atom -5569.024750 kJ/mol
# Density = 2.105730 g / cm^3
# Si number density = 21.105336 Si / 1000 Ang^3
#
#
#
# Elastic Constant Matrix: (Units=GPa)
#
#
# Indices 1 2 3 4 5 6 
#
# 1 45.9871 -7.7800 33.5247 -0.5052 1.5137 0.5968
# 2 -7.7800 78.2690 18.9125 -18.7319 -2.3197 -3.6652
# 3 33.5247 18.9125 92.0828 -11.3298 4.0861 -8.4398
# 4 -0.5052 -18.7319 -11.3298 35.8048 7.0415 -2.8413
# 5 1.5137 -2.3197 4.0861 7.0415 26.4131 1.8784
# 6 0.5968 -3.6652 -8.4398 -2.8413 1.8784 9.4727
#
#
#
# Elastic Compliance Matrix: (Units=1/GPa)
#
#
# Indices 1 2 3 4 5 6 
#
# 1 0.034096 0.005741 -0.015517 -0.003208 0.002893 -0.015287
# 2 0.005741 0.016426 -0.003998 0.007949 -0.000740 0.004963
# 3 -0.015517 -0.003998 0.020359 0.006955 -0.005947 0.020836
# 4 -0.003208 0.007949 0.006955 0.038485 -0.012119 0.023421
# 5 0.002893 -0.000740 -0.005947 -0.012119 0.043056 -0.017941
# 6 -0.015287 0.004963 0.020836 0.023421 -0.017941 0.137596
#
#
# Mechanical properties :
#
#
# Convention : Reuss Voigt Hill
#
# Bulk Modulus (GPa) = 23.07678 33.96146 28.51912
# Shear Modulus (GPa) = 15.05975 25.78358 20.42166
#
# Velocity S-wave (km/s) = 2.67414 3.49902 3.11401
# Velocity P-wave (km/s) = 4.52687 5.69654 5.14505
#
# Compressibility (1/GPa) = 0.04333361
#
# Stress axis : x y z
#
# Youngs Moduli (GPa) = 29.32887 60.87930 49.11733
#
# Poissons Ratio (x) = -0.34949 0.76214
# Poissons Ratio (y) = -0.16837 0.19637
# Poissons Ratio (z) = 0.45509 0.24340
#
# Static dielectric constant tensor:
#      x y z
#    x 1.831730 -0.053170 0.086060 
#    y -0.053170 1.778000 -0.044350 
#    z 0.086060 -0.044350 1.895500 
# 
# From -- ./inp_files/218606.got.cif
#   From: 2010.05.17/outbox.cif.g08.bks.cpg/sg2_110_cif.got.tgz:218606.got - 2010.06.03 11:33:40.
