data_PCOD9078729
_publ_section_title
;
Structure prediction by ZEFSAII (Michael W. Deem and Ramdas Pophale) SiO2 
 PCOD9078729
Probable space group: P -1
;
_chemical_formula_sum "Si O2"
_cell_formula_units_Z 12
_cell_length_a 10.256029
_cell_length_b 10.361120
_cell_length_c 10.958792
_cell_angle_alpha 40.441417
_cell_angle_beta 89.248143
_cell_angle_gamma 60.676916
_cell_volume 508.329835
_symmetry_space_group_name_H-M "P -1"
_symmetry_group_IT_number 2
_symmetry_cell_setting 'triclinic'
loop_
_space_group_symop_operation_xyz
x,y,z
-x,-y,-z
loop_
_atom_site_type_symbol
_atom_site_label
_atom_site_fract_x
_atom_site_fract_y
_atom_site_fract_z
Si Si1 0.412244 0.782913 0.128037
Si Si2 0.152173 0.278749 0.052806
Si Si3 0.745300 0.425040 0.209143
Si Si4 0.004867 0.781081 0.224849
Si Si5 0.992260 0.056794 0.253485
Si Si6 0.427827 0.301131 0.553539
O O1 0.526869 0.681030 0.074233
O O2 0.412814 0.546980 0.331503
O O3 0.521370 0.756398 0.261043
O O4 0.193230 0.105020 0.887113
O O5 0.157247 0.472431 0.834874
O O6 0.000000 0.500000 0.000000
O O7 0.073336 0.152230 0.105498
O O8 0.377036 0.005603 0.287490
O O9 0.796069 0.321332 0.141980
O O10 0.849839 0.147928 0.494055
O O11 0.214446 0.451947 0.430206
O O12 0.989841 0.869037 0.302650
O O13 0.000000 0.000000 0.000000
#
# Coordination Sequence:
#
# PCOD9078729 Si02
#       6
#     2   2   2   2   2   2
#     4  10  19  35  61  87 110 154 191 230 290 334
#     4  10  20  34  60  86 111 153 192 230 287 341
#     4  10  20  34  62  86 112 153 192 231 284 340
#     4  10  20  34  63  86 111 156 192 229 289 339
#     4  10  19  38  58  85 117 150 190 235 284 335
#     4  10  18  36  57  82 119 148 189 237 282 337
#
# _framework density 23.606719999999999
#
# number of rings (size 3 to 8) (size 9 to 14) (size 15 to 20)
#    0.000    2.000    3.333    2.000    0.000    1.333 
#    0.000    0.833    7.333   13.000    0.000    0.000 
#    0.000    0.000    0.000    0.000    0.000    0.000 
#
# Total GULP energy -66940.089423 kJ/mol
# GULP energy per Si atom -5578.340785 kJ/mol
# Density = 2.355299 g / cm^3
# Si number density = 23.606720 Si / 1000 Ang^3
#
#
#
# Elastic Constant Matrix: (Units=GPa)
#
#
# Indices 1 2 3 4 5 6 
#
# 1 60.6614 37.9123 35.3818 -7.2378 14.3584 -28.8493
# 2 37.9123 122.6831 38.4006 -27.0106 20.5346 -39.9681
# 3 35.3818 38.4006 73.1223 -26.0009 22.1982 -20.2924
# 4 -7.2378 -27.0106 -26.0009 39.3849 -17.8907 7.9782
# 5 14.3584 20.5346 22.1982 -17.8907 44.4401 -15.8240
# 6 -28.8493 -39.9681 -20.2924 7.9782 -15.8240 38.7516
#
#
#
# Elastic Compliance Matrix: (Units=1/GPa)
#
#
# Indices 1 2 3 4 5 6 
#
# 1 0.032097 -0.002229 -0.012246 -0.007166 -0.000207 0.016574
# 2 -0.002229 0.014282 -0.001207 0.006993 0.001703 0.011695
# 3 -0.012246 -0.001207 0.025397 0.012262 -0.003614 -0.001062
# 4 -0.007166 0.006993 0.012262 0.041106 0.011057 0.004351
# 5 -0.000207 0.001703 -0.003614 0.011057 0.031739 0.010395
# 6 0.016574 0.011695 -0.001062 0.004351 0.010395 0.052999
#
#
# Mechanical properties :
#
#
# Convention : Reuss Voigt Hill
#
# Bulk Modulus (GPa) = 24.74447 53.31737 39.03092
# Shear Modulus (GPa) = 20.62227 34.16681 27.39454
#
# Velocity S-wave (km/s) = 2.95884 3.80851 3.41024
# Velocity P-wave (km/s) = 4.70932 6.47876 5.66357
#
# Compressibility (1/GPa) = 0.04041306
#
# Stress axis : x y z
#
# Youngs Moduli (GPa) = 31.15535 70.01695 39.37402
#
# Poissons Ratio (x) = 0.15609 0.48218
# Poissons Ratio (y) = 0.06945 0.04751
# Poissons Ratio (z) = 0.38153 0.08448
#
# Static dielectric constant tensor:
#      x y z
#    x 1.924800 -0.001050 -0.022320 
#    y -0.001050 1.935980 -0.050720 
#    z -0.022320 -0.050720 1.915170 
# 
# From -- ./inp_files/193082.got.cif
#   From: 2010.05.17/outbox.cif.g08.bks.cpg/sg2_97_cif.got.tgz:193082.got - 2010.06.03 11:33:40.
