data_PCOD9078141
_publ_section_title
;
Structure prediction by ZEFSAII (Michael W. Deem and Ramdas Pophale) SiO2 
 PCOD9078141
Probable space group: P -1
;
_chemical_formula_sum "Si O2"
_cell_formula_units_Z 14
_cell_length_a 8.849393
_cell_length_b 8.368696
_cell_length_c 16.401246
_cell_angle_alpha 55.789340
_cell_angle_beta 134.220756
_cell_angle_gamma 106.547875
_cell_volume 707.971357
_symmetry_space_group_name_H-M "P -1"
_symmetry_group_IT_number 2
_symmetry_cell_setting 'triclinic'
loop_
_space_group_symop_operation_xyz
x,y,z
-x,-y,-z
loop_
_atom_site_type_symbol
_atom_site_label
_atom_site_fract_x
_atom_site_fract_y
_atom_site_fract_z
Si Si1 0.115764 0.357412 0.651810
Si Si2 0.347149 0.623184 0.779364
Si Si3 0.483612 0.983544 0.314104
Si Si4 0.343411 0.753175 0.981655
Si Si5 0.523536 0.067921 0.856414
Si Si6 0.895687 0.021272 0.702535
Si Si7 0.915392 0.873932 0.575307
O O1 0.245506 0.486428 0.717935
O O2 0.282882 0.186361 0.721057
O O3 0.000000 0.500000 0.500000
O O4 0.966897 0.232793 0.680491
O O5 0.434194 0.808806 0.722206
O O6 0.557384 0.473607 0.932643
O O7 0.130155 0.713310 0.722166
O O8 0.301263 0.993521 0.309626
O O9 0.393014 0.951732 0.198495
O O10 0.694827 0.826652 0.467406
O O11 0.371234 0.813057 0.069931
O O12 0.097768 0.847980 0.845878
O O13 0.490733 0.869243 0.947000
O O14 0.846940 0.997022 0.595754
O O15 0.000000 0.000000 0.500000
#
# Coordination Sequence:
#
# PCOD9078141 Si02
#       7
#     2   2   2   2   2   2   2
#     4  10  18  35  59  82 104 146 194 228 263 326
#     4  10  20  35  60  82 108 145 194 230 258 328
#     4  11  22  37  56  86 116 146 176 230 292 322
#     4   9  19  37  57  84 107 149 193 221 266 326
#     4   9  19  36  59  79 113 149 187 225 267 334
#     4  11  23  37  57  82 120 146 174 231 287 331
#     4  10  20  37  58  81 107 147 189 225 271 327
#
# _framework density 19.774812000000001
#
# number of rings (size 3 to 8) (size 9 to 14) (size 15 to 20)
#    0.000    2.000    0.000    7.286    0.000    3.429 
#    0.000    5.714    0.000    0.000    0.000    0.000 
#    0.000    0.000    0.000    0.000    0.000    0.000 
#
# Total GULP energy -77947.426941 kJ/mol
# GULP energy per Si atom -5567.673353 kJ/mol
# Density = 1.972980 g / cm^3
# Si number density = 19.774812 Si / 1000 Ang^3
#
#
#
# Elastic Constant Matrix: (Units=GPa)
#
#
# Indices 1 2 3 4 5 6 
#
# 1 127.2427 26.8866 44.6205 7.2394 -13.9173 -11.9181
# 2 26.8866 55.4010 20.0077 -4.7323 -9.3218 -5.2236
# 3 44.6205 20.0077 99.1384 -1.1780 6.4074 -2.9743
# 4 7.2394 -4.7323 -1.1780 39.1388 -14.0646 -4.3398
# 5 -13.9173 -9.3218 6.4074 -14.0646 31.6189 8.6968
# 6 -11.9181 -5.2236 -2.9743 -4.3398 8.6968 16.5936
#
#
#
# Elastic Compliance Matrix: (Units=1/GPa)
#
#
# Indices 1 2 3 4 5 6 
#
# 1 0.010781 -0.002765 -0.004395 -0.000808 0.003325 0.004131
# 2 -0.002765 0.022962 -0.003829 0.006507 0.008765 0.001664
# 3 -0.004395 -0.003829 0.013291 -0.001553 -0.006767 0.001161
# 4 -0.000808 0.006507 -0.001553 0.032292 0.015881 0.001312
# 5 0.003325 0.008765 -0.006767 0.015881 0.048940 -0.017562
# 6 0.004131 0.001664 0.001161 0.001312 -0.017562 0.073511
#
#
# Mechanical properties :
#
#
# Convention : Reuss Voigt Hill
#
# Bulk Modulus (GPa) = 39.90859 51.64576 45.77717
# Shear Modulus (GPa) = 21.54176 30.15476 25.84826
#
# Velocity S-wave (km/s) = 3.30412 3.90924 3.61935
# Velocity P-wave (km/s) = 5.89759 6.82275 6.37697
#
# Compressibility (1/GPa) = 0.02505726
#
# Stress axis : x y z
#
# Youngs Moduli (GPa) = 92.75583 43.54932 75.23631
#
# Poissons Ratio (x) = 0.12041 0.33066
# Poissons Ratio (y) = 0.25646 0.28808
# Poissons Ratio (z) = 0.40765 0.16675
#
# Static dielectric constant tensor:
#      x y z
#    x 1.692040 -0.021040 0.019350 
#    y -0.021040 1.728910 0.023180 
#    z 0.019350 0.023180 1.792810 
# 
# From -- ./inp_files/171529.got.cif
#   From: 2010.05.17/outbox.cif.g08.bks.cpg/sg2_86_cif.got.tgz:171529.got - 2010.06.03 11:33:40.
