data_PCOD9078134
_publ_section_title
;
Structure prediction by ZEFSAII (Michael W. Deem and Ramdas Pophale) SiO2 
 PCOD9078134
Probable space group: P -1
;
_chemical_formula_sum "Si O2"
_cell_formula_units_Z 12
_cell_length_a 13.814407
_cell_length_b 7.173624
_cell_length_c 8.638998
_cell_angle_alpha 69.714985
_cell_angle_beta 120.879369
_cell_angle_gamma 135.839334
_cell_volume 511.559196
_symmetry_space_group_name_H-M "P -1"
_symmetry_group_IT_number 2
_symmetry_cell_setting 'triclinic'
loop_
_space_group_symop_operation_xyz
x,y,z
-x,-y,-z
loop_
_atom_site_type_symbol
_atom_site_label
_atom_site_fract_x
_atom_site_fract_y
_atom_site_fract_z
Si Si1 0.810378 0.602453 0.408929
Si Si2 0.793952 0.180105 0.687538
Si Si3 0.908165 0.920069 0.694057
Si Si4 0.522518 0.758075 0.414167
Si Si5 0.344663 0.822844 0.830688
Si Si6 0.202240 0.574775 0.094150
O O1 0.856844 0.442148 0.565060
O O2 0.798881 0.725068 0.516013
O O3 0.671552 0.374795 0.249942
O O4 0.935101 0.844893 0.329917
O O5 0.826826 0.271586 0.864915
O O6 0.854416 0.046563 0.708742
O O7 0.611175 0.952813 0.577820
O O8 0.910563 0.735872 0.864376
O O9 0.500000 0.500000 0.500000
O O10 0.365550 0.675096 0.256580
O O11 0.642266 0.959234 0.318365
O O12 0.214998 0.646995 0.904457
O O13 0.500000 0.000000 0.000000
#
# Coordination Sequence:
#
# PCOD9078134 Si02
#       6
#     2   2   2   2   2   2
#     4   9  20  36  58  83 112 151 189 240 272 329
#     4  10  19  34  57  81 115 148 189 237 276 331
#     4  10  19  35  59  86 109 149 198 227 278 340
#     4  10  18  35  59  80 108 151 197 229 269 334
#     4   9  20  38  57  82 121 147 181 238 290 330
#     4  10  20  35  55  84 119 146 182 235 290 331
#
# _framework density 23.457695000000001
#
# number of rings (size 3 to 8) (size 9 to 14) (size 15 to 20)
#    0.000    2.333    1.667    1.000    0.000    2.000 
#    0.000    5.000    0.000    0.000    0.000    0.000 
#    0.000    0.000    0.000    0.000    0.000    0.000 
#
# Total GULP energy -66991.491842 kJ/mol
# GULP energy per Si atom -5582.624320 kJ/mol
# Density = 2.340430 g / cm^3
# Si number density = 23.457695 Si / 1000 Ang^3
#
#
#
# Elastic Constant Matrix: (Units=GPa)
#
#
# Indices 1 2 3 4 5 6 
#
# 1 86.5979 54.0721 38.4788 -10.5984 -18.9107 -23.7204
# 2 54.0721 169.6511 62.3113 -12.4965 -22.8251 -11.0169
# 3 38.4788 62.3113 90.0846 9.3751 -17.7711 -5.8754
# 4 -10.5984 -12.4965 9.3751 38.3910 9.3740 -7.4221
# 5 -18.9107 -22.8251 -17.7711 9.3740 39.7145 1.3298
# 6 -23.7204 -11.0169 -5.8754 -7.4221 1.3298 44.3222
#
#
#
# Elastic Compliance Matrix: (Units=1/GPa)
#
#
# Indices 1 2 3 4 5 6 
#
# 1 0.020606 -0.002441 -0.006577 0.007781 0.003270 0.010754
# 2 -0.002441 0.009075 -0.005402 0.003568 0.000767 0.000808
# 3 -0.006577 -0.005402 0.019450 -0.010364 0.005053 -0.004171
# 4 0.007781 0.003568 -0.010364 0.035661 -0.007630 0.009878
# 5 0.003270 0.000767 0.005053 -0.007630 0.031226 0.000396
# 6 0.010754 0.000808 -0.004171 0.009878 0.000396 0.029608
#
#
# Mechanical properties :
#
#
# Convention : Reuss Voigt Hill
#
# Bulk Modulus (GPa) = 49.28122 72.89535 61.08829
# Shear Modulus (GPa) = 27.58957 37.25029 32.41993
#
# Velocity S-wave (km/s) = 3.43321 3.98927 3.72164
# Velocity P-wave (km/s) = 6.06383 7.23614 6.67577
#
# Compressibility (1/GPa) = 0.02029170
#
# Stress axis : x y z
#
# Youngs Moduli (GPa) = 48.52966 110.19376 51.41463
#
# Poissons Ratio (x) = 0.26894 0.33815
# Poissons Ratio (y) = 0.11844 0.27774
# Poissons Ratio (z) = 0.31917 0.59526
#
# Static dielectric constant tensor:
#      x y z
#    x 1.931330 0.072840 0.010720 
#    y 0.072840 1.896210 0.034970 
#    z 0.010720 0.034970 1.930110 
# 
# From -- ./inp_files/20203.got.cif
#   From: 2010.05.17/outbox.cif.g08.bks.cpg/sg2_11_cif.got.tgz:20203.got - 2010.06.03 11:33:40.
