data_PCOD9078146
_publ_section_title
;
Structure prediction by ZEFSAII (Michael W. Deem and Ramdas Pophale) SiO2 
 PCOD9078146
Probable space group: P -1
;
_chemical_formula_sum "Si O2"
_cell_formula_units_Z 14
_cell_length_a 15.331562
_cell_length_b 20.150825
_cell_length_c 11.801711
_cell_angle_alpha 139.275961
_cell_angle_beta 49.465163
_cell_angle_gamma 163.040130
_cell_volume 637.745641
_symmetry_space_group_name_H-M "P -1"
_symmetry_group_IT_number 2
_symmetry_cell_setting 'triclinic'
loop_
_space_group_symop_operation_xyz
x,y,z
-x,-y,-z
loop_
_atom_site_type_symbol
_atom_site_label
_atom_site_fract_x
_atom_site_fract_y
_atom_site_fract_z
Si Si1 0.374178 0.636629 0.050604
Si Si2 0.629859 0.484153 0.745946
Si Si3 0.209056 0.835700 0.661776
Si Si4 0.510695 0.443324 0.547365
Si Si5 0.834404 0.877237 0.116365
Si Si6 0.105495 0.294444 0.636399
Si Si7 0.461587 0.096402 0.546263
O O1 0.615530 0.748877 0.037888
O O2 0.125800 0.378026 0.841005
O O3 0.547002 0.869418 0.134144
O O4 0.305130 0.638131 0.229753
O O5 0.484561 0.368747 0.593270
O O6 0.368576 0.276950 0.796768
O O7 0.865146 0.582305 0.674248
O O8 0.844723 0.765478 0.943132
O O9 0.219620 0.853187 0.536916
O O10 0.345482 0.839264 0.581739
O O11 0.206227 0.263779 0.549340
O O12 0.605493 0.448656 0.369431
O O13 0.830557 0.782706 0.721949
O O14 0.773371 0.044876 0.528315
#
# Coordination Sequence:
#
# PCOD9078146 Si02
#       7
#     2   2   2   2   2   2   2
#     4  10  18  35  59  82 114 152 186 235 288 335
#     4  11  20  35  63  88 114 156 190 234 293 342
#     4   9  18  37  59  80 119 150 195 235 278 344
#     4  11  20  36  56  87 119 150 189 237 292 343
#     4  11  21  35  61  89 118 150 191 238 291 341
#     4  11  20  31  63  85 112 157 188 232 297 336
#     4   9  19  36  58  85 114 153 196 234 277 344
#
# _framework density 21.952327
#
# number of rings (size 3 to 8) (size 9 to 14) (size 15 to 20)
#    0.857    0.857    5.714    1.286    0.000    0.571 
#    0.000    3.571    3.143    0.857    0.000    0.000 
#    0.000    0.000    0.000    0.000    0.000    0.000 
#
# Total GULP energy -78021.029108 kJ/mol
# GULP energy per Si atom -5572.930651 kJ/mol
# Density = 2.190236 g / cm^3
# Si number density = 21.952327 Si / 1000 Ang^3
#
#
#
# Elastic Constant Matrix: (Units=GPa)
#
#
# Indices 1 2 3 4 5 6 
#
# 1 89.4661 30.6362 50.9845 -14.0671 1.3786 25.4002
# 2 30.6362 83.6840 29.6096 -21.4105 -3.2882 -1.0725
# 3 50.9845 29.6096 108.5569 -13.0443 1.5963 20.7844
# 4 -14.0671 -21.4105 -13.0443 37.1504 4.3705 -3.0090
# 5 1.3786 -3.2882 1.5963 4.3705 41.2515 -13.9038
# 6 25.4002 -1.0725 20.7844 -3.0090 -13.9038 37.3701
#
#
#
# Elastic Compliance Matrix: (Units=1/GPa)
#
#
# Indices 1 2 3 4 5 6 
#
# 1 0.019967 -0.005266 -0.005155 0.002325 -0.005408 -0.012681
# 2 -0.005266 0.016863 -0.002761 0.006957 0.003391 0.007421
# 3 -0.005155 -0.002761 0.013476 0.001069 -0.002316 -0.004846
# 4 0.002325 0.006957 0.001069 0.032514 -0.003193 -0.000545
# 5 -0.005408 0.003391 -0.002316 -0.003193 0.030574 0.016179
# 6 -0.012681 0.007421 -0.004846 -0.000545 0.016179 0.044263
#
#
# Mechanical properties :
#
#
# Convention : Reuss Voigt Hill
#
# Bulk Modulus (GPa) = 41.76612 56.01862 48.89237
# Shear Modulus (GPa) = 26.04153 34.51950 30.28051
#
# Velocity S-wave (km/s) = 3.44797 3.96975 3.71802
# Velocity P-wave (km/s) = 5.90919 6.82536 6.38373
#
# Compressibility (1/GPa) = 0.02394285
#
# Stress axis : x y z
#
# Youngs Moduli (GPa) = 50.08175 59.30220 74.20571
#
# Poissons Ratio (x) = 0.31230 0.38250
# Poissons Ratio (y) = 0.26374 0.20487
# Poissons Ratio (z) = 0.25815 0.16372
#
# Static dielectric constant tensor:
#      x y z
#    x 1.823590 -0.044400 -0.009480 
#    y -0.044400 1.831510 0.004180 
#    z -0.009480 0.004180 1.878440 
# 
# From -- ./inp_files/434973.got.cif
#   From: 2010.05.17/outbox.cif.g08.bks.cpg/sg2_218_cif.got.tgz:434973.got - 2010.06.03 11:33:40.
