data_PCOD9078721
_publ_section_title
;
Structure prediction by ZEFSAII (Michael W. Deem and Ramdas Pophale) SiO2 
 PCOD9078721
Probable space group: P -1
;
_chemical_formula_sum "Si O2"
_cell_formula_units_Z 14
_cell_length_a 18.375355
_cell_length_b 6.431557
_cell_length_c 6.414920
_cell_angle_alpha 102.269655
_cell_angle_beta 100.355050
_cell_angle_gamma 121.401787
_cell_volume 592.721413
_symmetry_space_group_name_H-M "P -1"
_symmetry_group_IT_number 2
_symmetry_cell_setting 'triclinic'
loop_
_space_group_symop_operation_xyz
x,y,z
-x,-y,-z
loop_
_atom_site_type_symbol
_atom_site_label
_atom_site_fract_x
_atom_site_fract_y
_atom_site_fract_z
Si Si1 0.327931 0.816013 0.533959
Si Si2 0.179537 0.270292 0.425103
Si Si3 0.029830 0.268800 0.185501
Si Si4 0.488859 0.846204 0.749835
Si Si5 0.870541 0.234023 0.960876
Si Si6 0.325619 0.998651 0.013642
Si Si7 0.668905 0.710206 0.287254
O O1 0.252306 0.519108 0.368394
O O2 0.428488 0.891770 0.576824
O O3 0.312174 0.036578 0.527077
O O4 0.317217 0.815609 0.781877
O O5 0.096777 0.299105 0.410417
O O6 0.241035 0.281421 0.645950
O O7 0.143782 0.998021 0.238954
O O8 0.085437 0.505734 0.098991
O O9 0.941133 0.265541 0.180425
O O10 0.000000 0.000000 0.000000
O O11 0.418832 0.540409 0.706204
O O12 0.590476 0.929922 0.784236
O O13 0.500000 0.000000 0.000000
O O14 0.773547 0.141036 0.976084
O O15 0.351414 0.255976 0.953192
#
# Coordination Sequence:
#
# PCOD9078721 Si02
#       7
#     2   2   2   2   2   2   2
#     4   8  18  32  53  80 109 142 171 207 268 311
#     4  10  18  36  57  78 103 149 173 206 275 329
#     4   9  20  38  59  74 103 143 178 209 281 321
#     4   9  16  31  52  80 110 146 175 206 262 318
#     4  10  20  38  59  78 104 133 185 228 252 317
#     4   9  19  34  55  85 105 136 182 226 255 294
#     4   9  18  32  56  77 114 138 176 213 261 314
#
# _framework density 23.619864
#
# number of rings (size 3 to 8) (size 9 to 14) (size 15 to 20)
#    0.857    2.000    0.000    1.286    0.000    0.000 
#   15.429    4.286    0.000    5.143    0.000    0.000 
#    0.000    0.000    0.000    0.000    0.000    0.000 
#
# Total GULP energy -77969.366273 kJ/mol
# GULP energy per Si atom -5569.240448 kJ/mol
# Density = 2.356610 g / cm^3
# Si number density = 23.619864 Si / 1000 Ang^3
#
#
#
# Elastic Constant Matrix: (Units=GPa)
#
#
# Indices 1 2 3 4 5 6 
#
# 1 117.1362 77.8727 47.5476 -25.2139 76.5121 1.5161
# 2 77.8727 86.8688 33.5165 20.5266 1.8800 -34.8572
# 3 47.5476 33.5165 53.9506 -8.0887 36.5195 -13.4495
# 4 -25.2139 20.5266 -8.0887 33.0774 -9.9267 4.7032
# 5 76.5121 1.8800 36.5195 -9.9267 44.9146 -11.1409
# 6 1.5161 -34.8572 -13.4495 4.7032 -11.1409 31.4082
#
#
#
# Elastic Compliance Matrix: (Units=1/GPa)
#
#
# Indices 1 2 3 4 5 6 
#
# 1 0.000168 0.008405 -0.009351 -0.006315 0.007810 0.009031
# 2 0.008405 0.002569 0.001186 0.000722 -0.015925 -0.002804
# 3 -0.009351 0.001186 0.036549 -0.004318 -0.011305 0.014055
# 4 -0.006315 0.000722 -0.004318 0.030018 0.021461 0.002375
# 5 0.007810 -0.015925 -0.011305 0.021461 0.018734 -0.019460
# 6 0.009031 -0.002804 0.014055 0.002375 -0.019460 0.027051
#
#
# Mechanical properties :
#
#
# Convention : Reuss Voigt Hill
#
# Bulk Modulus (GPa) = 25.14840 63.98103 44.56471
# Shear Modulus (GPa) = 39.10380 28.48129 33.79254
#
# Velocity S-wave (km/s) = 4.07326 3.47626 3.78654
# Velocity P-wave (km/s) = 5.72644 6.57717 6.16649
#
# Compressibility (1/GPa) = 0.03976397
#
# Stress axis : x y z
#
# Youngs Moduli (GPa) = 5961.06924 389.28857 27.36047
#
# Poissons Ratio (x) = -3.27179 0.25586
# Poissons Ratio (y) = -50.10006 -0.03245
# Poissons Ratio (z) = 55.74455 -0.46172
#
# Static dielectric constant tensor:
#      x y z
#    x 1.921770 -0.000880 0.040870 
#    y -0.000880 1.928240 -0.042060 
#    z 0.040870 -0.042060 2.012700 
# 
# From -- ./inp_files/322780.got.cif
#   From: 2010.05.17/outbox.cif.g08.bks.cpg/sg2_162_cif.got.tgz:322780.got - 2010.06.03 11:33:40.
