data_PCOD9078484
_publ_section_title
;
Structure prediction by ZEFSAII (Michael W. Deem and Ramdas Pophale) SiO2 
 PCOD9078484
Probable space group: P -1
;
_chemical_formula_sum "Si O2"
_cell_formula_units_Z 16
_cell_length_a 8.016500
_cell_length_b 14.986955
_cell_length_c 7.698824
_cell_angle_alpha 83.414641
_cell_angle_beta 102.461913
_cell_angle_gamma 50.165652
_cell_volume 652.897344
_symmetry_space_group_name_H-M "P -1"
_symmetry_group_IT_number 2
_symmetry_cell_setting 'triclinic'
loop_
_space_group_symop_operation_xyz
x,y,z
-x,-y,-z
loop_
_atom_site_type_symbol
_atom_site_label
_atom_site_fract_x
_atom_site_fract_y
_atom_site_fract_z
Si Si1 0.512086 0.133810 0.080799
Si Si2 0.455075 0.953688 0.262055
Si Si3 0.870874 0.839350 0.629357
Si Si4 0.441955 0.412833 0.017742
Si Si5 0.313165 0.740430 0.547875
Si Si6 0.243038 0.692080 0.209202
Si Si7 0.014906 0.357310 0.038674
Si Si8 0.978598 0.053663 0.796137
O O1 0.515918 0.122964 0.875140
O O2 0.284478 0.271145 0.059846
O O3 0.477353 0.046591 0.169168
O O4 0.776988 0.062827 0.214108
O O5 0.655335 0.874301 0.468920
O O6 0.211857 0.049525 0.290833
O O7 0.976372 0.725744 0.800000
O O8 0.057019 0.806100 0.543278
O O9 0.533617 0.333492 0.232097
O O10 0.500000 0.500000 0.000000
O O11 0.592201 0.327812 0.903181
O O12 0.158588 0.508714 0.940449
O O13 0.385548 0.646727 0.430584
O O14 0.253422 0.853550 0.401102
O O15 0.026713 0.838562 0.164761
O O16 0.132600 0.635834 0.152309
O O17 0.000000 0.000000 0.000000
#
# Coordination Sequence:
#
# PCOD9078484 Si02
#       8
#     2   2   2   2   2   2   2   2
#     4  10  17  30  48  71 103 133 166 210 267 304
#     4   9  17  25  46  74 105 133 154 205 272 323
#     4  10  15  26  44  76 106 132 160 196 258 322
#     4  10  19  33  50  79 112 136 169 205 255 325
#     4  10  19  32  51  73 106 142 169 209 255 303
#     4   9  19  33  52  77 108 138 170 206 263 304
#     4  10  19  30  51  80 111 134 158 209 261 324
#     4  10  21  36  54  74  99 140 185 218 249 298
#
# _framework density 24.506149000000001
#
# number of rings (size 3 to 8) (size 9 to 14) (size 15 to 20)
#    0.750    1.500    3.750    3.000    0.000    2.000 
#    2.250    0.625    0.000    1.500    0.000    0.000 
#    0.000    0.000    0.000    0.000    0.000    0.000 
#
# Total GULP energy -89201.342604 kJ/mol
# GULP energy per Si atom -5575.083913 kJ/mol
# Density = 2.445037 g / cm^3
# Si number density = 24.506149 Si / 1000 Ang^3
#
#
#
# Elastic Constant Matrix: (Units=GPa)
#
#
# Indices 1 2 3 4 5 6 
#
# 1 42.5741 26.2417 22.5075 -1.3476 6.1734 -6.8499
# 2 26.2417 143.1303 53.4388 -10.6321 -5.4018 -24.7152
# 3 22.5075 53.4388 139.1873 18.5513 -3.5094 -3.6797
# 4 -1.3476 -10.6321 18.5513 39.0821 3.4447 -0.6216
# 5 6.1734 -5.4018 -3.5094 3.4447 19.9316 -5.5188
# 6 -6.8499 -24.7152 -3.6797 -0.6216 -5.5188 40.1325
#
#
#
# Elastic Compliance Matrix: (Units=1/GPa)
#
#
# Indices 1 2 3 4 5 6 
#
# 1 0.029945 -0.004145 -0.003888 0.002764 -0.011372 0.000681
# 2 -0.004145 0.010696 -0.003722 0.004235 0.004519 0.006226
# 3 -0.003888 -0.003722 0.010084 -0.006186 0.002548 -0.001777
# 4 0.002764 0.004235 -0.006186 0.030284 -0.005412 0.002237
# 5 -0.011372 0.004519 0.002548 -0.005412 0.058817 0.009080
# 6 0.000681 0.006226 -0.001777 0.002237 0.009080 0.029988
#
#
# Mechanical properties :
#
#
# Convention : Reuss Voigt Hill
#
# Bulk Modulus (GPa) = 36.74430 58.80752 47.77591
# Shear Modulus (GPa) = 24.70412 34.67617 29.69014
#
# Velocity S-wave (km/s) = 3.17847 3.76573 3.48449
# Velocity P-wave (km/s) = 5.33823 6.55414 5.97718
#
# Compressibility (1/GPa) = 0.02721510
#
# Stress axis : x y z
#
# Youngs Moduli (GPa) = 33.39495 93.48897 99.16485
#
# Poissons Ratio (x) = 0.38749 0.38555
# Poissons Ratio (y) = 0.13841 0.36913
# Poissons Ratio (z) = 0.12984 0.34800
#
# Static dielectric constant tensor:
#      x y z
#    x 2.156030 0.008640 0.004010 
#    y 0.008640 1.980740 0.008870 
#    z 0.004010 0.008870 1.978850 
# 
# From -- ./inp_files/284201.got.cif
#   From: 2010.05.17/outbox.cif.g08.bks.cpg/sg2_143_cif.got.tgz:284201.got - 2010.06.03 11:33:40.
