data_PCOD9078299
_publ_section_title
;
Structure prediction by ZEFSAII (Michael W. Deem and Ramdas Pophale) SiO2 
 PCOD9078299
Probable space group: P -1
;
_chemical_formula_sum "Si O2"
_cell_formula_units_Z 16
_cell_length_a 7.887926
_cell_length_b 10.211533
_cell_length_c 11.963676
_cell_angle_alpha 107.866986
_cell_angle_beta 130.214353
_cell_angle_gamma 59.130384
_cell_volume 631.188390
_symmetry_space_group_name_H-M "P -1"
_symmetry_group_IT_number 2
_symmetry_cell_setting 'triclinic'
loop_
_space_group_symop_operation_xyz
x,y,z
-x,-y,-z
loop_
_atom_site_type_symbol
_atom_site_label
_atom_site_fract_x
_atom_site_fract_y
_atom_site_fract_z
Si Si1 0.250415 0.267376 0.220208
Si Si2 0.854551 0.067869 0.269080
Si Si3 0.456541 0.589825 0.194904
Si Si4 0.724760 0.290305 0.077798
Si Si5 0.631616 0.978401 0.434411
Si Si6 0.065069 0.336393 0.932436
Si Si7 0.135000 0.230619 0.707805
Si Si8 0.359532 0.625914 0.597169
O O1 0.369732 0.387106 0.324104
O O2 0.975700 0.311385 0.162854
O O3 0.438585 0.113699 0.316076
O O4 0.244408 0.232407 0.076459
O O5 0.814794 0.130345 0.141647
O O6 0.723042 0.224399 0.321723
O O7 0.125568 0.004951 0.422787
O O8 0.791899 0.929552 0.237467
O O9 0.546593 0.431174 0.118154
O O10 0.629132 0.514873 0.358136
O O11 0.193573 0.671909 0.167925
O O12 0.404203 0.702217 0.095008
O O13 0.720899 0.820446 0.361908
O O14 0.500000 0.000000 0.500000
O O15 0.163878 0.325840 0.847944
O O16 0.000000 0.500000 0.000000
O O17 0.850185 0.319896 0.571352
#
# Coordination Sequence:
#
# PCOD9078299 Si02
#       8
#     2   2   2   2   2   2   2   2
#     4  11  19  36  63  94 122 171 205 261 315 369
#     4  10  18  35  60  95 126 165 200 258 323 379
#     4   9  19  38  57  88 120 175 210 251 311 366
#     4   9  19  32  62  90 125 167 210 247 317 379
#     4  11  20  37  65  96 135 160 196 263 329 381
#     4  11  24  41  63  90 123 170 223 263 305 366
#     4  11  23  38  63  99 126 164 215 255 319 387
#     4  10  18  35  64  91 123 163 209 261 313 373
#
# _framework density 25.349008999999999
#
# number of rings (size 3 to 8) (size 9 to 14) (size 15 to 20)
#    0.000    1.750    5.000    0.750    0.000    1.000 
#    0.000    2.500   11.000    1.500    0.000    0.000 
#    0.000    0.000    0.000    0.000    0.000    0.000 
#
# Total GULP energy -89149.319600 kJ/mol
# GULP energy per Si atom -5571.832475 kJ/mol
# Density = 2.529131 g / cm^3
# Si number density = 25.349009 Si / 1000 Ang^3
#
#
#
# Elastic Constant Matrix: (Units=GPa)
#
#
# Indices 1 2 3 4 5 6 
#
# 1 119.2545 25.5434 51.4105 0.9667 -20.0655 -22.9926
# 2 25.5434 65.0543 63.8809 -15.4587 -4.2484 -9.9140
# 3 51.4105 63.8809 158.7519 -39.8283 -41.5002 2.3870
# 4 0.9667 -15.4587 -39.8283 47.0534 -2.0928 -15.5515
# 5 -20.0655 -4.2484 -41.5002 -2.0928 37.6424 -7.3604
# 6 -22.9926 -9.9140 2.3870 -15.5515 -7.3604 22.3291
#
#
#
# Elastic Compliance Matrix: (Units=1/GPa)
#
#
# Indices 1 2 3 4 5 6 
#
# 1 0.016470 0.001046 0.001435 0.012460 0.017365 0.031673
# 2 0.001046 0.032704 -0.016008 0.001695 -0.010358 0.015074
# 3 0.001435 -0.016008 0.028408 0.027873 0.036266 0.022700
# 4 0.012460 0.001695 0.027873 0.074693 0.057678 0.081637
# 5 0.017365 -0.010358 0.036266 0.057678 0.093567 0.080419
# 6 0.031673 0.015074 0.022700 0.081637 0.080419 0.165031
#
#
# Mechanical properties :
#
#
# Convention : Reuss Voigt Hill
#
# Bulk Modulus (GPa) = 19.79119 69.41448 44.60283
# Shear Modulus (GPa) = 10.99458 34.88670 22.94064
#
# Velocity S-wave (km/s) = 2.08487 3.71382 3.01157
# Velocity P-wave (km/s) = 3.69053 6.77000 5.45220
#
# Compressibility (1/GPa) = 0.05052753
#
# Stress axis : x y z
#
# Youngs Moduli (GPa) = 60.71497 30.57764 35.20160
#
# Poissons Ratio (x) = -0.03198 -0.05051
# Poissons Ratio (y) = -0.06350 0.56350
# Poissons Ratio (z) = -0.08711 0.48948
#
# Static dielectric constant tensor:
#      x y z
#    x 2.288530 0.077090 -0.009160 
#    y 0.077090 2.037100 0.008370 
#    z -0.009160 0.008370 2.010530 
# 
# From -- ./inp_files/392697.got.cif
#   From: 2010.05.17/outbox.cif.g08.bks.cpg/sg2_197_cif.got.tgz:392697.got - 2010.06.03 11:33:40.
