data_PCOD9078566
_publ_section_title
;
Structure prediction by ZEFSAII (Michael W. Deem and Ramdas Pophale) SiO2 
 PCOD9078566
Probable space group: P -1
;
_chemical_formula_sum "Si O2"
_cell_formula_units_Z 16
_cell_length_a 16.888755
_cell_length_b 8.747418
_cell_length_c 12.024605
_cell_angle_alpha 31.324146
_cell_angle_beta 120.192400
_cell_angle_gamma 107.460068
_cell_volume 764.344948
_symmetry_space_group_name_H-M "P -1"
_symmetry_group_IT_number 2
_symmetry_cell_setting 'triclinic'
loop_
_space_group_symop_operation_xyz
x,y,z
-x,-y,-z
loop_
_atom_site_type_symbol
_atom_site_label
_atom_site_fract_x
_atom_site_fract_y
_atom_site_fract_z
Si Si1 0.008726 0.342040 0.276783
Si Si2 0.231344 0.801781 0.991881
Si Si3 0.383501 0.000451 0.852344
Si Si4 0.747421 0.331751 0.453610
Si Si5 0.438179 0.106397 0.066961
Si Si6 0.840820 0.735136 0.764659
Si Si7 0.079947 0.391420 0.530745
Si Si8 0.663070 0.268697 0.657987
O O1 0.094499 0.304829 0.273851
O O2 0.034605 0.482807 0.321561
O O3 0.000000 0.000000 0.500000
O O4 0.912522 0.566270 0.017985
O O5 0.286104 0.914107 0.859604
O O6 0.123529 0.022312 0.784426
O O7 0.234652 0.453933 0.190190
O O8 0.273755 0.834515 0.122963
O O9 0.429000 0.939206 0.046594
O O10 0.363156 0.362831 0.591539
O O11 0.459141 0.834847 0.914720
O O12 0.651757 0.589401 0.185798
O O13 0.829075 0.486014 0.454451
O O14 0.717556 0.172293 0.640644
O O15 0.791411 0.083390 0.545993
O O16 0.424186 0.878236 0.294787
O O17 0.000000 0.500000 0.500000
#
# Coordination Sequence:
#
# PCOD9078566 Si02
#       8
#     2   2   2   2   2   2   2   2
#     4  11  24  44  63  87 125 165 215 251 306 366
#     4  11  22  41  59  93 125 161 206 247 311 371
#     4   9  18  35  61  91 121 160 199 257 304 366
#     4  11  23  40  59  95 124 159 205 258 303 359
#     4   9  18  35  60  91 126 151 205 257 305 360
#     4  11  26  40  63  90 123 175 202 250 313 372
#     4  12  24  41  65  90 125 160 204 262 302 353
#     4  10  18  35  65  91 119 159 209 250 310 359
#
# _framework density 20.932956999999998
#
# number of rings (size 3 to 8) (size 9 to 14) (size 15 to 20)
#    0.000    1.500    5.000    1.875    3.500    2.500 
#    0.000    0.625    0.000    1.500    0.000    0.000 
#    0.000    0.000    0.000    0.000    0.000    0.000 
#
# Total GULP energy -89304.687624 kJ/mol
# GULP energy per Si atom -5581.542977 kJ/mol
# Density = 2.088531 g / cm^3
# Si number density = 20.932957 Si / 1000 Ang^3
#
#
#
# Elastic Constant Matrix: (Units=GPa)
#
#
# Indices 1 2 3 4 5 6 
#
# 1 103.5731 10.0980 36.9655 -6.6393 -3.4643 -19.0022
# 2 10.0980 52.7831 10.1661 -8.3320 6.3174 -11.5876
# 3 36.9655 10.1661 56.2712 -0.9583 -11.5630 -8.1994
# 4 -6.6393 -8.3320 -0.9583 28.3849 -3.1298 -3.5984
# 5 -3.4643 6.3174 -11.5630 -3.1298 32.4931 -2.8219
# 6 -19.0022 -11.5876 -8.1994 -3.5984 -2.8219 16.6221
#
#
#
# Elastic Compliance Matrix: (Units=1/GPa)
#
#
# Indices 1 2 3 4 5 6 
#
# 1 0.016115 0.003617 -0.008389 0.006906 0.000288 0.018350
# 2 0.003617 0.025982 -0.004380 0.010732 -0.003293 0.021851
# 3 -0.008389 -0.004380 0.026204 -0.001131 0.009314 0.001618
# 4 0.006906 0.010732 -0.001131 0.043643 0.004627 0.025052
# 5 0.000288 -0.003293 0.009314 0.004627 0.036054 0.009751
# 6 0.018350 0.021851 0.001618 0.025052 0.009751 0.104248
#
#
# Mechanical properties :
#
#
# Convention : Reuss Voigt Hill
#
# Bulk Modulus (GPa) = 20.00127 36.34296 28.17211
# Shear Modulus (GPa) = 17.40843 25.85987 21.63415
#
# Velocity S-wave (km/s) = 2.88692 3.51859 3.21829
# Velocity P-wave (km/s) = 4.54842 5.82294 5.22469
#
# Compressibility (1/GPa) = 0.04999683
#
# Stress axis : x y z
#
# Youngs Moduli (GPa) = 62.05213 38.48768 38.16248
#
# Poissons Ratio (x) = -0.13920 0.32015
# Poissons Ratio (y) = -0.22443 0.16715
# Poissons Ratio (z) = 0.52057 0.16857
#
# Static dielectric constant tensor:
#      x y z
#    x 1.843980 0.053730 0.002270 
#    y 0.053730 1.775870 0.013400 
#    z 0.002270 0.013400 1.755060 
# 
# From -- ./inp_files/39502.got.cif
#   From: 2010.05.17/outbox.cif.g08.bks.cpg/sg2_20_cif.got.tgz:39502.got - 2010.06.03 11:33:40.
