data_PCOD9078856
_publ_section_title
;
Structure prediction by ZEFSAII (Michael W. Deem and Ramdas Pophale) SiO2 
 PCOD9078856
Probable space group: P -1
;
_chemical_formula_sum "Si O2"
_cell_formula_units_Z 16
_cell_length_a 11.405133
_cell_length_b 15.973410
_cell_length_c 9.772656
_cell_angle_alpha 140.333451
_cell_angle_beta 69.399408
_cell_angle_gamma 134.385467
_cell_volume 741.111559
_symmetry_space_group_name_H-M "P -1"
_symmetry_group_IT_number 2
_symmetry_cell_setting 'triclinic'
loop_
_space_group_symop_operation_xyz
x,y,z
-x,-y,-z
loop_
_atom_site_type_symbol
_atom_site_label
_atom_site_fract_x
_atom_site_fract_y
_atom_site_fract_z
Si Si1 0.200260 0.043284 0.102012
Si Si2 0.863909 0.263227 0.894740
Si Si3 0.770769 0.466299 0.096510
Si Si4 0.978282 0.108307 0.735400
Si Si5 0.292204 0.390033 0.438653
Si Si6 0.584759 0.305105 0.423591
Si Si7 0.625773 0.468925 0.899350
Si Si8 0.850807 0.282729 0.250968
O O1 0.196900 0.177185 0.188571
O O2 0.399475 0.174378 0.251337
O O3 0.077232 0.975676 0.197990
O O4 0.148357 0.855705 0.843160
O O5 0.035945 0.394722 0.886504
O O6 0.824352 0.079182 0.684235
O O7 0.744143 0.298367 0.951299
O O8 0.887785 0.292311 0.086145
O O9 0.762690 0.569980 0.350629
O O10 0.627011 0.393783 0.948315
O O11 0.168952 0.325723 0.940444
O O12 0.000000 0.000000 0.500000
O O13 0.500000 0.500000 0.500000
O O14 0.284992 0.490559 0.447037
O O15 0.575014 0.343732 0.632446
O O16 0.665570 0.220932 0.273222
O O17 0.500000 0.500000 0.000000
O O18 0.000000 0.500000 0.500000
#
# Coordination Sequence:
#
# PCOD9078856 Si02
#       8
#     2   2   2   2   2   2   2   2
#     4  10  21  36  60  89 119 161 206 252 312 371
#     4   9  19  33  60  89 117 163 204 254 311 368
#     4  10  18  36  59  89 119 163 208 250 310 373
#     4  10  19  36  59  88 122 159 211 257 308 375
#     4  10  20  36  61  90 120 160 208 256 310 365
#     4  11  21  38  61  89 121 162 205 258 311 370
#     4  11  22  37  63  90 121 164 210 257 313 373
#     4  11  21  38  59  92 124 159 203 257 313 379
#
# _framework density 21.589192000000001
#
# number of rings (size 3 to 8) (size 9 to 14) (size 15 to 20)
#    0.000    1.750    1.250    6.375    0.000    0.000 
#    0.000    2.500    2.750    3.750    6.500    0.000 
#    0.000    0.000    0.000    0.000    0.000    0.000 
#
# Total GULP energy -89105.026988 kJ/mol
# GULP energy per Si atom -5569.064187 kJ/mol
# Density = 2.154005 g / cm^3
# Si number density = 21.589192 Si / 1000 Ang^3
#
#
#
# Elastic Constant Matrix: (Units=GPa)
#
#
# Indices 1 2 3 4 5 6 
#
# 1 87.2844 18.2550 39.9270 -1.2845 -34.6385 -6.6299
# 2 18.2550 63.2181 22.6039 5.4797 -15.1465 -11.5911
# 3 39.9270 22.6039 101.3326 2.0370 -32.9639 -1.4373
# 4 -1.2845 5.4797 2.0370 41.7236 4.8159 -9.5126
# 5 -34.6385 -15.1465 -32.9639 4.8159 42.4366 5.7568
# 6 -6.6299 -11.5911 -1.4373 -9.5126 5.7568 43.7272
#
#
#
# Elastic Compliance Matrix: (Units=1/GPa)
#
#
# Indices 1 2 3 4 5 6 
#
# 1 0.017733 -0.001109 -0.002888 -0.000376 0.011787 0.000666
# 2 -0.001109 0.018750 -0.002501 -0.001908 0.003540 0.003839
# 3 -0.002888 -0.002501 0.014292 -0.001913 0.008360 -0.002148
# 4 -0.000376 -0.001908 -0.001913 0.026378 -0.006273 0.005938
# 5 0.011787 0.003540 0.008360 -0.006273 0.042186 -0.003918
# 6 0.000666 0.003839 -0.002148 0.005938 -0.003918 0.025725
#
#
# Mechanical properties :
#
#
# Convention : Reuss Voigt Hill
#
# Bulk Modulus (GPa) = 26.47048 45.93411 36.20230
# Shear Modulus (GPa) = 29.29922 36.98075 33.13999
#
# Velocity S-wave (km/s) = 3.68791 4.14324 3.92219
# Velocity P-wave (km/s) = 5.51560 6.64916 6.10873
#
# Compressibility (1/GPa) = 0.03777793
#
# Stress axis : x y z
#
# Youngs Moduli (GPa) = 56.39316 53.33282 69.96946
#
# Poissons Ratio (x) = 0.05915 0.20209
# Poissons Ratio (y) = 0.06254 0.17501
# Poissons Ratio (z) = 0.16288 0.13339
#
# Static dielectric constant tensor:
#      x y z
#    x 1.883380 0.009620 0.010320 
#    y 0.009620 1.813970 0.105470 
#    z 0.010320 0.105470 1.807350 
# 
# From -- ./inp_files/274630.got.cif
#   From: 2010.05.17/outbox.cif.g08.bks.cpg/sg2_138_cif.got.tgz:274630.got - 2010.06.03 11:33:40.
