data_PCOD9078023
_publ_section_title
;
Structure prediction by ZEFSAII (Michael W. Deem and Ramdas Pophale) SiO2 
 PCOD9078023
Probable space group: P -1
;
_chemical_formula_sum "Si O2"
_cell_formula_units_Z 12
_cell_length_a 8.307858
_cell_length_b 9.188304
_cell_length_c 11.850252
_cell_angle_alpha 99.031430
_cell_angle_beta 116.016504
_cell_angle_gamma 130.055720
_cell_volume 478.842195
_symmetry_space_group_name_H-M "P -1"
_symmetry_group_IT_number 2
_symmetry_cell_setting 'triclinic'
loop_
_space_group_symop_operation_xyz
x,y,z
-x,-y,-z
loop_
_atom_site_type_symbol
_atom_site_label
_atom_site_fract_x
_atom_site_fract_y
_atom_site_fract_z
Si Si1 0.665893 0.772691 0.271555
Si Si2 0.116444 0.269535 0.955700
Si Si3 0.139783 0.695692 0.742129
Si Si4 0.742242 0.972768 0.015190
Si Si5 0.812704 0.332948 0.807438
Si Si6 0.236763 0.331256 0.492538
O O1 0.431592 0.562901 0.080524
O O2 0.514388 0.817153 0.287854
O O3 0.662374 0.638478 0.345946
O O4 0.995914 0.038270 0.368569
O O5 0.160792 0.126872 0.938555
O O6 0.996213 0.203449 0.039045
O O7 0.871336 0.196818 0.799525
O O8 0.940694 0.489254 0.752720
O O9 0.934757 0.626380 0.571984
O O10 0.272550 0.933933 0.868651
O O11 0.429367 0.783611 0.828418
O O12 0.000000 0.500000 0.000000
O O13 0.500000 0.500000 0.500000
#
# Coordination Sequence:
#
# PCOD9078023 Si02
#       6
#     2   2   2   2   2   2
#     4  10  21  37  60  86 117 155 195 239 288 343
#     4  10  20  38  57  89 119 149 189 238 301 341
#     4  11  21  36  59  90 115 153 198 236 285 350
#     4  10  21  35  59  88 119 151 187 242 292 347
#     4  10  18  35  57  86 120 147 188 241 291 346
#     4  11  21  37  60  85 113 156 204 236 278 351
#
# _framework density 25.060449999999999
#
# number of rings (size 3 to 8) (size 9 to 14) (size 15 to 20)
#    0.000    1.667    5.000    1.000    7.000    0.667 
#    0.000    0.833    0.000    6.000    0.000    0.000 
#    0.000    0.000    0.000    0.000    0.000    0.000 
#
# Total GULP energy -67059.913792 kJ/mol
# GULP energy per Si atom -5588.326149 kJ/mol
# Density = 2.500341 g / cm^3
# Si number density = 25.060450 Si / 1000 Ang^3
#
#
#
# Elastic Constant Matrix: (Units=GPa)
#
#
# Indices 1 2 3 4 5 6 
#
# 1 73.0434 43.9390 34.2131 -13.8940 32.4110 -22.3025
# 2 43.9390 151.0578 24.1304 -14.5661 27.0240 12.4762
# 3 34.2131 24.1304 80.3758 -28.0945 37.5874 2.6481
# 4 -13.8940 -14.5661 -28.0945 50.4976 -9.9842 20.2673
# 5 32.4110 27.0240 37.5874 -9.9842 31.9892 -14.2518
# 6 -22.3025 12.4762 2.6481 20.2673 -14.2518 56.5944
#
#
#
# Elastic Compliance Matrix: (Units=1/GPa)
#
#
# Indices 1 2 3 4 5 6 
#
# 1 0.028849 -0.006716 -0.007137 -0.005089 -0.011346 0.012149
# 2 -0.006716 0.014675 0.020704 0.015559 -0.034465 -0.021101
# 3 -0.007137 0.020704 0.088883 0.053644 -0.125761 -0.062416
# 4 -0.005089 0.015559 0.053644 0.056937 -0.074197 -0.047020
# 5 -0.011346 -0.034465 -0.125761 -0.074197 0.239170 0.095811
# 6 0.012149 -0.021101 -0.062416 -0.047020 0.095811 0.070995
#
#
# Mechanical properties :
#
#
# Convention : Reuss Voigt Hill
#
# Bulk Modulus (GPa) = 6.84421 56.56023 31.70222
# Shear Modulus (GPa) = 9.35437 41.29588 25.32512
#
# Velocity S-wave (km/s) = 1.93412 4.06378 3.18238
# Velocity P-wave (km/s) = 2.77935 6.68113 5.11675
#
# Compressibility (1/GPa) = 0.14610880
#
# Stress axis : x y z
#
# Youngs Moduli (GPa) = 34.66328 68.14342 11.25078
#
# Poissons Ratio (x) = 0.45763 0.08030
# Poissons Ratio (y) = 0.23279 -0.23294
# Poissons Ratio (z) = 0.24740 -1.41084
#
# Static dielectric constant tensor:
#      x y z
#    x 2.052460 -0.005080 -0.016290 
#    y -0.005080 1.994690 -0.012930 
#    z -0.016290 -0.012930 2.097380 
# 
# From -- ./inp_files/169038.got.cif
#   From: 2010.05.17/outbox.cif.g08.bks.cpg/sg2_85_cif.got.tgz:169038.got - 2010.06.03 11:33:40.
