data_PCOD9078504
_publ_section_title
;
Structure prediction by ZEFSAII (Michael W. Deem and Ramdas Pophale) SiO2 
 PCOD9078504
Probable space group: P -1
;
_chemical_formula_sum "Si O2"
_cell_formula_units_Z 16
_cell_length_a 13.213785
_cell_length_b 11.605394
_cell_length_c 24.751024
_cell_angle_alpha 141.244410
_cell_angle_beta 18.966004
_cell_angle_gamma 139.844742
_cell_volume 765.495915
_symmetry_space_group_name_H-M "P -1"
_symmetry_group_IT_number 2
_symmetry_cell_setting 'triclinic'
loop_
_space_group_symop_operation_xyz
x,y,z
-x,-y,-z
loop_
_atom_site_type_symbol
_atom_site_label
_atom_site_fract_x
_atom_site_fract_y
_atom_site_fract_z
Si Si1 0.161693 0.874633 0.623492
Si Si2 0.797373 0.523166 0.494790
Si Si3 0.726973 0.957811 0.578796
Si Si4 0.157078 0.154645 0.934479
Si Si5 0.166055 0.452732 0.180909
Si Si6 0.854319 0.907884 0.674542
Si Si7 0.172931 0.038834 0.067200
Si Si8 0.734026 0.409993 0.289088
O O1 0.191293 0.659171 0.541764
O O2 0.988416 0.886834 0.658561
O O3 0.958731 0.945022 0.800587
O O4 0.500000 0.000000 0.500000
O O5 0.809841 0.711573 0.592309
O O6 0.476224 0.491249 0.609774
O O7 0.077752 0.532724 0.312493
O O8 0.496419 0.774952 0.644467
O O9 0.515296 0.124103 0.745197
O O10 0.000000 0.000000 0.500000
O O11 0.893356 0.953770 0.435872
O O12 0.034669 0.109653 0.919631
O O13 0.033570 0.342939 0.083161
O O14 0.000000 0.000000 0.000000
O O15 0.142167 0.232708 0.123618
O O16 0.892788 0.500683 0.295851
O O17 0.500000 0.500000 0.000000
O O18 0.525243 0.989722 0.871143
#
# Coordination Sequence:
#
# PCOD9078504 Si02
#       8
#     2   2   2   2   2   2   2   2
#     4  11  27  48  69  92 133 186 236 284 343 398
#     4  11  25  45  66 101 138 178 229 286 335 405
#     4  11  21  34  68 104 132 172 220 268 351 406
#     4  10  18  35  63  94 133 167 214 271 329 399
#     4  11  26  39  63 100 150 180 214 276 354 410
#     4  12  24  42  74  96 132 179 237 281 341 409
#     4  11  22  44  67  97 132 176 229 283 334 411
#     4  11  22  39  64 100 141 174 221 276 336 418
#
# _framework density 20.901482999999999
#
# number of rings (size 3 to 8) (size 9 to 14) (size 15 to 20)
#    0.000    1.000    5.000    2.625    5.250    1.000 
#    0.000    0.625    0.000    0.000    0.000    0.000 
#    0.000    0.000    0.000    0.000    0.000    0.000 
#
# Total GULP energy -89451.809486 kJ/mol
# GULP energy per Si atom -5590.738093 kJ/mol
# Density = 2.085391 g / cm^3
# Si number density = 20.901483 Si / 1000 Ang^3
#
#
#
# Elastic Constant Matrix: (Units=GPa)
#
#
# Indices 1 2 3 4 5 6 
#
# 1 149.7768 19.4383 44.3094 1.9546 -10.4996 -1.7547
# 2 19.4383 40.1718 18.1737 3.0491 0.7559 5.5520
# 3 44.3094 18.1737 152.4292 5.5699 -6.9704 -2.7476
# 4 1.9546 3.0491 5.5699 35.7338 3.8859 0.0027
# 5 -10.4996 0.7559 -6.9704 3.8859 45.9854 2.8067
# 6 -1.7547 5.5520 -2.7476 0.0027 2.8067 26.3128
#
#
#
# Elastic Compliance Matrix: (Units=1/GPa)
#
#
# Indices 1 2 3 4 5 6 
#
# 1 0.007720 -0.003061 -0.001794 -0.000044 0.001495 0.000814
# 2 -0.003061 0.028596 -0.002618 -0.001752 -0.001027 -0.006401
# 3 -0.001794 -0.002618 0.007484 -0.000930 0.000777 0.001131
# 4 -0.000044 -0.001752 -0.000930 0.028561 -0.002569 0.000541
# 5 0.001495 -0.001027 0.000777 -0.002569 0.022562 -0.002009
# 6 0.000814 -0.006401 0.001131 0.000541 -0.002009 0.039742
#
#
# Mechanical properties :
#
#
# Convention : Reuss Voigt Hill
#
# Bulk Modulus (GPa) = 34.65862 56.24674 45.45268
# Shear Modulus (GPa) = 31.40164 38.97017 35.18591
#
# Velocity S-wave (km/s) = 3.88024 4.32263 4.10740
# Velocity P-wave (km/s) = 6.05747 7.20294 6.65490
#
# Compressibility (1/GPa) = 0.02885285
#
# Stress axis : x y z
#
# Youngs Moduli (GPa) = 129.54036 34.97051 133.61705
#
# Poissons Ratio (x) = 0.10704 0.23977
# Poissons Ratio (y) = 0.39650 0.34980
# Poissons Ratio (z) = 0.23245 0.09155
#
# Static dielectric constant tensor:
#      x y z
#    x 1.740660 0.036760 0.016050 
#    y 0.036760 1.779710 0.016300 
#    z 0.016050 0.016300 1.763210 
# 
# From -- ./inp_files/610358.got.cif
#   From: 2010.05.17/outbox.cif.g08.bks.cpg/sg2_306_cif.got.tgz:610358.got - 2010.06.03 11:33:40.
