data_PCOD9078444
_publ_section_title
;
Structure prediction by ZEFSAII (Michael W. Deem and Ramdas Pophale) SiO2 
 PCOD9078444
Probable space group: P -1
;
_chemical_formula_sum "Si O2"
_cell_formula_units_Z 16
_cell_length_a 12.187778
_cell_length_b 15.332373
_cell_length_c 7.624372
_cell_angle_alpha 82.421194
_cell_angle_beta 69.301487
_cell_angle_gamma 30.614623
_cell_volume 632.790279
_symmetry_space_group_name_H-M "P -1"
_symmetry_group_IT_number 2
_symmetry_cell_setting 'triclinic'
loop_
_space_group_symop_operation_xyz
x,y,z
-x,-y,-z
loop_
_atom_site_type_symbol
_atom_site_label
_atom_site_fract_x
_atom_site_fract_y
_atom_site_fract_z
Si Si1 0.966679 0.531149 0.220813
Si Si2 0.108938 0.249342 0.259824
Si Si3 0.382872 0.089895 0.772001
Si Si4 0.723464 0.521519 0.847394
Si Si5 0.893895 0.868316 0.300654
Si Si6 0.201369 0.890177 0.557448
Si Si7 0.740001 0.258419 0.114184
Si Si8 0.331553 0.521423 0.730597
O O1 0.961323 0.437299 0.325731
O O2 0.193855 0.432279 0.209582
O O3 0.739250 0.747457 0.303431
O O4 0.000000 0.500000 0.000000
O O5 0.902359 0.314981 0.307290
O O6 0.328469 0.089391 0.313689
O O7 0.256873 0.166976 0.014140
O O8 0.303359 0.054154 0.724593
O O9 0.454628 0.672506 0.898102
O O10 0.916078 0.332005 0.687689
O O11 0.750618 0.476238 0.048102
O O12 0.784928 0.014282 0.449901
O O13 0.072973 0.810188 0.091741
O O14 0.131356 0.887230 0.777704
O O15 0.456234 0.677821 0.415685
O O16 0.000000 0.000000 0.500000
O O17 0.591954 0.433075 0.255955
#
# Coordination Sequence:
#
# PCOD9078444 Si02
#       8
#     2   2   2   2   2   2   2   2
#     4   9  16  33  57  94 120 156 200 258 302 352
#     4  10  18  35  62  94 124 159 207 257 305 367
#     4   9  18  34  60  93 125 156 207 260 301 358
#     4  10  19  37  67  88 118 155 210 258 298 365
#     4  10  20  40  61  91 124 154 208 258 304 364
#     4  12  26  41  56  89 129 162 201 256 317 372
#     4  11  22  40  64  87 115 165 210 248 307 373
#     4  11  21  41  61  92 124 161 199 255 319 366
#
# _framework density 25.284839999999999
#
# number of rings (size 3 to 8) (size 9 to 14) (size 15 to 20)
#    0.000    1.750    5.000    3.750    1.750    0.000 
#    2.250    0.625    0.000    1.500    0.000    0.000 
#    0.000    0.000    0.000    0.000    0.000    0.000 
#
# Total GULP energy -89586.980263 kJ/mol
# GULP energy per Si atom -5599.186266 kJ/mol
# Density = 2.522729 g / cm^3
# Si number density = 25.284840 Si / 1000 Ang^3
#
#
#
# Elastic Constant Matrix: (Units=GPa)
#
#
# Indices 1 2 3 4 5 6 
#
# 1 172.5782 64.3506 19.8675 4.2339 20.0919 -19.0600
# 2 64.3506 114.0233 17.9457 6.4946 7.9069 -24.6172
# 3 19.8675 17.9457 62.3984 15.9629 8.2293 -8.0660
# 4 4.2339 6.4946 15.9629 42.9966 -0.0022 5.3351
# 5 20.0919 7.9069 8.2293 -0.0022 32.4245 5.8237
# 6 -19.0600 -24.6172 -8.0660 5.3351 5.8237 62.1538
#
#
#
# Elastic Compliance Matrix: (Units=1/GPa)
#
#
# Indices 1 2 3 4 5 6 
#
# 1 0.007895 -0.003800 -0.000715 -0.000088 -0.004000 0.001205
# 2 -0.003800 0.012050 -0.001303 -0.001415 -0.000908 0.003645
# 3 -0.000715 -0.001303 0.019493 -0.007325 -0.004701 0.002864
# 4 -0.000088 -0.001415 -0.007325 0.026710 0.002999 -0.004111
# 5 -0.004000 -0.000908 -0.004701 0.002999 0.035777 -0.005806
# 6 0.001205 0.003645 0.002864 -0.004111 -0.005806 0.019171
#
#
# Mechanical properties :
#
#
# Convention : Reuss Voigt Hill
#
# Bulk Modulus (GPa) = 35.96944 61.48083 48.72514
# Shear Modulus (GPa) = 35.21146 43.97074 39.59110
#
# Velocity S-wave (km/s) = 3.73579 4.17468 3.96132
# Velocity P-wave (km/s) = 5.73278 6.89966 6.34311
#
# Compressibility (1/GPa) = 0.02780138
#
# Stress axis : x y z
#
# Youngs Moduli (GPa) = 126.66442 82.98464 51.30176
#
# Poissons Ratio (x) = 0.31538 0.03667
# Poissons Ratio (y) = 0.48138 0.06684
# Poissons Ratio (z) = 0.09055 0.10812
#
# Static dielectric constant tensor:
#      x y z
#    x 1.934780 0.028040 -0.023050 
#    y 0.028040 1.972640 -0.015220 
#    z -0.023050 -0.015220 2.196580 
# 
# From -- ./inp_files/273105.got.cif
#   From: 2010.05.17/outbox.cif.g08.bks.cpg/sg2_137_cif.got.tgz:273105.got - 2010.06.03 11:33:40.
