data_PCOD9078267
_publ_section_title
;
Structure prediction by ZEFSAII (Michael W. Deem and Ramdas Pophale) SiO2 
 PCOD9078267
Probable space group: P -1
;
_chemical_formula_sum "Si O2"
_cell_formula_units_Z 16
_cell_length_a 13.411613
_cell_length_b 17.508211
_cell_length_c 5.120286
_cell_angle_alpha 96.665911
_cell_angle_beta 79.326764
_cell_angle_gamma 151.263050
_cell_volume 565.321346
_symmetry_space_group_name_H-M "P -1"
_symmetry_group_IT_number 2
_symmetry_cell_setting 'triclinic'
loop_
_space_group_symop_operation_xyz
x,y,z
-x,-y,-z
loop_
_atom_site_type_symbol
_atom_site_label
_atom_site_fract_x
_atom_site_fract_y
_atom_site_fract_z
Si Si1 0.621394 0.941878 0.764595
Si Si2 0.148137 0.586474 0.210494
Si Si3 0.271651 0.255526 0.155384
Si Si4 0.811556 0.998368 0.205484
Si Si5 0.510786 0.713832 0.576350
Si Si6 0.654318 0.535194 0.693931
Si Si7 0.026231 0.344433 0.132740
Si Si8 0.737740 0.176066 0.705254
O O1 0.568178 0.995377 0.755499
O O2 0.793278 0.037057 0.492809
O O3 0.450390 0.760118 0.720296
O O4 0.736971 0.998978 0.999312
O O5 0.193275 0.525933 0.158003
O O6 0.314415 0.767496 0.216349
O O7 0.000000 0.500000 0.500000
O O8 0.000000 0.500000 0.000000
O O9 0.323525 0.213147 0.273056
O O10 0.310182 0.354500 0.371042
O O11 0.034669 0.106411 0.115384
O O12 0.437775 0.382859 0.897198
O O13 0.636734 0.818404 0.293671
O O14 0.346649 0.536166 0.539206
O O15 0.840267 0.641358 0.854177
O O16 0.850957 0.241221 0.399209
O O17 0.909673 0.272395 0.885471
#
# Coordination Sequence:
#
# PCOD9078267 Si02
#       8
#     2   2   2   2   2   2   2   2
#     4  10  21  36  58  84 109 145 186 239 281 323
#     4   8  16  31  55  84 114 143 178 227 278 329
#     4  11  23  40  56  82 108 155 198 238 282 328
#     4  10  23  40  60  79 110 150 198 238 275 323
#     4  10  24  38  57  78 116 152 193 236 283 329
#     4  11  24  37  57  81 120 150 188 234 288 343
#     4  10  21  36  56  86 118 149 181 230 287 333
#     4  10  18  35  60  88 115 143 187 231 276 337
#
# _framework density 28.302485999999998
#
# number of rings (size 3 to 8) (size 9 to 14) (size 15 to 20)
#    0.750    1.250    0.000    3.750    3.500    1.000 
#    0.000    0.000    0.000    0.750    0.000    1.750 
#    0.000    0.000    0.000    0.000    0.000    0.000 
#
# Total GULP energy -89646.063679 kJ/mol
# GULP energy per Si atom -5602.878980 kJ/mol
# Density = 2.823807 g / cm^3
# Si number density = 28.302486 Si / 1000 Ang^3
#
#
#
# Elastic Constant Matrix: (Units=GPa)
#
#
# Indices 1 2 3 4 5 6 
#
# 1 135.0350 42.6751 45.1521 -0.2664 5.8412 1.3189
# 2 42.6751 173.0108 20.6878 0.5545 -9.0988 -43.3149
# 3 45.1521 20.6878 146.6300 -6.4606 27.1970 12.3624
# 4 -0.2664 0.5545 -6.4606 41.0944 -11.4196 -1.0695
# 5 5.8412 -9.0988 27.1970 -11.4196 34.1330 4.2232
# 6 1.3189 -43.3149 12.3624 -1.0695 4.2232 65.8808
#
#
#
# Elastic Compliance Matrix: (Units=1/GPa)
#
#
# Indices 1 2 3 4 5 6 
#
# 1 0.008901 -0.002237 -0.002289 -0.000379 -0.000273 -0.001208
# 2 -0.002237 0.008030 -0.001474 0.000692 0.003261 0.005403
# 3 -0.002289 -0.001474 0.009246 -0.000629 -0.007306 -0.002200
# 4 -0.000379 0.000692 -0.000629 0.026933 0.009712 0.000395
# 5 -0.000273 0.003261 -0.007306 0.009712 0.039139 0.001169
# 6 -0.001208 0.005403 -0.002200 0.000395 0.001169 0.019100
#
#
# Mechanical properties :
#
#
# Convention : Reuss Voigt Hill
#
# Bulk Modulus (GPa) = 70.54475 74.63399 72.58937
# Shear Modulus (GPa) = 39.03949 51.29905 45.16927
#
# Velocity S-wave (km/s) = 3.71801 4.26200 3.99926
# Velocity P-wave (km/s) = 6.58869 7.11666 6.85776
#
# Compressibility (1/GPa) = 0.01417540
#
# Stress axis : x y z
#
# Youngs Moduli (GPa) = 112.34742 124.53132 108.15755
#
# Poissons Ratio (x) = 0.27863 0.24762
# Poissons Ratio (y) = 0.25137 0.15941
# Poissons Ratio (z) = 0.25721 0.18354
#
# Static dielectric constant tensor:
#      x y z
#    x 2.030620 -0.056400 -0.033480 
#    y -0.056400 2.320430 0.097850 
#    z -0.033480 0.097850 2.240970 
# 
# From -- ./inp_files/97158.got.cif
#   From: 2010.05.17/outbox.cif.g08.bks.cpg/sg2_49_cif.got.tgz:97158.got - 2010.06.03 11:33:40.
