data_PCOD9078509
_publ_section_title
;
Structure prediction by ZEFSAII (Michael W. Deem and Ramdas Pophale) SiO2 
 PCOD9078509
Probable space group: P -1
;
_chemical_formula_sum "Si O2"
_cell_formula_units_Z 16
_cell_length_a 9.506734
_cell_length_b 19.271133
_cell_length_c 11.603623
_cell_angle_alpha 127.359873
_cell_angle_beta 56.206910
_cell_angle_gamma 156.482145
_cell_volume 674.252414
_symmetry_space_group_name_H-M "P -1"
_symmetry_group_IT_number 2
_symmetry_cell_setting 'triclinic'
loop_
_space_group_symop_operation_xyz
x,y,z
-x,-y,-z
loop_
_atom_site_type_symbol
_atom_site_label
_atom_site_fract_x
_atom_site_fract_y
_atom_site_fract_z
Si Si1 0.541942 0.614756 0.044984
Si Si2 0.734811 0.161031 0.465860
Si Si3 0.851863 0.338246 0.943642
Si Si4 0.857516 0.674577 0.350780
Si Si5 0.483165 0.259617 0.215574
Si Si6 0.839209 0.734655 0.794964
Si Si7 0.762183 0.829892 0.513779
Si Si8 0.273564 0.639543 0.351035
O O1 0.528617 0.689730 0.213752
O O2 0.500000 0.500000 0.000000
O O3 0.831399 0.756741 0.955375
O O4 0.166166 0.449286 0.989787
O O5 0.638761 0.218292 0.555706
O O6 0.108045 0.323132 0.526394
O O7 0.805678 0.145758 0.297114
O O8 0.500000 0.000000 0.500000
O O9 0.867556 0.273855 0.771590
O O10 0.523896 0.203775 0.042064
O O11 0.000000 0.500000 0.000000
O O12 0.468896 0.477241 0.284584
O O13 0.914885 0.800600 0.416975
O O14 0.311089 0.258748 0.215797
O O15 0.264057 0.150420 0.322167
O O16 0.881478 0.454509 0.284400
O O17 0.377188 0.658334 0.453480
O O18 0.000000 0.000000 0.500000
#
# Coordination Sequence:
#
# PCOD9078509 Si02
#       8
#     2   2   2   2   2   2   2   2
#     4  10  21  38  62  96 128 151 200 270 317 360
#     4  12  24  38  59  92 129 162 206 258 304 368
#     4  10  18  35  63  98 118 149 204 265 311 360
#     4  11  20  40  66  89 122 163 207 254 312 368
#     4  11  21  40  68  95 121 160 214 263 305 372
#     4  11  21  40  69  95 120 161 211 261 317 364
#     4  12  26  42  59  90 135 174 203 251 314 370
#     4  11  23  40  63  95 123 162 215 256 306 367
#
# _framework density 23.729986
#
# number of rings (size 3 to 8) (size 9 to 14) (size 15 to 20)
#    0.000    1.000    5.000    4.500    0.000    2.000 
#    0.000    2.500    0.000    0.000    0.000    0.000 
#    0.000    0.000    0.000    0.000    0.000    0.000 
#
# Total GULP energy -89235.352746 kJ/mol
# GULP energy per Si atom -5577.209547 kJ/mol
# Density = 2.367598 g / cm^3
# Si number density = 23.729986 Si / 1000 Ang^3
#
#
#
# Elastic Constant Matrix: (Units=GPa)
#
#
# Indices 1 2 3 4 5 6 
#
# 1 176.1068 16.5789 50.6758 -10.2335 -18.0903 -31.3569
# 2 16.5789 70.5245 43.8452 -26.2545 -19.3028 -14.0717
# 3 50.6758 43.8452 159.3138 -55.4809 -25.9718 -24.1668
# 4 -10.2335 -26.2545 -55.4809 38.0869 3.9692 14.3191
# 5 -18.0903 -19.3028 -25.9718 3.9692 45.2912 2.8828
# 6 -31.3569 -14.0717 -24.1668 14.3191 2.8828 26.3432
#
#
#
# Elastic Compliance Matrix: (Units=1/GPa)
#
#
# Indices 1 2 3 4 5 6 
#
# 1 0.008111 0.000122 -0.002891 -0.005907 0.001508 0.010114
# 2 0.000122 0.021940 0.000695 0.013754 0.008331 0.004115
# 3 -0.002891 0.000695 0.015534 0.022291 0.006198 -0.001614
# 4 -0.005907 0.013754 0.022291 0.073034 0.011168 -0.020155
# 5 0.001508 0.008331 0.006198 0.011168 0.028634 0.002728
# 6 0.010114 0.004115 -0.001614 -0.020155 0.002728 0.061374
#
#
# Mechanical properties :
#
#
# Convention : Reuss Voigt Hill
#
# Bulk Modulus (GPa) = 24.13220 69.79386 46.96303
# Shear Modulus (GPa) = 22.06658 41.60062 31.83360
#
# Velocity S-wave (km/s) = 3.05274 4.19152 3.66661
# Velocity P-wave (km/s) = 4.75575 7.27329 6.14483
#
# Compressibility (1/GPa) = 0.04143840
#
# Stress axis : x y z
#
# Youngs Moduli (GPa) = 123.28619 45.57846 64.37686
#
# Poissons Ratio (x) = -0.00557 0.18609
# Poissons Ratio (y) = -0.01507 -0.04475
# Poissons Ratio (z) = 0.35638 -0.03168
#
# Static dielectric constant tensor:
#      x y z
#    x 1.838900 0.069080 0.002640 
#    y 0.069080 2.001220 -0.005060 
#    z 0.002640 -0.005060 2.082710 
# 
# From -- ./inp_files/402126.got.cif
#   From: 2010.05.17/outbox.cif.g08.bks.cpg/sg2_202_cif.got.tgz:402126.got - 2010.06.03 11:33:40.
