data_PCOD9078822
_publ_section_title
;
Structure prediction by ZEFSAII (Michael W. Deem and Ramdas Pophale) SiO2 
 PCOD9078822
Probable space group: P -1
;
_chemical_formula_sum "Si O2"
_cell_formula_units_Z 16
_cell_length_a 14.656998
_cell_length_b 10.491103
_cell_length_c 7.844772
_cell_angle_alpha 116.902635
_cell_angle_beta 131.906597
_cell_angle_gamma 48.489515
_cell_volume 672.163520
_symmetry_space_group_name_H-M "P -1"
_symmetry_group_IT_number 2
_symmetry_cell_setting 'triclinic'
loop_
_space_group_symop_operation_xyz
x,y,z
-x,-y,-z
loop_
_atom_site_type_symbol
_atom_site_label
_atom_site_fract_x
_atom_site_fract_y
_atom_site_fract_z
Si Si1 0.136904 0.529255 0.307039
Si Si2 0.731640 0.854412 0.651813
Si Si3 0.125826 0.834783 0.663995
Si Si4 0.369483 0.800729 0.727178
Si Si5 0.450675 0.012491 0.176688
Si Si6 0.898148 0.624023 0.297808
Si Si7 0.884345 0.932058 0.642840
Si Si8 0.337812 0.394264 0.164154
O O1 0.214000 0.337869 0.355126
O O2 0.142917 0.660861 0.519397
O O3 0.225885 0.523806 0.246485
O O4 0.966574 0.591648 0.171072
O O5 0.614113 0.912418 0.389753
O O6 0.858089 0.879428 0.761347
O O7 0.649653 0.972869 0.781396
O O8 0.280260 0.800533 0.779351
O O9 0.047668 0.884047 0.780928
O O10 0.000000 0.000000 0.500000
O O11 0.515860 0.626407 0.741232
O O12 0.248952 0.883908 0.475339
O O13 0.423252 0.923040 0.933183
O O14 0.401558 0.206451 0.207549
O O15 0.864657 0.807061 0.417191
O O16 0.000000 0.500000 0.500000
O O17 0.766085 0.597242 0.109319
#
# Coordination Sequence:
#
# PCOD9078822 Si02
#       8
#     2   2   2   2   2   2   2   2
#     4  10  22  37  57  86 117 148 193 234 289 340
#     4  10  19  34  58  91 118 142 179 249 299 327
#     4   9  22  39  58  80 112 159 201 226 275 348
#     4  11  20  37  60  82 113 156 198 226 277 350
#     4  10  20  33  57  91 119 143 185 237 296 342
#     4  11  20  33  55  85 119 145 180 240 294 333
#     4  10  18  36  59  83 111 149 191 232 286 341
#     4  11  21  34  59  88 117 147 190 244 282 338
#
# _framework density 23.803733999999999
#
# number of rings (size 3 to 8) (size 9 to 14) (size 15 to 20)
#    0.000    1.750    3.750    1.500    0.000    0.500 
#    0.000    1.250    0.000    0.000    0.000    0.000 
#    0.000    0.000    0.000    0.000    0.000    0.000 
#
# Total GULP energy -89183.018291 kJ/mol
# GULP energy per Si atom -5573.938643 kJ/mol
# Density = 2.374956 g / cm^3
# Si number density = 23.803734 Si / 1000 Ang^3
#
#
#
# Elastic Constant Matrix: (Units=GPa)
#
#
# Indices 1 2 3 4 5 6 
#
# 1 188.4143 11.9007 3.3327 3.7021 21.1046 -39.0489
# 2 11.9007 51.8558 20.3920 -2.5980 8.2877 -8.5561
# 3 3.3327 20.3920 38.2541 -12.5534 6.4100 -4.6550
# 4 3.7021 -2.5980 -12.5534 27.7912 -4.6752 -1.8642
# 5 21.1046 8.2877 6.4100 -4.6752 29.4928 -2.1728
# 6 -39.0489 -8.5561 -4.6550 -1.8642 -2.1728 44.3035
#
#
#
# Elastic Compliance Matrix: (Units=1/GPa)
#
#
# Indices 1 2 3 4 5 6 
#
# 1 0.007131 -0.000173 0.000675 -0.001085 -0.004928 0.006035
# 2 -0.000173 0.025873 -0.014133 -0.004514 -0.004574 0.002945
# 3 0.000675 -0.014133 0.039673 0.016287 -0.002360 0.002603
# 4 -0.001085 -0.004514 0.016287 0.044148 0.005652 0.002018
# 5 -0.004928 -0.004574 -0.002360 0.005652 0.039886 -0.003281
# 6 0.006035 0.002945 0.002603 0.002018 -0.003281 0.028657
#
#
# Mechanical properties :
#
#
# Convention : Reuss Voigt Hill
#
# Bulk Modulus (GPa) = 22.01986 38.86389 30.44187
# Shear Modulus (GPa) = 21.95215 36.51075 29.23145
#
# Velocity S-wave (km/s) = 3.04009 3.92066 3.50811
# Velocity P-wave (km/s) = 4.64689 6.07105 5.40607
#
# Compressibility (1/GPa) = 0.04541356
#
# Stress axis : x y z
#
# Youngs Moduli (GPa) = 140.24257 38.65102 25.20581
#
# Poissons Ratio (x) = 0.00668 -0.01701
# Poissons Ratio (y) = 0.02424 0.35625
# Poissons Ratio (z) = -0.09465 0.54627
#
# Static dielectric constant tensor:
#      x y z
#    x 2.101870 -0.054180 0.033110 
#    y -0.054180 1.960400 -0.029250 
#    z 0.033110 -0.029250 1.940670 
# 
# From -- ./inp_files/305602.got.cif
#   From: 2010.05.17/outbox.cif.g08.bks.cpg/sg2_153_cif.got.tgz:305602.got - 2010.06.03 11:33:40.
