data_PCOD9078751
_publ_section_title
;
Structure prediction by ZEFSAII (Michael W. Deem and Ramdas Pophale) SiO2 
 PCOD9078751
Probable space group: P -1
;
_chemical_formula_sum "Si O2"
_cell_formula_units_Z 14
_cell_length_a 11.288633
_cell_length_b 9.091602
_cell_length_c 10.403932
_cell_angle_alpha 124.396464
_cell_angle_beta 111.875731
_cell_angle_gamma 108.311806
_cell_volume 595.531865
_symmetry_space_group_name_H-M "P -1"
_symmetry_group_IT_number 2
_symmetry_cell_setting 'triclinic'
loop_
_space_group_symop_operation_xyz
x,y,z
-x,-y,-z
loop_
_atom_site_type_symbol
_atom_site_label
_atom_site_fract_x
_atom_site_fract_y
_atom_site_fract_z
Si Si1 0.638014 0.832291 0.793232
Si Si2 0.631494 0.933943 0.122972
Si Si3 0.767447 0.289039 0.681371
Si Si4 0.835268 0.461629 0.374854
Si Si5 0.048558 0.838766 0.446581
Si Si6 0.765029 0.603907 0.653904
Si Si7 0.387775 0.827461 0.173256
O O1 0.781284 0.822343 0.810489
O O2 0.447485 0.621004 0.547869
O O3 0.689186 0.075202 0.883734
O O4 0.613492 0.805612 0.923038
O O5 0.675698 0.179810 0.214841
O O6 0.795297 0.027262 0.319412
O O7 0.463809 0.768768 0.065959
O O8 0.878995 0.214063 0.668104
O O9 0.835378 0.516701 0.732764
O O10 0.737473 0.328682 0.833704
O O11 0.575117 0.058279 0.431056
O O12 0.829682 0.624703 0.547771
O O13 0.000000 0.500000 0.500000
O O14 0.883251 0.576139 0.310199
O O15 0.000000 0.000000 0.500000
#
# Coordination Sequence:
#
# PCOD9078751 Si02
#       7
#     2   2   2   2   2   2   2
#     4  10  20  33  58  86 115 135 193 229 277 329
#     4  10  19  38  57  85 109 148 183 234 276 323
#     4   9  17  34  53  79 111 144 180 224 279 326
#     4  10  18  36  58  78 109 150 190 217 272 329
#     4  10  21  36  60  81 108 151 192 223 271 334
#     4  10  19  35  56  88 109 151 180 229 278 332
#     4   9  17  31  55  82 108 141 176 229 280 324
#
# _framework density 23.508396999999999
#
# number of rings (size 3 to 8) (size 9 to 14) (size 15 to 20)
#    0.000    2.286    5.714    0.429    2.000    0.000 
#    2.571    5.000    0.000    1.714    0.000    0.000 
#    0.000    0.000    0.000    0.000    0.000    0.000 
#
# Total GULP energy -78120.039644 kJ/mol
# GULP energy per Si atom -5580.002832 kJ/mol
# Density = 2.345489 g / cm^3
# Si number density = 23.508397 Si / 1000 Ang^3
#
#
#
# Elastic Constant Matrix: (Units=GPa)
#
#
# Indices 1 2 3 4 5 6 
#
# 1 162.2068 45.5984 38.9313 1.0939 -25.3623 -9.3508
# 2 45.5984 57.4913 13.2952 -5.1295 -0.1200 2.8486
# 3 38.9313 13.2952 44.1774 -9.2548 0.6184 3.1602
# 4 1.0939 -5.1295 -9.2548 20.8883 11.2873 -11.8503
# 5 -25.3623 -0.1200 0.6184 11.2873 48.4138 -0.0623
# 6 -9.3508 2.8486 3.1602 -11.8503 -0.0623 35.6115
#
#
#
# Elastic Compliance Matrix: (Units=1/GPa)
#
#
# Indices 1 2 3 4 5 6 
#
# 1 0.013298 -0.008975 -0.011990 -0.013202 0.010176 0.000898
# 2 -0.008975 0.024867 0.002973 0.011383 -0.007333 -0.000835
# 3 -0.011990 0.002973 0.037830 0.026167 -0.012855 0.001942
# 4 -0.013202 0.011383 0.026167 0.091956 -0.028630 0.023851
# 5 0.010176 -0.007333 -0.012855 -0.028630 0.032801 -0.005070
# 6 0.000898 -0.000835 0.001942 0.023851 -0.005070 0.036139
#
#
# Mechanical properties :
#
#
# Convention : Reuss Voigt Hill
#
# Bulk Modulus (GPa) = 24.99381 51.05839 38.02610
# Shear Modulus (GPa) = 17.46957 32.05274 24.76116
#
# Velocity S-wave (km/s) = 2.72898 3.69651 3.24896
# Velocity P-wave (km/s) = 4.53704 6.32339 5.50318
#
# Compressibility (1/GPa) = 0.04000991
#
# Stress axis : x y z
#
# Youngs Moduli (GPa) = 75.20097 40.21434 26.43381
#
# Poissons Ratio (x) = 0.36094 0.31694
# Poissons Ratio (y) = 0.67495 -0.07858
# Poissons Ratio (z) = 0.90165 -0.11955
#
# Static dielectric constant tensor:
#      x y z
#    x 1.893890 0.020950 0.024080 
#    y 0.020950 1.897560 0.041270 
#    z 0.024080 0.041270 2.043790 
# 
# From -- ./inp_files/176661.got.cif
#   From: 2010.05.17/outbox.cif.g08.bks.cpg/sg2_89_cif.got.tgz:176661.got - 2010.06.03 11:33:40.
