data_PCOD9078498
_publ_section_title
;
Structure prediction by ZEFSAII (Michael W. Deem and Ramdas Pophale) SiO2 
 PCOD9078498
Probable space group: P -1
;
_chemical_formula_sum "Si O2"
_cell_formula_units_Z 16
_cell_length_a 12.944126
_cell_length_b 12.383013
_cell_length_c 8.657882
_cell_angle_alpha 50.973578
_cell_angle_beta 134.213013
_cell_angle_gamma 124.727920
_cell_volume 751.165077
_symmetry_space_group_name_H-M "P -1"
_symmetry_group_IT_number 2
_symmetry_cell_setting 'triclinic'
loop_
_space_group_symop_operation_xyz
x,y,z
-x,-y,-z
loop_
_atom_site_type_symbol
_atom_site_label
_atom_site_fract_x
_atom_site_fract_y
_atom_site_fract_z
Si Si1 0.189965 0.901137 0.727303
Si Si2 0.804850 0.275255 0.537291
Si Si3 0.558336 0.443225 0.770165
Si Si4 0.765287 0.019262 0.954654
Si Si5 0.713558 0.514639 0.404908
Si Si6 0.830644 0.427927 0.921657
Si Si7 0.060428 0.195553 0.689119
Si Si8 0.557810 0.136279 0.154448
O O1 0.352975 0.955113 0.773974
O O2 0.058976 0.894568 0.475174
O O3 0.182296 0.971512 0.820711
O O4 0.178406 0.734031 0.897825
O O5 0.793619 0.172259 0.766367
O O6 0.771163 0.425753 0.412167
O O7 0.676849 0.203443 0.348788
O O8 0.961593 0.271800 0.626703
O O9 0.500000 0.500000 0.500000
O O10 0.461637 0.489617 0.764622
O O11 0.737645 0.490023 0.900515
O O12 0.524425 0.270480 0.903651
O O13 0.590643 0.951953 0.843638
O O14 0.852203 0.916237 0.049462
O O15 0.748499 0.441045 0.665158
O O16 0.812171 0.676810 0.364346
O O17 0.000000 0.500000 0.000000
#
# Coordination Sequence:
#
# PCOD9078498 Si02
#       8
#     2   2   2   2   2   2   2   2
#     4  10  21  38  64  90 118 157 204 252 306 367
#     4  11  25  40  62  87 126 168 207 243 304 367
#     4   9  20  37  62  92 122 153 197 259 306 347
#     4  12  22  42  63  87 123 165 205 252 304 362
#     4  11  20  40  62  86 122 165 200 247 306 364
#     4  10  18  35  63  92 123 150 195 256 313 348
#     4  11  23  40  61  90 124 157 205 261 306 351
#     4  10  22  41  62  90 122 162 202 253 302 363
#
# _framework density 21.300245
#
# number of rings (size 3 to 8) (size 9 to 14) (size 15 to 20)
#    0.000    1.500    3.750    1.875    0.000    0.500 
#    0.000    0.000    2.750    0.000    0.000    0.000 
#    0.000    0.000    0.000    0.000    0.000    0.000 
#
# Total GULP energy -89237.276207 kJ/mol
# GULP energy per Si atom -5577.329763 kJ/mol
# Density = 2.125176 g / cm^3
# Si number density = 21.300245 Si / 1000 Ang^3
#
#
#
# Elastic Constant Matrix: (Units=GPa)
#
#
# Indices 1 2 3 4 5 6 
#
# 1 150.3423 32.7273 28.2766 11.4260 46.6676 5.6036
# 2 32.7273 25.4617 6.0974 3.6463 20.0119 0.3252
# 3 28.2766 6.0974 40.6354 -8.5361 18.4068 1.4151
# 4 11.4260 3.6463 -8.5361 17.8824 -4.9452 2.5503
# 5 46.6676 20.0119 18.4068 -4.9452 41.8727 0.9614
# 6 5.6036 0.3252 1.4151 2.5503 0.9614 35.5843
#
#
#
# Elastic Compliance Matrix: (Units=1/GPa)
#
#
# Indices 1 2 3 4 5 6 
#
# 1 0.013593 -0.004734 -0.006339 -0.013915 -0.011732 -0.000531
# 2 -0.004734 0.074262 0.003245 -0.020328 -0.034096 0.002316
# 3 -0.006339 0.003245 0.036201 0.018638 -0.008162 -0.001586
# 4 -0.013915 -0.020328 0.018638 0.086163 0.027327 -0.005278
# 5 -0.011732 -0.034096 -0.008162 0.027327 0.060093 -0.001098
# 6 -0.000531 0.002316 -0.001586 -0.005278 -0.001098 0.028636
#
#
# Mechanical properties :
#
#
# Convention : Reuss Voigt Hill
#
# Bulk Modulus (GPa) = 9.22510 38.96020 24.09265
# Shear Modulus (GPa) = 14.25571 29.02375 21.63973
#
# Velocity S-wave (km/s) = 2.58984 3.69535 3.19084
# Velocity P-wave (km/s) = 3.64464 6.04468 4.99107
#
# Compressibility (1/GPa) = 0.10839997
#
# Stress axis : x y z
#
# Youngs Moduli (GPa) = 73.56614 13.46590 27.62371
#
# Poissons Ratio (x) = 0.06374 0.17510
# Poissons Ratio (y) = 0.34824 -0.08963
# Poissons Ratio (z) = 0.46632 -0.04369
#
# Static dielectric constant tensor:
#      x y z
#    x 1.871690 -0.013870 0.023550 
#    y -0.013870 1.745870 0.035040 
#    z 0.023550 0.035040 1.765240 
# 
# From -- ./inp_files/179062.got.cif
#   From: 2010.05.17/outbox.cif.g08.bks.cpg/sg2_90_cif.got.tgz:179062.got - 2010.06.03 11:33:40.
