data_PCOD9078876
_publ_section_title
;
Structure prediction by ZEFSAII (Michael W. Deem and Ramdas Pophale) SiO2 
 PCOD9078876
Probable space group: P -1
;
_chemical_formula_sum "Si O2"
_cell_formula_units_Z 15
_cell_length_a 5.058366
_cell_length_b 14.031361
_cell_length_c 9.234750
_cell_angle_alpha 104.886223
_cell_angle_beta 84.302692
_cell_angle_gamma 120.140134
_cell_volume 547.456982
_symmetry_space_group_name_H-M "P -1"
_symmetry_group_IT_number 2
_symmetry_cell_setting 'triclinic'
loop_
_space_group_symop_operation_xyz
x,y,z
-x,-y,-z
loop_
_atom_site_type_symbol
_atom_site_label
_atom_site_fract_x
_atom_site_fract_y
_atom_site_fract_z
Si Si1 0.897355 0.682238 0.589010
Si Si2 0.398137 0.246211 0.114466
Si Si3 0.606677 0.448365 0.656247
Si Si4 0.990408 0.828922 0.157748
Si Si5 0.133591 0.511892 0.839084
Si Si6 0.220853 0.869769 0.470493
Si Si7 0.500000 0.000000 0.000000
Si Si8 0.996321 0.940975 0.760657
O O1 0.813181 0.730944 0.753188
O O2 0.823620 0.557393 0.588370
O O3 0.634253 0.649512 0.469704
O O4 0.221214 0.774752 0.540537
O O5 0.728720 0.354909 0.159615
O O6 0.291411 0.117945 0.132134
O O7 0.300715 0.252130 0.956933
O O8 0.404731 0.483591 0.785179
O O9 0.843272 0.429163 0.726844
O O10 0.106022 0.811355 0.298077
O O11 0.260668 0.878279 0.047359
O O12 0.949142 0.936499 0.232880
O O13 0.000000 0.500000 0.000000
O O14 0.973413 0.885249 0.585578
O O15 0.500000 0.000000 0.500000
O O16 0.281564 0.960315 0.848154
#
# Coordination Sequence:
#
# PCOD9078876 Si02
#       8
#     2   2   2   2   2   2   1   2
#     4   9  22  43  69  97 131 182 226 281 340 409
#     4   9  21  40  62  95 130 173 224 277 342 409
#     4  10  23  47  75  97 138 184 232 278 341 412
#     4  11  22  39  63  93 132 173 221 273 335 397
#     4  11  24  45  70 109 139 174 225 291 345 403
#     4  11  22  41  64  97 136 170 225 281 336 398
#     4  10  18  36  60  80 126 166 214 266 310 400
#     4  10  21  41  60  92 125 181 221 268 328 404
#
# _framework density 27.399412999999999
#
# number of rings (size 3 to 8) (size 9 to 14) (size 15 to 20)
#    0.000    1.867    1.333    2.400    1.867    5.867 
#   19.200    2.667    0.000    0.000    0.000    0.000 
#    0.000    0.000    0.000    0.000    0.000    0.000 
#
# Total GULP energy -83647.804539 kJ/mol
# GULP energy per Si atom -5576.520303 kJ/mol
# Density = 2.733705 g / cm^3
# Si number density = 27.399413 Si / 1000 Ang^3
#
#
#
# Elastic Constant Matrix: (Units=GPa)
#
#
# Indices 1 2 3 4 5 6 
#
# 1 77.4200 13.0936 19.2342 -10.9706 8.6139 20.4071
# 2 13.0936 137.9483 36.1201 -3.7887 3.3522 18.4833
# 3 19.2342 36.1201 134.4991 -1.8690 -10.4673 11.3732
# 4 -10.9706 -3.7887 -1.8690 49.7549 6.4846 6.6250
# 5 8.6139 3.3522 -10.4673 6.4846 26.2731 5.8183
# 6 20.4071 18.4833 11.3732 6.6250 5.8183 20.9156
#
#
#
# Elastic Compliance Matrix: (Units=1/GPa)
#
#
# Indices 1 2 3 4 5 6 
#
# 1 0.020517 0.001800 -0.001836 0.008133 -0.004860 -0.021834
# 2 0.001800 0.008880 -0.001933 0.002339 -0.001079 -0.008993
# 3 -0.001836 -0.001933 0.008816 -0.000543 0.005055 -0.002528
# 4 0.008133 0.002339 -0.000543 0.024934 -0.005794 -0.015992
# 5 -0.004860 -0.001079 0.005055 -0.005794 0.044947 -0.007722
# 6 -0.021834 -0.008993 -0.002528 -0.015992 -0.007722 0.085650
#
#
# Mechanical properties :
#
#
# Convention : Reuss Voigt Hill
#
# Bulk Modulus (GPa) = 29.17610 54.08480 41.63045
# Shear Modulus (GPa) = 23.91119 38.15002 31.03061
#
# Velocity S-wave (km/s) = 2.95734 3.73549 3.36896
# Velocity P-wave (km/s) = 4.72575 6.19576 5.51000
#
# Compressibility (1/GPa) = 0.03427463
#
# Stress axis : x y z
#
# Youngs Moduli (GPa) = 48.74074 112.61508 113.42474
#
# Poissons Ratio (x) = -0.20276 0.20830
# Poissons Ratio (y) = -0.08776 0.21927
# Poissons Ratio (z) = 0.08951 0.21771
#
# Static dielectric constant tensor:
#      x y z
#    x 2.676460 -0.377790 -0.131530 
#    y -0.377790 2.458400 0.059550 
#    z -0.131530 0.059550 2.120010 
# 
# From -- ./inp_files/139156.got.cif
#   From: 2010.05.17/outbox.cif.g08.bks.cpg/sg2_70_cif.got.tgz:139156.got - 2010.06.03 11:33:40.
