data_PCOD9078477
_publ_section_title
;
Structure prediction by ZEFSAII (Michael W. Deem and Ramdas Pophale) SiO2 
 PCOD9078477
Probable space group: P -1
;
_chemical_formula_sum "Si O2"
_cell_formula_units_Z 12
_cell_length_a 7.608853
_cell_length_b 9.149805
_cell_length_c 13.566227
_cell_angle_alpha 42.086815
_cell_angle_beta 121.230710
_cell_angle_gamma 98.434854
_cell_volume 492.381133
_symmetry_space_group_name_H-M "P -1"
_symmetry_group_IT_number 2
_symmetry_cell_setting 'triclinic'
loop_
_space_group_symop_operation_xyz
x,y,z
-x,-y,-z
loop_
_atom_site_type_symbol
_atom_site_label
_atom_site_fract_x
_atom_site_fract_y
_atom_site_fract_z
Si Si1 0.708329 0.895990 0.420556
Si Si2 0.780400 0.003767 0.804742
Si Si3 0.533556 0.234406 0.920984
Si Si4 0.032276 0.940016 0.721747
Si Si5 0.204276 0.625567 0.229456
Si Si6 0.295684 0.623670 0.801232
O O1 0.742630 0.647743 0.601750
O O2 0.466521 0.981123 0.253207
O O3 0.913364 0.863683 0.421576
O O4 0.684672 0.134986 0.354020
O O5 0.821962 0.996516 0.702979
O O6 0.809241 0.231738 0.744570
O O7 0.972046 0.774790 0.028267
O O8 0.594679 0.350359 0.785694
O O9 0.329647 0.430491 0.824733
O O10 0.756621 0.158143 0.091851
O O11 0.500000 0.000000 0.000000
O O12 0.079783 0.735615 0.754755
O O13 0.500000 0.500000 0.000000
#
# Coordination Sequence:
#
# PCOD9078477 Si02
#       6
#     2   2   2   2   2   2
#     4  10  20  39  65  89 125 170 203 264 313 363
#     4  10  20  39  61  92 130 164 205 258 317 370
#     4  10  18  35  63  89 124 168 201 256 324 365
#     4   8  19  37  60  89 120 167 209 246 313 380
#     4  10  22  35  60 102 123 156 224 257 303 380
#     4   8  18  37  62  87 120 171 208 245 321 379
#
# _framework density 24.371365999999998
#
# number of rings (size 3 to 8) (size 9 to 14) (size 15 to 20)
#    1.000    1.667    0.000    1.500    0.000    1.333 
#    0.000   14.167    0.000    2.000    0.000    0.000 
#    0.000    0.000    0.000    0.000    0.000    0.000 
#
# Total GULP energy -67049.569629 kJ/mol
# GULP energy per Si atom -5587.464136 kJ/mol
# Density = 2.431590 g / cm^3
# Si number density = 24.371366 Si / 1000 Ang^3
#
#
#
# Elastic Constant Matrix: (Units=GPa)
#
#
# Indices 1 2 3 4 5 6 
#
# 1 91.3729 48.5950 45.6603 -8.3382 -10.4752 -5.9827
# 2 48.5950 172.0807 63.1851 -30.9009 -17.3248 -13.7956
# 3 45.6603 63.1851 82.6202 -34.3895 -7.4695 -3.5523
# 4 -8.3382 -30.9009 -34.3895 33.0930 9.3197 -3.2256
# 5 -10.4752 -17.3248 -7.4695 9.3197 45.3499 6.5919
# 6 -5.9827 -13.7956 -3.5523 -3.2256 6.5919 34.0114
#
#
#
# Elastic Compliance Matrix: (Units=1/GPa)
#
#
# Indices 1 2 3 4 5 6 
#
# 1 0.017832 -0.002154 -0.012968 -0.012160 0.003802 -0.000981
# 2 -0.002154 0.008822 -0.003761 0.003781 0.001046 0.002963
# 3 -0.012968 -0.003761 0.034905 0.031490 -0.005726 0.003935
# 4 -0.012160 0.003781 0.031490 0.067835 -0.011775 0.011399
# 5 0.003802 0.001046 -0.005726 -0.011775 0.025617 -0.005587
# 6 -0.000981 0.002963 0.003935 0.011399 -0.005587 0.033006
#
#
# Mechanical properties :
#
#
# Convention : Reuss Voigt Hill
#
# Bulk Modulus (GPa) = 42.02648 73.43940 57.73294
# Shear Modulus (GPa) = 21.39377 35.06641 28.23009
#
# Velocity S-wave (km/s) = 2.96602 3.79732 3.40712
# Velocity P-wave (km/s) = 5.38622 7.03029 6.26244
#
# Compressibility (1/GPa) = 0.02379452
#
# Stress axis : x y z
#
# Youngs Moduli (GPa) = 56.08035 113.35149 28.64920
#
# Poissons Ratio (x) = 0.24412 0.37151
# Poissons Ratio (y) = 0.12078 0.10775
# Poissons Ratio (z) = 0.72723 0.42630
#
# Static dielectric constant tensor:
#      x y z
#    x 1.941880 -0.031610 0.017140 
#    y -0.031610 1.908680 0.049480 
#    z 0.017140 0.049480 2.014100 
# 
# From -- ./inp_files/377799.got.cif
#   From: 2010.05.17/outbox.cif.g08.bks.cpg/sg2_189_cif.got.tgz:377799.got - 2010.06.03 11:33:40.
