data_PCOD9078207
_publ_section_title
;
Structure prediction by ZEFSAII (Michael W. Deem and Ramdas Pophale) SiO2 
 PCOD9078207
Probable space group: P -1
;
_chemical_formula_sum "Si O2"
_cell_formula_units_Z 16
_cell_length_a 8.978390
_cell_length_b 11.976057
_cell_length_c 22.266834
_cell_angle_alpha 38.992506
_cell_angle_beta 149.054831
_cell_angle_gamma 131.538061
_cell_volume 774.629817
_symmetry_space_group_name_H-M "P -1"
_symmetry_group_IT_number 2
_symmetry_cell_setting 'triclinic'
loop_
_space_group_symop_operation_xyz
x,y,z
-x,-y,-z
loop_
_atom_site_type_symbol
_atom_site_label
_atom_site_fract_x
_atom_site_fract_y
_atom_site_fract_z
Si Si1 0.802868 0.530029 0.012766
Si Si2 0.668462 0.863874 0.272393
Si Si3 0.518255 0.769488 0.901812
Si Si4 0.394215 0.401231 0.220301
Si Si5 0.796882 0.110254 0.468257
Si Si6 0.976860 0.753907 0.631664
Si Si7 0.489406 0.504519 0.565661
Si Si8 0.095242 0.373263 0.641670
O O1 0.782581 0.689290 0.987693
O O2 0.697584 0.583943 0.887206
O O3 0.589290 0.377403 0.026722
O O4 0.124591 0.453985 0.146447
O O5 0.550263 0.688317 0.338067
O O6 0.753745 0.801581 0.260925
O O7 0.974326 0.903994 0.393441
O O8 0.472261 0.038193 0.143994
O O9 0.263391 0.775405 0.761015
O O10 0.505623 0.201025 0.352383
O O11 0.664531 0.525427 0.278781
O O12 0.934318 0.237060 0.411095
O O13 0.774583 0.923843 0.505245
O O14 0.793878 0.585492 0.656867
O O15 0.500000 0.500000 0.500000
O O16 0.214672 0.633802 0.430622
O O17 0.000000 0.500000 0.500000
#
# Coordination Sequence:
#
# PCOD9078207 Si02
#       8
#     2   2   2   2   2   2   2   2
#     4  10  24  38  63  82 117 166 207 236 285 339
#     4  10  21  38  60  87 125 150 187 253 303 348
#     4  10  22  42  59  86 117 155 211 243 280 349
#     4  11  20  40  61  88 118 158 199 244 290 356
#     4  10  18  35  59  91 122 148 186 253 305 342
#     4  10  20  32  61  93 120 147 192 251 299 347
#     4  11  20  33  57  95 119 154 184 232 321 358
#     4  10  21  36  59  89 126 146 187 243 311 353
#
# _framework density 20.655028000000001
#
# number of rings (size 3 to 8) (size 9 to 14) (size 15 to 20)
#    0.000    1.750    5.000    0.000    3.500    1.000 
#    0.000    5.000    0.000    0.000    0.000    0.000 
#    0.000    0.000    0.000    0.000    0.000    0.000 
#
# Total GULP energy -89275.846040 kJ/mol
# GULP energy per Si atom -5579.740377 kJ/mol
# Density = 2.060802 g / cm^3
# Si number density = 20.655028 Si / 1000 Ang^3
#
#
#
# Elastic Constant Matrix: (Units=GPa)
#
#
# Indices 1 2 3 4 5 6 
#
# 1 91.5627 21.5444 18.3155 -21.9080 27.7190 -21.8157
# 2 21.5444 62.8311 8.1383 -23.2893 20.4166 -13.3886
# 3 18.3155 8.1383 58.1274 -21.7333 29.3540 -12.3377
# 4 -21.9080 -23.2893 -21.7333 35.3834 -13.2902 8.7152
# 5 27.7190 20.4166 29.3540 -13.2902 36.0891 -9.8387
# 6 -21.8157 -13.3886 -12.3377 8.7152 -9.8387 29.8023
#
#
#
# Elastic Compliance Matrix: (Units=1/GPa)
#
#
# Indices 1 2 3 4 5 6 
#
# 1 0.018036 0.003751 0.007573 0.009919 -0.015780 0.009913
# 2 0.003751 0.029350 0.015447 0.020647 -0.021984 0.009031
# 3 0.007573 0.015447 0.043140 0.024562 -0.037677 0.010722
# 4 0.009919 0.020647 0.024562 0.055297 -0.017628 0.004715
# 5 -0.015780 -0.021984 -0.037677 -0.017628 0.074430 -0.007298
# 6 0.009913 0.009031 0.010722 0.004715 -0.007298 0.045519
#
#
# Mechanical properties :
#
#
# Convention : Reuss Voigt Hill
#
# Bulk Modulus (GPa) = 6.94112 34.27973 20.61043
# Shear Modulus (GPa) = 19.21218 31.22316 25.21767
#
# Velocity S-wave (km/s) = 3.05314 3.89221 3.49792
# Velocity P-wave (km/s) = 3.97450 6.06889 5.12972
#
# Compressibility (1/GPa) = 0.14406894
#
# Stress axis : x y z
#
# Youngs Moduli (GPa) = 55.44382 34.07208 23.18026
#
# Poissons Ratio (x) = -0.12781 -0.17555
# Poissons Ratio (y) = -0.20798 -0.35807
# Poissons Ratio (z) = -0.41989 -0.52631
#
# Static dielectric constant tensor:
#      x y z
#    x 1.728840 -0.065980 -0.036450 
#    y -0.065980 1.699750 -0.108280 
#    z -0.036450 -0.108280 1.638080 
# 
# From -- ./inp_files/181578.got.cif
#   From: 2010.05.17/outbox.cif.g08.bks.cpg/sg2_91_cif.got.tgz:181578.got - 2010.06.03 11:33:40.
