data_PCOD9078062
_publ_section_title
;
Structure prediction by ZEFSAII (Michael W. Deem and Ramdas Pophale) SiO2 
 PCOD9078062
Probable space group: P -1
;
_chemical_formula_sum "Si O2"
_cell_formula_units_Z 16
_cell_length_a 23.163123
_cell_length_b 9.116612
_cell_length_c 23.846526
_cell_angle_alpha 31.287849
_cell_angle_beta 20.647582
_cell_angle_gamma 32.183530
_cell_volume 891.723004
_symmetry_space_group_name_H-M "P -1"
_symmetry_group_IT_number 2
_symmetry_cell_setting 'triclinic'
loop_
_space_group_symop_operation_xyz
x,y,z
-x,-y,-z
loop_
_atom_site_type_symbol
_atom_site_label
_atom_site_fract_x
_atom_site_fract_y
_atom_site_fract_z
Si Si1 0.632839 0.356981 0.333082
Si Si2 0.129392 0.576551 0.812663
Si Si3 0.680333 0.350129 0.911095
Si Si4 0.842813 0.755276 0.580386
Si Si5 0.836684 0.275738 0.058536
Si Si6 0.604724 0.984818 0.295754
Si Si7 0.047937 0.152747 0.227373
Si Si8 0.484682 0.044143 0.265692
O O1 0.748808 0.279747 0.308327
O O2 0.751456 0.320823 0.182850
O O3 0.536219 0.698032 0.317869
O O4 0.500851 0.158867 0.517644
O O5 0.039216 0.767844 0.780433
O O6 0.245487 0.280377 0.777654
O O7 0.000000 0.500000 0.000000
O O8 0.774433 0.611355 0.743313
O O9 0.787708 0.108398 0.850032
O O10 0.500000 0.500000 0.000000
O O11 0.634694 0.180136 0.061372
O O12 0.690486 0.821875 0.651476
O O13 0.000000 0.500000 0.500000
O O14 0.918098 0.037340 0.422317
O O15 0.694383 0.212031 0.167772
O O16 0.898331 0.562826 0.893948
O O17 0.000000 0.000000 0.000000
O O18 0.486197 0.095045 0.313956
#
# Coordination Sequence:
#
# PCOD9078062 Si02
#       8
#     2   2   2   2   2   2   2   2
#     4  11  21  35  53  81 114 150 191 220 267 332
#     4  11  18  33  55  82 112 147 183 226 269 327
#     4   9  18  33  55  82 102 130 187 240 275 312
#     4   9  19  32  57  86 102 132 186 247 275 315
#     4  12  23  36  51  79 122 158 180 213 269 350
#     4  11  22  34  51  82 117 152 184 214 268 346
#     4  11  18  34  53  79 114 145 178 224 286 314
#     4  10  18  35  58  82 108 140 181 234 281 313
#
# _framework density 17.942791
#
# number of rings (size 3 to 8) (size 9 to 14) (size 15 to 20)
#    0.000    1.500    3.750    4.125    0.000    0.000 
#    0.000    0.000    0.000    7.500    0.000    0.000 
#    0.000    0.000    0.000    0.000    0.000    0.000 
#
# Total GULP energy -89182.755200 kJ/mol
# GULP energy per Si atom -5573.922200 kJ/mol
# Density = 1.790195 g / cm^3
# Si number density = 17.942791 Si / 1000 Ang^3
#
#
#
# Elastic Constant Matrix: (Units=GPa)
#
#
# Indices 1 2 3 4 5 6 
#
# 1 53.9410 26.6469 22.9026 -8.5183 -18.1341 8.7403
# 2 26.6469 67.8265 32.3813 -8.6443 -15.8353 -5.0874
# 3 22.9026 32.3813 158.2669 -40.2033 -8.4332 6.2261
# 4 -8.5183 -8.6443 -40.2033 37.3421 -2.3112 -6.8809
# 5 -18.1341 -15.8353 -8.4332 -2.3112 24.4164 -0.4059
# 6 8.7403 -5.0874 6.2261 -6.8809 -0.4059 23.2367
#
#
#
# Elastic Compliance Matrix: (Units=1/GPa)
#
#
# Indices 1 2 3 4 5 6 
#
# 1 0.031439 -0.008404 -0.000497 0.003555 0.017862 -0.012167
# 2 -0.008404 0.022129 -0.002615 0.002634 0.007616 0.009620
# 3 -0.000497 -0.002615 0.009482 0.009613 0.002119 -0.000043
# 4 0.003555 0.002634 0.009613 0.040930 0.011693 0.008988
# 5 0.017862 0.007616 0.002119 0.011693 0.060983 -0.001091
# 6 -0.012167 0.009620 -0.000043 0.008988 -0.001091 0.052372
#
#
# Mechanical properties :
#
#
# Convention : Reuss Voigt Hill
#
# Bulk Modulus (GPa) = 24.98770 49.32177 37.15474
# Shear Modulus (GPa) = 19.70796 30.20595 24.95696
#
# Velocity S-wave (km/s) = 3.31777 4.10745 3.73355
# Velocity P-wave (km/s) = 5.35102 7.07410 6.27201
#
# Compressibility (1/GPa) = 0.04001969
#
# Stress axis : x y z
#
# Youngs Moduli (GPa) = 31.80755 45.18994 105.46459
#
# Poissons Ratio (x) = 0.37976 0.05237
# Poissons Ratio (y) = 0.26730 0.27578
# Poissons Ratio (z) = 0.01579 0.11817
#
# Static dielectric constant tensor:
#      x y z
#    x 1.612920 -0.027030 0.004560 
#    y -0.027030 1.607720 -0.021170 
#    z 0.004560 -0.021170 1.692450 
# 
# From -- ./inp_files/176417.got.cif
#   From: 2010.05.17/outbox.cif.g08.bks.cpg/sg2_89_cif.got.tgz:176417.got - 2010.06.03 11:33:40.
