data_PCOD9078331
_publ_section_title
;
Structure prediction by ZEFSAII (Michael W. Deem and Ramdas Pophale) SiO2 
 PCOD9078331
Probable space group: P -1
;
_chemical_formula_sum "Si O2"
_cell_formula_units_Z 16
_cell_length_a 12.743713
_cell_length_b 8.074266
_cell_length_c 10.205927
_cell_angle_alpha 131.897449
_cell_angle_beta 68.242812
_cell_angle_gamma 119.651393
_cell_volume 677.992219
_symmetry_space_group_name_H-M "P -1"
_symmetry_group_IT_number 2
_symmetry_cell_setting 'triclinic'
loop_
_space_group_symop_operation_xyz
x,y,z
-x,-y,-z
loop_
_atom_site_type_symbol
_atom_site_label
_atom_site_fract_x
_atom_site_fract_y
_atom_site_fract_z
Si Si1 0.574506 0.218205 0.253348
Si Si2 0.842131 0.688080 0.667368
Si Si3 0.826704 0.964484 0.190844
Si Si4 0.458113 0.235037 0.820532
Si Si5 0.570295 0.513902 0.671718
Si Si6 0.056540 0.054381 0.646289
Si Si7 0.038765 0.337159 0.134467
Si Si8 0.160459 0.519248 0.729004
O O1 0.582140 0.395304 0.465576
O O2 0.505613 0.313190 0.224942
O O3 0.715282 0.268673 0.182127
O O4 0.510681 0.952363 0.199933
O O5 0.704918 0.665844 0.737954
O O6 0.889678 0.599590 0.728653
O O7 0.845371 0.537697 0.455180
O O8 0.932113 0.958121 0.738915
O O9 0.686386 0.879878 0.189701
O O10 0.871129 0.080450 0.373344
O O11 0.876172 0.745831 0.042105
O O12 0.910526 0.133648 0.130165
O O13 0.514502 0.295083 0.681706
O O14 0.500000 0.500000 0.000000
O O15 0.166643 0.297781 0.691639
O O16 0.000000 0.000000 0.500000
O O17 0.977664 0.504849 0.184706
#
# Coordination Sequence:
#
# PCOD9078331 Si02
#       8
#     2   2   2   2   2   2   2   2
#     4  10  22  42  66  92 122 169 217 264 314 369
#     4   9  19  36  56  88 122 153 198 256 308 369
#     4  10  21  37  57  83 120 161 197 250 311 371
#     4  12  24  41  64  94 129 171 217 258 316 378
#     4  10  22  42  64  90 128 166 214 264 311 373
#     4   9  19  36  58  88 117 151 196 253 313 367
#     4  10  19  35  58  83 119 155 193 250 309 372
#     4  10  18  35  61  87 115 155 202 253 313 367
#
# _framework density 23.599091000000001
#
# number of rings (size 3 to 8) (size 9 to 14) (size 15 to 20)
#    0.000    2.000    1.250    2.250    0.000    2.000 
#    4.500    0.000    0.000    0.000    0.000    0.000 
#    0.000    0.000    0.000    0.000    0.000    0.000 
#
# Total GULP energy -89084.780155 kJ/mol
# GULP energy per Si atom -5567.798760 kJ/mol
# Density = 2.354538 g / cm^3
# Si number density = 23.599091 Si / 1000 Ang^3
#
#
#
# Elastic Constant Matrix: (Units=GPa)
#
#
# Indices 1 2 3 4 5 6 
#
# 1 114.4956 34.8128 17.5758 6.8623 0.1187 12.4644
# 2 34.8128 112.3737 0.4398 8.0291 8.8548 4.7147
# 3 17.5758 0.4398 34.0722 -7.8424 5.9801 -5.4536
# 4 6.8623 8.0291 -7.8424 26.5909 -4.9403 -0.5529
# 5 0.1187 8.8548 5.9801 -4.9403 27.3131 5.0981
# 6 12.4644 4.7147 -5.4536 -0.5529 5.0981 30.9352
#
#
#
# Elastic Compliance Matrix: (Units=1/GPa)
#
#
# Indices 1 2 3 4 5 6 
#
# 1 0.012080 -0.003406 -0.008801 -0.004181 0.003443 -0.006542
# 2 -0.003406 0.010438 0.001948 -0.002499 -0.004398 0.000805
# 3 -0.008801 0.001948 0.040241 0.012040 -0.009489 0.012122
# 4 -0.004181 -0.002499 0.012040 0.044080 0.005402 0.004085
# 5 0.003443 -0.004398 -0.009489 0.005402 0.042823 -0.009351
# 6 -0.006542 0.000805 0.012122 0.004085 -0.009351 0.038590
#
#
# Mechanical properties :
#
#
# Convention : Reuss Voigt Hill
#
# Bulk Modulus (GPa) = 23.67401 40.73314 32.20357
# Shear Modulus (GPa) = 22.43660 30.84205 26.63933
#
# Velocity S-wave (km/s) = 3.08675 3.61905 3.36345
# Velocity P-wave (km/s) = 4.77049 5.89587 5.36278
#
# Compressibility (1/GPa) = 0.04224042
#
# Stress axis : x y z
#
# Youngs Moduli (GPa) = 82.78321 95.80674 24.85011
#
# Poissons Ratio (x) = 0.32631 0.21871
# Poissons Ratio (y) = 0.28196 -0.04840
# Poissons Ratio (z) = 0.72858 -0.18662
#
# Static dielectric constant tensor:
#      x y z
#    x 1.989050 -0.114980 -0.059380 
#    y -0.114980 1.969320 0.077490 
#    z -0.059380 0.077490 2.234100 
# 
# From -- ./inp_files/418396.got.cif
#   From: 2010.05.17/outbox.cif.g08.bks.cpg/sg2_210_cif.got.tgz:418396.got - 2010.06.03 11:33:40.
