data_PCOD9078434
_publ_section_title
;
Structure prediction by ZEFSAII (Michael W. Deem and Ramdas Pophale) SiO2 
 PCOD9078434
Probable space group: P -1
;
_chemical_formula_sum "Si O2"
_cell_formula_units_Z 16
_cell_length_a 7.568495
_cell_length_b 12.113148
_cell_length_c 13.954073
_cell_angle_alpha 68.785705
_cell_angle_beta 37.455412
_cell_angle_gamma 91.535458
_cell_volume 603.825773
_symmetry_space_group_name_H-M "P -1"
_symmetry_group_IT_number 2
_symmetry_cell_setting 'triclinic'
loop_
_space_group_symop_operation_xyz
x,y,z
-x,-y,-z
loop_
_atom_site_type_symbol
_atom_site_label
_atom_site_fract_x
_atom_site_fract_y
_atom_site_fract_z
Si Si1 0.191656 0.009122 0.529252
Si Si2 0.401077 0.752592 0.231214
Si Si3 0.835633 0.999087 0.232686
Si Si4 0.223207 0.396335 0.844058
Si Si5 0.051436 0.627018 0.232850
Si Si6 0.303742 0.294372 0.182637
Si Si7 0.567608 0.326361 0.255966
Si Si8 0.306920 0.698913 0.500720
O O1 0.517629 0.016005 0.335943
O O2 0.272951 0.164905 0.453458
O O3 0.140453 0.964281 0.677148
O O4 0.842353 0.871713 0.681242
O O5 0.495284 0.634331 0.234367
O O6 0.150397 0.716446 0.260001
O O7 0.251279 0.741404 0.404785
O O8 0.783379 0.898362 0.008661
O O9 0.677774 0.833615 0.332464
O O10 0.373485 0.562914 0.724067
O O11 0.057821 0.331143 0.831596
O O12 0.920066 0.335938 0.073364
O O13 0.776810 0.458672 0.419574
O O14 0.417321 0.648117 0.038464
O O15 0.488309 0.375881 0.175092
O O16 0.973338 0.303229 0.307360
#
# Coordination Sequence:
#
# PCOD9078434 Si02
#       8
#     2   2   2   2   2   2   2   2
#     4  10  18  35  62  92 121 160 209 259 309 362
#     4  12  23  44  65  89 133 166 202 256 313 372
#     4  10  21  37  61  92 123 164 209 252 308 373
#     4  10  23  38  63  94 123 166 205 257 311 367
#     4  11  23  42  65  92 126 162 212 260 304 364
#     4  10  21  37  62  96 124 160 210 258 309 364
#     4  10  19  36  60  94 128 154 208 266 309 356
#     4  11  24  39  64  93 124 170 205 250 315 374
#
# _framework density 26.497712
#
# number of rings (size 3 to 8) (size 9 to 14) (size 15 to 20)
#    0.000    1.500    2.500    3.000    0.000    2.500 
#    0.000    1.250    0.000    2.250    0.000    0.000 
#    0.000    0.000    0.000    0.000    0.000    0.000 
#
# Total GULP energy -89541.916887 kJ/mol
# GULP energy per Si atom -5596.369805 kJ/mol
# Density = 2.643740 g / cm^3
# Si number density = 26.497712 Si / 1000 Ang^3
#
#
#
# Elastic Constant Matrix: (Units=GPa)
#
#
# Indices 1 2 3 4 5 6 
#
# 1 86.4598 28.5626 3.3236 8.1761 6.5191 25.5416
# 2 28.5626 87.9971 34.6744 -13.3333 -17.7107 14.3134
# 3 3.3236 34.6744 129.7884 -2.9567 -7.0609 3.6051
# 4 8.1761 -13.3333 -2.9567 50.3015 2.5345 -1.2455
# 5 6.5191 -17.7107 -7.0609 2.5345 19.7736 3.8496
# 6 25.5416 14.3134 3.6051 -1.2455 3.8496 47.3063
#
#
#
# Elastic Compliance Matrix: (Units=1/GPa)
#
#
# Indices 1 2 3 4 5 6 
#
# 1 0.017134 -0.007753 0.001140 -0.004404 -0.010403 -0.006261
# 2 -0.007753 0.020801 -0.004074 0.005463 0.019665 -0.003253
# 3 0.001140 -0.004074 0.008703 -0.000712 -0.000826 0.000002
# 4 -0.004404 0.005463 -0.000712 0.021875 0.003072 0.001105
# 5 -0.010403 0.019665 -0.000826 0.003072 0.072106 -0.006057
# 6 -0.006261 -0.003253 0.000002 0.001105 -0.006057 0.026026
#
#
# Mechanical properties :
#
#
# Convention : Reuss Voigt Hill
#
# Bulk Modulus (GPa) = 39.58238 48.59629 44.08933
# Shear Modulus (GPa) = 25.45310 39.32193 32.38751
#
# Velocity S-wave (km/s) = 3.10268 3.85642 3.49990
# Velocity P-wave (km/s) = 5.27314 6.18133 5.74521
#
# Compressibility (1/GPa) = 0.02526377
#
# Stress axis : x y z
#
# Youngs Moduli (GPa) = 58.36280 48.07504 114.90546
#
# Poissons Ratio (x) = 0.37274 -0.13102
# Poissons Ratio (y) = 0.45251 0.46812
# Poissons Ratio (z) = -0.06655 0.19585
#
# Static dielectric constant tensor:
#      x y z
#    x 2.116590 -0.030820 0.003760 
#    y -0.030820 2.034480 -0.017190 
#    z 0.003760 -0.017190 2.065460 
# 
# From -- ./inp_files/358833.got.cif
#   From: 2010.05.17/outbox.cif.g08.bks.cpg/sg2_180_cif.got.tgz:358833.got - 2010.06.03 11:33:40.
