data_PCOD9078514
_publ_section_title
;
Structure prediction by ZEFSAII (Michael W. Deem and Ramdas Pophale) SiO2 
 PCOD9078514
Probable space group: P -1
;
_chemical_formula_sum "Si O2"
_cell_formula_units_Z 16
_cell_length_a 7.084563
_cell_length_b 9.934929
_cell_length_c 11.586084
_cell_angle_alpha 53.683824
_cell_angle_beta 98.003778
_cell_angle_gamma 109.208311
_cell_volume 618.843712
_symmetry_space_group_name_H-M "P -1"
_symmetry_group_IT_number 2
_symmetry_cell_setting 'triclinic'
loop_
_space_group_symop_operation_xyz
x,y,z
-x,-y,-z
loop_
_atom_site_type_symbol
_atom_site_label
_atom_site_fract_x
_atom_site_fract_y
_atom_site_fract_z
Si Si1 0.631664 0.377702 0.469256
Si Si2 0.498469 0.861376 0.225272
Si Si3 0.546117 0.670687 0.754254
Si Si4 0.110553 0.449235 0.141484
Si Si5 0.216585 0.948643 0.410580
Si Si6 0.847797 0.574598 0.191841
Si Si7 0.234395 0.085201 0.006281
Si Si8 0.841857 0.048933 0.330615
O O1 0.559456 0.329267 0.618540
O O2 0.448371 0.337943 0.382253
O O3 0.791337 0.548570 0.336821
O O4 0.726574 0.219329 0.536995
O O5 0.610633 0.861057 0.114575
O O6 0.667550 0.998601 0.248204
O O7 0.316118 0.944089 0.151272
O O8 0.661099 0.535281 0.869357
O O9 0.644503 0.861912 0.717232
O O10 0.309699 0.599702 0.788098
O O11 0.064969 0.562736 0.185492
O O12 0.002847 0.241925 0.251390
O O13 0.000000 0.500000 0.000000
O O14 0.985094 0.929124 0.378890
O O15 0.246671 0.971380 0.539055
O O16 0.785534 0.729388 0.047051
O O17 0.000000 0.000000 0.000000
#
# Coordination Sequence:
#
# PCOD9078514 Si02
#       8
#     2   2   2   2   2   2   2   2
#     4  10  21  39  69 101 129 176 212 273 333 387
#     4  11  26  45  74  93 127 181 228 276 334 392
#     4   9  21  38  59  98 138 169 206 267 318 397
#     4  11  24  36  60 101 142 179 206 256 335 409
#     4  10  18  35  64 104 143 161 203 257 336 406
#     4  10  24  44  66  93 135 170 219 281 328 385
#     4  11  29  52  65  92 127 179 238 284 325 394
#     4  10  20  36  64 100 135 172 208 260 321 408
#
# _framework density 25.854669999999999
#
# number of rings (size 3 to 8) (size 9 to 14) (size 15 to 20)
#    0.750    1.000    2.500    0.375    7.000    3.000 
#    0.000    0.625    0.000    0.000    0.000    0.000 
#    0.000    0.000    0.000    0.000    0.000    0.000 
#
# Total GULP energy -89334.245195 kJ/mol
# GULP energy per Si atom -5583.390325 kJ/mol
# Density = 2.579582 g / cm^3
# Si number density = 25.854670 Si / 1000 Ang^3
#
#
#
# Elastic Constant Matrix: (Units=GPa)
#
#
# Indices 1 2 3 4 5 6 
#
# 1 98.8674 12.1985 -7.7793 0.8141 29.7994 -20.6635
# 2 12.1985 37.1700 -6.5298 -9.0721 5.0562 -6.7823
# 3 -7.7793 -6.5298 87.1623 -0.4347 18.3031 -4.4501
# 4 0.8141 -9.0721 -0.4347 27.4996 -5.5863 0.1191
# 5 29.7994 5.0562 18.3031 -5.5863 43.4359 -6.9870
# 6 -20.6635 -6.7823 -4.4501 0.1191 -6.9870 27.6172
#
#
#
# Elastic Compliance Matrix: (Units=1/GPa)
#
#
# Indices 1 2 3 4 5 6 
#
# 1 0.016168 -0.002158 0.004165 -0.003511 -0.011546 0.009332
# 2 -0.002158 0.031949 0.002800 0.010406 -0.001055 0.006371
# 3 0.004165 0.002800 0.014050 -0.000735 -0.008570 0.003903
# 4 -0.003511 0.010406 -0.000735 0.041315 0.007048 0.001415
# 5 -0.011546 -0.001055 -0.008570 0.007048 0.035365 -0.001362
# 6 0.009332 0.006371 0.003903 0.001415 -0.001362 0.045035
#
#
# Mechanical properties :
#
#
# Convention : Reuss Voigt Hill
#
# Bulk Modulus (GPa) = 13.93131 24.33093 19.13112
# Shear Modulus (GPa) = 25.22767 34.73122 29.97945
#
# Velocity S-wave (km/s) = 3.12709 3.66912 3.40889
# Velocity P-wave (km/s) = 4.29398 5.23268 4.78640
#
# Compressibility (1/GPa) = 0.07178077
#
# Stress axis : x y z
#
# Youngs Moduli (GPa) = 61.85047 31.29959 71.17652
#
# Poissons Ratio (x) = 0.06754 -0.29644
# Poissons Ratio (y) = 0.13345 -0.19927
# Poissons Ratio (z) = -0.25760 -0.08763
#
# Static dielectric constant tensor:
#      x y z
#    x 2.008990 -0.001690 -0.081360 
#    y -0.001690 2.456500 -0.262750 
#    z -0.081360 -0.262750 2.379440 
# 
# From -- ./inp_files/389070.got.cif
#   From: 2010.05.17/outbox.cif.g08.bks.cpg/sg2_195_cif.got.tgz:389070.got - 2010.06.03 11:33:40.
