data_PCOD9078494
_publ_section_title
;
Structure prediction by ZEFSAII (Michael W. Deem and Ramdas Pophale) SiO2 
 PCOD9078494
Probable space group: P -1
;
_chemical_formula_sum "Si O2"
_cell_formula_units_Z 16
_cell_length_a 13.851471
_cell_length_b 13.974655
_cell_length_c 10.312449
_cell_angle_alpha 65.167451
_cell_angle_beta 133.970058
_cell_angle_gamma 148.950991
_cell_volume 653.640073
_symmetry_space_group_name_H-M "P -1"
_symmetry_group_IT_number 2
_symmetry_cell_setting 'triclinic'
loop_
_space_group_symop_operation_xyz
x,y,z
-x,-y,-z
loop_
_atom_site_type_symbol
_atom_site_label
_atom_site_fract_x
_atom_site_fract_y
_atom_site_fract_z
Si Si1 0.715304 0.115117 0.272495
Si Si2 0.254008 0.944073 0.279897
Si Si3 0.207947 0.234098 0.099875
Si Si4 0.455667 0.155864 0.062613
Si Si5 0.905249 0.871712 0.649345
Si Si6 0.261197 0.430587 0.486098
Si Si7 0.434233 0.178228 0.574256
Si Si8 0.006727 0.389491 0.635994
O O1 0.566132 0.124916 0.114490
O O2 0.954140 0.255076 0.318269
O O3 0.895769 0.242761 0.500172
O O4 0.512260 0.881950 0.246057
O O5 0.210359 0.789381 0.354017
O O6 0.364701 0.053065 0.180626
O O7 0.397763 0.106866 0.435811
O O8 0.940240 0.767683 0.098964
O O9 0.180187 0.227621 0.231938
O O10 0.522433 0.420489 0.277368
O O11 0.000000 0.000000 0.000000
O O12 0.691718 0.400951 0.154882
O O13 0.213613 0.050442 0.827831
O O14 0.747714 0.695507 0.499304
O O15 0.831771 0.944529 0.547615
O O16 0.366259 0.588350 0.390194
O O17 0.000000 0.500000 0.500000
#
# Coordination Sequence:
#
# PCOD9078494 Si02
#       8
#     2   2   2   2   2   2   2   2
#     4  10  23  36  58  90 116 163 203 242 304 367
#     4  10  19  34  62  89 119 157 198 257 311 350
#     4  10  18  35  63  92 116 155 203 250 306 353
#     4  10  22  39  57  87 128 157 204 248 301 370
#     4  10  22  38  62  88 122 165 199 248 307 355
#     4  11  22  39  60  86 127 161 196 252 302 356
#     4  10  20  38  61  86 117 154 204 253 302 355
#     4   9  20  35  55  89 119 154 200 249 304 355
#
# _framework density 24.478301999999999
#
# number of rings (size 3 to 8) (size 9 to 14) (size 15 to 20)
#    0.000    2.000    2.500    2.250    1.750    8.500 
#    0.000    5.625    0.000    0.000    0.000    0.000 
#    0.000    0.000    0.000    0.000    0.000    0.000 
#
# Total GULP energy -89195.975135 kJ/mol
# GULP energy per Si atom -5574.748446 kJ/mol
# Density = 2.442259 g / cm^3
# Si number density = 24.478302 Si / 1000 Ang^3
#
#
#
# Elastic Constant Matrix: (Units=GPa)
#
#
# Indices 1 2 3 4 5 6 
#
# 1 101.9340 31.6428 24.0866 -0.4449 14.9776 -11.7383
# 2 31.6428 97.6050 4.6890 6.1203 -7.1129 0.5085
# 3 24.0866 4.6890 68.0272 16.1616 -0.2104 1.5122
# 4 -0.4449 6.1203 16.1616 30.5196 1.0713 4.1296
# 5 14.9776 -7.1129 -0.2104 1.0713 27.2784 1.2766
# 6 -11.7383 0.5085 1.5122 4.1296 1.2766 29.6767
#
#
#
# Elastic Compliance Matrix: (Units=1/GPa)
#
#
# Indices 1 2 3 4 5 6 
#
# 1 0.015332 -0.005726 -0.006195 0.004159 -0.010419 0.006348
# 2 -0.005726 0.012734 0.002093 -0.003661 0.006735 -0.002370
# 3 -0.006195 0.002093 0.019334 -0.010614 0.004616 -0.002193
# 4 0.004159 -0.003661 -0.010614 0.039764 -0.004738 -0.003081
# 5 -0.010419 0.006735 0.004616 -0.004738 0.044626 -0.005732
# 6 0.006348 -0.002370 -0.002193 -0.003081 -0.005732 0.037035
#
#
# Mechanical properties :
#
#
# Convention : Reuss Voigt Hill
#
# Bulk Modulus (GPa) = 36.04536 43.15589 39.60063
# Shear Modulus (GPa) = 25.28714 31.30479 28.29597
#
# Velocity S-wave (km/s) = 3.21759 3.58002 3.40363
# Velocity P-wave (km/s) = 5.34427 5.89553 5.62665
#
# Compressibility (1/GPa) = 0.02774282
#
# Stress axis : x y z
#
# Youngs Moduli (GPa) = 65.22399 78.53053 51.72267
#
# Poissons Ratio (x) = 0.44967 0.32044
# Poissons Ratio (y) = 0.37347 -0.10826
# Poissons Ratio (z) = 0.40409 -0.16437
#
# Static dielectric constant tensor:
#      x y z
#    x 2.046880 0.011470 0.075690 
#    y 0.011470 2.022370 -0.010750 
#    z 0.075690 -0.010750 2.088720 
# 
# From -- ./inp_files/455705.got.cif
#   From: 2010.05.17/outbox.cif.g08.bks.cpg/sg2_228_cif.got.tgz:455705.got - 2010.06.03 11:33:40.
