data_PCOD9078323
_publ_section_title
;
Structure prediction by ZEFSAII (Michael W. Deem and Ramdas Pophale) SiO2 
 PCOD9078323
Probable space group: P -1
;
_chemical_formula_sum "Si O2"
_cell_formula_units_Z 16
_cell_length_a 23.090947
_cell_length_b 9.600627
_cell_length_c 9.032371
_cell_angle_alpha 149.624298
_cell_angle_beta 51.659287
_cell_angle_gamma 136.332811
_cell_volume 699.080997
_symmetry_space_group_name_H-M "P -1"
_symmetry_group_IT_number 2
_symmetry_cell_setting 'triclinic'
loop_
_space_group_symop_operation_xyz
x,y,z
-x,-y,-z
loop_
_atom_site_type_symbol
_atom_site_label
_atom_site_fract_x
_atom_site_fract_y
_atom_site_fract_z
Si Si1 0.723987 0.630218 0.046434
Si Si2 0.080024 0.295550 0.906366
Si Si3 0.802726 0.143181 0.172761
Si Si4 0.656500 0.856306 0.769509
Si Si5 0.794262 0.698726 0.544029
Si Si6 0.790790 0.219281 0.634916
Si Si7 0.583405 0.266872 0.183408
Si Si8 0.978837 0.570966 0.432455
O O1 0.645246 0.456884 0.121575
O O2 0.727659 0.837579 0.090724
O O3 0.795566 0.917442 0.292790
O O4 0.750759 0.370568 0.725881
O O5 0.144195 0.288123 0.675382
O O6 0.134507 0.492458 0.140664
O O7 0.012139 0.939869 0.716215
O O8 0.027861 0.486700 0.148966
O O9 0.772200 0.366773 0.347359
O O10 0.881338 0.364590 0.356547
O O11 0.838209 0.982377 0.850773
O O12 0.714580 0.748098 0.670390
O O13 0.581151 0.540130 0.532831
O O14 0.721669 0.059851 0.725485
O O15 0.619490 0.092212 0.076217
O O16 0.500000 0.000000 0.000000
O O17 0.000000 0.500000 0.500000
#
# Coordination Sequence:
#
# PCOD9078323 Si02
#       8
#     2   2   2   2   2   2   2   2
#     4  10  21  37  60  89 124 159 201 253 309 367
#     4  12  23  39  61  86 120 159 213 268 312 365
#     4  12  25  41  59  85 124 169 216 257 306 380
#     4  10  20  37  61  92 124 157 201 249 300 372
#     4  12  25  41  62  86 121 175 220 248 295 370
#     4  10  18  35  61  86 113 154 202 256 312 357
#     4  10  20  37  68 102 126 150 192 259 321 365
#     4  12  26  41  61  88 120 159 209 277 339 363
#
# _framework density 22.88719
#
# number of rings (size 3 to 8) (size 9 to 14) (size 15 to 20)
#    0.000    1.000    0.000    9.750    0.000    3.000 
#    0.000    0.000    0.000    4.500    0.000    0.000 
#    0.000    0.000    0.000    0.000    0.000    0.000 
#
# Total GULP energy -89141.634348 kJ/mol
# GULP energy per Si atom -5571.352147 kJ/mol
# Density = 2.283510 g / cm^3
# Si number density = 22.887190 Si / 1000 Ang^3
#
#
#
# Elastic Constant Matrix: (Units=GPa)
#
#
# Indices 1 2 3 4 5 6 
#
# 1 71.7175 40.5844 27.6249 23.0612 -4.6999 -9.7850
# 2 40.5844 94.3213 42.5364 29.0384 1.3388 -12.1044
# 3 27.6249 42.5364 142.8487 20.2800 -4.8357 3.2201
# 4 23.0612 29.0384 20.2800 39.8435 -5.5240 0.7726
# 5 -4.6999 1.3388 -4.8357 -5.5240 39.7739 15.9008
# 6 -9.7850 -12.1044 3.2201 0.7726 15.9008 28.7824
#
#
#
# Elastic Compliance Matrix: (Units=1/GPa)
#
#
# Indices 1 2 3 4 5 6 
#
# 1 0.020596 -0.005026 -0.001555 -0.007715 -0.000981 0.005812
# 2 -0.005026 0.019273 -0.003794 -0.010495 -0.007702 0.011358
# 3 -0.001555 -0.003794 0.008669 -0.000266 0.002817 -0.004643
# 4 -0.007715 -0.010495 -0.000266 0.039048 0.010335 -0.013765
# 5 -0.000981 -0.007702 0.002817 0.010335 0.036872 -0.024535
# 6 0.005812 0.011358 -0.004643 -0.013765 -0.024535 0.055939
#
#
# Mechanical properties :
#
#
# Convention : Reuss Voigt Hill
#
# Bulk Modulus (GPa) = 35.98636 58.93098 47.45867
# Shear Modulus (GPa) = 23.76305 34.88942 29.32623
#
# Velocity S-wave (km/s) = 3.22571 3.90860 3.58346
# Velocity P-wave (km/s) = 5.44345 6.79514 6.15650
#
# Compressibility (1/GPa) = 0.02778831
#
# Stress axis : x y z
#
# Youngs Moduli (GPa) = 48.55266 51.88479 115.35598
#
# Poissons Ratio (x) = 0.26075 0.17942
# Poissons Ratio (y) = 0.24401 0.43767
# Poissons Ratio (z) = 0.07552 0.19685
#
# Static dielectric constant tensor:
#      x y z
#    x 2.057450 -0.021180 0.023060 
#    y -0.021180 1.934070 -0.087020 
#    z 0.023060 -0.087020 1.855750 
# 
# From -- ./inp_files/352508.got.cif
#   From: 2010.05.17/outbox.cif.g08.bks.cpg/sg2_177_cif.got.tgz:352508.got - 2010.06.03 11:33:40.
