data_PCOD9078205
_publ_section_title
;
Structure prediction by ZEFSAII (Michael W. Deem and Ramdas Pophale) SiO2 
 PCOD9078205
Probable space group: P -1
;
_chemical_formula_sum "Si O2"
_cell_formula_units_Z 16
_cell_length_a 8.835008
_cell_length_b 15.083477
_cell_length_c 10.285305
_cell_angle_alpha 117.671833
_cell_angle_beta 60.649451
_cell_angle_gamma 148.533508
_cell_volume 620.394689
_symmetry_space_group_name_H-M "P -1"
_symmetry_group_IT_number 2
_symmetry_cell_setting 'triclinic'
loop_
_space_group_symop_operation_xyz
x,y,z
-x,-y,-z
loop_
_atom_site_type_symbol
_atom_site_label
_atom_site_fract_x
_atom_site_fract_y
_atom_site_fract_z
Si Si1 0.829134 0.869158 0.652757
Si Si2 0.175281 0.184509 0.084715
Si Si3 0.451109 0.860556 0.913748
Si Si4 0.588492 0.960054 0.545508
Si Si5 0.545157 0.443954 0.599854
Si Si6 0.267641 0.649665 0.083341
Si Si7 0.957073 0.672834 0.343724
Si Si8 0.984723 0.322136 0.239332
O O1 0.779967 0.796686 0.765469
O O2 0.704061 0.921417 0.765810
O O3 0.633741 0.722965 0.523444
O O4 0.178722 0.016943 0.579820
O O5 0.028396 0.222224 0.140903
O O6 0.490452 0.320857 0.972564
O O7 0.000000 0.000000 0.000000
O O8 0.139747 0.696710 0.857743
O O9 0.440898 0.809540 0.026208
O O10 0.500000 0.000000 0.000000
O O11 0.799946 0.130784 0.656218
O O12 0.500000 0.000000 0.500000
O O13 0.293186 0.788325 0.622817
O O14 0.794974 0.602484 0.502996
O O15 0.307333 0.421858 0.707494
O O16 0.721926 0.498557 0.692372
O O17 0.120581 0.643725 0.254947
O O18 0.000000 0.500000 0.000000
#
# Coordination Sequence:
#
# PCOD9078205 Si02
#       8
#     2   2   2   2   2   2   2   2
#     4  10  22  40  60  89 130 167 215 257 327 390
#     4  11  21  36  61  93 126 173 221 265 310 386
#     4  11  25  45  63  92 138 179 205 265 337 386
#     4  11  19  34  62  96 122 158 216 271 307 375
#     4  10  20  36  62  91 124 163 201 272 330 372
#     4  11  23  41  66  91 125 174 221 261 312 390
#     4  10  18  35  59  90 126 156 208 264 320 367
#     4  12  22  38  63  94 128 164 217 267 329 378
#
# _framework density 25.790033999999999
#
# number of rings (size 3 to 8) (size 9 to 14) (size 15 to 20)
#    0.000    1.250    2.500    6.750    0.000    1.000 
#    0.000    2.500    0.000    4.500    0.000    0.000 
#    0.000    0.000    0.000    0.000    0.000    0.000 
#
# Total GULP energy -89451.270469 kJ/mol
# GULP energy per Si atom -5590.704404 kJ/mol
# Density = 2.573133 g / cm^3
# Si number density = 25.790034 Si / 1000 Ang^3
#
#
#
# Elastic Constant Matrix: (Units=GPa)
#
#
# Indices 1 2 3 4 5 6 
#
# 1 126.1563 30.9340 48.4644 -5.7342 -14.6627 30.8991
# 2 30.9340 94.1362 37.5891 0.7800 -13.1714 35.3496
# 3 48.4644 37.5891 111.5406 -0.9177 -38.8364 21.3887
# 4 -5.7342 0.7800 -0.9177 33.9441 10.5962 -7.9651
# 5 -14.6627 -13.1714 -38.8364 10.5962 63.2142 -6.0497
# 6 30.8991 35.3496 21.3887 -7.9651 -6.0497 51.5762
#
#
#
# Elastic Compliance Matrix: (Units=1/GPa)
#
#
# Indices 1 2 3 4 5 6 
#
# 1 0.010528 -0.000370 -0.003773 0.000806 -0.000512 -0.004425
# 2 -0.000370 0.015730 -0.002977 -0.003075 0.000951 -0.009688
# 3 -0.003773 -0.002977 0.014545 -0.002910 0.007807 -0.001265
# 4 0.000806 -0.003075 -0.002910 0.033509 -0.007172 0.007164
# 5 -0.000512 0.000951 0.007807 -0.007172 0.021692 -0.002146
# 6 -0.004425 -0.009688 -0.001265 0.007164 -0.002146 0.030059
#
#
# Mechanical properties :
#
#
# Convention : Reuss Voigt Hill
#
# Bulk Modulus (GPa) = 37.64522 62.86757 50.25639
# Shear Modulus (GPa) = 33.52250 44.06994 38.79622
#
# Velocity S-wave (km/s) = 3.60922 4.13824 3.88275
# Velocity P-wave (km/s) = 5.65660 6.87481 6.29524
#
# Compressibility (1/GPa) = 0.02656380
#
# Stress axis : x y z
#
# Youngs Moduli (GPa) = 94.98900 63.57437 68.75446
#
# Poissons Ratio (x) = 0.02351 0.25939
# Poissons Ratio (y) = 0.03513 0.20465
# Poissons Ratio (z) = 0.35836 0.18923
#
# Static dielectric constant tensor:
#      x y z
#    x 2.115160 0.039750 0.143860 
#    y 0.039750 2.128720 0.089740 
#    z 0.143860 0.089740 2.498270 
# 
# From -- ./inp_files/402125.got.cif
#   From: 2010.05.17/outbox.cif.g08.bks.cpg/sg2_202_cif.got.tgz:402125.got - 2010.06.03 11:33:40.
