data_PCOD9078348
_publ_section_title
;
Structure prediction by ZEFSAII (Michael W. Deem and Ramdas Pophale) SiO2 
 PCOD9078348
Probable space group: P -1
;
_chemical_formula_sum "Si O2"
_cell_formula_units_Z 14
_cell_length_a 6.037559
_cell_length_b 7.998272
_cell_length_c 17.157660
_cell_angle_alpha 59.610141
_cell_angle_beta 96.962591
_cell_angle_gamma 122.307822
_cell_volume 591.283831
_symmetry_space_group_name_H-M "P -1"
_symmetry_group_IT_number 2
_symmetry_cell_setting 'triclinic'
loop_
_space_group_symop_operation_xyz
x,y,z
-x,-y,-z
loop_
_atom_site_type_symbol
_atom_site_label
_atom_site_fract_x
_atom_site_fract_y
_atom_site_fract_z
Si Si1 0.654492 0.315032 0.336532
Si Si2 0.845523 0.860097 0.746066
Si Si3 0.176941 0.013676 0.575531
Si Si4 0.745365 0.293347 0.775006
Si Si5 0.586537 0.822519 0.067246
Si Si6 0.184277 0.121110 0.092850
Si Si7 0.355832 0.339106 0.637900
O O1 0.444249 0.230116 0.277703
O O2 0.657705 0.094330 0.413842
O O3 0.584504 0.422387 0.380448
O O4 0.944641 0.519117 0.270711
O O5 0.822212 0.763005 0.854306
O O6 0.993979 0.846004 0.679675
O O7 0.053440 0.140089 0.700766
O O8 0.330411 0.264101 0.564445
O O9 0.000000 0.000000 0.500000
O O10 0.627504 0.338408 0.837973
O O11 0.565557 0.293167 0.697837
O O12 0.711516 0.045504 0.841903
O O13 0.640107 0.736241 0.008684
O O14 0.877428 0.963116 0.087643
O O15 0.500000 0.000000 0.000000
#
# Coordination Sequence:
#
# PCOD9078348 Si02
#       7
#     2   2   2   2   2   2   2
#     4  12  23  40  69  93 128 169 210 264 318 379
#     4  10  22  41  61  94 124 166 216 256 317 382
#     4  10  24  43  66  96 127 163 215 263 315 387
#     4  11  18  37  63  93 125 168 217 256 313 380
#     4   9  18  30  58  95 127 171 213 258 319 368
#     4  10  18  35  61  89 130 173 208 265 319 363
#     4  10  23  42  64  92 127 170 213 258 319 379
#
# _framework density 23.677292999999999
#
# number of rings (size 3 to 8) (size 9 to 14) (size 15 to 20)
#    0.857    0.857    2.857    1.714    0.000    1.143 
#    0.000    3.571    0.000   14.571    0.000    0.000 
#    0.000    0.000    0.000    0.000    0.000    0.000 
#
# Total GULP energy -78112.091842 kJ/mol
# GULP energy per Si atom -5579.435132 kJ/mol
# Density = 2.362340 g / cm^3
# Si number density = 23.677293 Si / 1000 Ang^3
#
#
#
# Elastic Constant Matrix: (Units=GPa)
#
#
# Indices 1 2 3 4 5 6 
#
# 1 99.5622 53.9751 49.1914 20.3565 -2.6797 11.5263
# 2 53.9751 105.5853 47.2231 18.7910 15.5171 23.3713
# 3 49.1914 47.2231 108.4946 39.5619 -21.6072 3.6841
# 4 20.3565 18.7910 39.5619 43.8588 10.0472 2.4781
# 5 -2.6797 15.5171 -21.6072 10.0472 53.7498 -8.3928
# 6 11.5263 23.3713 3.6841 2.4781 -8.3928 29.3577
#
#
#
# Elastic Compliance Matrix: (Units=1/GPa)
#
#
# Indices 1 2 3 4 5 6 
#
# 1 0.015555 -0.006467 -0.003155 -0.002015 0.001768 0.000113
# 2 -0.006467 0.025619 -0.015839 0.012143 -0.019881 -0.022577
# 3 -0.003155 -0.015839 0.031994 -0.027540 0.025460 0.019436
# 4 -0.002015 0.012143 -0.027540 0.050501 -0.026826 -0.017352
# 5 0.001768 -0.019881 0.025460 -0.026826 0.043857 0.026740
# 6 0.000113 -0.022577 0.019436 -0.017352 0.026740 0.058662
#
#
# Mechanical properties :
#
#
# Convention : Reuss Voigt Hill
#
# Bulk Modulus (GPa) = 44.95136 68.26904 56.61020
# Shear Modulus (GPa) = 17.57308 36.27674 26.92491
#
# Velocity S-wave (km/s) = 2.72727 3.91849 3.37584
# Velocity P-wave (km/s) = 5.37992 7.02627 6.25748
#
# Compressibility (1/GPa) = 0.02224627
#
# Stress axis : x y z
#
# Youngs Moduli (GPa) = 64.28755 39.03311 31.25550
#
# Poissons Ratio (x) = 0.25243 0.09861
# Poissons Ratio (y) = 0.41575 0.49507
# Poissons Ratio (z) = 0.20282 0.61826
#
# Static dielectric constant tensor:
#      x y z
#    x 1.893480 -0.045550 -0.086680 
#    y -0.045550 1.971900 -0.052150 
#    z -0.086680 -0.052150 1.977070 
# 
# From -- ./inp_files/547902.got.cif
#   From: 2010.05.17/outbox.cif.g08.bks.cpg/sg2_274_cif.got.tgz:547902.got - 2010.06.03 11:33:40.
