data_PCOD9078786
_publ_section_title
;
Structure prediction by ZEFSAII (Michael W. Deem and Ramdas Pophale) SiO2 
 PCOD9078786
Probable space group: P -1
;
_chemical_formula_sum "Si O2"
_cell_formula_units_Z 14
_cell_length_a 10.964889
_cell_length_b 12.687618
_cell_length_c 11.604075
_cell_angle_alpha 47.644112
_cell_angle_beta 140.679981
_cell_angle_gamma 102.878099
_cell_volume 582.630685
_symmetry_space_group_name_H-M "P -1"
_symmetry_group_IT_number 2
_symmetry_cell_setting 'triclinic'
loop_
_space_group_symop_operation_xyz
x,y,z
-x,-y,-z
loop_
_atom_site_type_symbol
_atom_site_label
_atom_site_fract_x
_atom_site_fract_y
_atom_site_fract_z
Si Si1 0.072007 0.937937 0.232091
Si Si2 0.916385 0.704251 0.297057
Si Si3 0.184169 0.215064 0.574302
Si Si4 0.819407 0.818888 0.896655
Si Si5 0.577258 0.464203 0.449719
Si Si6 0.331479 0.857618 0.010915
Si Si7 0.206947 0.426932 0.105767
O O1 0.250632 0.990195 0.339330
O O2 0.860201 0.071001 0.076000
O O3 0.113174 0.747374 0.413885
O O4 0.000000 0.000000 0.000000
O O5 0.791303 0.774974 0.277749
O O6 0.000000 0.500000 0.500000
O O7 0.750743 0.818254 0.979538
O O8 0.416035 0.195007 0.710218
O O9 0.928376 0.399780 0.207738
O O10 0.215552 0.032622 0.714497
O O11 0.125944 0.659504 0.247706
O O12 0.751623 0.736977 0.811688
O O13 0.500000 0.500000 0.500000
O O14 0.423305 0.676600 0.141640
O O15 0.459189 0.380978 0.367367
O O16 0.000000 0.500000 0.000000
#
# Coordination Sequence:
#
# PCOD9078786 Si02
#       7
#     2   2   2   2   2   2   2
#     4   9  19  31  57  90 116 159 193 241 298 352
#     4  10  18  36  63  85 120 160 196 243 303 360
#     4  10  21  35  60  93 114 163 198 243 305 351
#     4  11  21  39  59  90 123 155 202 243 300 355
#     4  12  21  36  60  89 117 161 199 247 299 348
#     4  10  18  36  58  86 126 150 200 246 295 357
#     4  12  22  35  60  89 119 156 206 245 297 358
#
# _framework density 24.028943000000002
#
# number of rings (size 3 to 8) (size 9 to 14) (size 15 to 20)
#    0.000    1.429    5.714    0.000    0.000    0.571 
#    0.000    0.714    0.000    7.714    7.429    0.000 
#    0.000    0.000    0.000    0.000    0.000    0.000 
#
# Total GULP energy -78141.975966 kJ/mol
# GULP energy per Si atom -5581.569712 kJ/mol
# Density = 2.397425 g / cm^3
# Si number density = 24.028943 Si / 1000 Ang^3
#
#
#
# Elastic Constant Matrix: (Units=GPa)
#
#
# Indices 1 2 3 4 5 6 
#
# 1 102.9727 21.0954 35.2164 2.0651 -1.2073 -0.2074
# 2 21.0954 205.2808 49.7979 -13.4768 -5.5070 26.8191
# 3 35.2164 49.7979 51.5823 2.4003 14.6703 11.1362
# 4 2.0651 -13.4768 2.4003 45.2266 4.6626 -13.2508
# 5 -1.2073 -5.5070 14.6703 4.6626 31.9937 -11.1655
# 6 -0.2074 26.8191 11.1362 -13.2508 -11.1655 35.6091
#
#
#
# Elastic Compliance Matrix: (Units=1/GPa)
#
#
# Indices 1 2 3 4 5 6 
#
# 1 0.015558 0.002101 -0.018024 0.002192 0.011931 0.008702
# 2 0.002101 0.007466 -0.010533 0.002179 0.006009 0.000379
# 3 -0.018024 -0.010533 0.058135 -0.009005 -0.036628 -0.025188
# 4 0.002192 0.002179 -0.009005 0.026295 0.005147 0.012587
# 5 0.011931 0.006009 -0.036628 0.005147 0.058274 0.027186
# 6 0.008702 0.000379 -0.025188 0.012587 0.027186 0.048934
#
#
# Mechanical properties :
#
#
# Convention : Reuss Voigt Hill
#
# Bulk Modulus (GPa) = 35.40352 63.56169 49.48260
# Shear Modulus (GPa) = 18.05119 39.48096 28.76608
#
# Velocity S-wave (km/s) = 2.74383 4.05786 3.46373
# Velocity P-wave (km/s) = 4.98034 6.96165 6.05262
#
# Compressibility (1/GPa) = 0.02824578
#
# Stress axis : x y z
#
# Youngs Moduli (GPa) = 64.27364 133.94831 17.20134
#
# Poissons Ratio (x) = -0.28136 0.31003
# Poissons Ratio (y) = -0.13501 0.18119
# Poissons Ratio (z) = 1.15845 1.41094
#
# Static dielectric constant tensor:
#      x y z
#    x 1.958030 0.066130 0.001220 
#    y 0.066130 2.055430 -0.068440 
#    z 0.001220 -0.068440 1.982630 
# 
# From -- ./inp_files/423119.got.cif
#   From: 2010.05.17/outbox.cif.g08.bks.cpg/sg2_212_cif.got.tgz:423119.got - 2010.06.03 11:33:40.
