data_PCOD9078433
_publ_section_title
;
Structure prediction by ZEFSAII (Michael W. Deem and Ramdas Pophale) SiO2 
 PCOD9078433
Probable space group: P -1
;
_chemical_formula_sum "Si O2"
_cell_formula_units_Z 16
_cell_length_a 17.502646
_cell_length_b 8.425685
_cell_length_c 21.494543
_cell_angle_alpha 142.377065
_cell_angle_beta 160.833988
_cell_angle_gamma 37.457970
_cell_volume 618.590816
_symmetry_space_group_name_H-M "P -1"
_symmetry_group_IT_number 2
_symmetry_cell_setting 'triclinic'
loop_
_space_group_symop_operation_xyz
x,y,z
-x,-y,-z
loop_
_atom_site_type_symbol
_atom_site_label
_atom_site_fract_x
_atom_site_fract_y
_atom_site_fract_z
Si Si1 0.241965 0.678684 0.873009
Si Si2 0.921096 0.470088 0.169468
Si Si3 0.761239 0.427193 0.813918
Si Si4 0.085368 0.681073 0.537429
Si Si5 0.866947 0.968307 0.206860
Si Si6 0.361709 0.803696 0.475981
Si Si7 0.331592 0.982483 0.302868
Si Si8 0.706853 0.214408 0.390170
O O1 0.210601 0.656136 0.916184
O O2 0.014751 0.580254 0.636357
O O3 0.239204 0.951433 0.918030
O O4 0.500000 0.500000 0.000000
O O5 0.105570 0.230275 0.203812
O O6 0.099290 0.620796 0.388924
O O7 0.790851 0.717001 0.102541
O O8 0.743779 0.223875 0.681791
O O9 0.529709 0.669058 0.716554
O O10 0.762430 0.277613 0.833800
O O11 0.000000 0.500000 0.000000
O O12 0.171772 0.769194 0.697657
O O13 0.292807 0.719733 0.662110
O O14 0.842492 0.909000 0.407840
O O15 0.152938 0.880982 0.388622
O O16 0.500000 0.500000 0.500000
O O17 0.529405 0.006125 0.651405
O O18 0.500000 0.000000 0.500000
#
# Coordination Sequence:
#
# PCOD9078433 Si02
#       8
#     2   2   2   2   2   2   2   2
#     4  11  24  39  60  92 128 169 210 265 326 377
#     4  10  19  39  63  90 124 163 217 262 308 387
#     4  11  23  37  61  97 129 163 206 265 329 377
#     4   9  20  37  63  88 120 164 220 265 304 374
#     4  11  22  39  65  96 122 164 222 263 311 385
#     4  11  20  38  67  93 120 162 216 261 312 386
#     4  10  18  35  62  92 119 163 207 255 315 379
#     4   9  17  36  61  88 122 165 213 263 313 373
#
# _framework density 25.865238999999999
#
# number of rings (size 3 to 8) (size 9 to 14) (size 15 to 20)
#    0.000    1.750    3.750    3.375    1.750    2.500 
#    0.000    1.875    0.000    0.000    0.000    0.000 
#    0.000    0.000    0.000    0.000    0.000    0.000 
#
# Total GULP energy -89332.931920 kJ/mol
# GULP energy per Si atom -5583.308245 kJ/mol
# Density = 2.580637 g / cm^3
# Si number density = 25.865239 Si / 1000 Ang^3
#
#
#
# Elastic Constant Matrix: (Units=GPa)
#
#
# Indices 1 2 3 4 5 6 
#
# 1 142.2224 19.5131 28.3488 -3.0877 27.2430 19.4244
# 2 19.5131 69.0391 7.2239 -12.3622 -1.7644 26.0295
# 3 28.3488 7.2239 53.1129 -7.3695 8.5566 7.7527
# 4 -3.0877 -12.3622 -7.3695 29.0996 -12.3633 6.2566
# 5 27.2430 -1.7644 8.5566 -12.3633 31.7863 4.7182
# 6 19.4244 26.0295 7.7527 6.2566 4.7182 60.6545
#
#
#
# Elastic Compliance Matrix: (Units=1/GPa)
#
#
# Indices 1 2 3 4 5 6 
#
# 1 0.010176 -0.003938 -0.004145 -0.006078 -0.010245 0.000385
# 2 -0.003938 0.023501 0.001004 0.017948 0.013145 -0.011827
# 3 -0.004145 0.001004 0.022085 0.006369 0.000530 -0.002625
# 4 -0.006078 0.017948 0.006369 0.058719 0.029546 -0.014925
# 5 -0.010245 0.013145 0.000530 0.029546 0.053753 -0.009657
# 6 0.000385 -0.011827 -0.002625 -0.014925 -0.009657 0.024065
#
#
# Mechanical properties :
#
#
# Convention : Reuss Voigt Hill
#
# Bulk Modulus (GPa) = 24.03538 41.61622 32.82580
# Shear Modulus (GPa) = 22.69385 38.26067 30.47726
#
# Velocity S-wave (km/s) = 2.96529 3.85025 3.43638
# Velocity P-wave (km/s) = 4.58657 5.99086 5.33512
#
# Compressibility (1/GPa) = 0.04160533
#
# Stress axis : x y z
#
# Youngs Moduli (GPa) = 98.27393 42.55131 45.27979
#
# Poissons Ratio (x) = 0.16755 0.18767
# Poissons Ratio (y) = 0.38697 -0.04547
# Poissons Ratio (z) = 0.40731 -0.04273
#
# Static dielectric constant tensor:
#      x y z
#    x 2.159230 0.048010 -0.013190 
#    y 0.048010 2.137010 0.098040 
#    z -0.013190 0.098040 2.152080 
# 
# From -- ./inp_files/178843.got.cif
#   From: 2010.05.17/outbox.cif.g08.bks.cpg/sg2_90_cif.got.tgz:178843.got - 2010.06.03 11:33:40.
