data_PCOD9078788
_publ_section_title
;
Structure prediction by ZEFSAII (Michael W. Deem and Ramdas Pophale) SiO2 
 PCOD9078788
Probable space group: P -1
;
_chemical_formula_sum "Si O2"
_cell_formula_units_Z 14
_cell_length_a 14.599346
_cell_length_b 28.533938
_cell_length_c 11.757617
_cell_angle_alpha 26.296458
_cell_angle_beta 149.493897
_cell_angle_gamma 165.625652
_cell_volume 537.630748
_symmetry_space_group_name_H-M "P -1"
_symmetry_group_IT_number 2
_symmetry_cell_setting 'triclinic'
loop_
_space_group_symop_operation_xyz
x,y,z
-x,-y,-z
loop_
_atom_site_type_symbol
_atom_site_label
_atom_site_fract_x
_atom_site_fract_y
_atom_site_fract_z
Si Si1 0.863335 0.925828 0.145697
Si Si2 0.111279 0.755935 0.963985
Si Si3 0.091560 0.525908 0.390855
Si Si4 0.966723 0.009617 0.308539
Si Si5 0.069956 0.466186 0.260380
Si Si6 0.439712 0.993159 0.319325
Si Si7 0.956587 0.208570 0.963675
O O1 0.728458 0.975712 0.923912
O O2 0.106376 0.027759 0.298615
O O3 0.504160 0.667827 0.308553
O O4 0.000000 0.000000 0.000000
O O5 0.211934 0.833280 0.772771
O O6 0.526551 0.962594 0.012365
O O7 0.933156 0.547571 0.239219
O O8 0.931870 0.746846 0.880228
O O9 0.528401 0.764739 0.354077
O O10 0.968628 0.484829 0.219453
O O11 0.002647 0.357118 0.674197
O O12 0.000000 0.000000 0.500000
O O13 0.130176 0.213896 0.050243
O O14 0.842391 0.242582 0.505234
O O15 0.000000 0.500000 0.000000
O O16 0.500000 0.000000 0.500000
#
# Coordination Sequence:
#
# PCOD9078788 Si02
#       7
#     2   2   2   2   2   2   2
#     4  11  24  43  63  93 129 167 211 263 317 376
#     4  10  19  33  56  91 115 149 194 249 311 358
#     4  10  18  36  58  87 121 155 201 255 310 366
#     4  10  22  41  57  84 123 168 208 248 310 376
#     4  11  20  38  64  92 123 167 207 259 320 372
#     4  12  21  39  64  91 127 165 209 263 314 375
#     4  10  19  34  58  84 116 152 197 252 301 356
#
# _framework density 26.040178000000001
#
# number of rings (size 3 to 8) (size 9 to 14) (size 15 to 20)
#    0.000    1.429    7.143    0.429    0.000    2.286 
#    0.000    1.429    0.000    0.000    0.000    0.000 
#    0.000    0.000    0.000    0.000    0.000    0.000 
#
# Total GULP energy -77946.350536 kJ/mol
# GULP energy per Si atom -5567.596467 kJ/mol
# Density = 2.598091 g / cm^3
# Si number density = 26.040178 Si / 1000 Ang^3
#
#
#
# Elastic Constant Matrix: (Units=GPa)
#
#
# Indices 1 2 3 4 5 6 
#
# 1 165.2180 59.9545 48.1255 -8.5248 -7.8584 -61.2012
# 2 59.9545 95.6760 44.2969 -13.6860 1.8864 -34.8105
# 3 48.1255 44.2969 157.8909 -29.6115 -1.2160 -32.5440
# 4 -8.5248 -13.6860 -29.6115 53.1562 -21.9837 -4.7928
# 5 -7.8584 1.8864 -1.2160 -21.9837 43.5993 4.6024
# 6 -61.2012 -34.8105 -32.5440 -4.7928 4.6024 63.2806
#
#
#
# Elastic Compliance Matrix: (Units=1/GPa)
#
#
# Indices 1 2 3 4 5 6 
#
# 1 0.010647 -0.003213 -0.000077 0.002632 0.002485 0.008508
# 2 -0.003213 0.015413 -0.001905 0.002615 -0.000469 0.004624
# 3 -0.000077 -0.001905 0.008770 0.005914 0.002912 0.003624
# 4 0.002632 0.002615 0.005914 0.030074 0.014822 0.008225
# 5 0.002485 -0.000469 0.002912 0.014822 0.030691 0.002533
# 6 0.008508 0.004624 0.003624 0.008225 0.002533 0.028877
#
#
# Mechanical properties :
#
#
# Convention : Reuss Voigt Hill
#
# Bulk Modulus (GPa) = 40.91772 80.39319 60.65546
# Shear Modulus (GPa) = 34.96309 49.76776 42.36543
#
# Velocity S-wave (km/s) = 3.66821 4.37646 4.03789
# Velocity P-wave (km/s) = 5.80417 7.51516 6.71439
#
# Compressibility (1/GPa) = 0.02443929
#
# Stress axis : x y z
#
# Youngs Moduli (GPa) = 93.92610 64.88133 114.02634
#
# Poissons Ratio (x) = 0.20844 0.00882
# Poissons Ratio (y) = 0.30175 0.21722
# Poissons Ratio (z) = 0.00726 0.12360
#
# Static dielectric constant tensor:
#      x y z
#    x 2.431380 0.089340 -0.057030 
#    y 0.089340 2.137260 0.168810 
#    z -0.057030 0.168810 2.246500 
# 
# From -- ./inp_files/458251.got.cif
#   From: 2010.05.17/outbox.cif.g08.bks.cpg/sg2_230_cif.got.tgz:458251.got - 2010.06.03 11:33:40.
