data_PCOD9078948
_publ_section_title
;
Structure prediction by ZEFSAII (Michael W. Deem and Ramdas Pophale) SiO2 
 PCOD9078948
Probable space group: P -1
;
_chemical_formula_sum "Si O2"
_cell_formula_units_Z 14
_cell_length_a 11.566126
_cell_length_b 11.705845
_cell_length_c 7.783054
_cell_angle_alpha 131.686521
_cell_angle_beta 49.839385
_cell_angle_gamma 102.561907
_cell_volume 558.624624
_symmetry_space_group_name_H-M "P -1"
_symmetry_group_IT_number 2
_symmetry_cell_setting 'triclinic'
loop_
_space_group_symop_operation_xyz
x,y,z
-x,-y,-z
loop_
_atom_site_type_symbol
_atom_site_label
_atom_site_fract_x
_atom_site_fract_y
_atom_site_fract_z
Si Si1 0.372341 0.428420 0.668072
Si Si2 0.034573 0.543986 0.240539
Si Si3 0.177923 0.611988 0.511302
Si Si4 0.419074 0.012934 0.284315
Si Si5 0.530146 0.640646 0.871624
Si Si6 0.108694 0.109808 0.466563
Si Si7 0.337918 0.850403 0.730735
O O1 0.379718 0.587977 0.916637
O O2 0.363929 0.415464 0.460108
O O3 0.555979 0.299319 0.396086
O O4 0.210275 0.417693 0.886212
O O5 0.068909 0.625506 0.463563
O O6 0.923818 0.440615 0.296349
O O7 0.972245 0.698446 0.321436
O O8 0.352870 0.457881 0.187139
O O9 0.232084 0.768102 0.643090
O O10 0.230099 0.084524 0.487084
O O11 0.504724 0.103510 0.418449
O O12 0.467079 0.833406 0.136216
O O13 0.500000 0.000000 0.000000
O O14 0.000000 0.000000 0.500000
O O15 0.217158 0.011059 0.102143
#
# Coordination Sequence:
#
# PCOD9078948 Si02
#       7
#     2   2   2   2   2   2   2
#     4  10  21  37  65  95 117 164 219 268 310 376
#     4  11  25  42  64  94 134 170 209 260 333 379
#     4  10  24  43  62  93 132 174 211 261 316 393
#     4  10  18  36  60  93 120 166 205 265 316 364
#     4  10  19  37  65  92 123 161 216 268 315 370
#     4  11  23  39  64  98 133 162 205 272 326 381
#     4  10  22  40  63  90 126 169 216 261 314 377
#
# _framework density 25.061551999999999
#
# number of rings (size 3 to 8) (size 9 to 14) (size 15 to 20)
#    0.000    1.714    2.857    2.571    4.000    4.571 
#    0.000    0.000    0.000   11.143    0.000    0.000 
#    0.000    0.000    0.000    0.000    0.000    0.000 
#
# Total GULP energy -78062.404588 kJ/mol
# GULP energy per Si atom -5575.886042 kJ/mol
# Density = 2.500451 g / cm^3
# Si number density = 25.061552 Si / 1000 Ang^3
#
#
#
# Elastic Constant Matrix: (Units=GPa)
#
#
# Indices 1 2 3 4 5 6 
#
# 1 148.5130 36.9433 10.6266 -9.3262 8.6254 32.9216
# 2 36.9433 68.5785 6.2033 -1.4699 8.1450 22.4426
# 3 10.6266 6.2033 37.8991 -1.5335 -6.5047 1.2555
# 4 -9.3262 -1.4699 -1.5335 38.7388 16.8721 2.3226
# 5 8.6254 8.1450 -6.5047 16.8721 31.0908 -0.5878
# 6 32.9216 22.4426 1.2555 2.3226 -0.5878 49.3823
#
#
#
# Elastic Compliance Matrix: (Units=1/GPa)
#
#
# Indices 1 2 3 4 5 6 
#
# 1 0.009272 -0.002286 -0.002745 0.004598 -0.005144 -0.005350
# 2 -0.002286 0.019541 -0.003420 0.003712 -0.007357 -0.007532
# 3 -0.002745 -0.003420 0.029181 -0.004215 0.010106 0.002961
# 4 0.004598 0.003712 -0.004215 0.037602 -0.023662 -0.006695
# 5 -0.005144 -0.007357 0.010106 -0.023662 0.050629 0.008232
# 6 -0.005350 -0.007532 0.002961 -0.006695 0.008232 0.027577
#
#
# Mechanical properties :
#
#
# Convention : Reuss Voigt Hill
#
# Bulk Modulus (GPa) = 24.33648 40.28188 32.30918
# Shear Modulus (GPa) = 24.46149 37.25687 30.85918
#
# Velocity S-wave (km/s) = 3.12758 3.85985 3.51285
# Velocity P-wave (km/s) = 4.77222 5.99772 5.41972
#
# Compressibility (1/GPa) = 0.04109058
#
# Stress axis : x y z
#
# Youngs Moduli (GPa) = 107.85145 51.17459 34.26849
#
# Poissons Ratio (x) = 0.11700 0.09407
# Poissons Ratio (y) = 0.24657 0.11721
# Poissons Ratio (z) = 0.29607 0.17504
#
# Static dielectric constant tensor:
#      x y z
#    x 2.039610 -0.045800 0.086970 
#    y -0.045800 2.433990 -0.205330 
#    z 0.086970 -0.205330 2.097730 
# 
# From -- ./inp_files/260487.got.cif
#   From: 2010.05.17/outbox.cif.g08.bks.cpg/sg2_131_cif.got.tgz:260487.got - 2010.06.03 11:33:40.
