data_PCOD9078016
_publ_section_title
;
Structure prediction by ZEFSAII (Michael W. Deem and Ramdas Pophale) SiO2 
 PCOD9078016
Probable space group: P -1
;
_chemical_formula_sum "Si O2"
_cell_formula_units_Z 16
_cell_length_a 7.041726
_cell_length_b 13.282727
_cell_length_c 12.944699
_cell_angle_alpha 117.268854
_cell_angle_beta 140.418607
_cell_angle_gamma 59.415028
_cell_volume 659.308500
_symmetry_space_group_name_H-M "P -1"
_symmetry_group_IT_number 2
_symmetry_cell_setting 'triclinic'
loop_
_space_group_symop_operation_xyz
x,y,z
-x,-y,-z
loop_
_atom_site_type_symbol
_atom_site_label
_atom_site_fract_x
_atom_site_fract_y
_atom_site_fract_z
Si Si1 0.594755 0.481976 0.368738
Si Si2 0.433673 0.664756 0.030168
Si Si3 0.282448 0.743629 0.289117
Si Si4 0.106762 0.518530 0.722835
Si Si5 0.629630 0.103914 0.783022
Si Si6 0.230614 0.935817 0.852543
Si Si7 0.679573 0.684351 0.933682
Si Si8 0.751636 0.020275 0.528782
O O1 0.434733 0.618995 0.344615
O O2 0.815493 0.444265 0.342205
O O3 0.359711 0.402706 0.214845
O O4 0.804178 0.473951 0.554830
O O5 0.616558 0.587169 0.164617
O O6 0.371218 0.804211 0.083922
O O7 0.126194 0.626998 0.854231
O O8 0.660919 0.623630 0.008014
O O9 0.454928 0.801887 0.303243
O O10 0.235715 0.845232 0.404079
O O11 0.983478 0.730146 0.093545
O O12 0.370812 0.033627 0.646968
O O13 0.042425 0.990654 0.150447
O O14 0.384914 0.798125 0.864435
O O15 0.071174 0.950427 0.680440
O O16 0.500000 0.000000 0.000000
O O17 0.500000 0.000000 0.500000
#
# Coordination Sequence:
#
# PCOD9078016 Si02
#       8
#     2   2   2   2   2   2   2   2
#     4  10  20  34  63  85 104 151 202 227 270 341
#     4  10  21  37  54  84 121 146 179 235 302 327
#     4  10  18  37  57  83 114 146 193 234 282 327
#     4   9  20  36  56  83 114 148 188 239 272 338
#     4  10  20  35  62  80 110 158 186 233 281 343
#     4  10  18  35  57  86 111 146 194 236 273 326
#     4  11  22  34  58  88 116 146 188 240 280 340
#     4   8  18  31  57  83 105 146 192 236 262 327
#
# _framework density 24.267849999999999
#
# number of rings (size 3 to 8) (size 9 to 14) (size 15 to 20)
#    0.000    2.500    3.750    0.375    1.750    6.500 
#    0.000    1.250    2.750    0.000    0.000    0.000 
#    0.000    0.000    0.000    0.000    0.000    0.000 
#
# Total GULP energy -89197.263474 kJ/mol
# GULP energy per Si atom -5574.828967 kJ/mol
# Density = 2.421262 g / cm^3
# Si number density = 24.267850 Si / 1000 Ang^3
#
#
#
# Elastic Constant Matrix: (Units=GPa)
#
#
# Indices 1 2 3 4 5 6 
#
# 1 32.4256 -5.7877 33.9873 5.1902 2.8110 7.6793
# 2 -5.7877 158.0972 93.1154 29.8732 -5.0894 -13.4224
# 3 33.9873 93.1154 217.7993 48.3215 9.1653 -15.6938
# 4 5.1902 29.8732 48.3215 52.1828 1.7747 -0.2976
# 5 2.8110 -5.0894 9.1653 1.7747 18.2347 2.8270
# 6 7.6793 -13.4224 -15.6938 -0.2976 2.8270 21.4024
#
#
#
# Elastic Compliance Matrix: (Units=1/GPa)
#
#
# Indices 1 2 3 4 5 6 
#
# 1 0.051825 0.007612 -0.014021 0.003171 0.004700 -0.024679
# 2 0.007612 0.010201 -0.005433 -0.001732 0.004723 -0.000966
# 3 -0.014021 -0.005433 0.011424 -0.005802 -0.006197 0.010738
# 4 0.003171 -0.001732 -0.005802 0.025161 0.000455 -0.006188
# 5 0.004700 0.004723 -0.006197 0.000455 0.060244 -0.011220
# 6 -0.024679 -0.000966 0.010738 -0.006188 -0.011220 0.064243
#
#
# Mechanical properties :
#
#
# Convention : Reuss Voigt Hill
#
# Bulk Modulus (GPa) = 20.09421 72.32802 46.21111
# Shear Modulus (GPa) = 18.98460 37.49779 28.24120
#
# Velocity S-wave (km/s) = 2.79999 3.93512 3.41505
# Velocity P-wave (km/s) = 4.33029 7.10744 5.88503
#
# Compressibility (1/GPa) = 0.04976559
#
# Stress axis : x y z
#
# Youngs Moduli (GPa) = 19.29580 98.02673 87.53507
#
# Poissons Ratio (x) = -0.74621 1.22735
# Poissons Ratio (y) = -0.14689 0.47561
# Poissons Ratio (z) = 0.27055 0.53261
#
# Static dielectric constant tensor:
#      x y z
#    x 2.121070 -0.016590 -0.046310 
#    y -0.016590 1.925450 0.068810 
#    z -0.046310 0.068810 2.055810 
# 
# From -- ./inp_files/504224.got.cif
#   From: 2010.05.17/outbox.cif.g08.bks.cpg/sg2_253_cif.got.tgz:504224.got - 2010.06.03 11:33:40.
