data_PCOD9078218
_publ_section_title
;
Structure prediction by ZEFSAII (Michael W. Deem and Ramdas Pophale) SiO2 
 PCOD9078218
Probable space group: P -1
;
_chemical_formula_sum "Si O2"
_cell_formula_units_Z 16
_cell_length_a 16.031225
_cell_length_b 7.940135
_cell_length_c 14.773164
_cell_angle_alpha 109.937010
_cell_angle_beta 37.488667
_cell_angle_gamma 82.011479
_cell_volume 751.274350
_symmetry_space_group_name_H-M "P -1"
_symmetry_group_IT_number 2
_symmetry_cell_setting 'triclinic'
loop_
_space_group_symop_operation_xyz
x,y,z
-x,-y,-z
loop_
_atom_site_type_symbol
_atom_site_label
_atom_site_fract_x
_atom_site_fract_y
_atom_site_fract_z
Si Si1 0.348018 0.346809 0.099082
Si Si2 0.961830 0.640355 0.398394
Si Si3 0.682610 0.384084 0.507835
Si Si4 0.630048 0.140139 0.368477
Si Si5 0.282713 0.226609 0.621106
Si Si6 0.573698 0.775745 0.798612
Si Si7 0.956232 0.723506 0.881351
Si Si8 0.650835 0.122676 0.644247
O O1 0.416529 0.345253 0.138916
O O2 0.117185 0.574151 0.322217
O O3 0.407134 0.080844 0.000995
O O4 0.474912 0.310133 0.901305
O O5 0.781046 0.690343 0.600658
O O6 0.078698 0.397362 0.185604
O O7 0.851011 0.899395 0.485979
O O8 0.558023 0.667243 0.704267
O O9 0.896995 0.265403 0.283521
O O10 0.616202 0.342719 0.467702
O O11 0.676585 0.250681 0.571263
O O12 0.724898 0.915655 0.320417
O O13 0.421643 0.252603 0.542699
O O14 0.771681 0.991961 0.133736
O O15 0.081770 0.499842 0.809010
O O16 0.377415 0.034467 0.418291
#
# Coordination Sequence:
#
# PCOD9078218 Si02
#       8
#     2   2   2   2   2   2   2   2
#     4  10  18  35  60  76  96 138 178 206 255 312
#     4   9  18  34  56  77 100 132 175 216 248 301
#     4  10  21  36  49  75 114 136 163 218 262 295
#     4  10  19  34  54  73 102 139 171 207 255 304
#     4   9  19  34  53  77 100 132 178 213 241 298
#     4   9  20  35  54  80 104 129 170 220 257 301
#     4  10  19  33  53  75 102 136 171 208 253 303
#     4   9  19  35  52  76 108 135 168 214 255 300
#
# _framework density 21.297146000000001
#
# number of rings (size 3 to 8) (size 9 to 14) (size 15 to 20)
#    0.000    2.500    0.000    2.625    0.000    1.000 
#    0.000    6.875    0.000    0.000    0.000    0.000 
#    0.000    0.000    0.000    0.000    0.000    0.000 
#
# Total GULP energy -89324.368776 kJ/mol
# GULP energy per Si atom -5582.773048 kJ/mol
# Density = 2.124867 g / cm^3
# Si number density = 21.297146 Si / 1000 Ang^3
#
#
#
# Elastic Constant Matrix: (Units=GPa)
#
#
# Indices 1 2 3 4 5 6 
#
# 1 42.7174 12.8793 8.2005 3.4356 0.1913 -5.9359
# 2 12.8793 52.1746 -7.4382 -0.8340 -1.6442 -2.0652
# 3 8.2005 -7.4382 43.9489 6.1428 16.2142 1.4145
# 4 3.4356 -0.8340 6.1428 15.6200 -1.4752 8.0073
# 5 0.1913 -1.6442 16.2142 -1.4752 25.3242 4.8420
# 6 -5.9359 -2.0652 1.4145 8.0073 4.8420 29.6520
#
#
#
# Elastic Compliance Matrix: (Units=1/GPa)
#
#
# Indices 1 2 3 4 5 6 
#
# 1 0.028613 -0.007753 -0.006331 -0.007858 0.001467 0.007372
# 2 -0.007753 0.021861 0.005954 0.000325 -0.002311 -0.000024
# 3 -0.006331 0.005954 0.036670 -0.018449 -0.025366 0.006522
# 4 -0.007858 0.000325 -0.018449 0.089826 0.022597 -0.028617
# 5 0.001467 -0.002311 -0.025366 0.022597 0.059656 -0.014501
# 6 0.007372 -0.000024 0.006522 -0.028617 -0.014501 0.044983
#
#
# Mechanical properties :
#
#
# Convention : Reuss Voigt Hill
#
# Bulk Modulus (GPa) = 14.10765 18.45824 16.28294
# Shear Modulus (GPa) = 15.55232 22.46585 19.00909
#
# Velocity S-wave (km/s) = 2.70525 3.25141 2.99082
# Velocity P-wave (km/s) = 4.04925 4.77298 4.42593
#
# Compressibility (1/GPa) = 0.07088352
#
# Stress axis : x y z
#
# Youngs Moduli (GPa) = 34.94974 45.74441 27.27042
#
# Poissons Ratio (x) = 0.35466 0.17265
# Poissons Ratio (y) = 0.27097 -0.16238
# Poissons Ratio (z) = 0.22127 -0.27239
#
# Static dielectric constant tensor:
#      x y z
#    x 1.777490 -0.017330 0.045790 
#    y -0.017330 1.791130 -0.010060 
#    z 0.045790 -0.010060 1.736480 
# 
# From -- ./inp_files/43684.got.cif
#   From: 2010.05.17/outbox.cif.g08.bks.cpg/sg2_22_cif.got.tgz:43684.got - 2010.06.03 11:33:40.
