data_PCOD9078527
_publ_section_title
;
Structure prediction by ZEFSAII (Michael W. Deem and Ramdas Pophale) SiO2 
 PCOD9078527
Probable space group: P -1
;
_chemical_formula_sum "Si O2"
_cell_formula_units_Z 16
_cell_length_a 9.745225
_cell_length_b 10.977579
_cell_length_c 13.037634
_cell_angle_alpha 61.265841
_cell_angle_beta 145.031453
_cell_angle_gamma 122.486681
_cell_volume 671.898715
_symmetry_space_group_name_H-M "P -1"
_symmetry_group_IT_number 2
_symmetry_cell_setting 'triclinic'
loop_
_space_group_symop_operation_xyz
x,y,z
-x,-y,-z
loop_
_atom_site_type_symbol
_atom_site_label
_atom_site_fract_x
_atom_site_fract_y
_atom_site_fract_z
Si Si1 0.178993 0.395707 0.164425
Si Si2 0.615345 0.660514 0.348568
Si Si3 0.632783 0.827653 0.716248
Si Si4 0.472365 0.815820 0.384368
Si Si5 0.930878 0.325243 0.513321
Si Si6 0.983352 0.158698 0.816803
Si Si7 0.266411 0.810502 0.942480
Si Si8 0.437148 0.054905 0.115367
O O1 0.458403 0.492307 0.317410
O O2 0.210246 0.289140 0.135902
O O3 0.000000 0.500000 0.000000
O O4 0.014265 0.288019 0.189526
O O5 0.570300 0.713819 0.411353
O O6 0.463716 0.736276 0.145563
O O7 0.896620 0.693120 0.468589
O O8 0.565911 0.830248 0.551938
O O9 0.366173 0.756001 0.637784
O O10 0.799922 0.993099 0.767053
O O11 0.171654 0.766784 0.233204
O O12 0.531132 0.964037 0.294935
O O13 0.013858 0.246437 0.693940
O O14 0.000000 0.500000 0.500000
O O15 0.251704 0.138688 0.014368
O O16 0.284202 0.944369 0.977236
O O17 0.345339 0.849732 0.859422
#
# Coordination Sequence:
#
# PCOD9078527 Si02
#       8
#     2   2   2   2   2   2   2   2
#     4  10  20  37  63  91 122 162 211 252 307 374
#     4  10  20  38  62  90 121 164 211 253 307 375
#     4  11  23  42  64  93 128 165 207 258 314 374
#     4  10  23  37  61  94 124 162 206 261 316 363
#     4  11  21  38  62  91 121 166 208 250 308 379
#     4  11  22  42  64  89 128 167 211 252 315 380
#     4   9  18  34  62  94 114 160 206 259 300 369
#     4  10  18  35  64  89 123 157 209 253 312 364
#
# _framework density 23.813113000000001
#
# number of rings (size 3 to 8) (size 9 to 14) (size 15 to 20)
#    0.000    1.750    3.750    1.875    0.000    0.500 
#    0.000    5.625    0.000    0.750    0.000    0.000 
#    0.000    0.000    0.000    0.000    0.000    0.000 
#
# Total GULP energy -89346.088029 kJ/mol
# GULP energy per Si atom -5584.130502 kJ/mol
# Density = 2.375891 g / cm^3
# Si number density = 23.813113 Si / 1000 Ang^3
#
#
#
# Elastic Constant Matrix: (Units=GPa)
#
#
# Indices 1 2 3 4 5 6 
#
# 1 185.1466 51.4786 30.4719 15.4858 35.1043 21.2747
# 2 51.4786 98.2176 26.3410 1.6031 9.7042 24.1386
# 3 30.4719 26.3410 88.9383 9.0939 9.2132 2.9295
# 4 15.4858 1.6031 9.0939 25.8838 -4.8895 14.4428
# 5 35.1043 9.7042 9.2132 -4.8895 38.1159 0.4752
# 6 21.2747 24.1386 2.9295 14.4428 0.4752 43.8001
#
#
#
# Elastic Compliance Matrix: (Units=1/GPa)
#
#
# Indices 1 2 3 4 5 6 
#
# 1 0.008351 -0.003389 -0.000468 -0.005976 -0.007480 -0.000106
# 2 -0.003389 0.014919 -0.003891 0.007670 0.001357 -0.008860
# 3 -0.000468 -0.003891 0.013412 -0.006799 -0.002739 0.003746
# 4 -0.005976 0.007670 -0.006799 0.057737 0.012851 -0.020048
# 5 -0.007480 0.001357 -0.002739 0.012851 0.035109 -0.001550
# 6 -0.000106 -0.008860 0.003746 -0.020048 -0.001550 0.034142
#
#
# Mechanical properties :
#
#
# Convention : Reuss Voigt Hill
#
# Bulk Modulus (GPa) = 47.19914 65.43173 56.31543
# Shear Modulus (GPa) = 26.84899 39.16069 33.00484
#
# Velocity S-wave (km/s) = 3.36145 4.05964 3.72693
# Velocity P-wave (km/s) = 5.91012 7.03641 6.49772
#
# Compressibility (1/GPa) = 0.02118683
#
# Stress axis : x y z
#
# Youngs Moduli (GPa) = 119.75242 67.02778 74.56035
#
# Poissons Ratio (x) = 0.22714 0.03490
# Poissons Ratio (y) = 0.40580 0.29009
# Poissons Ratio (z) = 0.05605 0.26079
#
# Static dielectric constant tensor:
#      x y z
#    x 1.940450 -0.075830 -0.006500 
#    y -0.075830 1.968900 -0.029510 
#    z -0.006500 -0.029510 1.975000 
# 
# From -- ./inp_files/500218.got.cif
#   From: 2010.05.17/outbox.cif.g08.bks.cpg/sg2_251_cif.got.tgz:500218.got - 2010.06.03 11:33:40.
