data_PCOD9078826
_publ_section_title
;
Structure prediction by ZEFSAII (Michael W. Deem and Ramdas Pophale) SiO2 
 PCOD9078826
Probable space group: P -1
;
_chemical_formula_sum "Si O2"
_cell_formula_units_Z 16
_cell_length_a 8.387485
_cell_length_b 13.664229
_cell_length_c 9.595902
_cell_angle_alpha 108.944679
_cell_angle_beta 90.094075
_cell_angle_gamma 41.123227
_cell_volume 629.799213
_symmetry_space_group_name_H-M "P -1"
_symmetry_group_IT_number 2
_symmetry_cell_setting 'triclinic'
loop_
_space_group_symop_operation_xyz
x,y,z
-x,-y,-z
loop_
_atom_site_type_symbol
_atom_site_label
_atom_site_fract_x
_atom_site_fract_y
_atom_site_fract_z
Si Si1 0.176928 0.457955 0.105461
Si Si2 0.784758 0.726398 0.756677
Si Si3 0.395535 0.884105 0.186271
Si Si4 0.201747 0.789732 0.670649
Si Si5 0.231164 0.660147 0.155175
Si Si6 0.243753 0.524819 0.500602
Si Si7 0.260902 0.098424 0.913792
Si Si8 0.400532 0.755667 0.396196
O O1 0.130149 0.417404 0.224301
O O2 0.139911 0.597743 0.191253
O O3 0.467525 0.280998 0.970182
O O4 0.000000 0.500000 0.000000
O O5 0.936436 0.652590 0.576429
O O6 0.469707 0.898182 0.826927
O O7 0.831751 0.799750 0.895087
O O8 0.570513 0.895665 0.157845
O O9 0.422260 0.840200 0.329943
O O10 0.097511 0.046631 0.204600
O O11 0.221535 0.660257 0.556948
O O12 0.499128 0.641572 0.668413
O O13 0.212509 0.866534 0.579538
O O14 0.284456 0.722475 0.290851
O O15 0.997382 0.805211 0.117290
O O16 0.500000 0.500000 0.000000
O O17 0.348857 0.424611 0.605093
#
# Coordination Sequence:
#
# PCOD9078826 Si02
#       8
#     2   2   2   2   2   2   2   2
#     4  11  21  36  61  88 108 151 195 231 281 343
#     4  10  18  36  59  84 109 141 203 230 279 321
#     4  11  18  37  57  88 113 142 200 233 264 343
#     4   9  20  34  58  87 110 151 196 231 273 329
#     4  12  22  38  54  85 125 145 181 236 297 339
#     4   9  18  35  59  86 107 149 196 234 269 332
#     4  10  22  33  60  84 112 151 182 242 281 337
#     4  10  21  34  58  87 117 149 181 236 292 324
#
# _framework density 25.404920000000001
#
# number of rings (size 3 to 8) (size 9 to 14) (size 15 to 20)
#    0.750    1.000    5.000    1.875    0.000    0.000 
#    0.000    2.500    0.000    0.750    0.000    0.000 
#    0.000    0.000    0.000    0.000    0.000    0.000 
#
# Total GULP energy -89239.810027 kJ/mol
# GULP energy per Si atom -5577.488127 kJ/mol
# Density = 2.534710 g / cm^3
# Si number density = 25.404920 Si / 1000 Ang^3
#
#
#
# Elastic Constant Matrix: (Units=GPa)
#
#
# Indices 1 2 3 4 5 6 
#
# 1 72.2172 17.2418 23.7482 -4.1434 1.6551 8.6255
# 2 17.2418 92.1572 15.9879 17.9666 -4.8170 -5.2599
# 3 23.7482 15.9879 72.5986 26.2413 -18.2376 -9.2951
# 4 -4.1434 17.9666 26.2413 44.7032 3.8054 -18.5768
# 5 1.6551 -4.8170 -18.2376 3.8054 40.4269 -2.4986
# 6 8.6255 -5.2599 -9.2951 -18.5768 -2.4986 56.5425
#
#
#
# Elastic Compliance Matrix: (Units=1/GPa)
#
#
# Indices 1 2 3 4 5 6 
#
# 1 0.019472 -0.004112 -0.011082 0.009615 -0.007336 -0.002340
# 2 -0.004112 0.012809 0.001790 -0.006847 0.003147 0.000003
# 3 -0.011082 0.001790 0.027737 -0.018952 0.015017 0.000854
# 4 0.009615 -0.006847 -0.018952 0.041517 -0.013183 0.007839
# 5 -0.007336 0.003147 0.015017 -0.013183 0.033490 0.001029
# 6 -0.002340 0.000003 0.000854 0.007839 0.001029 0.020804
#
#
# Mechanical properties :
#
#
# Convention : Reuss Voigt Hill
#
# Bulk Modulus (GPa) = 30.11101 38.99210 34.55156
# Shear Modulus (GPa) = 25.81182 40.33420 33.07301
#
# Velocity S-wave (km/s) = 3.19096 3.98886 3.61201
# Velocity P-wave (km/s) = 5.04524 6.04948 5.57004
#
# Compressibility (1/GPa) = 0.03321044
#
# Stress axis : x y z
#
# Youngs Moduli (GPa) = 51.35466 78.06852 36.05234
#
# Poissons Ratio (x) = 0.32102 0.39954
# Poissons Ratio (y) = 0.21117 -0.06453
# Poissons Ratio (z) = 0.56912 -0.13973
#
# Static dielectric constant tensor:
#      x y z
#    x 2.122310 -0.039080 -0.019440 
#    y -0.039080 2.078640 -0.032240 
#    z -0.019440 -0.032240 2.090950 
# 
# From -- ./inp_files/501898.got.cif
#   From: 2010.05.17/outbox.cif.g08.bks.cpg/sg2_251_cif.got.tgz:501898.got - 2010.06.03 11:33:40.
