data_PCOD9078469
_publ_section_title
;
Structure prediction by ZEFSAII (Michael W. Deem and Ramdas Pophale) SiO2 
 PCOD9078469
Probable space group: P -1
;
_chemical_formula_sum "Si O2"
_cell_formula_units_Z 14
_cell_length_a 15.045943
_cell_length_b 11.968264
_cell_length_c 16.225192
_cell_angle_alpha 132.908550
_cell_angle_beta 149.711928
_cell_angle_gamma 27.090111
_cell_volume 619.916784
_symmetry_space_group_name_H-M "P -1"
_symmetry_group_IT_number 2
_symmetry_cell_setting 'triclinic'
loop_
_space_group_symop_operation_xyz
x,y,z
-x,-y,-z
loop_
_atom_site_type_symbol
_atom_site_label
_atom_site_fract_x
_atom_site_fract_y
_atom_site_fract_z
Si Si1 0.253103 0.341458 0.192116
Si Si2 0.456990 0.336489 0.974357
Si Si3 0.883374 0.921709 0.831519
Si Si4 0.386870 0.173890 0.683290
Si Si5 0.218093 0.092279 0.844382
Si Si6 0.999017 0.823651 0.682791
Si Si7 0.253837 0.800946 0.480678
O O1 0.546844 0.213733 0.320275
O O2 0.067909 0.588591 0.225864
O O3 0.377217 0.110401 0.225112
O O4 0.000000 0.500000 0.000000
O O5 0.361319 0.326817 0.806644
O O6 0.144583 0.610869 0.905849
O O7 0.659776 0.346082 0.130477
O O8 0.656955 0.072561 0.053013
O O9 0.873799 0.931253 0.729303
O O10 0.562593 0.106831 0.709256
O O11 0.000000 0.000000 0.000000
O O12 0.091826 0.279117 0.476916
O O13 0.049570 0.061431 0.655887
O O14 0.500000 0.000000 0.000000
O O15 0.832381 0.053049 0.599860
O O16 0.500000 0.500000 0.500000
#
# Coordination Sequence:
#
# PCOD9078469 Si02
#       7
#     2   2   2   2   2   2   2
#     4  10  18  35  63  88 119 162 203 246 315 378
#     4  11  23  43  65  91 129 168 211 263 315 375
#     4  12  25  42  65  93 127 168 217 263 314 373
#     4  11  23  42  67  95 126 168 213 258 321 375
#     4  10  19  36  61  89 126 159 203 260 312 370
#     4  10  22  42  65  92 128 166 209 263 317 374
#     4   8  18  34  60  87 119 161 201 246 311 377
#
# _framework density 22.583676000000001
#
# number of rings (size 3 to 8) (size 9 to 14) (size 15 to 20)
#    0.000    1.714    2.857    1.714    0.000    0.571 
#    2.571    0.714    3.143    0.000    0.000    0.000 
#    0.000    0.000    0.000    0.000    0.000    0.000 
#
# Total GULP energy -78012.322527 kJ/mol
# GULP energy per Si atom -5572.308752 kJ/mol
# Density = 2.253227 g / cm^3
# Si number density = 22.583676 Si / 1000 Ang^3
#
#
#
# Elastic Constant Matrix: (Units=GPa)
#
#
# Indices 1 2 3 4 5 6 
#
# 1 71.1525 18.2883 59.0466 14.4859 32.3174 1.4147
# 2 18.2883 86.4554 16.6699 7.0302 2.9680 4.1486
# 3 59.0466 16.6699 188.7666 16.1392 22.9943 -0.1761
# 4 14.4859 7.0302 16.1392 37.3512 4.8112 1.6351
# 5 32.3174 2.9680 22.9943 4.8112 50.3753 -6.0562
# 6 1.4147 4.1486 -0.1761 1.6351 -6.0562 32.8705
#
#
#
# Elastic Compliance Matrix: (Units=1/GPa)
#
#
# Indices 1 2 3 4 5 6 
#
# 1 0.028012 -0.003627 -0.006174 -0.005465 -0.014806 -0.003237
# 2 -0.003627 0.012430 -0.000068 -0.001063 0.001599 -0.001066
# 3 -0.006174 -0.000068 0.007207 -0.000834 0.000815 0.000505
# 4 -0.005465 -0.001063 -0.000834 0.029359 0.001036 -0.000905
# 5 -0.014806 0.001599 0.000815 0.001036 0.029484 0.005820
# 6 -0.003237 -0.001066 0.000505 -0.000905 0.005820 0.031816
#
#
# Mechanical properties :
#
#
# Convention : Reuss Voigt Hill
#
# Bulk Modulus (GPa) = 35.82889 59.37602 47.60245
# Shear Modulus (GPa) = 29.87755 40.94404 35.41079
#
# Velocity S-wave (km/s) = 3.64121 4.26254 3.96407
# Velocity P-wave (km/s) = 5.79459 7.11156 6.48659
#
# Compressibility (1/GPa) = 0.02791044
#
# Stress axis : x y z
#
# Youngs Moduli (GPa) = 35.69908 80.45259 138.74839
#
# Poissons Ratio (x) = 0.29181 0.85665
# Poissons Ratio (y) = 0.12948 0.00944
# Poissons Ratio (z) = 0.22041 0.00547
#
# Static dielectric constant tensor:
#      x y z
#    x 1.782530 0.083190 -0.015360 
#    y 0.083190 1.723430 0.106710 
#    z -0.015360 0.106710 1.908450 
# 
# From -- ./inp_files/429078.got.cif
#   From: 2010.05.17/outbox.cif.g08.bks.cpg/sg2_215_cif.got.tgz:429078.got - 2010.06.03 11:33:40.
