data_PCOD9078789
_publ_section_title
;
Structure prediction by ZEFSAII (Michael W. Deem and Ramdas Pophale) SiO2 
 PCOD9078789
Probable space group: P -1
;
_chemical_formula_sum "Si O2"
_cell_formula_units_Z 16
_cell_length_a 10.548683
_cell_length_b 7.438241
_cell_length_c 17.866245
_cell_angle_alpha 72.959285
_cell_angle_beta 136.081555
_cell_angle_gamma 75.660017
_cell_volume 671.339925
_symmetry_space_group_name_H-M "P -1"
_symmetry_group_IT_number 2
_symmetry_cell_setting 'triclinic'
loop_
_space_group_symop_operation_xyz
x,y,z
-x,-y,-z
loop_
_atom_site_type_symbol
_atom_site_label
_atom_site_fract_x
_atom_site_fract_y
_atom_site_fract_z
Si Si1 0.251468 0.694144 0.496903
Si Si2 0.229749 0.779589 0.250492
Si Si3 0.039649 0.445535 0.434021
Si Si4 0.705293 0.560713 0.954975
Si Si5 0.046614 0.121667 0.261894
Si Si6 0.581157 0.962432 0.672292
Si Si7 0.754225 0.295880 0.336269
Si Si8 0.045314 0.651328 0.063556
O O1 0.518457 0.520925 0.588610
O O2 0.092287 0.624138 0.412376
O O3 0.084463 0.997076 0.372180
O O4 0.347875 0.603720 0.634352
O O5 0.063584 0.934484 0.234007
O O6 0.348148 0.899525 0.267130
O O7 0.077550 0.791275 0.118913
O O8 0.288351 0.158912 0.543985
O O9 0.000000 0.500000 0.500000
O O10 0.816190 0.462324 0.313376
O O11 0.429011 0.692132 0.797014
O O12 0.882585 0.344715 0.990954
O O13 0.785616 0.721739 0.960677
O O14 0.807967 0.411581 0.096400
O O15 0.297350 0.062426 0.352833
O O16 0.735544 0.663857 0.790870
O O17 0.000000 0.000000 0.500000
#
# Coordination Sequence:
#
# PCOD9078789 Si02
#       8
#     2   2   2   2   2   2   2   2
#     4  10  19  39  61  86 122 152 203 244 300 360
#     4   9  18  33  61  89 119 156 189 236 313 358
#     4   9  19  33  56  83 114 155 207 240 282 350
#     4  10  21  37  55  87 126 146 208 248 297 358
#     4   9  20  37  60  89 122 154 184 262 312 349
#     4   8  18  34  57  89 121 148 199 250 297 356
#     4  11  22  39  62  86 114 165 201 248 290 353
#     4  10  18  36  58  87 123 156 194 255 303 356
#
# _framework density 23.832936
#
# number of rings (size 3 to 8) (size 9 to 14) (size 15 to 20)
#    0.750    1.750    1.250    1.125    0.000    0.500 
#    0.000    8.750    0.000    0.000    0.000    0.000 
#    0.000    0.000    0.000    0.000    0.000    0.000 
#
# Total GULP energy -89079.749157 kJ/mol
# GULP energy per Si atom -5567.484322 kJ/mol
# Density = 2.377869 g / cm^3
# Si number density = 23.832936 Si / 1000 Ang^3
#
#
#
# Elastic Constant Matrix: (Units=GPa)
#
#
# Indices 1 2 3 4 5 6 
#
# 1 68.7813 6.5671 41.3844 3.2106 1.6957 23.5554
# 2 6.5671 89.1073 24.3700 31.8450 5.0120 17.3639
# 3 41.3844 24.3700 99.5226 12.9158 8.1177 25.5639
# 4 3.2106 31.8450 12.9158 46.9671 11.7961 6.7340
# 5 1.6957 5.0120 8.1177 11.7961 36.6892 -2.2488
# 6 23.5554 17.3639 25.5639 6.7340 -2.2488 32.0161
#
#
#
# Elastic Compliance Matrix: (Units=1/GPa)
#
#
# Indices 1 2 3 4 5 6 
#
# 1 0.022800 0.002496 -0.006790 0.000696 -0.000908 -0.012916
# 2 0.002496 0.016485 -0.002058 -0.010003 0.000877 -0.006968
# 3 -0.006790 -0.002058 0.015288 -0.000727 -0.002931 -0.006148
# 4 0.000696 -0.010003 -0.000727 0.030561 -0.008424 -0.001526
# 5 -0.000908 0.000877 -0.002931 -0.008424 0.030932 0.006477
# 6 -0.012916 -0.006968 -0.006148 -0.001526 0.006477 0.050201
#
#
# Mechanical properties :
#
#
# Convention : Reuss Voigt Hill
#
# Bulk Modulus (GPa) = 23.88497 44.67267 34.27882
# Shear Modulus (GPa) = 25.91651 35.47379 30.69515
#
# Velocity S-wave (km/s) = 3.30119 3.86221 3.59267
# Velocity P-wave (km/s) = 4.95722 6.21882 5.62351
#
# Compressibility (1/GPa) = 0.04186733
#
# Stress axis : x y z
#
# Youngs Moduli (GPa) = 43.86059 60.66257 65.40994
#
# Poissons Ratio (x) = -0.15141 0.44416
# Poissons Ratio (y) = -0.10947 0.13461
# Poissons Ratio (z) = 0.29783 0.12484
#
# Static dielectric constant tensor:
#      x y z
#    x 2.005340 -0.029160 -0.006380 
#    y -0.029160 1.963290 -0.012750 
#    z -0.006380 -0.012750 2.064180 
# 
# From -- ./inp_files/593548.got.cif
#   From: 2010.05.17/outbox.cif.g08.bks.cpg/sg2_297_cif.got.tgz:593548.got - 2010.06.03 11:33:40.
