data_PCOD9078759
_publ_section_title
;
Structure prediction by ZEFSAII (Michael W. Deem and Ramdas Pophale) SiO2 
 PCOD9078759
Probable space group: P -1
;
_chemical_formula_sum "Si O2"
_cell_formula_units_Z 16
_cell_length_a 9.294041
_cell_length_b 7.847609
_cell_length_c 13.166074
_cell_angle_alpha 56.688116
_cell_angle_beta 60.873227
_cell_angle_gamma 53.554131
_cell_volume 626.880579
_symmetry_space_group_name_H-M "P -1"
_symmetry_group_IT_number 2
_symmetry_cell_setting 'triclinic'
loop_
_space_group_symop_operation_xyz
x,y,z
-x,-y,-z
loop_
_atom_site_type_symbol
_atom_site_label
_atom_site_fract_x
_atom_site_fract_y
_atom_site_fract_z
Si Si1 0.129413 0.392457 0.332372
Si Si2 0.606335 0.243819 0.578496
Si Si3 0.815193 0.948855 0.766221
Si Si4 0.658812 0.406421 0.058449
Si Si5 0.024465 0.220758 0.881254
Si Si6 0.789048 0.677894 0.043392
Si Si7 0.548334 0.101426 0.314358
Si Si8 0.142205 0.031382 0.586345
O O1 0.143960 0.237002 0.277712
O O2 0.004433 0.657406 0.259322
O O3 0.343957 0.317600 0.313240
O O4 0.061422 0.283211 0.482817
O O5 0.500000 0.500000 0.500000
O O6 0.673004 0.186335 0.689194
O O7 0.489661 0.105691 0.640453
O O8 0.787786 0.132924 0.482014
O O9 0.740020 0.880957 0.913517
O O10 0.002080 0.967999 0.716320
O O11 0.667945 0.171383 0.172940
O O12 0.500000 0.500000 0.000000
O O13 0.829598 0.395912 0.940381
O O14 0.659131 0.557063 0.106039
O O15 0.188259 0.241402 0.879273
O O16 0.000000 0.000000 0.000000
O O17 0.000000 0.500000 0.000000
O O18 0.670310 0.032493 0.395645
#
# Coordination Sequence:
#
# PCOD9078759 Si02
#       8
#     2   2   2   2   2   2   2   2
#     4  10  18  36  58  81 113 148 189 231 281 343
#     4  10  21  39  54  86 121 146 176 237 298 333
#     4  10  18  38  62  83 104 153 199 228 270 349
#     4  11  19  39  64  84 110 152 199 238 275 347
#     4  11  23  39  55  86 122 151 185 244 298 328
#     4  10  19  36  63  83 110 153 199 234 278 346
#     4  10  20  37  62  84 108 152 197 230 278 347
#     4  10  20  36  64  82 106 150 201 228 272 347
#
# _framework density 25.523204
#
# number of rings (size 3 to 8) (size 9 to 14) (size 15 to 20)
#    0.000    2.000    3.750    5.250    0.000    0.000 
#    9.000    1.250    0.000    0.000    0.000    0.000 
#    0.000    0.000    0.000    0.000    0.000    0.000 
#
# Total GULP energy -89394.293294 kJ/mol
# GULP energy per Si atom -5587.143331 kJ/mol
# Density = 2.546511 g / cm^3
# Si number density = 25.523204 Si / 1000 Ang^3
#
#
#
# Elastic Constant Matrix: (Units=GPa)
#
#
# Indices 1 2 3 4 5 6 
#
# 1 168.6812 18.6413 37.2950 -22.4898 11.3271 24.8524
# 2 18.6413 50.2392 20.7650 -21.4934 2.5542 6.4356
# 3 37.2950 20.7650 139.3998 -39.6525 14.6632 0.3184
# 4 -22.4898 -21.4934 -39.6525 44.0254 -12.6310 0.1398
# 5 11.3271 2.5542 14.6632 -12.6310 55.9122 -5.3436
# 6 24.8524 6.4356 0.3184 0.1398 -5.3436 15.9734
#
#
#
# Elastic Compliance Matrix: (Units=1/GPa)
#
#
# Indices 1 2 3 4 5 6 
#
# 1 0.008895 0.000554 -0.001336 0.003024 -0.002208 -0.014800
# 2 0.000554 0.027033 -0.000429 0.013321 0.000662 -0.011640
# 3 -0.001336 -0.000429 0.009872 0.007898 -0.000336 0.001873
# 4 0.003024 0.013321 0.007898 0.039258 0.004716 -0.008996
# 5 -0.002208 0.000662 -0.000336 0.004716 0.020408 0.009961
# 6 -0.014800 -0.011640 0.001873 -0.008996 0.009961 0.093695
#
#
# Mechanical properties :
#
#
# Convention : Reuss Voigt Hill
#
# Bulk Modulus (GPa) = 23.05283 56.85810 39.95546
# Shear Modulus (GPa) = 23.14369 41.95678 32.55023
#
# Velocity S-wave (km/s) = 3.01453 4.05886 3.57504
# Velocity P-wave (km/s) = 4.60089 6.65516 5.72099
#
# Compressibility (1/GPa) = 0.04337863
#
# Stress axis : x y z
#
# Youngs Moduli (GPa) = 112.42778 36.99180 101.29173
#
# Poissons Ratio (x) = -0.02049 0.13530
# Poissons Ratio (y) = -0.06227 0.04344
# Poissons Ratio (z) = 0.15018 0.01586
#
# Static dielectric constant tensor:
#      x y z
#    x 2.082360 -0.145910 0.029040 
#    y -0.145910 2.762770 0.106380 
#    z 0.029040 0.106380 2.043950 
# 
# From -- ./inp_files/216830.got.cif
#   From: 2010.05.17/outbox.cif.g08.bks.cpg/sg2_109_cif.got.tgz:216830.got - 2010.06.03 11:33:40.
