data_PCOD9078587
_publ_section_title
;
Structure prediction by ZEFSAII (Michael W. Deem and Ramdas Pophale) SiO2 
 PCOD9078587
Probable space group: P -1
;
_chemical_formula_sum "Si O2"
_cell_formula_units_Z 14
_cell_length_a 9.098565
_cell_length_b 8.784823
_cell_length_c 14.283990
_cell_angle_alpha 144.200103
_cell_angle_beta 62.888171
_cell_angle_gamma 103.535049
_cell_volume 573.957008
_symmetry_space_group_name_H-M "P -1"
_symmetry_group_IT_number 2
_symmetry_cell_setting 'triclinic'
loop_
_space_group_symop_operation_xyz
x,y,z
-x,-y,-z
loop_
_atom_site_type_symbol
_atom_site_label
_atom_site_fract_x
_atom_site_fract_y
_atom_site_fract_z
Si Si1 0.967978 0.575981 0.902254
Si Si2 0.477116 0.576686 0.750202
Si Si3 0.276392 0.885392 0.791628
Si Si4 0.849483 0.984357 0.467805
Si Si5 0.160580 0.624358 0.509257
Si Si6 0.513743 0.991017 0.363475
Si Si7 0.239007 0.568794 0.965486
O O1 0.067231 0.676319 0.008771
O O2 0.831421 0.418472 0.902703
O O3 0.119906 0.339871 0.701836
O O4 0.863846 0.834828 0.006890
O O5 0.344552 0.727593 0.786133
O O6 0.668843 0.596406 0.686707
O O7 0.500936 0.257678 0.561276
O O8 0.390585 0.665209 0.920260
O O9 0.203392 0.728729 0.651672
O O10 0.442650 0.942933 0.721536
O O11 0.869530 0.139572 0.443294
O O12 0.658931 0.099285 0.620067
O O13 0.000000 0.000000 0.500000
O O14 0.000000 0.500000 0.500000
O O15 0.679607 0.755487 0.226078
#
# Coordination Sequence:
#
# PCOD9078587 Si02
#       7
#     2   2   2   2   2   2   2
#     4  10  21  40  63  96 124 163 218 272 309 373
#     4  11  20  37  68  97 125 174 216 260 304 392
#     4  10  24  39  69  96 130 170 214 265 314 378
#     4  12  25  40  68  94 125 170 216 273 321 378
#     4  11  24  40  64 101 136 167 207 270 328 371
#     4  10  19  38  62  95 119 163 226 258 304 374
#     4  10  18  35  66  89 122 156 217 263 310 361
#
# _framework density 24.392068999999999
#
# number of rings (size 3 to 8) (size 9 to 14) (size 15 to 20)
#    0.000    1.429    2.857    5.571    4.000    0.571 
#    0.000    4.286    3.143    4.286    0.000    0.000 
#    0.000    0.000    0.000    0.000    0.000    0.000 
#
# Total GULP energy -78113.238480 kJ/mol
# GULP energy per Si atom -5579.517034 kJ/mol
# Density = 2.433655 g / cm^3
# Si number density = 24.392069 Si / 1000 Ang^3
#
#
#
# Elastic Constant Matrix: (Units=GPa)
#
#
# Indices 1 2 3 4 5 6 
#
# 1 124.0410 57.2539 31.5472 1.9651 -36.7011 9.7887
# 2 57.2539 105.5363 26.1158 -3.4261 -19.8258 8.7703
# 3 31.5472 26.1158 73.1859 5.6319 -35.8770 -2.8784
# 4 1.9651 -3.4261 5.6319 28.8223 -0.4479 -21.2646
# 5 -36.7011 -19.8258 -35.8770 -0.4479 33.2124 -3.4546
# 6 9.7887 8.7703 -2.8784 -21.2646 -3.4546 43.5144
#
#
#
# Elastic Compliance Matrix: (Units=1/GPa)
#
#
# Indices 1 2 3 4 5 6 
#
# 1 0.015192 -0.005940 0.004524 -0.004260 0.017802 -0.002589
# 2 -0.005940 0.013234 -0.003662 0.002088 -0.002672 -0.000765
# 3 0.004524 -0.003662 0.031775 -0.004441 0.037349 0.002617
# 4 -0.004260 0.002088 -0.004441 0.056198 -0.004657 0.027337
# 5 0.017802 -0.002672 0.037349 -0.004657 0.088863 0.003783
# 6 -0.002589 -0.000765 0.002617 0.027337 0.003783 0.037550
#
#
# Mechanical properties :
#
#
# Convention : Reuss Voigt Hill
#
# Bulk Modulus (GPa) = 19.98276 59.17743 39.58009
# Shear Modulus (GPa) = 18.54259 33.63290 26.08774
#
# Velocity S-wave (km/s) = 2.76014 3.71731 3.27390
# Velocity P-wave (km/s) = 4.28579 6.53744 5.52748
#
# Compressibility (1/GPa) = 0.05004314
#
# Stress axis : x y z
#
# Youngs Moduli (GPa) = 65.82327 75.56500 31.47168
#
# Poissons Ratio (x) = 0.44887 -0.14238
# Poissons Ratio (y) = 0.39100 0.11526
# Poissons Ratio (z) = -0.29778 0.27675
#
# Static dielectric constant tensor:
#      x y z
#    x 1.959750 0.036840 0.066180 
#    y 0.036840 2.033550 -0.060710 
#    z 0.066180 -0.060710 2.024430 
# 
# From -- ./inp_files/230613.got.cif
#   From: 2010.05.17/outbox.cif.g08.bks.cpg/sg2_116_cif.got.tgz:230613.got - 2010.06.03 11:33:40.
