data_PCOD9078482
_publ_section_title
;
Structure prediction by ZEFSAII (Michael W. Deem and Ramdas Pophale) SiO2 
 PCOD9078482
Probable space group: P -1
;
_chemical_formula_sum "Si O2"
_cell_formula_units_Z 16
_cell_length_a 14.648078
_cell_length_b 8.174431
_cell_length_c 22.457291
_cell_angle_alpha 51.368940
_cell_angle_beta 160.054700
_cell_angle_gamma 125.756479
_cell_volume 716.538191
_symmetry_space_group_name_H-M "P -1"
_symmetry_group_IT_number 2
_symmetry_cell_setting 'triclinic'
loop_
_space_group_symop_operation_xyz
x,y,z
-x,-y,-z
loop_
_atom_site_type_symbol
_atom_site_label
_atom_site_fract_x
_atom_site_fract_y
_atom_site_fract_z
Si Si1 0.269592 0.676908 0.692322
Si Si2 0.156163 0.659596 0.491978
Si Si3 0.735874 0.021937 0.187587
Si Si4 0.971019 0.119035 0.891355
Si Si5 0.319725 0.220931 0.262899
Si Si6 0.507881 0.955169 0.194850
Si Si7 0.176884 0.619383 0.018420
Si Si8 0.798148 0.447584 0.082648
O O1 0.305879 0.643045 0.651439
O O2 0.288597 0.922380 0.664448
O O3 0.999164 0.554141 0.568855
O O4 0.516429 0.557826 0.902917
O O5 0.369796 0.725182 0.558692
O O6 0.941805 0.840072 0.335785
O O7 0.617560 0.001876 0.185783
O O8 0.864337 0.253197 0.209200
O O9 0.500000 0.000000 0.000000
O O10 0.989182 0.369710 0.842226
O O11 0.225101 0.052271 0.021734
O O12 0.716935 0.015085 0.728029
O O13 0.000000 0.000000 0.000000
O O14 0.178075 0.376393 0.091898
O O15 0.116968 0.275114 0.179342
O O16 0.404024 0.717113 0.178795
O O17 0.255896 0.652156 0.992133
#
# Coordination Sequence:
#
# PCOD9078482 Si02
#       8
#     2   2   2   2   2   2   2   2
#     4  10  21  37  63  90 122 155 209 263 305 357
#     4  11  22  41  59  88 130 164 202 256 319 355
#     4  12  24  41  61  88 132 172 201 246 310 382
#     4  10  19  36  64  93 120 151 211 266 300 355
#     4  10  20  35  59  90 119 157 201 263 305 354
#     4  10  22  37  62  99 121 159 208 254 309 367
#     4  10  18  35  63  90 121 152 211 249 304 369
#     4  11  20  40  63  90 118 169 205 246 312 367
#
# _framework density 22.329585000000002
#
# number of rings (size 3 to 8) (size 9 to 14) (size 15 to 20)
#    0.000    1.500    5.000    0.750    1.750    2.500 
#    0.000    1.250    0.000    0.000    0.000    0.000 
#    0.000    0.000    0.000    0.000    0.000    0.000 
#
# Total GULP energy -89113.658498 kJ/mol
# GULP energy per Si atom -5569.603656 kJ/mol
# Density = 2.227876 g / cm^3
# Si number density = 22.329585 Si / 1000 Ang^3
#
#
#
# Elastic Constant Matrix: (Units=GPa)
#
#
# Indices 1 2 3 4 5 6 
#
# 1 58.6221 20.0412 27.1049 7.8252 26.0714 3.6846
# 2 20.0412 151.8892 20.0389 37.1816 3.1242 3.3888
# 3 27.1049 20.0389 55.5157 10.4983 25.2716 1.5887
# 4 7.8252 37.1816 10.4983 37.4617 0.5399 -7.5490
# 5 26.0714 3.1242 25.2716 0.5399 23.8977 3.7495
# 6 3.6846 3.3888 1.5887 -7.5490 3.7495 25.2835
#
#
#
# Elastic Compliance Matrix: (Units=1/GPa)
#
#
# Indices 1 2 3 4 5 6 
#
# 1 0.036151 -0.003217 0.004140 -0.004926 -0.043262 -0.000152
# 2 -0.003217 0.009540 -0.002865 -0.008930 0.006155 -0.004209
# 3 0.004140 -0.002865 0.039383 -0.008053 -0.045875 0.001705
# 4 -0.004926 -0.008930 -0.008053 0.041279 0.012093 0.012952
# 5 -0.043262 0.006155 -0.045875 0.012093 0.137805 -0.008463
# 6 -0.000152 -0.004209 0.001705 0.012952 -0.008463 0.045153
#
#
# Mechanical properties :
#
#
# Convention : Reuss Voigt Hill
#
# Bulk Modulus (GPa) = 12.31686 44.48855 28.40271
# Shear Modulus (GPa) = 14.69475 30.58471 22.63973
#
# Velocity S-wave (km/s) = 2.56810 3.70495 3.18762
# Velocity P-wave (km/s) = 3.78436 6.18620 5.12789
#
# Compressibility (1/GPa) = 0.08118953
#
# Stress axis : x y z
#
# Youngs Moduli (GPa) = 27.66154 104.82596 25.39185
#
# Poissons Ratio (x) = 0.33725 -0.10513
# Poissons Ratio (y) = 0.08899 0.07275
# Poissons Ratio (z) = -0.11453 0.30035
#
# Static dielectric constant tensor:
#      x y z
#    x 1.831420 -0.005620 0.030630 
#    y -0.005620 1.936240 0.024050 
#    z 0.030630 0.024050 1.898630 
# 
# From -- ./inp_files/345147.got.cif
#   From: 2010.05.17/outbox.cif.g08.bks.cpg/sg2_173_cif.got.tgz:345147.got - 2010.06.03 11:33:40.
