data_PCOD9078926
_publ_section_title
;
Structure prediction by ZEFSAII (Michael W. Deem and Ramdas Pophale) SiO2 
 PCOD9078926
Probable space group: P -1
;
_chemical_formula_sum "Si O2"
_cell_formula_units_Z 16
_cell_length_a 23.953420
_cell_length_b 7.919313
_cell_length_c 17.361614
_cell_angle_alpha 42.251586
_cell_angle_beta 158.653912
_cell_angle_gamma 135.377337
_cell_volume 802.697665
_symmetry_space_group_name_H-M "P -1"
_symmetry_group_IT_number 2
_symmetry_cell_setting 'triclinic'
loop_
_space_group_symop_operation_xyz
x,y,z
-x,-y,-z
loop_
_atom_site_type_symbol
_atom_site_label
_atom_site_fract_x
_atom_site_fract_y
_atom_site_fract_z
Si Si1 0.795155 0.476499 0.460642
Si Si2 0.388970 0.790486 0.184070
Si Si3 0.832767 0.954535 0.765867
Si Si4 0.938413 0.140011 0.298407
Si Si5 0.374288 0.848708 0.442110
Si Si6 0.677856 0.480072 0.649377
Si Si7 0.520896 0.637354 0.848955
Si Si8 0.856758 0.609291 0.317889
O O1 0.617389 0.526296 0.229806
O O2 0.840149 0.522630 0.414552
O O3 0.922677 0.652446 0.612943
O O4 0.804397 0.190816 0.595648
O O5 0.523104 0.621725 0.386410
O O6 0.356679 0.707701 0.259395
O O7 0.447914 0.088042 0.161466
O O8 0.227561 0.749200 0.944200
O O9 0.800400 0.697744 0.764637
O O10 0.717612 0.965843 0.686723
O O11 0.000000 0.000000 0.000000
O O12 0.896401 0.911763 0.262689
O O13 0.000000 0.000000 0.500000
O O14 0.276945 0.667695 0.318296
O O15 0.455957 0.685542 0.664885
O O16 0.500000 0.000000 0.500000
O O17 0.687365 0.535825 0.091357
O O18 0.000000 0.500000 0.500000
#
# Coordination Sequence:
#
# PCOD9078926 Si02
#       8
#     2   2   2   2   2   2   2   2
#     4  10  20  41  58  86 119 158 203 249 317 360
#     4  10  18  36  60  88 124 165 205 249 305 375
#     4  11  24  41  59  91 133 162 200 258 314 365
#     4   9  20  37  61  84 117 163 202 246 315 372
#     4  11  21  37  61  91 121 160 213 248 296 370
#     4  11  20  36  63  90 123 168 212 242 309 374
#     4  10  20  39  61  86 123 162 198 256 310 360
#     4  10  22  39  62  87 117 156 209 255 303 371
#
# _framework density 19.932784999999999
#
# number of rings (size 3 to 8) (size 9 to 14) (size 15 to 20)
#    0.000    1.750    3.750    1.875    0.000    3.500 
#    4.500    0.625    0.000    0.000    0.000    0.000 
#    0.000    0.000    0.000    0.000    0.000    0.000 
#
# Total GULP energy -89248.963291 kJ/mol
# GULP energy per Si atom -5578.060206 kJ/mol
# Density = 1.988742 g / cm^3
# Si number density = 19.932785 Si / 1000 Ang^3
#
#
#
# Elastic Constant Matrix: (Units=GPa)
#
#
# Indices 1 2 3 4 5 6 
#
# 1 77.9003 21.7749 15.6312 13.6013 0.5185 8.1805
# 2 21.7749 87.0359 11.1947 32.1830 6.5172 1.5968
# 3 15.6312 11.1947 121.4569 28.8095 6.9993 4.9469
# 4 13.6013 32.1830 28.8095 36.6039 2.4209 -1.9908
# 5 0.5185 6.5172 6.9993 2.4209 20.6474 10.1508
# 6 8.1805 1.5968 4.9469 -1.9908 10.1508 27.3403
#
#
#
# Elastic Compliance Matrix: (Units=1/GPa)
#
#
# Indices 1 2 3 4 5 6 
#
# 1 0.014889 -0.002684 -0.000949 -0.003009 0.004017 -0.005837
# 2 -0.002684 0.018573 0.003055 -0.017456 -0.004586 -0.000403
# 3 -0.000949 0.003055 0.010850 -0.010800 -0.002510 -0.001712
# 4 -0.003009 -0.017456 -0.010800 0.052783 -0.000901 0.008052
# 5 0.004017 -0.004586 -0.002510 -0.000901 0.062392 -0.023710
# 6 -0.005837 -0.000403 -0.001712 0.008052 -0.023710 0.048045
#
#
# Mechanical properties :
#
#
# Convention : Reuss Voigt Hill
#
# Bulk Modulus (GPa) = 23.17165 42.62166 32.89666
# Shear Modulus (GPa) = 22.41402 32.77113 27.59258
#
# Velocity S-wave (km/s) = 3.35696 4.05913 3.72463
# Velocity P-wave (km/s) = 5.16486 6.58770 5.91919
#
# Compressibility (1/GPa) = 0.04315619
#
# Stress axis : x y z
#
# Youngs Moduli (GPa) = 67.16283 53.84031 92.16526
#
# Poissons Ratio (x) = 0.14451 0.08745
# Poissons Ratio (y) = 0.18027 -0.28154
# Poissons Ratio (z) = 0.06373 -0.16446
#
# Static dielectric constant tensor:
#      x y z
#    x 1.687650 -0.014760 0.006710 
#    y -0.014760 1.747810 0.011400 
#    z 0.006710 0.011400 1.779540 
# 
# From -- ./inp_files/215605.got.cif
#   From: 2010.05.17/outbox.cif.g08.bks.cpg/sg2_108_cif.got.tgz:215605.got - 2010.06.03 11:33:40.
