data_PCOD9078723
_publ_section_title
;
Structure prediction by ZEFSAII (Michael W. Deem and Ramdas Pophale) SiO2 
 PCOD9078723
Probable space group: P -1
;
_chemical_formula_sum "Si O2"
_cell_formula_units_Z 14
_cell_length_a 16.043651
_cell_length_b 10.601205
_cell_length_c 16.946105
_cell_angle_alpha 145.671913
_cell_angle_beta 33.695797
_cell_angle_gamma 145.167152
_cell_volume 815.187021
_symmetry_space_group_name_H-M "P -1"
_symmetry_group_IT_number 2
_symmetry_cell_setting 'triclinic'
loop_
_space_group_symop_operation_xyz
x,y,z
-x,-y,-z
loop_
_atom_site_type_symbol
_atom_site_label
_atom_site_fract_x
_atom_site_fract_y
_atom_site_fract_z
Si Si1 0.367612 0.264442 0.528139
Si Si2 0.463837 0.488627 0.329945
Si Si3 0.641439 0.238927 0.679366
Si Si4 0.252320 0.777526 0.592551
Si Si5 0.635586 0.681491 0.142587
Si Si6 0.821832 0.955938 0.583608
Si Si7 0.136655 0.515989 0.223745
O O1 0.500000 0.500000 0.500000
O O2 0.380760 0.373161 0.661812
O O3 0.208029 0.156651 0.540635
O O4 0.416822 0.035264 0.380096
O O5 0.364278 0.659720 0.485892
O O6 0.533733 0.476202 0.182295
O O7 0.329304 0.235618 0.343274
O O8 0.716264 0.232819 0.530866
O O9 0.491428 0.313979 0.821827
O O10 0.777991 0.423544 0.726177
O O11 0.693210 0.944201 0.277068
O O12 0.060485 0.621368 0.683193
O O13 0.785143 0.637060 0.965781
O O14 0.817011 0.219971 0.717369
O O15 0.000000 0.000000 0.500000
#
# Coordination Sequence:
#
# PCOD9078723 Si02
#       7
#     2   2   2   2   2   2   2
#     4   9  17  31  56  80  98 137 186 220 247 314
#     4  10  18  36  57  79 102 145 188 214 257 325
#     4  10  19  36  55  81 106 142 187 215 262 323
#     4  11  19  35  58  79 109 144 181 221 260 325
#     4  11  21  35  56  81 115 140 174 224 274 323
#     4  10  20  35  56  80 107 140 182 228 259 311
#     4  11  23  34  53  86 112 141 173 228 280 307
#
# _framework density 17.173974000000001
#
# number of rings (size 3 to 8) (size 9 to 14) (size 15 to 20)
#    0.000    1.714    4.286    2.143    0.000    0.571 
#    0.000    0.000    0.000    0.857    0.000    0.000 
#    0.000    0.000    0.000    0.000    0.000    0.000 
#
# Total GULP energy -78017.436049 kJ/mol
# GULP energy per Si atom -5572.674004 kJ/mol
# Density = 1.713488 g / cm^3
# Si number density = 17.173974 Si / 1000 Ang^3
#
#
#
# Elastic Constant Matrix: (Units=GPa)
#
#
# Indices 1 2 3 4 5 6 
#
# 1 106.3279 27.1898 26.5271 -2.8830 0.3861 3.7590
# 2 27.1898 88.2148 27.9522 -4.9622 -2.0177 -6.6185
# 3 26.5271 27.9522 79.6561 -7.9692 -5.6228 2.9962
# 4 -2.8830 -4.9622 -7.9692 13.4363 1.1527 -0.3407
# 5 0.3861 -2.0177 -5.6228 1.1527 12.6470 0.5614
# 6 3.7590 -6.6185 2.9962 -0.3407 0.5614 29.6939
#
#
#
# Elastic Compliance Matrix: (Units=1/GPa)
#
#
# Indices 1 2 3 4 5 6 
#
# 1 0.010831 -0.002637 -0.002771 -0.000172 -0.001894 -0.001645
# 2 -0.002637 0.013793 -0.003861 0.002320 0.000184 0.003821
# 3 -0.002771 -0.003861 0.016032 0.006914 0.006063 -0.002163
# 4 -0.000172 0.002320 0.006914 0.079697 -0.003851 0.000828
# 5 -0.001894 0.000184 0.006063 -0.003851 0.082289 -0.001931
# 6 -0.001645 0.003821 -0.002163 0.000828 -0.001931 0.035001
#
#
# Mechanical properties :
#
#
# Convention : Reuss Voigt Hill
#
# Bulk Modulus (GPa) = 45.20806 48.61522 46.91164
# Shear Modulus (GPa) = 18.97145 23.99077 21.48111
#
# Velocity S-wave (km/s) = 3.32725 3.74160 3.54049
# Velocity P-wave (km/s) = 6.41417 6.85821 6.63990
#
# Compressibility (1/GPa) = 0.02211995
#
# Stress axis : x y z
#
# Youngs Moduli (GPa) = 92.32965 72.49841 62.37356
#
# Poissons Ratio (x) = 0.19117 0.17281
# Poissons Ratio (y) = 0.24346 0.24081
# Poissons Ratio (z) = 0.25581 0.27990
#
# Static dielectric constant tensor:
#      x y z
#    x 1.618690 -0.003570 0.022220 
#    y -0.003570 1.588410 0.011150 
#    z 0.022220 0.011150 1.549150 
# 
# From -- ./inp_files/506200.got.cif
#   From: 2010.05.17/outbox.cif.g08.bks.cpg/sg2_254_cif.got.tgz:506200.got - 2010.06.03 11:33:40.
