data_PCOD9078044
_publ_section_title
;
Structure prediction by ZEFSAII (Michael W. Deem and Ramdas Pophale) SiO2 
 PCOD9078044
Probable space group: P -1
;
_chemical_formula_sum "Si O2"
_cell_formula_units_Z 16
_cell_length_a 7.289156
_cell_length_b 9.251586
_cell_length_c 19.187369
_cell_angle_alpha 142.900338
_cell_angle_beta 129.389227
_cell_angle_gamma 53.075177
_cell_volume 590.653371
_symmetry_space_group_name_H-M "P -1"
_symmetry_group_IT_number 2
_symmetry_cell_setting 'triclinic'
loop_
_space_group_symop_operation_xyz
x,y,z
-x,-y,-z
loop_
_atom_site_type_symbol
_atom_site_label
_atom_site_fract_x
_atom_site_fract_y
_atom_site_fract_z
Si Si1 0.026931 0.200795 0.686596
Si Si2 0.734761 0.814033 0.115503
Si Si3 0.660321 0.585275 0.880516
Si Si4 0.954107 0.858753 0.771169
Si Si5 0.499548 0.895388 0.326338
Si Si6 0.130953 0.643024 0.495671
Si Si7 0.753836 0.029094 0.006152
Si Si8 0.550076 0.373303 0.571941
O O1 0.154005 0.248415 0.806952
O O2 0.229472 0.199074 0.674502
O O3 0.774443 0.381530 0.678752
O O4 0.988504 0.920156 0.574102
O O5 0.446260 0.927114 0.086429
O O6 0.751965 0.577364 0.979404
O O7 0.889021 0.986930 0.178998
O O8 0.601413 0.327379 0.751673
O O9 0.803559 0.745680 0.930407
O O10 0.409606 0.785023 0.905343
O O11 0.991542 0.581794 0.643368
O O12 0.676789 0.982856 0.732208
O O13 0.001145 0.886250 0.877088
O O14 0.479818 0.111209 0.460019
O O15 0.303994 0.571157 0.577732
O O16 0.314248 0.651948 0.479605
#
# Coordination Sequence:
#
# PCOD9078044 Si02
#       8
#     2   2   2   2   2   2   2   2
#     4  11  22  35  53  80 114 143 169 212 279 317
#     4   9  20  35  50  78 111 139 171 212 268 328
#     4   8  16  34  53  74 103 133 178 216 250 309
#     4  10  18  35  58  78 100 137 184 223 255 303
#     4  10  20  32  55  83  98 134 185 219 258 315
#     4   9  19  35  55  80 105 136 185 223 248 314
#     4   8  17  33  54  74 101 138 175 213 260 304
#     4   9  20  35  54  80 109 138 177 221 264 307
#
# _framework density 27.088647000000002
#
# number of rings (size 3 to 8) (size 9 to 14) (size 15 to 20)
#    0.750    2.000    1.250    2.250    3.500    3.000 
#    0.000    5.625    0.000    0.000    0.000    0.000 
#    0.000    0.000    0.000    0.000    0.000    0.000 
#
# Total GULP energy -89252.476299 kJ/mol
# GULP energy per Si atom -5578.279769 kJ/mol
# Density = 2.702699 g / cm^3
# Si number density = 27.088647 Si / 1000 Ang^3
#
#
#
# Elastic Constant Matrix: (Units=GPa)
#
#
# Indices 1 2 3 4 5 6 
#
# 1 88.1743 8.6586 4.6000 -22.7304 -3.9954 -4.7342
# 2 8.6586 125.6385 66.7538 -22.4910 7.9297 2.8201
# 3 4.6000 66.7538 145.0818 18.3131 51.6885 8.6448
# 4 -22.7304 -22.4910 18.3131 109.1014 35.7931 19.0624
# 5 -3.9954 7.9297 51.6885 35.7931 49.8795 6.4356
# 6 -4.7342 2.8201 8.6448 19.0624 6.4356 23.1091
#
#
#
# Elastic Compliance Matrix: (Units=1/GPa)
#
#
# Indices 1 2 3 4 5 6 
#
# 1 0.012069 -0.000032 -0.000610 0.002614 -0.000355 0.000647
# 2 -0.000032 0.012048 -0.007070 0.002852 0.003646 -0.002200
# 3 -0.000610 -0.007070 0.015822 0.001343 -0.016050 -0.001819
# 4 0.002614 0.002852 0.001343 0.015603 -0.011546 -0.009970
# 5 -0.000355 0.003646 -0.016050 -0.011546 0.044001 0.002756
# 6 0.000647 -0.002200 -0.001819 -0.009970 0.002756 0.051811
#
#
# Mechanical properties :
#
#
# Convention : Reuss Voigt Hill
#
# Bulk Modulus (GPa) = 40.79253 57.65769 49.22511
# Shear Modulus (GPa) = 28.57979 55.01016 41.79498
#
# Velocity S-wave (km/s) = 3.25167 4.51127 3.93223
# Velocity P-wave (km/s) = 5.40272 6.96178 6.23121
#
# Compressibility (1/GPa) = 0.02451429
#
# Stress axis : x y z
#
# Youngs Moduli (GPa) = 82.85999 83.00214 63.20317
#
# Poissons Ratio (x) = 0.00265 0.03855
# Poissons Ratio (y) = 0.00265 0.44686
# Poissons Ratio (z) = 0.05053 0.58685
#
# Static dielectric constant tensor:
#      x y z
#    x 2.258230 -0.005360 -0.000820 
#    y -0.005360 2.153150 -0.087430 
#    z -0.000820 -0.087430 2.229720 
# 
# From -- ./inp_files/618384.got.cif
#   From: 2010.05.17/outbox.cif.g08.bks.cpg/sg2_310_cif.got.tgz:618384.got - 2010.06.03 11:33:40.
