data_PCOD9078418
_publ_section_title
;
Structure prediction by ZEFSAII (Michael W. Deem and Ramdas Pophale) SiO2 
 PCOD9078418
Probable space group: P -1
;
_chemical_formula_sum "Si O2"
_cell_formula_units_Z 16
_cell_length_a 8.743224
_cell_length_b 15.553548
_cell_length_c 7.638186
_cell_angle_alpha 114.194443
_cell_angle_beta 127.694147
_cell_angle_gamma 75.389873
_cell_volume 749.712270
_symmetry_space_group_name_H-M "P -1"
_symmetry_group_IT_number 2
_symmetry_cell_setting 'triclinic'
loop_
_space_group_symop_operation_xyz
x,y,z
-x,-y,-z
loop_
_atom_site_type_symbol
_atom_site_label
_atom_site_fract_x
_atom_site_fract_y
_atom_site_fract_z
Si Si1 0.166367 0.368655 0.443724
Si Si2 0.720071 0.967390 0.141565
Si Si3 0.654602 0.601060 0.067689
Si Si4 0.807342 0.780004 0.171792
Si Si5 0.355275 0.195281 0.271176
Si Si6 0.269953 0.499030 0.308767
Si Si7 0.762589 0.340737 0.324846
Si Si8 0.219759 0.827491 0.557388
O O1 0.261806 0.265120 0.400662
O O2 0.175759 0.424820 0.314659
O O3 0.948213 0.359677 0.350828
O O4 0.300049 0.426199 0.724081
O O5 0.741088 0.888303 0.241775
O O6 0.826347 0.064231 0.333784
O O7 0.751448 0.903496 0.934902
O O8 0.500000 0.000000 0.000000
O O9 0.749095 0.531173 0.931763
O O10 0.434376 0.625953 0.881180
O O11 0.767258 0.700937 0.216983
O O12 0.033320 0.787079 0.295931
O O13 0.680539 0.749975 0.891714
O O14 0.584567 0.178525 0.424908
O O15 0.500000 0.500000 0.500000
O O16 0.208493 0.600121 0.425058
O O17 0.751695 0.233246 0.296134
#
# Coordination Sequence:
#
# PCOD9078418 Si02
#       8
#     2   2   2   2   2   2   2   2
#     4  12  23  41  62  92 122 159 200 250 307 361
#     4   8  16  33  61  87 121 158 202 247 293 353
#     4  11  22  42  64  88 124 161 202 250 303 358
#     4  10  18  35  62  90 116 161 199 247 295 356
#     4   9  20  36  59  86 125 156 199 253 289 356
#     4  10  22  44  63  88 123 157 204 252 300 358
#     4  11  23  37  62  89 123 157 202 257 297 358
#     4  11  18  36  62  91 115 168 204 241 307 356
#
# _framework density 21.341519999999999
#
# number of rings (size 3 to 8) (size 9 to 14) (size 15 to 20)
#    0.750    1.000    3.750    1.500    0.000    3.500 
#    0.000    0.625    0.000    3.750    0.000    0.000 
#    0.000    0.000    0.000    0.000    0.000    0.000 
#
# Total GULP energy -89110.582150 kJ/mol
# GULP energy per Si atom -5569.411384 kJ/mol
# Density = 2.129295 g / cm^3
# Si number density = 21.341520 Si / 1000 Ang^3
#
#
#
# Elastic Constant Matrix: (Units=GPa)
#
#
# Indices 1 2 3 4 5 6 
#
# 1 88.5789 26.1568 28.5148 7.9300 5.3628 -21.8747
# 2 26.1568 91.1955 9.6137 27.3770 3.7758 -6.9495
# 3 28.5148 9.6137 64.9350 4.0252 3.4377 -18.4902
# 4 7.9300 27.3770 4.0252 30.7153 -8.5750 3.0353
# 5 5.3628 3.7758 3.4377 -8.5750 37.4692 1.6992
# 6 -21.8747 -6.9495 -18.4902 3.0353 1.6992 22.6878
#
#
#
# Elastic Compliance Matrix: (Units=1/GPa)
#
#
# Indices 1 2 3 4 5 6 
#
# 1 0.016925 -0.001842 -0.002473 -0.004916 -0.003801 0.014681
# 2 -0.001842 0.017534 0.001935 -0.017916 -0.006145 0.008029
# 3 -0.002473 0.001935 0.021718 -0.006787 -0.004164 0.017128
# 4 -0.004916 -0.017916 -0.006787 0.058035 0.017540 -0.024837
# 5 -0.003801 -0.006145 -0.004164 0.017540 0.032871 -0.013748
# 6 0.014681 0.008029 0.017128 -0.024837 -0.013748 0.079002
#
#
# Mechanical properties :
#
#
# Convention : Reuss Voigt Hill
#
# Bulk Modulus (GPa) = 19.44887 41.47556 30.46221
# Shear Modulus (GPa) = 20.16250 30.20274 25.18262
#
# Velocity S-wave (km/s) = 3.07702 3.76601 3.43881
# Velocity P-wave (km/s) = 4.66444 6.19571 5.48379
#
# Compressibility (1/GPa) = 0.05141687
#
# Stress axis : x y z
#
# Youngs Moduli (GPa) = 59.08376 57.03086 46.04514
#
# Poissons Ratio (x) = 0.10505 0.11388
# Poissons Ratio (y) = 0.10883 -0.08910
# Poissons Ratio (z) = 0.14613 -0.11036
#
# Static dielectric constant tensor:
#      x y z
#    x 1.773050 0.012900 -0.008490 
#    y 0.012900 1.860000 0.015770 
#    z -0.008490 0.015770 1.828010 
# 
# From -- ./inp_files/213398.got.cif
#   From: 2010.05.17/outbox.cif.g08.bks.cpg/sg2_107_cif.got.tgz:213398.got - 2010.06.03 11:33:40.
