data_PCOD9078651
_publ_section_title
;
Structure prediction by ZEFSAII (Michael W. Deem and Ramdas Pophale) SiO2 
 PCOD9078651
Probable space group: P -1
;
_chemical_formula_sum "Si O2"
_cell_formula_units_Z 14
_cell_length_a 10.840016
_cell_length_b 13.678983
_cell_length_c 6.415398
_cell_angle_alpha 92.345270
_cell_angle_beta 105.238190
_cell_angle_gamma 124.414199
_cell_volume 735.423531
_symmetry_space_group_name_H-M "P -1"
_symmetry_group_IT_number 2
_symmetry_cell_setting 'triclinic'
loop_
_space_group_symop_operation_xyz
x,y,z
-x,-y,-z
loop_
_atom_site_type_symbol
_atom_site_label
_atom_site_fract_x
_atom_site_fract_y
_atom_site_fract_z
Si Si1 0.648905 0.675278 0.158856
Si Si2 0.557193 0.295629 0.611135
Si Si3 0.915566 0.797966 0.604502
Si Si4 0.655410 0.525069 0.458392
Si Si5 0.730585 0.833859 0.834111
Si Si6 0.432351 0.907023 0.268079
Si Si7 0.736602 0.030491 0.116001
O O1 0.513927 0.675149 0.222714
O O2 0.638197 0.556433 0.214640
O O3 0.819608 0.783869 0.351530
O O4 0.659879 0.712683 0.930748
O O5 0.658237 0.414799 0.520389
O O6 0.403248 0.198218 0.395351
O O7 0.634028 0.228871 0.704814
O O8 0.185035 0.344890 0.388998
O O9 0.102744 0.869233 0.681011
O O10 0.877151 0.860378 0.769285
O O11 0.500000 0.500000 0.500000
O O12 0.758817 0.936557 0.006978
O O13 0.500000 0.000000 0.500000
O O14 0.584656 0.955818 0.192520
O O15 0.306967 0.911526 0.077936
#
# Coordination Sequence:
#
# PCOD9078651 Si02
#       7
#     2   2   2   2   2   2   2
#     4   8  18  32  51  82 109 140 168 218 279 316
#     4  10  18  36  54  80 109 140 190 222 264 317
#     4   9  21  36  53  86 118 139 171 230 276 329
#     4   8  16  36  53  78 117 144 171 225 267 330
#     4  11  18  32  58  86 110 143 171 222 286 329
#     4  11  23  39  58  76 107 154 187 233 259 317
#     4  11  23  37  55  83 112 141 194 218 275 326
#
# _framework density 19.036648
#
# number of rings (size 3 to 8) (size 9 to 14) (size 15 to 20)
#    0.857    1.429    4.286    0.429    0.000    2.286 
#    0.000    0.714    0.000    0.857    0.000    0.000 
#    0.000    0.000    0.000    0.000    0.000    0.000 
#
# Total GULP energy -77977.691157 kJ/mol
# GULP energy per Si atom -5569.835083 kJ/mol
# Density = 1.899332 g / cm^3
# Si number density = 19.036648 Si / 1000 Ang^3
#
#
#
# Elastic Constant Matrix: (Units=GPa)
#
#
# Indices 1 2 3 4 5 6 
#
# 1 30.2648 18.5184 -1.0681 -1.9237 11.1747 1.2273
# 2 18.5184 98.0790 8.0027 -16.0836 12.4083 -20.3319
# 3 -1.0681 8.0027 49.4233 -15.8177 0.3553 -11.2946
# 4 -1.9237 -16.0836 -15.8177 35.0370 -3.8701 10.2606
# 5 11.1747 12.4083 0.3553 -3.8701 12.7487 1.7023
# 6 1.2273 -20.3319 -11.2946 10.2606 1.7023 22.4017
#
#
#
# Elastic Compliance Matrix: (Units=1/GPa)
#
#
# Indices 1 2 3 4 5 6 
#
# 1 0.051278 -0.005937 0.000594 -0.002988 -0.039622 -0.003519
# 2 -0.005937 0.016393 0.001570 0.001824 -0.012392 0.016102
# 3 0.000594 0.001570 0.025191 0.009030 -0.001352 0.010060
# 4 -0.002988 0.001824 0.009030 0.038423 0.013896 -0.012283
# 5 -0.039622 -0.012392 -0.001352 0.013896 0.132990 -0.026229
# 6 -0.003519 0.016102 0.010060 -0.012283 -0.026229 0.072137
#
#
# Mechanical properties :
#
#
# Convention : Reuss Voigt Hill
#
# Bulk Modulus (GPa) = 11.72119 25.40814 18.56467
# Shear Modulus (GPa) = 13.42651 24.19174 18.80913
#
# Velocity S-wave (km/s) = 2.65863 3.56869 3.14673
# Velocity P-wave (km/s) = 3.94904 5.50969 4.79331
#
# Compressibility (1/GPa) = 0.08531554
#
# Stress axis : x y z
#
# Youngs Moduli (GPa) = 19.50162 60.99979 39.69702
#
# Poissons Ratio (x) = 0.36215 -0.02358
# Poissons Ratio (y) = 0.11578 -0.06231
# Poissons Ratio (z) = -0.01158 -0.09575
#
# Static dielectric constant tensor:
#      x y z
#    x 1.634820 0.009450 0.010570 
#    y 0.009450 1.727150 0.005070 
#    z 0.010570 0.005070 1.687460 
# 
# From -- ./inp_files/27913.got.cif
#   From: 2010.05.17/outbox.cif.g08.bks.cpg/sg2_14_cif.got.tgz:27913.got - 2010.06.03 11:33:40.
