data_PCOD9078656
_publ_section_title
;
Structure prediction by ZEFSAII (Michael W. Deem and Ramdas Pophale) SiO2 
 PCOD9078656
Probable space group: P -1
;
_chemical_formula_sum "Si O2"
_cell_formula_units_Z 16
_cell_length_a 11.801649
_cell_length_b 11.451888
_cell_length_c 9.278090
_cell_angle_alpha 60.951761
_cell_angle_beta 49.265677
_cell_angle_gamma 77.082765
_cell_volume 822.367568
_symmetry_space_group_name_H-M "P -1"
_symmetry_group_IT_number 2
_symmetry_cell_setting 'triclinic'
loop_
_space_group_symop_operation_xyz
x,y,z
-x,-y,-z
loop_
_atom_site_type_symbol
_atom_site_label
_atom_site_fract_x
_atom_site_fract_y
_atom_site_fract_z
Si Si1 0.361530 0.514570 0.713852
Si Si2 0.401129 0.173598 0.268421
Si Si3 0.347526 0.438768 0.078871
Si Si4 0.544829 0.778724 0.480336
Si Si5 0.909513 0.385910 0.742168
Si Si6 0.587030 0.078397 0.748502
Si Si7 0.694721 0.289030 0.761098
Si Si8 0.204898 0.418581 0.638685
O O1 0.500000 0.500000 0.500000
O O2 0.397206 0.665693 0.653596
O O3 0.216965 0.471405 0.761543
O O4 0.371119 0.421313 0.899665
O O5 0.296791 0.292402 0.277161
O O6 0.448955 0.158681 0.403178
O O7 0.334346 0.032330 0.337205
O O8 0.545770 0.237107 0.011760
O O9 0.227215 0.542267 0.125999
O O10 0.500000 0.500000 0.000000
O O11 0.528710 0.874413 0.300783
O O12 0.686633 0.695894 0.399369
O O13 0.832208 0.271712 0.765880
O O14 0.000000 0.500000 0.500000
O O15 0.035615 0.360771 0.767005
O O16 0.683780 0.204417 0.672817
O O17 0.500000 0.000000 0.000000
O O18 0.725451 0.448064 0.593319
#
# Coordination Sequence:
#
# PCOD9078656 Si02
#       8
#     2   2   2   2   2   2   2   2
#     4  10  20  31  58  86 116 143 182 238 289 329
#     4  11  20  33  55  84 114 143 191 231 277 331
#     4  12  21  35  60  90 114 149 188 237 286 333
#     4  11  19  34  56  83 113 144 188 237 282 329
#     4  10  21  34  57  87 118 149 183 234 291 341
#     4  10  23  33  54  82 110 148 189 235 276 334
#     4  10  18  36  54  83 113 144 187 228 287 330
#     4  10  21  33  58  83 114 148 183 231 291 336
#
# _framework density 19.456019999999999
#
# number of rings (size 3 to 8) (size 9 to 14) (size 15 to 20)
#    0.000    1.500    3.750    3.375    7.000    0.500 
#    0.000    0.000    0.000    9.750    0.000    0.000 
#    0.000    0.000    0.000    0.000    0.000    0.000 
#
# Total GULP energy -89109.594426 kJ/mol
# GULP energy per Si atom -5569.349652 kJ/mol
# Density = 1.941174 g / cm^3
# Si number density = 19.456020 Si / 1000 Ang^3
#
#
#
# Elastic Constant Matrix: (Units=GPa)
#
#
# Indices 1 2 3 4 5 6 
#
# 1 156.5721 46.3228 34.0809 11.0993 21.3040 11.2421
# 2 46.3228 101.5915 10.4048 4.8115 8.1650 13.0494
# 3 34.0809 10.4048 56.3316 4.6226 24.0534 -1.4407
# 4 11.0993 4.8115 4.6226 21.2357 0.7321 12.3634
# 5 21.3040 8.1650 24.0534 0.7321 37.3480 4.2665
# 6 11.2421 13.0494 -1.4407 12.3634 4.2665 30.8998
#
#
#
# Elastic Compliance Matrix: (Units=1/GPa)
#
#
# Indices 1 2 3 4 5 6 
#
# 1 0.008596 -0.003194 -0.003705 -0.002482 -0.001687 -0.000725
# 2 -0.003194 0.011856 -0.000553 0.001773 0.000076 -0.004591
# 3 -0.003705 -0.000553 0.028148 -0.008497 -0.016710 0.008601
# 4 -0.002482 0.001773 -0.008497 0.065655 0.008374 -0.027668
# 5 -0.001687 0.000076 -0.016710 0.008374 0.039345 -0.008980
# 6 -0.000725 -0.004591 0.008601 -0.027668 -0.008980 0.047276
#
#
# Mechanical properties :
#
#
# Convention : Reuss Voigt Hill
#
# Bulk Modulus (GPa) = 29.67658 55.12360 42.40009
# Shear Modulus (GPa) = 22.02540 32.80914 27.41727
#
# Velocity S-wave (km/s) = 3.36826 4.11094 3.75799
# Velocity P-wave (km/s) = 5.51482 7.13632 6.37731
#
# Compressibility (1/GPa) = 0.03369660
#
# Stress axis : x y z
#
# Youngs Moduli (GPa) = 116.33617 84.34696 35.52658
#
# Poissons Ratio (x) = 0.26937 0.13162
# Poissons Ratio (y) = 0.37154 0.01964
# Poissons Ratio (z) = 0.43102 0.04663
#
# Static dielectric constant tensor:
#      x y z
#    x 1.756870 0.005610 0.030110 
#    y 0.005610 1.785630 0.014220 
#    z 0.030110 0.014220 1.719200 
# 
# From -- ./inp_files/256632.got.cif
#   From: 2010.05.17/outbox.cif.g08.bks.cpg/sg2_129_cif.got.tgz:256632.got - 2010.06.03 11:33:40.
