data_PCOD9078511
_publ_section_title
;
Structure prediction by ZEFSAII (Michael W. Deem and Ramdas Pophale) SiO2 
 PCOD9078511
Probable space group: P -1
;
_chemical_formula_sum "Si O2"
_cell_formula_units_Z 16
_cell_length_a 8.947443
_cell_length_b 19.092716
_cell_length_c 16.907099
_cell_angle_alpha 158.589430
_cell_angle_beta 52.205904
_cell_angle_gamma 114.525598
_cell_volume 701.876588
_symmetry_space_group_name_H-M "P -1"
_symmetry_group_IT_number 2
_symmetry_cell_setting 'triclinic'
loop_
_space_group_symop_operation_xyz
x,y,z
-x,-y,-z
loop_
_atom_site_type_symbol
_atom_site_label
_atom_site_fract_x
_atom_site_fract_y
_atom_site_fract_z
Si Si1 0.339985 0.718027 0.060975
Si Si2 0.420149 0.069410 0.750115
Si Si3 0.087549 0.513653 0.899628
Si Si4 0.078592 0.537233 0.262193
Si Si5 0.233238 0.610850 0.525833
Si Si6 0.419925 0.918821 0.760205
Si Si7 0.429767 0.638339 0.248392
Si Si8 0.195632 0.326681 0.363070
O O1 0.354065 0.928742 0.306985
O O2 0.125212 0.723907 0.104287
O O3 0.539708 0.597784 0.806071
O O4 0.419075 0.536674 0.916018
O O5 0.328188 0.058962 0.855299
O O6 0.450284 0.854089 0.468878
O O7 0.252589 0.300217 0.000709
O O8 0.939176 0.516052 0.878525
O O9 0.331625 0.287134 0.561199
O O10 0.000000 0.500000 0.000000
O O11 0.850108 0.645253 0.499694
O O12 0.178450 0.696624 0.405811
O O13 0.274034 0.814641 0.722753
O O14 0.211625 0.528595 0.532312
O O15 0.023634 0.653467 0.586105
O O16 0.399488 0.087882 0.012823
O O17 0.500000 0.500000 0.000000
#
# Coordination Sequence:
#
# PCOD9078511 Si02
#       8
#     2   2   2   2   2   2   2   2
#     4  10  20  41  67  92 130 174 229 264 326 407
#     4  11  20  42  70  98 126 175 226 272 329 388
#     4  11  25  49  66  92 140 183 222 278 334 401
#     4  11  25  41  65 105 138 167 224 285 333 390
#     4  10  18  35  63  99 132 168 214 279 329 391
#     4  11  22  39  71  92 131 184 223 261 340 401
#     4  11  22  41  67  97 133 170 227 286 321 381
#     4  11  19  36  62 102 135 164 221 283 327 395
#
# _framework density 22.796030999999999
#
# number of rings (size 3 to 8) (size 9 to 14) (size 15 to 20)
#    0.000    1.250    6.250    1.875    0.000    3.500 
#    2.250    3.125    0.000    0.000    0.000    0.000 
#    0.000    0.000    0.000    0.000    0.000    0.000 
#
# Total GULP energy -89438.032176 kJ/mol
# GULP energy per Si atom -5589.877011 kJ/mol
# Density = 2.274415 g / cm^3
# Si number density = 22.796031 Si / 1000 Ang^3
#
#
#
# Elastic Constant Matrix: (Units=GPa)
#
#
# Indices 1 2 3 4 5 6 
#
# 1 61.1595 31.4858 25.4136 10.4149 21.0157 8.5301
# 2 31.4858 104.5304 51.0916 -2.2115 7.7748 14.8424
# 3 25.4136 51.0916 102.5321 -3.9187 21.1319 10.2532
# 4 10.4149 -2.2115 -3.9187 47.9619 7.4807 18.6575
# 5 21.0157 7.7748 21.1319 7.4807 34.7515 1.1444
# 6 8.5301 14.8424 10.2532 18.6575 1.1444 39.2677
#
#
#
# Elastic Compliance Matrix: (Units=1/GPa)
#
#
# Indices 1 2 3 4 5 6 
#
# 1 0.024774 -0.006232 -0.000491 -0.003395 -0.012528 -0.000920
# 2 -0.006232 0.014751 -0.006098 0.002469 0.003774 -0.003913
# 3 -0.000491 -0.006098 0.015008 0.003449 -0.008111 -0.002909
# 4 -0.003395 0.002469 0.003449 0.028604 -0.006276 -0.014504
# 5 -0.012528 0.003774 -0.008111 -0.006276 0.041620 0.005182
# 6 -0.000920 -0.003913 -0.002909 -0.014504 0.005182 0.034645
#
#
# Mechanical properties :
#
#
# Convention : Reuss Voigt Hill
#
# Bulk Modulus (GPa) = 34.61214 53.80045 44.20629
# Shear Modulus (GPa) = 25.68384 35.07829 30.38107
#
# Velocity S-wave (km/s) = 3.36025 3.92700 3.65462
# Velocity P-wave (km/s) = 5.50194 6.64934 6.10267
#
# Compressibility (1/GPa) = 0.02889160
#
# Stress axis : x y z
#
# Youngs Moduli (GPa) = 40.36434 67.79024 66.63134
#
# Poissons Ratio (x) = 0.42245 0.03272
# Poissons Ratio (y) = 0.25154 0.40633
# Poissons Ratio (z) = 0.01982 0.41340
#
# Static dielectric constant tensor:
#      x y z
#    x 1.902370 0.022140 -0.019620 
#    y 0.022140 1.858830 -0.019520 
#    z -0.019620 -0.019520 1.908510 
# 
# From -- ./inp_files/562722.got.cif
#   From: 2010.05.17/outbox.cif.g08.bks.cpg/sg2_282_cif.got.tgz:562722.got - 2010.06.03 11:33:40.
