data_PCOD9078631
_publ_section_title
;
Structure prediction by ZEFSAII (Michael W. Deem and Ramdas Pophale) SiO2 
 PCOD9078631
Probable space group: P -1
;
_chemical_formula_sum "Si O2"
_cell_formula_units_Z 16
_cell_length_a 23.956883
_cell_length_b 6.585594
_cell_length_c 12.445438
_cell_angle_alpha 51.348151
_cell_angle_beta 139.618065
_cell_angle_gamma 137.451086
_cell_volume 851.177594
_symmetry_space_group_name_H-M "P -1"
_symmetry_group_IT_number 2
_symmetry_cell_setting 'triclinic'
loop_
_space_group_symop_operation_xyz
x,y,z
-x,-y,-z
loop_
_atom_site_type_symbol
_atom_site_label
_atom_site_fract_x
_atom_site_fract_y
_atom_site_fract_z
Si Si1 0.925130 0.580143 0.980226
Si Si2 0.957785 0.692441 0.755625
Si Si3 0.616615 0.123260 0.617331
Si Si4 0.813830 0.704698 0.307756
Si Si5 0.996659 0.255301 0.498406
Si Si6 0.764473 0.725517 0.768355
Si Si7 0.749803 0.870093 0.939891
Si Si8 0.732032 0.281457 0.514071
O O1 0.981717 0.737527 0.901415
O O2 0.870306 0.745594 0.891809
O O3 0.836969 0.228310 0.945924
O O4 0.005808 0.518985 0.176098
O O5 0.838889 0.537973 0.633233
O O6 0.006050 0.009714 0.664507
O O7 0.681298 0.423437 0.685281
O O8 0.651371 0.194530 0.519443
O O9 0.500000 0.000000 0.500000
O O10 0.648494 0.884563 0.783164
O O11 0.728954 0.455927 0.345309
O O12 0.898290 0.605994 0.457372
O O13 0.887582 0.048293 0.349918
O O14 0.767853 0.729558 0.119726
O O15 0.000000 0.500000 0.500000
O O16 0.754033 0.719591 0.884313
O O17 0.747576 0.995898 0.614529
#
# Coordination Sequence:
#
# PCOD9078631 Si02
#       8
#     2   2   2   2   2   2   2   2
#     4  10  19  33  53  81 119 151 197 245 278 327
#     4  10  18  36  51  81 123 148 200 248 272 325
#     4  10  22  42  66  88 110 140 193 256 304 351
#     4  10  22  39  53  82 128 154 194 247 272 335
#     4  10  22  35  55  78 116 175 205 225 278 332
#     4  10  20  37  62  84 109 156 193 234 302 349
#     4  10  20  40  56  88 117 153 193 241 292 347
#     4  10  21  37  58  86 117 151 195 240 288 342
#
# _framework density 18.797488999999999
#
# number of rings (size 3 to 8) (size 9 to 14) (size 15 to 20)
#    0.000    2.000    5.000    0.000    1.750    4.500 
#    0.000    0.625    0.000    1.500    0.000    0.000 
#    0.000    0.000    0.000    0.000    0.000    0.000 
#
# Total GULP energy -89087.765268 kJ/mol
# GULP energy per Si atom -5567.985329 kJ/mol
# Density = 1.875471 g / cm^3
# Si number density = 18.797489 Si / 1000 Ang^3
#
#
#
# Elastic Constant Matrix: (Units=GPa)
#
#
# Indices 1 2 3 4 5 6 
#
# 1 134.7495 51.2676 63.6541 -4.5205 9.7466 -2.4051
# 2 51.2676 57.8688 27.1305 -6.6725 -6.3790 -15.7429
# 3 63.6541 27.1305 113.3636 -12.8370 -13.8776 8.8318
# 4 -4.5205 -6.6725 -12.8370 19.2143 9.4405 -1.2993
# 5 9.7466 -6.3790 -13.8776 9.4405 37.1570 1.9115
# 6 -2.4051 -15.7429 8.8318 -1.2993 1.9115 35.3896
#
#
#
# Elastic Compliance Matrix: (Units=1/GPa)
#
#
# Indices 1 2 3 4 5 6 
#
# 1 0.016111 -0.012735 -0.007005 -0.001256 -0.008586 -0.002404
# 2 -0.012735 0.034225 -0.000648 0.006152 0.006671 0.014386
# 3 -0.007005 -0.000648 0.014536 0.004455 0.006258 -0.004566
# 4 -0.001256 0.006152 0.004455 0.063749 -0.013384 0.004603
# 5 -0.008586 0.006671 0.006258 -0.013384 0.036131 -0.001621
# 6 -0.002404 0.014386 -0.004566 0.004603 -0.001621 0.035889
#
#
# Mechanical properties :
#
#
# Convention : Reuss Voigt Hill
#
# Bulk Modulus (GPa) = 41.49869 65.56514 53.53191
# Shear Modulus (GPa) = 20.04429 29.28082 24.66255
#
# Velocity S-wave (km/s) = 3.26901 3.95105 3.62610
# Velocity P-wave (km/s) = 6.03102 7.46792 6.78760
#
# Compressibility (1/GPa) = 0.02409715
#
# Stress axis : x y z
#
# Youngs Moduli (GPa) = 62.06852 29.21878 68.79636
#
# Poissons Ratio (x) = 0.37209 0.48190
# Poissons Ratio (y) = 0.79042 0.04456
# Poissons Ratio (z) = 0.43478 0.01893
#
# Static dielectric constant tensor:
#      x y z
#    x 1.723820 -0.012680 -0.047560 
#    y -0.012680 1.666860 -0.010870 
#    z -0.047560 -0.010870 1.753140 
# 
# From -- ./inp_files/84578.got.cif
#   From: 2010.05.17/outbox.cif.g08.bks.cpg/sg2_43_cif.got.tgz:84578.got - 2010.06.03 11:33:40.
