data_PCOD9078068
_publ_section_title
;
Structure prediction by ZEFSAII (Michael W. Deem and Ramdas Pophale) SiO2 
 PCOD9078068
Probable space group: P -1
;
_chemical_formula_sum "Si O2"
_cell_formula_units_Z 14
_cell_length_a 9.477494
_cell_length_b 14.821389
_cell_length_c 11.845371
_cell_angle_alpha 128.746644
_cell_angle_beta 37.855189
_cell_angle_gamma 108.569376
_cell_volume 740.756373
_symmetry_space_group_name_H-M "P -1"
_symmetry_group_IT_number 2
_symmetry_cell_setting 'triclinic'
loop_
_space_group_symop_operation_xyz
x,y,z
-x,-y,-z
loop_
_atom_site_type_symbol
_atom_site_label
_atom_site_fract_x
_atom_site_fract_y
_atom_site_fract_z
Si Si1 0.410694 0.267381 0.971391
Si Si2 0.828653 0.525805 0.863971
Si Si3 0.253650 0.618710 0.751673
Si Si4 0.148712 0.622069 0.495985
Si Si5 0.641643 0.399911 0.077184
Si Si6 0.217789 0.822260 0.757398
Si Si7 0.638872 0.974804 0.272708
O O1 0.404743 0.352286 0.931980
O O2 0.601158 0.285118 0.952341
O O3 0.131000 0.338488 0.250251
O O4 0.445580 0.127279 0.814417
O O5 0.862794 0.428213 0.662697
O O6 0.036814 0.581492 0.806247
O O7 0.785043 0.460032 0.951628
O O8 0.500000 0.500000 0.500000
O O9 0.224319 0.642865 0.922646
O O10 0.297421 0.724846 0.733140
O O11 0.363869 0.508795 0.335799
O O12 0.205199 0.744142 0.591631
O O13 0.386245 0.901543 0.684642
O O14 0.938341 0.908797 0.038367
O O15 0.500000 0.000000 0.500000
#
# Coordination Sequence:
#
# PCOD9078068 Si02
#       7
#     2   2   2   2   2   2   2
#     4  10  19  37  57  85 111 153 203 241 282 342
#     4  11  21  33  56  90 117 150 193 243 292 350
#     4  12  21  38  56  85 126 155 181 232 308 367
#     4  10  18  35  58  82 119 146 195 239 290 343
#     4  11  22  32  56  88 122 152 184 241 304 350
#     4  10  22  38  60  90 116 154 197 244 290 345
#     4  10  22  38  63  86 112 154 207 249 279 328
#
# _framework density 18.899602000000002
#
# number of rings (size 3 to 8) (size 9 to 14) (size 15 to 20)
#    0.000    1.429    4.286    4.714    4.000    0.000 
#    2.571    0.714    0.000    0.857    0.000    0.000 
#    0.000    0.000    0.000    0.000    0.000    0.000 
#
# Total GULP energy -77998.274161 kJ/mol
# GULP energy per Si atom -5571.305297 kJ/mol
# Density = 1.885659 g / cm^3
# Si number density = 18.899602 Si / 1000 Ang^3
#
#
#
# Elastic Constant Matrix: (Units=GPa)
#
#
# Indices 1 2 3 4 5 6 
#
# 1 129.4174 63.4152 27.7395 -2.7106 26.3502 -5.7721
# 2 63.4152 169.4427 47.7638 0.6607 32.3204 -2.2193
# 3 27.7395 47.7638 56.3920 -2.0264 18.8671 1.9060
# 4 -2.7106 0.6607 -2.0264 22.1629 -3.5183 5.2548
# 5 26.3502 32.3204 18.8671 -3.5183 22.7357 0.0518
# 6 -5.7721 -2.2193 1.9060 5.2548 0.0518 33.9871
#
#
#
# Elastic Compliance Matrix: (Units=1/GPa)
#
#
# Indices 1 2 3 4 5 6 
#
# 1 0.010818 -0.002123 -0.000540 -0.000551 -0.009162 0.001828
# 2 -0.002123 0.009438 -0.004535 -0.002366 -0.007561 0.000887
# 3 -0.000540 -0.004535 0.027035 0.000585 -0.015268 -0.001971
# 4 -0.000551 -0.002366 0.000585 0.048796 0.011086 -0.007842
# 5 -0.009162 -0.007561 -0.015268 0.011086 0.079743 -0.003029
# 6 0.001828 0.000887 -0.001971 -0.007842 -0.003029 0.031119
#
#
# Mechanical properties :
#
#
# Convention : Reuss Voigt Hill
#
# Bulk Modulus (GPa) = 30.39857 70.34322 50.37090
# Shear Modulus (GPa) = 21.52301 30.19936 25.86118
#
# Velocity S-wave (km/s) = 3.37828 4.00169 3.70313
# Velocity P-wave (km/s) = 5.59788 7.65843 6.70775
#
# Compressibility (1/GPa) = 0.03289628
#
# Stress axis : x y z
#
# Youngs Moduli (GPa) = 92.43594 105.95975 36.98868
#
# Poissons Ratio (x) = 0.22496 0.01996
# Poissons Ratio (y) = 0.19625 0.16773
# Poissons Ratio (z) = 0.04989 0.48049
#
# Static dielectric constant tensor:
#      x y z
#    x 1.701870 0.017650 0.034030 
#    y 0.017650 1.763350 -0.054250 
#    z 0.034030 -0.054250 1.731460 
# 
# From -- ./inp_files/256059.got.cif
#   From: 2010.05.17/outbox.cif.g08.bks.cpg/sg2_129_cif.got.tgz:256059.got - 2010.06.03 11:33:40.
