data_PCOD9078187
_publ_section_title
;
Structure prediction by ZEFSAII (Michael W. Deem and Ramdas Pophale) SiO2 
 PCOD9078187
Probable space group: P -1
;
_chemical_formula_sum "Si O2"
_cell_formula_units_Z 16
_cell_length_a 11.752491
_cell_length_b 8.488224
_cell_length_c 9.672748
_cell_angle_alpha 64.125312
_cell_angle_beta 99.595408
_cell_angle_gamma 68.118905
_cell_volume 740.331901
_symmetry_space_group_name_H-M "P -1"
_symmetry_group_IT_number 2
_symmetry_cell_setting 'triclinic'
loop_
_space_group_symop_operation_xyz
x,y,z
-x,-y,-z
loop_
_atom_site_type_symbol
_atom_site_label
_atom_site_fract_x
_atom_site_fract_y
_atom_site_fract_z
Si Si1 0.321400 0.972773 0.889141
Si Si2 0.572673 0.448600 0.383860
Si Si3 0.116713 0.444723 0.155925
Si Si4 0.110699 0.887016 0.182909
Si Si5 0.728332 0.006992 0.646412
Si Si6 0.021863 0.328657 0.677385
Si Si7 0.499883 0.117680 0.767785
Si Si8 0.686558 0.400847 0.885969
O O1 0.176589 0.166771 0.783505
O O2 0.415931 0.004434 0.791226
O O3 0.393045 0.956991 0.056819
O O4 0.307609 0.773941 0.947944
O O5 0.500000 0.500000 0.500000
O O6 0.694040 0.219778 0.488262
O O7 0.593889 0.642626 0.306051
O O8 0.466341 0.465058 0.241558
O O9 0.226288 0.497523 0.094512
O O10 0.041558 0.575191 0.224725
O O11 0.205049 0.214228 0.319364
O O12 0.000000 0.500000 0.000000
O O13 0.159634 0.028323 0.204246
O O14 0.239630 0.714067 0.197150
O O15 0.053427 0.797396 0.318719
O O16 0.000000 0.000000 0.000000
O O17 0.588113 0.067679 0.667638
O O18 0.000000 0.500000 0.500000
#
# Coordination Sequence:
#
# PCOD9078187 Si02
#       8
#     2   2   2   2   2   2   2   2
#     4  10  18  35  59  87 122 157 214 254 307 368
#     4   9  17  32  57  89 118 155 206 261 313 371
#     4  11  25  40  65  92 130 172 214 262 319 386
#     4  11  18  35  64  85 121 171 219 256 297 388
#     4  11  20  36  60  92 122 159 212 266 323 365
#     4  11  25  39  63  96 126 165 218 268 319 373
#     4   9  18  32  61  91 116 158 209 263 299 380
#     4  10  19  36  59  91 117 167 222 253 303 390
#
# _framework density 21.611927999999999
#
# number of rings (size 3 to 8) (size 9 to 14) (size 15 to 20)
#    0.000    1.750    5.000    2.250    1.750    1.500 
#    0.000    1.250    0.000    0.000    0.000    0.000 
#    0.000    0.000    0.000    0.000    0.000    0.000 
#
# Total GULP energy -89198.447408 kJ/mol
# GULP energy per Si atom -5574.902963 kJ/mol
# Density = 2.156274 g / cm^3
# Si number density = 21.611928 Si / 1000 Ang^3
#
#
#
# Elastic Constant Matrix: (Units=GPa)
#
#
# Indices 1 2 3 4 5 6 
#
# 1 105.9193 20.4798 34.7293 -14.6822 -5.3473 24.9110
# 2 20.4798 46.5622 30.9849 -24.9941 16.1667 7.4403
# 3 34.7293 30.9849 95.7847 -42.8945 7.5286 5.3367
# 4 -14.6822 -24.9941 -42.8945 32.7268 -5.9035 -0.2261
# 5 -5.3473 16.1667 7.5286 -5.9035 30.9364 -10.3161
# 6 24.9110 7.4403 5.3367 -0.2261 -10.3161 27.6786
#
#
#
# Elastic Compliance Matrix: (Units=1/GPa)
#
#
# Indices 1 2 3 4 5 6 
#
# 1 0.013630 -0.002518 -0.004113 -0.001094 0.000983 -0.010440
# 2 -0.002518 0.058629 0.006836 0.046515 -0.032742 -0.026635
# 3 -0.004113 0.006836 0.027824 0.038839 -0.005372 -0.005186
# 4 -0.001094 0.046515 0.038839 0.112504 -0.021139 -0.025968
# 5 0.000983 -0.032742 -0.005372 -0.021139 0.056874 0.029978
# 6 -0.010440 -0.026635 -0.005186 -0.025968 0.029978 0.064645
#
#
# Mechanical properties :
#
#
# Convention : Reuss Voigt Hill
#
# Bulk Modulus (GPa) = 9.95098 46.73933 28.34516
# Shear Modulus (GPa) = 13.61677 29.07318 21.34497
#
# Velocity S-wave (km/s) = 2.51282 3.67173 3.14610
# Velocity P-wave (km/s) = 3.61018 6.29675 5.13237
#
# Compressibility (1/GPa) = 0.10049257
#
# Stress axis : x y z
#
# Youngs Moduli (GPa) = 73.36849 17.05643 35.93979
#
# Poissons Ratio (x) = 0.04295 0.14781
# Poissons Ratio (y) = 0.18476 -0.24567
# Poissons Ratio (z) = 0.30173 -0.11659
#
# Static dielectric constant tensor:
#      x y z
#    x 1.814500 0.054110 -0.025610 
#    y 0.054110 1.823520 -0.034920 
#    z -0.025610 -0.034920 1.859580 
# 
# From -- ./inp_files/414347.got.cif
#   From: 2010.05.17/outbox.cif.g08.bks.cpg/sg2_208_cif.got.tgz:414347.got - 2010.06.03 11:33:40.
