data_PCOD9078520
_publ_section_title
;
Structure prediction by ZEFSAII (Michael W. Deem and Ramdas Pophale) SiO2 
 PCOD9078520
Probable space group: P -1
;
_chemical_formula_sum "Si O2"
_cell_formula_units_Z 16
_cell_length_a 9.387201
_cell_length_b 12.393998
_cell_length_c 8.919428
_cell_angle_alpha 128.508556
_cell_angle_beta 103.118795
_cell_angle_gamma 108.439045
_cell_volume 632.397817
_symmetry_space_group_name_H-M "P -1"
_symmetry_group_IT_number 2
_symmetry_cell_setting 'triclinic'
loop_
_space_group_symop_operation_xyz
x,y,z
-x,-y,-z
loop_
_atom_site_type_symbol
_atom_site_label
_atom_site_fract_x
_atom_site_fract_y
_atom_site_fract_z
Si Si1 0.120065 0.980269 0.888728
Si Si2 0.821749 0.480289 0.890607
Si Si3 0.693124 0.115172 0.927591
Si Si4 0.086356 0.454333 0.348366
Si Si5 0.751010 0.646682 0.469865
Si Si6 0.325316 0.121843 0.477307
Si Si7 0.080345 0.143223 0.773084
Si Si8 0.446820 0.699604 0.057734
O O1 0.964405 0.798958 0.610531
O O2 0.263537 0.960924 0.987699
O O3 0.200149 0.130091 0.915296
O O4 0.000000 0.000000 0.000000
O O5 0.802266 0.428387 0.666047
O O6 0.669419 0.346109 0.855250
O O7 0.000000 0.500000 0.000000
O O8 0.845028 0.660519 0.068553
O O9 0.578200 0.190689 0.969796
O O10 0.589749 0.967245 0.648829
O O11 0.897530 0.288493 0.093286
O O12 0.214993 0.411573 0.416886
O O13 0.000000 0.500000 0.500000
O O14 0.652536 0.737140 0.507932
O O15 0.637798 0.482433 0.194315
O O16 0.362083 0.194944 0.718238
O O17 0.114949 0.954848 0.272797
O O18 0.000000 0.000000 0.500000
#
# Coordination Sequence:
#
# PCOD9078520 Si02
#       8
#     2   2   2   2   2   2   2   2
#     4  10  18  35  64  87 116 157 209 255 294 356
#     4  12  22  37  62  97 124 152 208 265 307 355
#     4  11  20  38  63  91 113 163 213 246 300 367
#     4  11  20  37  64  91 121 154 209 262 301 353
#     4  10  20  36  59  90 119 161 206 247 301 367
#     4  11  22  40  63  86 126 170 202 239 313 384
#     4  11  22  39  64  96 121 157 211 262 301 358
#     4  12  24  39  60  94 129 161 198 254 317 368
#
# _framework density 25.300533000000001
#
# number of rings (size 3 to 8) (size 9 to 14) (size 15 to 20)
#    0.000    1.000    6.250    3.000    0.000    1.000 
#    0.000    0.625    2.750    1.500    0.000    0.000 
#    0.000    0.000    0.000    0.000    0.000    0.000 
#
# Total GULP energy -89210.877251 kJ/mol
# GULP energy per Si atom -5575.679828 kJ/mol
# Density = 2.524295 g / cm^3
# Si number density = 25.300533 Si / 1000 Ang^3
#
#
#
# Elastic Constant Matrix: (Units=GPa)
#
#
# Indices 1 2 3 4 5 6 
#
# 1 50.5100 30.6815 23.4908 1.3150 -6.8805 -16.3074
# 2 30.6815 123.3377 20.3894 -17.2344 -4.7375 -27.1791
# 3 23.4908 20.3894 141.5851 9.3163 -8.8986 -19.4187
# 4 1.3150 -17.2344 9.3163 33.8003 -11.7961 -6.5291
# 5 -6.8805 -4.7375 -8.8986 -11.7961 46.5323 -2.7252
# 6 -16.3074 -27.1791 -19.4187 -6.5291 -2.7252 40.6288
#
#
#
# Elastic Compliance Matrix: (Units=1/GPa)
#
#
# Indices 1 2 3 4 5 6 
#
# 1 0.026332 -0.004631 -0.002602 -0.000309 0.003221 0.006394
# 2 -0.004631 0.012552 -0.000332 0.009425 0.003395 0.008122
# 3 -0.002602 -0.000332 0.008024 -0.001515 0.000871 0.002383
# 4 -0.000309 0.009425 -0.001515 0.041467 0.011893 0.012918
# 5 0.003221 0.003395 0.000871 0.011893 0.025941 0.007631
# 6 0.006394 0.008122 0.002383 0.012918 0.007631 0.036339
#
#
# Mechanical properties :
#
#
# Convention : Reuss Voigt Hill
#
# Bulk Modulus (GPa) = 31.46902 51.61738 41.54320
# Shear Modulus (GPa) = 28.34830 40.25037 34.29933
#
# Velocity S-wave (km/s) = 3.35096 3.99292 3.68595
# Velocity P-wave (km/s) = 5.23804 6.45786 5.87967
#
# Compressibility (1/GPa) = 0.03177729
#
# Stress axis : x y z
#
# Youngs Moduli (GPa) = 37.97629 79.66997 124.62905
#
# Poissons Ratio (x) = 0.36893 0.32432
# Poissons Ratio (y) = 0.17586 0.04140
# Poissons Ratio (z) = 0.09883 0.02647
#
# Static dielectric constant tensor:
#      x y z
#    x 2.855410 0.185030 0.500700 
#    y 0.185030 2.033520 0.104320 
#    z 0.500700 0.104320 2.381650 
# 
# From -- ./inp_files/260227.got.cif
#   From: 2010.05.17/outbox.cif.g08.bks.cpg/sg2_131_cif.got.tgz:260227.got - 2010.06.03 11:33:40.
