data_PCOD9078089
_publ_section_title
;
Structure prediction by ZEFSAII (Michael W. Deem and Ramdas Pophale) SiO2 
 PCOD9078089
Probable space group: P -1
;
_chemical_formula_sum "Si O2"
_cell_formula_units_Z 16
_cell_length_a 9.120447
_cell_length_b 16.052513
_cell_length_c 4.989929
_cell_angle_alpha 114.816835
_cell_angle_beta 93.734571
_cell_angle_gamma 73.473502
_cell_volume 634.461720
_symmetry_space_group_name_H-M "P -1"
_symmetry_group_IT_number 2
_symmetry_cell_setting 'triclinic'
loop_
_space_group_symop_operation_xyz
x,y,z
-x,-y,-z
loop_
_atom_site_type_symbol
_atom_site_label
_atom_site_fract_x
_atom_site_fract_y
_atom_site_fract_z
Si Si1 0.822760 0.192816 0.976393
Si Si2 0.335354 0.956895 0.108763
Si Si3 0.897519 0.600063 0.485092
Si Si4 0.258249 0.641564 0.373278
Si Si5 0.641917 0.543918 0.576161
Si Si6 0.991365 0.700428 0.107636
Si Si7 0.454180 0.114390 0.460786
Si Si8 0.498716 0.301704 0.799094
O O1 0.813299 0.262865 0.328751
O O2 0.802184 0.089884 0.919785
O O3 0.970901 0.199007 0.828734
O O4 0.661228 0.236491 0.858317
O O5 0.478218 0.911015 0.267498
O O6 0.317618 0.068516 0.313538
O O7 0.405576 0.929950 0.786622
O O8 0.736533 0.575854 0.395817
O O9 0.000000 0.500000 0.500000
O O10 0.936366 0.654319 0.302064
O O11 0.897629 0.675169 0.821752
O O12 0.242554 0.548794 0.393233
O O13 0.172530 0.642618 0.082005
O O14 0.431448 0.641427 0.333688
O O15 0.500000 0.500000 0.500000
O O16 0.592472 0.631809 0.892890
O O17 0.415313 0.227387 0.576960
#
# Coordination Sequence:
#
# PCOD9078089 Si02
#       8
#     2   2   2   2   2   2   2   2
#     4  10  18  35  58  85 114 148 188 244 285 344
#     4   9  17  29  52  81 113 149 185 229 290 342
#     4  12  25  42  61  79 112 154 205 246 285 333
#     4  11  20  36  57  82 118 150 198 233 290 340
#     4  12  25  39  58  87 117 159 196 241 296 350
#     4  11  23  39  60  82 109 154 195 248 283 334
#     4   9  17  31  49  78 117 152 182 227 288 355
#     4  10  21  33  53  82 119 153 187 235 295 349
#
# _framework density 25.218229000000001
#
# number of rings (size 3 to 8) (size 9 to 14) (size 15 to 20)
#    0.000    1.500    5.000    0.750    1.750    1.000 
#    0.000    0.000    0.000    0.000    0.000    1.750 
#    0.000    0.125    0.000    0.000    0.000    0.000 
#
# Total GULP energy -89161.274244 kJ/mol
# GULP energy per Si atom -5572.579640 kJ/mol
# Density = 2.516083 g / cm^3
# Si number density = 25.218229 Si / 1000 Ang^3
#
#
#
# Elastic Constant Matrix: (Units=GPa)
#
#
# Indices 1 2 3 4 5 6 
#
# 1 108.8731 48.2106 26.7545 7.0985 10.4332 54.3813
# 2 48.2106 104.9004 31.3594 6.5308 -3.6675 65.7872
# 3 26.7545 31.3594 87.2658 -3.7716 0.0770 23.8627
# 4 7.0985 6.5308 -3.7716 47.7908 11.9864 6.9432
# 5 10.4332 -3.6675 0.0770 11.9864 22.2817 -6.6851
# 6 54.3813 65.7872 23.8627 6.9432 -6.6851 54.2738
#
#
#
# Elastic Compliance Matrix: (Units=1/GPa)
#
#
# Indices 1 2 3 4 5 6 
#
# 1 0.059197 0.055934 0.000812 0.021916 -0.072053 -0.139151
# 2 0.055934 0.095035 0.000307 0.025490 -0.079598 -0.184441
# 3 0.000812 0.000307 0.013448 0.003204 -0.004519 -0.008065
# 4 0.021916 0.025490 0.003204 0.034805 -0.044045 -0.064143
# 5 -0.072053 -0.079598 -0.004519 -0.044045 0.147575 0.194479
# 6 -0.139151 -0.184441 -0.008065 -0.064143 0.194479 0.417125
#
#
# Mechanical properties :
#
#
# Convention : Reuss Voigt Hill
#
# Bulk Modulus (GPa) = 3.54879 57.07647 30.31263
# Shear Modulus (GPa) = 6.69338 37.85024 22.27181
#
# Velocity S-wave (km/s) = 1.63093 3.87836 2.97503
# Velocity P-wave (km/s) = 2.22641 6.53741 4.88337
#
# Compressibility (1/GPa) = 0.28178624
#
# Stress axis : x y z
#
# Youngs Moduli (GPa) = 16.89262 10.52247 74.36177
#
# Poissons Ratio (x) = -0.58857 -0.06037
# Poissons Ratio (y) = -0.94488 -0.02282
# Poissons Ratio (z) = -0.01371 -0.00323
#
# Static dielectric constant tensor:
#      x y z
#    x 2.054470 -0.025690 0.030890 
#    y -0.025690 2.015870 -0.076850 
#    z 0.030890 -0.076850 1.989150 
# 
# From -- ./inp_files/48977.got.cif
#   From: 2010.05.17/outbox.cif.g08.bks.cpg/sg2_25_cif.got.tgz:48977.got - 2010.06.03 11:33:40.
