data_PCOD9078898
_publ_section_title
;
Structure prediction by ZEFSAII (Michael W. Deem and Ramdas Pophale) SiO2 
 PCOD9078898
Probable space group: P -1
;
_chemical_formula_sum "Si O2"
_cell_formula_units_Z 16
_cell_length_a 20.091858
_cell_length_b 13.794688
_cell_length_c 9.494712
_cell_angle_alpha 96.810150
_cell_angle_beta 93.730020
_cell_angle_gamma 157.216843
_cell_volume 901.825218
_symmetry_space_group_name_H-M "P -1"
_symmetry_group_IT_number 2
_symmetry_cell_setting 'triclinic'
loop_
_space_group_symop_operation_xyz
x,y,z
-x,-y,-z
loop_
_atom_site_type_symbol
_atom_site_label
_atom_site_fract_x
_atom_site_fract_y
_atom_site_fract_z
Si Si1 0.502156 0.904305 0.073686
Si Si2 0.549518 0.802093 0.836932
Si Si3 0.201690 0.164909 0.939624
Si Si4 0.053973 0.269384 0.915948
Si Si5 0.068775 0.676507 0.149567
Si Si6 0.103621 0.179678 0.685078
Si Si7 0.369573 0.197701 0.885394
Si Si8 0.156210 0.708949 0.680025
O O1 0.654079 0.101244 0.256204
O O2 0.572355 0.922280 0.970517
O O3 0.283760 0.580669 0.031994
O O4 0.500000 0.000000 0.000000
O O5 0.325683 0.494554 0.721552
O O6 0.699241 0.010760 0.767433
O O7 0.607432 0.790678 0.941637
O O8 0.407404 0.490539 0.079497
O O9 0.892693 0.889561 0.192918
O O10 0.262713 0.153673 0.855043
O O11 0.065907 0.946176 0.012156
O O12 0.995707 0.302810 0.897519
O O13 0.030131 0.178697 0.748522
O O14 0.970576 0.508826 0.249166
O O15 0.000000 0.500000 0.000000
O O16 0.000000 0.000000 0.500000
O O17 0.246442 0.940810 0.758456
O O18 0.000000 0.500000 0.500000
#
# Coordination Sequence:
#
# PCOD9078898 Si02
#       8
#     2   2   2   2   2   2   2   2
#     4  10  18  36  60  84 115 157 197 239 292 359
#     4   9  18  35  58  81 107 150 202 234 281 352
#     4  10  19  37  64  83 112 152 209 246 280 356
#     4  11  21  36  65  91 108 154 213 242 292 360
#     4  12  19  37  66  87 112 152 209 245 283 368
#     4  10  23  39  53  82 128 156 184 247 313 347
#     4   9  18  36  62  84 112 155 197 244 294 345
#     4  11  23  37  56  90 126 153 191 251 309 348
#
# _framework density 17.741796999999998
#
# number of rings (size 3 to 8) (size 9 to 14) (size 15 to 20)
#    0.000    1.750    5.000    1.125    0.000    1.000 
#    4.500    0.625    0.000    2.250    0.000    0.000 
#    0.000    0.000    0.000    0.000    0.000    0.000 
#
# Total GULP energy -89079.180625 kJ/mol
# GULP energy per Si atom -5567.448789 kJ/mol
# Density = 1.770142 g / cm^3
# Si number density = 17.741797 Si / 1000 Ang^3
#
#
#
# Elastic Constant Matrix: (Units=GPa)
#
#
# Indices 1 2 3 4 5 6 
#
# 1 109.5237 31.6402 34.9642 4.1337 -0.6490 -2.1014
# 2 31.6402 167.0560 53.4999 4.7697 0.6983 -0.3194
# 3 34.9642 53.4999 104.0860 19.7035 0.5840 2.3522
# 4 4.1337 4.7697 19.7035 20.8340 -1.2505 0.0876
# 5 -0.6490 0.6983 0.5840 -1.2505 12.8637 2.5469
# 6 -2.1014 -0.3194 2.3522 0.0876 2.5469 26.7332
#
#
#
# Elastic Compliance Matrix: (Units=1/GPa)
#
#
# Indices 1 2 3 4 5 6 
#
# 1 0.010431 -0.000963 -0.003280 0.001287 0.000648 0.001031
# 2 -0.000963 0.007347 -0.003869 0.002158 -0.000133 0.000358
# 3 -0.003280 -0.003869 0.015184 -0.012915 -0.001614 -0.001444
# 4 0.001287 0.002158 -0.012915 0.059836 0.006258 0.000471
# 5 0.000648 -0.000133 -0.001614 0.006258 0.079934 -0.007444
# 6 0.001031 0.000358 -0.001444 0.000471 -0.007444 0.038327
#
#
# Mechanical properties :
#
#
# Convention : Reuss Voigt Hill
#
# Bulk Modulus (GPa) = 59.73947 68.98605 64.36276
# Shear Modulus (GPa) = 21.47209 29.45694 25.46452
#
# Velocity S-wave (km/s) = 3.48265 4.07911 3.79262
# Velocity P-wave (km/s) = 7.06516 7.82006 7.45217
#
# Compressibility (1/GPa) = 0.01673935
#
# Stress axis : x y z
#
# Youngs Moduli (GPa) = 95.87207 136.11023 65.85842
#
# Poissons Ratio (x) = 0.13104 0.21598
# Poissons Ratio (y) = 0.09230 0.25480
# Poissons Ratio (z) = 0.31441 0.52659
#
# Static dielectric constant tensor:
#      x y z
#    x 1.707090 -0.022130 0.009350 
#    y -0.022130 1.655250 0.030220 
#    z 0.009350 0.030220 1.619370 
# 
# From -- ./inp_files/347604.got.cif
#   From: 2010.05.17/outbox.cif.g08.bks.cpg/sg2_174_cif.got.tgz:347604.got - 2010.06.03 11:33:40.
