data_PCOD9078270
_publ_section_title
;
Structure prediction by ZEFSAII (Michael W. Deem and Ramdas Pophale) SiO2 
 PCOD9078270
Probable space group: P -1
;
_chemical_formula_sum "Si O2"
_cell_formula_units_Z 16
_cell_length_a 9.152632
_cell_length_b 11.558451
_cell_length_c 17.588826
_cell_angle_alpha 141.158204
_cell_angle_beta 141.892413
_cell_angle_gamma 39.532335
_cell_volume 657.127041
_symmetry_space_group_name_H-M "P -1"
_symmetry_group_IT_number 2
_symmetry_cell_setting 'triclinic'
loop_
_space_group_symop_operation_xyz
x,y,z
-x,-y,-z
loop_
_atom_site_type_symbol
_atom_site_label
_atom_site_fract_x
_atom_site_fract_y
_atom_site_fract_z
Si Si1 0.356624 0.755339 0.531642
Si Si2 0.562326 0.803923 0.081128
Si Si3 0.617089 0.849093 0.296735
Si Si4 0.565435 0.353872 0.191670
Si Si5 0.123485 0.463742 0.291170
Si Si6 0.834571 0.100088 0.310411
Si Si7 0.703773 0.194647 0.728167
Si Si8 0.962565 0.637322 0.949793
O O1 0.251807 0.603436 0.372369
O O2 0.667059 0.656668 0.621268
O O3 0.238176 0.775944 0.578570
O O4 0.276532 0.979079 0.583386
O O5 0.484291 0.844281 0.158255
O O6 0.818665 0.592064 0.077595
O O7 0.657622 0.971871 0.176172
O O8 0.372506 0.765565 0.924235
O O9 0.435261 0.900478 0.321050
O O10 0.843826 0.624939 0.284753
O O11 0.766463 0.243485 0.282964
O O12 0.499838 0.588187 0.272721
O O13 0.295459 0.346882 0.105763
O O14 0.096702 0.317381 0.140491
O O15 0.130597 0.945382 0.342828
O O16 0.911288 0.236734 0.887954
#
# Coordination Sequence:
#
# PCOD9078270 Si02
#       8
#     2   2   2   2   2   2   2   2
#     4  10  22  40  66  88 107 154 209 245 276 331
#     4   9  18  33  55  82 116 149 195 237 277 348
#     4  10  23  39  59  88 123 154 185 241 302 346
#     4  11  19  33  57  85 118 158 191 236 288 340
#     4  10  21  40  65  85 114 151 205 245 278 337
#     4  11  20  34  61  86 115 150 200 241 283 339
#     4  11  23  37  56  93 126 150 183 236 305 361
#     4  10  18  35  60  88 117 151 191 241 290 341
#
# _framework density 24.348413000000001
#
# number of rings (size 3 to 8) (size 9 to 14) (size 15 to 20)
#    0.000    1.750    3.750    1.500    0.000    5.500 
#    0.000    1.875    0.000    2.250    0.000    0.000 
#    0.000    0.000    0.000    0.000    0.000    0.000 
#
# Total GULP energy -89552.269596 kJ/mol
# GULP energy per Si atom -5597.016850 kJ/mol
# Density = 2.429300 g / cm^3
# Si number density = 24.348413 Si / 1000 Ang^3
#
#
#
# Elastic Constant Matrix: (Units=GPa)
#
#
# Indices 1 2 3 4 5 6 
#
# 1 67.3574 29.3593 6.3079 4.4617 -9.8605 4.2131
# 2 29.3593 73.0373 19.3279 -0.9905 -15.5538 4.5244
# 3 6.3079 19.3279 64.2649 -2.9091 -23.6077 6.1606
# 4 4.4617 -0.9905 -2.9091 21.1574 4.1361 -11.6098
# 5 -9.8605 -15.5538 -23.6077 4.1361 21.4754 3.6340
# 6 4.2131 4.5244 6.1606 -11.6098 3.6340 19.1536
#
#
#
# Elastic Compliance Matrix: (Units=1/GPa)
#
#
# Indices 1 2 3 4 5 6 
#
# 1 0.023796 -0.004769 0.011942 -0.025613 0.030484 -0.029258
# 2 -0.004769 0.019552 0.001973 -0.008180 0.017839 -0.012547
# 3 0.011942 0.001973 0.044074 -0.041462 0.072862 -0.056225
# 4 -0.025613 -0.008180 -0.041462 0.136678 -0.110698 0.124751
# 5 0.030484 0.017839 0.072862 -0.110698 0.198436 -0.139102
# 6 -0.029258 -0.012547 -0.056225 0.124751 -0.139102 0.181702
#
#
# Mechanical properties :
#
#
# Convention : Reuss Voigt Hill
#
# Bulk Modulus (GPa) = 9.45947 34.96107 22.21027
# Shear Modulus (GPa) = 8.04919 22.33491 15.19205
#
# Velocity S-wave (km/s) = 1.82017 3.03199 2.50060
# Velocity P-wave (km/s) = 2.88285 5.16208 4.18079
#
# Compressibility (1/GPa) = 0.10571420
#
# Stress axis : x y z
#
# Youngs Moduli (GPa) = 42.02461 51.14686 22.68930
#
# Poissons Ratio (x) = 0.24390 -0.27096
# Poissons Ratio (y) = 0.20040 -0.04478
# Poissons Ratio (z) = -0.50186 -0.10094
#
# Static dielectric constant tensor:
#      x y z
#    x 1.894730 0.002480 -0.042590 
#    y 0.002480 1.959150 -0.026740 
#    z -0.042590 -0.026740 1.983840 
# 
# From -- ./inp_files/398137.got.cif
#   From: 2010.05.17/outbox.cif.g08.bks.cpg/sg2_200_cif.got.tgz:398137.got - 2010.06.03 11:33:40.
