data_PCOD9078591
_publ_section_title
;
Structure prediction by ZEFSAII (Michael W. Deem and Ramdas Pophale) SiO2 
 PCOD9078591
Probable space group: P -1
;
_chemical_formula_sum "Si O2"
_cell_formula_units_Z 16
_cell_length_a 9.918568
_cell_length_b 21.886813
_cell_length_c 9.109316
_cell_angle_alpha 60.871199
_cell_angle_beta 55.832875
_cell_angle_gamma 28.242092
_cell_volume 774.082284
_symmetry_space_group_name_H-M "P -1"
_symmetry_group_IT_number 2
_symmetry_cell_setting 'triclinic'
loop_
_space_group_symop_operation_xyz
x,y,z
-x,-y,-z
loop_
_atom_site_type_symbol
_atom_site_label
_atom_site_fract_x
_atom_site_fract_y
_atom_site_fract_z
Si Si1 0.284452 0.018895 0.185092
Si Si2 0.300909 0.737481 0.914643
Si Si3 0.699374 0.900890 0.630172
Si Si4 0.392262 0.617356 0.472983
Si Si5 0.227839 0.480029 0.359767
Si Si6 0.342905 0.355435 0.922403
Si Si7 0.643330 0.805978 0.008471
Si Si8 0.160827 0.641430 0.084899
O O1 0.272211 0.046121 0.329769
O O2 0.956610 0.137487 0.174407
O O3 0.500000 0.000000 0.000000
O O4 0.438910 0.893707 0.174097
O O5 0.572870 0.615806 0.787262
O O6 0.444910 0.728889 0.966345
O O7 0.158223 0.715438 0.084078
O O8 0.560271 0.885326 0.827296
O O9 0.031709 0.756031 0.545287
O O10 0.500000 0.000000 0.500000
O O11 0.500000 0.500000 0.500000
O O12 0.550615 0.581038 0.571835
O O13 0.518806 0.630072 0.269468
O O14 0.050156 0.615357 0.274060
O O15 0.000000 0.500000 0.500000
O O16 0.341217 0.281037 0.933018
O O17 0.000000 0.500000 0.000000
O O18 0.970727 0.715163 0.966546
O O19 0.500000 0.500000 0.000000
#
# Coordination Sequence:
#
# PCOD9078591 Si02
#       8
#     2   2   2   2   2   2   2   2
#     4  10  21  42  70  92 128 179 231 268 320 411
#     4  11  21  41  66  91 129 178 227 263 322 407
#     4  11  24  45  71 102 138 176 231 288 337 399
#     4  12  25  44  69 104 139 174 225 286 343 399
#     4  11  22  39  65  96 134 171 214 281 344 391
#     4  12  26  43  67 103 140 175 220 282 345 400
#     4  11  23  44  69  97 138 176 231 275 328 411
#     4  10  18  35  66  94 119 173 224 265 323 399
#
# _framework density 20.669637000000002
#
# number of rings (size 3 to 8) (size 9 to 14) (size 15 to 20)
#    0.000    1.000    3.750    5.250    3.500    1.500 
#    0.000    1.875    0.000    0.000    0.000    0.000 
#    0.000    0.000    0.000    0.000    0.000    0.000 
#
# Total GULP energy -89314.539819 kJ/mol
# GULP energy per Si atom -5582.158739 kJ/mol
# Density = 2.062259 g / cm^3
# Si number density = 20.669637 Si / 1000 Ang^3
#
#
#
# Elastic Constant Matrix: (Units=GPa)
#
#
# Indices 1 2 3 4 5 6 
#
# 1 126.8506 59.9470 22.9470 -3.4148 3.5589 17.5628
# 2 59.9470 125.2526 35.9572 -6.9322 6.8108 14.1612
# 3 22.9470 35.9572 75.7427 -3.4824 -0.3036 1.6406
# 4 -3.4148 -6.9322 -3.4824 29.2885 -6.2688 9.9912
# 5 3.5589 6.8108 -0.3036 -6.2688 34.9009 -5.8390
# 6 17.5628 14.1612 1.6406 9.9912 -5.8390 41.0378
#
#
#
# Elastic Compliance Matrix: (Units=1/GPa)
#
#
# Indices 1 2 3 4 5 6 
#
# 1 0.010623 -0.004305 -0.001053 0.001115 -0.000617 -0.003378
# 2 -0.004305 0.011799 -0.004132 0.002376 -0.001962 -0.002922
# 3 -0.001053 -0.004132 0.015488 0.000588 0.001373 0.001310
# 4 0.001115 0.002376 0.000588 0.039424 0.004796 -0.010236
# 5 -0.000617 -0.001962 0.001373 0.004796 0.030654 0.004080
# 6 -0.003378 -0.002922 0.001310 -0.010236 0.004080 0.029842
#
#
# Mechanical properties :
#
#
# Convention : Reuss Voigt Hill
#
# Bulk Modulus (GPa) = 52.82790 62.83871 57.83330
# Shear Modulus (GPa) = 30.65227 34.97843 32.81535
#
# Velocity S-wave (km/s) = 3.85510 4.11817 3.98881
# Velocity P-wave (km/s) = 6.74014 7.28560 7.01817
#
# Compressibility (1/GPa) = 0.01892939
#
# Stress axis : x y z
#
# Youngs Moduli (GPa) = 94.13384 84.75236 64.56814
#
# Poissons Ratio (x) = 0.36485 0.06798
# Poissons Ratio (y) = 0.40524 0.26683
# Poissons Ratio (z) = 0.09910 0.35024
#
# Static dielectric constant tensor:
#      x y z
#    x 1.750150 0.004900 0.004250 
#    y 0.004900 1.791700 -0.019910 
#    z 0.004250 -0.019910 1.777740 
# 
# From -- ./inp_files/223395.got.cif
#   From: 2010.05.17/outbox.cif.g08.bks.cpg/sg2_112_cif.got.tgz:223395.got - 2010.06.03 11:33:40.
