data_PCOD9078918
_publ_section_title
;
Structure prediction by ZEFSAII (Michael W. Deem and Ramdas Pophale) SiO2 
 PCOD9078918
Probable space group: P -1
;
_chemical_formula_sum "Si O2"
_cell_formula_units_Z 16
_cell_length_a 17.317140
_cell_length_b 14.665206
_cell_length_c 14.537840
_cell_angle_alpha 20.128126
_cell_angle_beta 42.285038
_cell_angle_gamma 37.982474
_cell_volume 781.891571
_symmetry_space_group_name_H-M "P -1"
_symmetry_group_IT_number 2
_symmetry_cell_setting 'triclinic'
loop_
_space_group_symop_operation_xyz
x,y,z
-x,-y,-z
loop_
_atom_site_type_symbol
_atom_site_label
_atom_site_fract_x
_atom_site_fract_y
_atom_site_fract_z
Si Si1 0.308614 0.761643 0.519754
Si Si2 0.549985 0.525567 0.627008
Si Si3 0.701538 0.890764 0.180868
Si Si4 0.392415 0.594120 0.870825
Si Si5 0.895461 0.047566 0.625396
Si Si6 0.944150 0.550155 0.192898
Si Si7 0.399418 0.910919 0.725338
Si Si8 0.769609 0.608983 0.919799
O O1 0.455470 0.556521 0.597114
O O2 0.241803 0.808799 0.435611
O O3 0.285553 0.079439 0.277690
O O4 0.235277 0.621999 0.782033
O O5 0.638202 0.692977 0.378195
O O6 0.450262 0.689806 0.641473
O O7 0.630810 0.204664 0.897912
O O8 0.847688 0.755279 0.157402
O O9 0.680116 0.889630 0.310936
O O10 0.514403 0.370642 0.026353
O O11 0.311599 0.431035 0.054888
O O12 0.326615 0.833637 0.779536
O O13 0.916758 0.266334 0.470371
O O14 0.000000 0.000000 0.500000
O O15 0.914794 0.744780 0.941694
O O16 0.089865 0.458927 0.170307
O O17 0.500000 0.000000 0.500000
#
# Coordination Sequence:
#
# PCOD9078918 Si02
#       8
#     2   2   2   2   2   2   2   2
#     4  11  21  36  64  89 113 149 204 261 286 334
#     4  10  20  38  58  88 117 154 197 244 299 341
#     4  11  23  39  59  84 129 160 190 236 305 365
#     4   9  20  32  59  91 112 148 199 251 284 339
#     4  12  22  41  63  89 116 154 212 245 286 350
#     4  12  24  40  59  89 123 163 191 242 305 355
#     4  10  18  36  60  88 115 152 201 243 286 343
#     4  11  21  36  58  90 122 147 197 249 299 340
#
# _framework density 20.463194999999999
#
# number of rings (size 3 to 8) (size 9 to 14) (size 15 to 20)
#    0.000    1.250    3.750    4.125    1.750    0.000 
#    0.000    4.375    0.000    0.750    0.000    0.000 
#    0.000    0.000    0.000    0.000    0.000    0.000 
#
# Total GULP energy -89320.899949 kJ/mol
# GULP energy per Si atom -5582.556247 kJ/mol
# Density = 2.041662 g / cm^3
# Si number density = 20.463195 Si / 1000 Ang^3
#
#
#
# Elastic Constant Matrix: (Units=GPa)
#
#
# Indices 1 2 3 4 5 6 
#
# 1 63.4737 -0.2308 5.3440 -6.7668 -20.7961 0.1515
# 2 -0.2308 65.4584 -10.0255 -0.3622 -8.2005 2.2580
# 3 5.3440 -10.0255 74.6220 -10.0664 -12.7398 1.2413
# 4 -6.7668 -0.3622 -10.0664 19.1372 3.6549 1.7913
# 5 -20.7961 -8.2005 -12.7398 3.6549 31.8206 1.8073
# 6 0.1515 2.2580 1.2413 1.7913 1.8073 19.9430
#
#
#
# Elastic Compliance Matrix: (Units=1/GPa)
#
#
# Indices 1 2 3 4 5 6 
#
# 1 0.021038 0.002362 0.002172 0.006052 0.014671 -0.002436
# 2 0.002362 0.016875 0.003660 0.001965 0.007302 -0.002995
# 3 0.002172 0.003660 0.016264 0.008116 0.008107 -0.002907
# 4 0.006052 0.001965 0.008116 0.059035 0.001282 -0.006192
# 5 0.014671 0.007302 0.008107 0.001282 0.046322 -0.005756
# 6 -0.002436 -0.002995 -0.002907 -0.006192 -0.005756 0.051759
#
#
# Mechanical properties :
#
#
# Convention : Reuss Voigt Hill
#
# Bulk Modulus (GPa) = 14.17117 21.52548 17.84833
# Shear Modulus (GPa) = 22.89099 28.07793 25.48446
#
# Velocity S-wave (km/s) = 3.34824 3.70823 3.53282
# Velocity P-wave (km/s) = 4.67844 5.37369 5.03808
#
# Compressibility (1/GPa) = 0.07056579
#
# Stress axis : x y z
#
# Youngs Moduli (GPa) = 47.53304 59.26036 61.48420
#
# Poissons Ratio (x) = -0.14000 -0.13357
# Poissons Ratio (y) = -0.11229 -0.22501
# Poissons Ratio (z) = -0.10326 -0.21687
#
# Static dielectric constant tensor:
#      x y z
#    x 1.779350 0.045250 0.017960 
#    y 0.045250 1.792860 -0.005470 
#    z 0.017960 -0.005470 1.744170 
# 
# From -- ./inp_files/99539.got.cif
#   From: 2010.05.17/outbox.cif.g08.bks.cpg/sg2_50_cif.got.tgz:99539.got - 2010.06.03 11:33:40.
