data_PCOD9078250
_publ_section_title
;
Structure prediction by ZEFSAII (Michael W. Deem and Ramdas Pophale) SiO2 
 PCOD9078250
Probable space group: P -1
;
_chemical_formula_sum "Si O2"
_cell_formula_units_Z 16
_cell_length_a 6.689187
_cell_length_b 12.137353
_cell_length_c 8.538459
_cell_angle_alpha 91.378793
_cell_angle_beta 103.791647
_cell_angle_gamma 109.571868
_cell_volume 630.240073
_symmetry_space_group_name_H-M "P -1"
_symmetry_group_IT_number 2
_symmetry_cell_setting 'triclinic'
loop_
_space_group_symop_operation_xyz
x,y,z
-x,-y,-z
loop_
_atom_site_type_symbol
_atom_site_label
_atom_site_fract_x
_atom_site_fract_y
_atom_site_fract_z
Si Si1 0.331671 0.809610 0.986966
Si Si2 0.266585 0.566039 0.555850
Si Si3 0.242154 0.471440 0.225188
Si Si4 0.754072 0.461475 0.107043
Si Si5 0.169514 0.994897 0.378552
Si Si6 0.396883 0.997398 0.732513
Si Si7 0.065948 0.131254 0.943979
Si Si8 0.329192 0.241106 0.276239
O O1 0.311654 0.676617 0.949978
O O2 0.342324 0.888390 0.837300
O O3 0.528768 0.887193 0.139598
O O4 0.109208 0.809670 0.032522
O O5 0.352194 0.549490 0.399387
O O6 0.321327 0.516805 0.731350
O O7 0.414269 0.703500 0.622579
O O8 0.000000 0.500000 0.500000
O O9 0.225673 0.342932 0.277020
O O10 0.016994 0.499175 0.172372
O O11 0.306526 0.480087 0.054344
O O12 0.210251 0.981677 0.567887
O O13 0.195906 0.128724 0.348583
O O14 0.385220 0.990548 0.324952
O O15 0.973355 0.895110 0.248425
O O16 0.283765 0.200771 0.084978
O O17 0.000000 0.000000 0.000000
#
# Coordination Sequence:
#
# PCOD9078250 Si02
#       8
#     2   2   2   2   2   2   2   2
#     4  10  18  35  60  85 124 166 205 255 312 367
#     4  10  23  41  62  90 123 158 218 268 309 378
#     4  10  22  40  64  89 124 165 212 262 317 371
#     4  10  21  40  63  90 122 165 213 260 309 381
#     4   9  19  36  60  92 122 162 210 250 312 380
#     4   9  19  34  58  92 123 157 210 259 300 379
#     4   9  19  36  59  84 123 162 204 250 313 375
#     4  11  20  38  64  87 127 172 200 264 326 369
#
# _framework density 25.387150999999999
#
# number of rings (size 3 to 8) (size 9 to 14) (size 15 to 20)
#    0.000    2.250    1.250    1.125    1.750    1.500 
#    2.250    3.750   11.000    0.000    0.000    0.000 
#    0.000    0.000    0.000    0.000    0.000    0.000 
#
# Total GULP energy -89268.727114 kJ/mol
# GULP energy per Si atom -5579.295445 kJ/mol
# Density = 2.532937 g / cm^3
# Si number density = 25.387151 Si / 1000 Ang^3
#
#
#
# Elastic Constant Matrix: (Units=GPa)
#
#
# Indices 1 2 3 4 5 6 
#
# 1 77.1958 12.4710 46.9131 1.4450 11.7473 15.4511
# 2 12.4710 79.4791 73.1052 20.8833 12.7047 0.4646
# 3 46.9131 73.1052 258.4523 13.8383 11.4678 5.5944
# 4 1.4450 20.8833 13.8383 46.1081 0.1136 4.2044
# 5 11.7473 12.7047 11.4678 0.1136 64.0423 4.1212
# 6 15.4511 0.4646 5.5944 4.2044 4.1212 32.6217
#
#
#
# Elastic Compliance Matrix: (Units=1/GPa)
#
#
# Indices 1 2 3 4 5 6 
#
# 1 0.016366 0.000155 -0.002818 0.000917 -0.002071 -0.007127
# 2 0.000155 0.019736 -0.005107 -0.007576 -0.003138 0.001894
# 3 -0.002818 -0.005107 0.005763 0.000645 0.000479 0.000275
# 4 0.000917 -0.007576 0.000645 0.025246 0.001423 -0.003871
# 5 -0.002071 -0.003138 0.000479 0.001423 0.016615 -0.001339
# 6 -0.007127 0.001894 0.000275 -0.003871 -0.001339 0.034624
#
#
# Mechanical properties :
#
#
# Convention : Reuss Voigt Hill
#
# Bulk Modulus (GPa) = 37.98370 75.56729 56.77549
# Shear Modulus (GPa) = 35.04738 47.39696 41.22217
#
# Velocity S-wave (km/s) = 3.71956 4.32553 4.03394
# Velocity P-wave (km/s) = 5.78283 7.40118 6.64148
#
# Compressibility (1/GPa) = 0.02632709
#
# Stress axis : x y z
#
# Youngs Moduli (GPa) = 61.10307 50.66920 173.51056
#
# Poissons Ratio (x) = -0.00787 0.48887
# Poissons Ratio (y) = -0.00949 0.88608
# Poissons Ratio (z) = 0.17216 0.25876
#
# Static dielectric constant tensor:
#      x y z
#    x 2.287190 0.000310 -0.024450 
#    y 0.000310 1.924490 0.017250 
#    z -0.024450 0.017250 2.006930 
# 
# From -- ./inp_files/179365.got.cif
#   From: 2010.05.17/outbox.cif.g08.bks.cpg/sg2_90_cif.got.tgz:179365.got - 2010.06.03 11:33:40.
