data_PCOD9078303
_publ_section_title
;
Structure prediction by ZEFSAII (Michael W. Deem and Ramdas Pophale) SiO2 
 PCOD9078303
Probable space group: P -1
;
_chemical_formula_sum "Si O2"
_cell_formula_units_Z 16
_cell_length_a 12.171986
_cell_length_b 11.949171
_cell_length_c 11.653237
_cell_angle_alpha 24.758391
_cell_angle_beta 81.295441
_cell_angle_gamma 79.354611
_cell_volume 697.043501
_symmetry_space_group_name_H-M "P -1"
_symmetry_group_IT_number 2
_symmetry_cell_setting 'triclinic'
loop_
_space_group_symop_operation_xyz
x,y,z
-x,-y,-z
loop_
_atom_site_type_symbol
_atom_site_label
_atom_site_fract_x
_atom_site_fract_y
_atom_site_fract_z
Si Si1 0.772208 0.338277 0.058305
Si Si2 0.104618 0.969263 0.853330
Si Si3 0.888749 0.298162 0.650639
Si Si4 0.569646 0.229909 0.516250
Si Si5 0.280677 0.266934 0.659488
Si Si6 0.633708 0.835822 0.541467
Si Si7 0.653728 0.208687 0.766775
Si Si8 0.651372 0.683000 0.924717
O O1 0.882617 0.196933 0.111681
O O2 0.691720 0.103935 0.305682
O O3 0.720044 0.565007 0.765828
O O4 0.763589 0.513054 0.013932
O O5 0.222722 0.092830 0.737428
O O6 0.000798 0.199282 0.658825
O O7 0.094422 0.787164 0.138259
O O8 0.833788 0.606883 0.371779
O O9 0.783671 0.157673 0.752437
O O10 0.453026 0.145429 0.565767
O O11 0.580038 0.281020 0.601100
O O12 0.657455 0.968146 0.717301
O O13 0.594827 0.488862 0.199203
O O14 0.338684 0.539132 0.384093
O O15 0.362077 0.059877 0.913897
O O16 0.583250 0.757447 0.746979
#
# Coordination Sequence:
#
# PCOD9078303 Si02
#       8
#     2   2   2   2   2   2   2   2
#     4  10  22  33  49  84 111 131 169 220 265 314
#     4  10  18  35  61  77 108 138 161 229 268 297
#     4   8  19  35  56  85 100 129 187 207 265 309
#     4  12  19  34  60  72 109 144 169 221 258 291
#     4   9  18  34  50  81 105 123 180 214 254 308
#     4  10  21  35  50  82 109 131 181 215 258 310
#     4   9  20  32  51  83 103 131 176 222 246 311
#     4  10  20  33  53  83 102 135 182 213 260 308
#
# _framework density 22.954090000000001
#
# number of rings (size 3 to 8) (size 9 to 14) (size 15 to 20)
#    1.500    0.750    1.250    2.625    1.750    0.000 
#    0.000    0.000    0.000   12.000    0.000    0.000 
#    0.000    0.000    0.000    0.000    0.000    0.000 
#
# Total GULP energy -89127.264354 kJ/mol
# GULP energy per Si atom -5570.454022 kJ/mol
# Density = 2.290184 g / cm^3
# Si number density = 22.954090 Si / 1000 Ang^3
#
#
#
# Elastic Constant Matrix: (Units=GPa)
#
#
# Indices 1 2 3 4 5 6 
#
# 1 45.0226 9.1367 5.9527 7.4841 4.0383 -7.8382
# 2 9.1367 65.0370 13.6680 -13.7543 -1.3104 -6.2620
# 3 5.9527 13.6680 143.1523 -7.3876 0.1062 0.6671
# 4 7.4841 -13.7543 -7.3876 30.5181 -5.2607 3.7835
# 5 4.0383 -1.3104 0.1062 -5.2607 16.6557 -3.3680
# 6 -7.8382 -6.2620 0.6671 3.7835 -3.3680 24.1149
#
#
#
# Elastic Compliance Matrix: (Units=1/GPa)
#
#
# Indices 1 2 3 4 5 6 
#
# 1 0.027858 -0.005648 -0.001287 -0.012334 -0.009419 0.008243
# 2 -0.005648 0.018985 -0.001050 0.010542 0.006685 0.002403
# 3 -0.001287 -0.001050 0.007238 0.001824 0.000536 -0.001102
# 4 -0.012334 0.010542 0.001824 0.044604 0.016685 -0.005990
# 5 -0.009419 0.006685 0.000536 0.016685 0.069272 0.005717
# 6 0.008243 0.002403 -0.001102 -0.005990 0.005717 0.046540
#
#
# Mechanical properties :
#
#
# Convention : Reuss Voigt Hill
#
# Bulk Modulus (GPa) = 26.23858 34.52519 30.38189
# Shear Modulus (GPa) = 20.56172 29.22138 24.89155
#
# Velocity S-wave (km/s) = 2.99620 3.57183 3.29660
# Velocity P-wave (km/s) = 4.83997 5.66430 5.26828
#
# Compressibility (1/GPa) = 0.03811181
#
# Stress axis : x y z
#
# Youngs Moduli (GPa) = 35.89664 52.67189 138.15592
#
# Poissons Ratio (x) = 0.29747 0.17783
# Poissons Ratio (y) = 0.20273 0.14506
# Poissons Ratio (z) = 0.04620 0.05530
#
# Static dielectric constant tensor:
#      x y z
#    x 1.923110 -0.110080 -0.018940 
#    y -0.110080 1.969220 0.008110 
#    z -0.018940 0.008110 1.901530 
# 
# From -- ./inp_files/533120.got.cif
#   From: 2010.05.17/outbox.cif.g08.bks.cpg/sg2_267_cif.got.tgz:533120.got - 2010.06.03 11:33:40.
