data_PCOD9078435
_publ_section_title
;
Structure prediction by ZEFSAII (Michael W. Deem and Ramdas Pophale) SiO2 
 PCOD9078435
Probable space group: P -1
;
_chemical_formula_sum "Si O2"
_cell_formula_units_Z 12
_cell_length_a 15.661508
_cell_length_b 7.832082
_cell_length_c 5.535447
_cell_angle_alpha 112.805163
_cell_angle_beta 71.910387
_cell_angle_gamma 130.648533
_cell_volume 473.255468
_symmetry_space_group_name_H-M "P -1"
_symmetry_group_IT_number 2
_symmetry_cell_setting 'triclinic'
loop_
_space_group_symop_operation_xyz
x,y,z
-x,-y,-z
loop_
_atom_site_type_symbol
_atom_site_label
_atom_site_fract_x
_atom_site_fract_y
_atom_site_fract_z
Si Si1 0.525222 0.771281 0.019886
Si Si2 0.127710 0.607777 0.877792
Si Si3 0.627385 0.818800 0.461039
Si Si4 0.837573 0.967593 0.134021
Si Si5 0.674782 0.244394 0.901746
Si Si6 0.938950 0.789466 0.632454
O O1 0.561746 0.730835 0.217785
O O2 0.394018 0.661988 0.065232
O O3 0.561388 0.709865 0.710118
O O4 0.595990 0.053152 0.078171
O O5 0.185117 0.876594 0.917212
O O6 0.118293 0.453809 0.581563
O O7 0.200095 0.597261 0.015022
O O8 0.000000 0.500000 0.000000
O O9 0.738645 0.833165 0.342956
O O10 0.668879 0.083352 0.609219
O O11 0.958480 0.147826 0.253520
O O12 0.853289 0.810996 0.865942
O O13 0.000000 0.000000 0.500000
#
# Coordination Sequence:
#
# PCOD9078435 Si02
#       6
#     2   2   2   2   2   2
#     4   9  19  33  59  96 126 158 216 262 315 374
#     4  12  22  41  66  95 127 169 216 261 319 389
#     4  10  18  35  62  92 121 168 210 261 318 378
#     4  11  23  41  63  92 126 174 211 266 319 384
#     4   9  20  33  59  94 126 161 212 265 311 379
#     4  11  25  41  60  90 134 166 216 262 323 376
#
# _framework density 25.356280999999999
#
# number of rings (size 3 to 8) (size 9 to 14) (size 15 to 20)
#    1.000    0.667    3.333    2.000    2.333    0.000 
#    0.000    0.000    0.000    2.000    0.000    0.000 
#    0.000    0.000    0.000    0.000    0.000    0.000 
#
# Total GULP energy -67189.702724 kJ/mol
# GULP energy per Si atom -5599.141894 kJ/mol
# Density = 2.529857 g / cm^3
# Si number density = 25.356281 Si / 1000 Ang^3
#
#
#
# Elastic Constant Matrix: (Units=GPa)
#
#
# Indices 1 2 3 4 5 6 
#
# 1 177.7126 54.2495 104.8220 -3.5267 -23.1285 34.1557
# 2 54.2495 74.0679 39.6719 2.0002 2.1622 0.9056
# 3 104.8220 39.6719 216.7199 18.4110 -16.7391 17.2075
# 4 -3.5267 2.0002 18.4110 34.8169 -3.6374 0.8286
# 5 -23.1285 2.1622 -16.7391 -3.6374 36.6409 -0.9892
# 6 34.1557 0.9056 17.2075 0.8286 -0.9892 42.5808
#
#
#
# Elastic Compliance Matrix: (Units=1/GPa)
#
#
# Indices 1 2 3 4 5 6 
#
# 1 0.013009 -0.007565 -0.004097 0.004858 0.007037 -0.008549
# 2 -0.007565 0.019581 -0.000677 -0.002331 -0.006315 0.005824
# 3 -0.004097 -0.000677 0.007046 -0.004085 0.000282 0.000540
# 4 0.004858 -0.002331 -0.004085 0.032037 0.004444 -0.002716
# 5 0.007037 -0.006315 0.000282 0.004444 0.032543 -0.004955
# 6 -0.008549 0.005824 0.000540 -0.002716 -0.004955 0.029938
#
#
# Mechanical properties :
#
#
# Convention : Reuss Voigt Hill
#
# Bulk Modulus (GPa) = 66.86518 96.22082 81.54300
# Shear Modulus (GPa) = 30.52142 40.79151 35.65646
#
# Velocity S-wave (km/s) = 3.47321 4.01525 3.75403
# Velocity P-wave (km/s) = 6.52010 7.71533 7.14276
#
# Compressibility (1/GPa) = 0.01495547
#
# Stress axis : x y z
#
# Youngs Moduli (GPa) = 76.87137 51.06952 141.92382
#
# Poissons Ratio (x) = 0.38636 0.58152
# Poissons Ratio (y) = 0.58156 0.09614
# Poissons Ratio (z) = 0.31497 0.03459
#
# Static dielectric constant tensor:
#      x y z
#    x 1.958290 -0.021330 0.005720 
#    y -0.021330 2.111690 -0.037780 
#    z 0.005720 -0.037780 1.945780 
# 
# From -- ./inp_files/89282.got.cif
#   From: 2010.05.17/outbox.cif.g08.bks.cpg/sg2_45_cif.got.tgz:89282.got - 2010.06.03 11:33:40.
