data_PCOD9078017
_publ_section_title
;
Structure prediction by ZEFSAII (Michael W. Deem and Ramdas Pophale) SiO2 
 PCOD9078017
Probable space group: P -1
;
_chemical_formula_sum "Si O2"
_cell_formula_units_Z 16
_cell_length_a 21.084410
_cell_length_b 13.869650
_cell_length_c 7.727688
_cell_angle_alpha 137.283857
_cell_angle_beta 42.587265
_cell_angle_gamma 153.506651
_cell_volume 660.341240
_symmetry_space_group_name_H-M "P -1"
_symmetry_group_IT_number 2
_symmetry_cell_setting 'triclinic'
loop_
_space_group_symop_operation_xyz
x,y,z
-x,-y,-z
loop_
_atom_site_type_symbol
_atom_site_label
_atom_site_fract_x
_atom_site_fract_y
_atom_site_fract_z
Si Si1 0.568950 0.211004 0.528784
Si Si2 0.693119 0.913360 0.037453
Si Si3 0.264467 0.485524 0.832618
Si Si4 0.254035 0.336659 0.032983
Si Si5 0.826872 0.326972 0.158056
Si Si6 0.896976 0.500560 0.632101
Si Si7 0.507125 0.452562 0.620746
Si Si8 0.038535 0.907917 0.069909
O O1 0.419428 0.124673 0.669514
O O2 0.651635 0.429523 0.760866
O O3 0.710179 0.300511 0.266425
O O4 0.500000 0.000000 0.500000
O O5 0.743010 0.078307 0.001351
O O6 0.843091 0.038979 0.988425
O O7 0.611997 0.680890 0.818494
O O8 0.415271 0.609787 0.613122
O O9 0.247802 0.371624 0.891969
O O10 0.239644 0.615883 0.122610
O O11 0.114948 0.265537 0.745364
O O12 0.103800 0.129995 0.161122
O O13 0.345407 0.295946 0.810071
O O14 0.839971 0.399115 0.424337
O O15 0.000000 0.500000 0.000000
O O16 0.000000 0.500000 0.500000
O O17 0.997503 0.759006 0.791835
O O18 0.500000 0.500000 0.500000
#
# Coordination Sequence:
#
# PCOD9078017 Si02
#       8
#     2   2   2   2   2   2   2   2
#     4   9  19  35  56  80 113 155 195 236 293 346
#     4  10  21  38  56  85 118 155 194 240 300 351
#     4   9  19  35  60  81 113 158 190 238 293 356
#     4  10  18  35  57  86 111 151 203 235 281 357
#     4  11  21  37  63  89 111 153 204 250 280 352
#     4  10  20  39  61  83 119 155 191 235 307 350
#     4   9  20  35  55  82 117 148 191 246 291 342
#     4  10  21  33  59  83 116 158 190 239 299 348
#
# _framework density 24.229894000000002
#
# number of rings (size 3 to 8) (size 9 to 14) (size 15 to 20)
#    0.750    1.500    2.500    0.375    0.000    5.500 
#    0.000    3.750    0.000    1.500    0.000    0.000 
#    0.000    0.000    0.000    0.000    0.000    0.000 
#
# Total GULP energy -89105.236992 kJ/mol
# GULP energy per Si atom -5569.077312 kJ/mol
# Density = 2.417475 g / cm^3
# Si number density = 24.229894 Si / 1000 Ang^3
#
#
#
# Elastic Constant Matrix: (Units=GPa)
#
#
# Indices 1 2 3 4 5 6 
#
# 1 58.7046 -5.5910 28.0989 -13.5400 -25.0940 19.5302
# 2 -5.5910 63.0321 12.2442 -14.6329 4.2595 -3.3988
# 3 28.0989 12.2442 106.3090 -30.5731 -29.0039 4.7170
# 4 -13.5400 -14.6329 -30.5731 48.6249 17.7908 -5.6508
# 5 -25.0940 4.2595 -29.0039 17.7908 47.9840 -8.7226
# 6 19.5302 -3.3988 4.7170 -5.6508 -8.7226 31.6704
#
#
#
# Elastic Compliance Matrix: (Units=1/GPa)
#
#
# Indices 1 2 3 4 5 6 
#
# 1 0.027904 0.002158 -0.004328 0.000816 0.008990 -0.013710
# 2 0.002158 0.018229 -0.001922 0.006400 -0.003843 0.000995
# 3 -0.004328 -0.001922 0.013416 0.005302 0.004534 0.002659
# 4 0.000816 0.006400 0.005302 0.028993 -0.007218 0.002579
# 5 0.008990 -0.003843 0.004534 -0.007218 0.031434 0.000738
# 6 -0.013710 0.000995 0.002659 0.002579 0.000738 0.040404
#
#
# Mechanical properties :
#
#
# Convention : Reuss Voigt Hill
#
# Bulk Modulus (GPa) = 19.46879 33.06112 26.26496
# Shear Modulus (GPa) = 26.92749 38.54211 32.73480
#
# Velocity S-wave (km/s) = 3.33728 3.99267 3.67959
# Velocity P-wave (km/s) = 4.78565 5.91012 5.37736
#
# Compressibility (1/GPa) = 0.05136426
#
# Stress axis : x y z
#
# Youngs Moduli (GPa) = 35.83731 54.85801 74.54009
#
# Poissons Ratio (x) = -0.11841 0.32263
# Poissons Ratio (y) = -0.07735 0.14328
# Poissons Ratio (z) = 0.15511 0.10545
#
# Static dielectric constant tensor:
#      x y z
#    x 2.018930 0.011370 -0.051680 
#    y 0.011370 2.037780 -0.029080 
#    z -0.051680 -0.029080 2.018840 
# 
# From -- ./inp_files/276869.got.cif
#   From: 2010.05.17/outbox.cif.g08.bks.cpg/sg2_139_cif.got.tgz:276869.got - 2010.06.03 11:33:40.
