data_PCOD9078781
_publ_section_title
;
Structure prediction by ZEFSAII (Michael W. Deem and Ramdas Pophale) SiO2 
 PCOD9078781
Probable space group: P -1
;
_chemical_formula_sum "Si O2"
_cell_formula_units_Z 16
_cell_length_a 15.338134
_cell_length_b 9.810952
_cell_length_c 15.237730
_cell_angle_alpha 80.930963
_cell_angle_beta 143.558151
_cell_angle_gamma 126.854486
_cell_volume 795.525847
_symmetry_space_group_name_H-M "P -1"
_symmetry_group_IT_number 2
_symmetry_cell_setting 'triclinic'
loop_
_space_group_symop_operation_xyz
x,y,z
-x,-y,-z
loop_
_atom_site_type_symbol
_atom_site_label
_atom_site_fract_x
_atom_site_fract_y
_atom_site_fract_z
Si Si1 0.754350 0.701539 0.239650
Si Si2 0.594750 0.927257 0.543545
Si Si3 0.572521 0.243442 0.761866
Si Si4 0.773024 0.768497 0.454252
Si Si5 0.029476 0.439172 0.809719
Si Si6 0.373116 0.793315 0.701099
Si Si7 0.182979 0.552629 0.738240
Si Si8 0.375382 0.633035 0.552150
O O1 0.719628 0.693376 0.316449
O O2 0.874635 0.644091 0.323260
O O3 0.500000 0.500000 0.000000
O O4 0.943261 0.964147 0.336653
O O5 0.428957 0.759089 0.344022
O O6 0.574274 0.803049 0.618095
O O7 0.500000 0.000000 0.500000
O O8 0.861492 0.173717 0.695870
O O9 0.400688 0.237762 0.655864
O O10 0.465689 0.015406 0.731041
O O11 0.837396 0.458027 0.000208
O O12 0.717620 0.590988 0.483981
O O13 0.226606 0.585127 0.874472
O O14 0.851639 0.437222 0.653015
O O15 0.394952 0.771343 0.823341
O O16 0.477072 0.769929 0.713406
O O17 0.074891 0.560135 0.468465
#
# Coordination Sequence:
#
# PCOD9078781 Si02
#       8
#     2   2   2   2   2   2   2   2
#     4  11  22  37  59  86 125 163 192 238 303 360
#     4  10  20  41  63  85 120 158 198 254 299 345
#     4  12  22  39  63  90 117 158 203 250 297 355
#     4  11  24  39  59  90 125 155 197 247 302 353
#     4  10  22  37  64  92 114 157 210 242 295 358
#     4  10  19  35  63  82 115 159 192 242 297 346
#     4  10  18  36  58  84 119 153 193 239 294 352
#     4  10  21  42  60  88 122 157 200 250 298 351
#
# _framework density 20.112483000000001
#
# number of rings (size 3 to 8) (size 9 to 14) (size 15 to 20)
#    0.000    1.500    6.250    0.750    0.000    4.000 
#    0.000    0.625    0.000    0.000    0.000    0.000 
#    0.000    0.000    0.000    0.000    0.000    0.000 
#
# Total GULP energy -89242.358109 kJ/mol
# GULP energy per Si atom -5577.647382 kJ/mol
# Density = 2.006671 g / cm^3
# Si number density = 20.112483 Si / 1000 Ang^3
#
#
#
# Elastic Constant Matrix: (Units=GPa)
#
#
# Indices 1 2 3 4 5 6 
#
# 1 69.8640 24.6226 11.5007 -4.5385 -18.4136 9.5266
# 2 24.6226 150.9675 9.0437 7.7927 -2.0481 17.6463
# 3 11.5007 9.0437 70.3777 2.3487 -12.9515 3.6195
# 4 -4.5385 7.7927 2.3487 7.8866 -2.4504 -6.2490
# 5 -18.4136 -2.0481 -12.9515 -2.4504 19.4373 -1.9033
# 6 9.5266 17.6463 3.6195 -6.2490 -1.9033 29.7398
#
#
#
# Elastic Compliance Matrix: (Units=1/GPa)
#
#
# Indices 1 2 3 4 5 6 
#
# 1 0.025230 -0.005860 0.000527 0.031893 0.028030 0.003826
# 2 -0.005860 0.009750 -0.000672 -0.022793 -0.008743 -0.009176
# 3 0.000527 -0.000672 0.016356 -0.001592 0.010990 -0.001392
# 4 0.031893 -0.022793 -0.001592 0.231714 0.061458 0.056124
# 5 0.028030 -0.008743 0.010990 0.061458 0.093500 0.013769
# 6 0.003826 -0.009176 -0.001392 0.056124 0.013769 0.050687
#
#
# Mechanical properties :
#
#
# Convention : Reuss Voigt Hill
#
# Bulk Modulus (GPa) = 25.42716 42.39370 33.91043
# Shear Modulus (GPa) = 11.05326 27.81554 19.43440
#
# Velocity S-wave (km/s) = 2.34684 3.72290 3.11189
# Velocity P-wave (km/s) = 4.47364 6.29318 5.45974
#
# Compressibility (1/GPa) = 0.03932803
#
# Stress axis : x y z
#
# Youngs Moduli (GPa) = 39.63567 102.56020 61.13782
#
# Poissons Ratio (x) = 0.60098 -0.03224
# Poissons Ratio (y) = 0.23226 0.04107
# Poissons Ratio (z) = -0.02090 0.06890
#
# Static dielectric constant tensor:
#      x y z
#    x 1.767530 0.046790 0.002360 
#    y 0.046790 1.728950 -0.016100 
#    z 0.002360 -0.016100 1.736290 
# 
# From -- ./inp_files/382314.got.cif
#   From: 2010.05.17/outbox.cif.g08.bks.cpg/sg2_192_cif.got.tgz:382314.got - 2010.06.03 11:33:40.
