data_PCOD9078541
_publ_section_title
;
Structure prediction by ZEFSAII (Michael W. Deem and Ramdas Pophale) SiO2 
 PCOD9078541
Probable space group: P -1
;
_chemical_formula_sum "Si O2"
_cell_formula_units_Z 16
_cell_length_a 12.164744
_cell_length_b 10.703511
_cell_length_c 14.667172
_cell_angle_alpha 102.151135
_cell_angle_beta 19.349816
_cell_angle_gamma 107.189049
_cell_volume 590.245552
_symmetry_space_group_name_H-M "P -1"
_symmetry_group_IT_number 2
_symmetry_cell_setting 'triclinic'
loop_
_space_group_symop_operation_xyz
x,y,z
-x,-y,-z
loop_
_atom_site_type_symbol
_atom_site_label
_atom_site_fract_x
_atom_site_fract_y
_atom_site_fract_z
Si Si1 0.768947 0.725557 0.826765
Si Si2 0.411386 0.151016 0.767481
Si Si3 0.531855 0.969584 0.113892
Si Si4 0.443657 0.249222 0.390076
Si Si5 0.698391 0.481897 0.475385
Si Si6 0.820316 0.802471 0.221798
Si Si7 0.732950 0.808610 0.686451
Si Si8 0.378536 0.416984 0.902782
O O1 0.673099 0.692336 0.791056
O O2 0.179113 0.763376 0.533262
O O3 0.690777 0.866808 0.923770
O O4 0.551789 0.617660 0.052724
O O5 0.357688 0.036036 0.867760
O O6 0.286425 0.106700 0.757377
O O7 0.225428 0.260988 0.962473
O O8 0.117938 0.897321 0.425967
O O9 0.550068 0.109675 0.074922
O O10 0.441230 0.400180 0.433294
O O11 0.246628 0.163253 0.616514
O O12 0.265320 0.218452 0.426083
O O13 0.820857 0.231020 0.080957
O O14 0.463425 0.339991 0.601638
O O15 0.662890 0.482717 0.613942
O O16 0.083080 0.490481 0.143833
#
# Coordination Sequence:
#
# PCOD9078541 Si02
#       8
#     2   2   2   2   2   2   2   2
#     4  10  18  37  69  91 118 160 208 261 302 370
#     4   9  19  36  66  97 114 160 213 254 299 369
#     4   9  20  40  71  88 120 162 207 262 308 374
#     4  12  26  40  61  93 132 166 201 259 303 366
#     4  11  21  39  63  92 125 166 213 243 304 367
#     4  11  22  40  63  89 128 169 205 247 305 367
#     4  10  23  41  60  97 124 160 208 254 318 365
#     4  10  18  35  64  94 120 153 210 257 294 361
#
# _framework density 27.107362999999999
#
# number of rings (size 3 to 8) (size 9 to 14) (size 15 to 20)
#    0.000    1.750    2.500    3.375    3.500    0.000 
#    0.000    2.500    0.000    0.000    0.000    0.000 
#    0.000    0.000    0.000    0.000    0.000    0.000 
#
# Total GULP energy -89574.942138 kJ/mol
# GULP energy per Si atom -5598.433884 kJ/mol
# Density = 2.704567 g / cm^3
# Si number density = 27.107363 Si / 1000 Ang^3
#
#
#
# Elastic Constant Matrix: (Units=GPa)
#
#
# Indices 1 2 3 4 5 6 
#
# 1 239.0034 9.8414 38.5523 0.4344 9.6358 -39.8182
# 2 9.8414 58.5632 16.8510 10.0670 -2.5579 -13.1058
# 3 38.5523 16.8510 139.5836 28.5952 1.5596 -7.9690
# 4 0.4344 10.0670 28.5952 33.2256 -1.0355 7.5660
# 5 9.6358 -2.5579 1.5596 -1.0355 40.3133 -5.4468
# 6 -39.8182 -13.1058 -7.9690 7.5660 -5.4468 39.1298
#
#
#
# Elastic Compliance Matrix: (Units=1/GPa)
#
#
# Indices 1 2 3 4 5 6 
#
# 1 0.005254 0.000728 -0.001105 -0.000586 -0.000450 0.005416
# 2 0.000728 0.020660 -0.000581 -0.007833 0.002224 0.009366
# 3 -0.001105 -0.000581 0.009385 -0.008391 -0.000053 0.002208
# 4 -0.000586 -0.007833 -0.008391 0.042703 -0.000731 -0.013287
# 5 -0.000450 0.002224 -0.000053 -0.000731 0.025575 0.003977
# 6 0.005416 0.009366 0.002208 -0.013287 0.003977 0.037776
#
#
# Mechanical properties :
#
#
# Convention : Reuss Voigt Hill
#
# Bulk Modulus (GPa) = 29.95445 63.07107 46.51276
# Shear Modulus (GPa) = 32.38432 47.32744 39.85588
#
# Velocity S-wave (km/s) = 3.46015 4.18296 3.83861
# Velocity P-wave (km/s) = 5.19979 6.82988 6.06980
#
# Compressibility (1/GPa) = 0.03338402
#
# Stress axis : x y z
#
# Youngs Moduli (GPa) = 190.34135 48.40269 106.55270
#
# Poissons Ratio (x) = -0.03524 0.11771
# Poissons Ratio (y) = -0.13856 0.06187
# Poissons Ratio (z) = 0.21028 0.02810
#
# Static dielectric constant tensor:
#      x y z
#    x 2.227250 -0.002150 0.043650 
#    y -0.002150 2.201790 -0.024690 
#    z 0.043650 -0.024690 2.058340 
# 
# From -- ./inp_files/66211.got.cif
#   From: 2010.05.17/outbox.cif.g08.bks.cpg/sg2_34_cif.got.tgz:66211.got - 2010.06.03 11:33:40.
