data_PCOD9078690
_publ_section_title
;
Structure prediction by ZEFSAII (Michael W. Deem and Ramdas Pophale) SiO2 
 PCOD9078690
Probable space group: P -1
;
_chemical_formula_sum "Si O2"
_cell_formula_units_Z 16
_cell_length_a 9.765251
_cell_length_b 10.550434
_cell_length_c 9.534097
_cell_angle_alpha 96.615897
_cell_angle_beta 122.724673
_cell_angle_gamma 78.242771
_cell_volume 809.014198
_symmetry_space_group_name_H-M "P -1"
_symmetry_group_IT_number 2
_symmetry_cell_setting 'triclinic'
loop_
_space_group_symop_operation_xyz
x,y,z
-x,-y,-z
loop_
_atom_site_type_symbol
_atom_site_label
_atom_site_fract_x
_atom_site_fract_y
_atom_site_fract_z
Si Si1 0.335800 0.786956 0.960430
Si Si2 0.182840 0.561273 0.986419
Si Si3 0.664762 0.790959 0.317031
Si Si4 0.415782 0.312566 0.453310
Si Si5 0.611487 0.719587 0.884655
Si Si6 0.042277 0.418889 0.652698
Si Si7 0.698055 0.950947 0.118767
Si Si8 0.234209 0.605792 0.332429
O O1 0.243957 0.676423 0.951930
O O2 0.480950 0.794927 0.154760
O O3 0.434506 0.745070 0.866094
O O4 0.230580 0.928804 0.889959
O O5 0.316412 0.430531 0.066538
O O6 0.146045 0.606694 0.131445
O O7 0.054606 0.512815 0.803834
O O8 0.655271 0.767180 0.473471
O O9 0.784582 0.669600 0.299288
O O10 0.726479 0.913356 0.292838
O O11 0.401092 0.256048 0.283832
O O12 0.315421 0.459940 0.408525
O O13 0.607614 0.323206 0.587114
O O14 0.721945 0.817938 0.026456
O O15 0.000000 0.500000 0.500000
O O16 0.898605 0.342342 0.614765
O O17 0.500000 0.000000 0.000000
#
# Coordination Sequence:
#
# PCOD9078690 Si02
#       8
#     2   2   2   2   2   2   2   2
#     4  10  19  34  59  85 105 148 189 222 271 331
#     4  11  20  34  57  80 111 144 185 227 275 324
#     4  10  18  36  56  80 110 148 176 231 273 322
#     4  10  19  33  54  83 114 139 182 234 268 325
#     4   9  18  30  56  85 108 140 181 227 277 317
#     4  12  23  33  53  85 116 144 181 227 284 325
#     4   8  17  35  54  84 108 145 183 224 271 331
#     4  10  22  34  49  84 120 143 173 229 287 322
#
# _framework density 19.777156000000002
#
# number of rings (size 3 to 8) (size 9 to 14) (size 15 to 20)
#    0.000    2.250    5.000    0.750    1.750    0.000 
#    0.000    5.625    0.000    1.500    0.000    0.000 
#    0.000    0.000    0.000    0.000    0.000    0.000 
#
# Total GULP energy -89087.434372 kJ/mol
# GULP energy per Si atom -5567.964648 kJ/mol
# Density = 1.973214 g / cm^3
# Si number density = 19.777156 Si / 1000 Ang^3
#
#
#
# Elastic Constant Matrix: (Units=GPa)
#
#
# Indices 1 2 3 4 5 6 
#
# 1 73.9768 32.6354 37.4427 -9.0564 -35.2442 32.5569
# 2 32.6354 105.8102 25.7570 -21.4014 -19.7377 29.6429
# 3 37.4427 25.7570 101.5633 -21.8308 -36.0716 16.9931
# 4 -9.0564 -21.4014 -21.8308 18.0903 5.4817 -4.9333
# 5 -35.2442 -19.7377 -36.0716 5.4817 34.6797 -2.7063
# 6 32.5569 29.6429 16.9931 -4.9333 -2.7063 8.0101
#
#
#
# Elastic Compliance Matrix: (Units=1/GPa)
#
#
# Indices 1 2 3 4 5 6 
#
# 1 0.005280 -0.011481 -0.008737 -0.011310 -0.006086 0.030542
# 2 -0.011481 0.011067 -0.000225 0.012211 -0.006638 0.011462
# 3 -0.008737 -0.000225 0.017315 0.017577 0.007229 0.012881
# 4 -0.011310 0.012211 0.017577 0.090271 0.000985 0.019421
# 5 -0.006086 -0.006638 0.007229 0.000985 0.029717 0.044613
# 6 0.030542 0.011462 0.012881 0.019421 0.044613 -0.042005
#
#
# Mechanical properties :
#
#
# Convention : Reuss Voigt Hill
#
# Bulk Modulus (GPa) = -138.41471 52.55782 -42.92844
# Shear Modulus (GPa) = 33.30606 24.52369 28.91488
#
# Velocity S-wave (km/s) = 4.10819 3.52518 3.82780
# Velocity P-wave (km/s) = 6.90189 6.57282 1.48899
#
# Compressibility (1/GPa) = -0.00722467
#
# Stress axis : x y z
#
# Youngs Moduli (GPa) = 189.41044 90.35818 57.75466
#
# Poissons Ratio (x) = 1.03737 0.50462
# Poissons Ratio (y) = 2.17456 0.01299
# Poissons Ratio (z) = 1.65495 0.02032
#
# Static dielectric constant tensor:
#      x y z
#    x 1.708650 0.009320 0.009630 
#    y 0.009320 1.753430 0.008300 
#    z 0.009630 0.008300 1.729700 
# 
# From -- ./inp_files/187903.got.cif
#   From: 2010.05.17/outbox.cif.g08.bks.cpg/sg2_94_cif.got.tgz:187903.got - 2010.06.03 11:33:40.
