data_PCOD9078271
_publ_section_title
;
Structure prediction by ZEFSAII (Michael W. Deem and Ramdas Pophale) SiO2 
 PCOD9078271
Probable space group: P -1
;
_chemical_formula_sum "Si O2"
_cell_formula_units_Z 12
_cell_length_a 17.080326
_cell_length_b 9.437236
_cell_length_c 7.033020
_cell_angle_alpha 79.803564
_cell_angle_beta 79.608731
_cell_angle_gamma 149.370320
_cell_volume 425.322552
_symmetry_space_group_name_H-M "P -1"
_symmetry_group_IT_number 2
_symmetry_cell_setting 'triclinic'
loop_
_space_group_symop_operation_xyz
x,y,z
-x,-y,-z
loop_
_atom_site_type_symbol
_atom_site_label
_atom_site_fract_x
_atom_site_fract_y
_atom_site_fract_z
Si Si1 0.648961 0.637139 0.148358
Si Si2 0.397970 0.471612 0.364664
Si Si3 0.050105 0.433084 0.583377
Si Si4 0.313636 0.631281 0.297670
Si Si5 0.224396 0.445767 0.823996
Si Si6 0.190940 0.709621 0.848670
O O1 0.453770 0.415388 0.251236
O O2 0.684751 0.702781 0.347484
O O3 0.644987 0.460280 0.153062
O O4 0.848838 0.033542 0.866329
O O5 0.277681 0.400349 0.332673
O O6 0.622189 0.914355 0.204549
O O7 0.137700 0.458176 0.399691
O O8 0.212975 0.740680 0.604220
O O9 0.000000 0.500000 0.500000
O O10 0.327612 0.645362 0.523263
O O11 0.500000 0.000000 0.000000
O O12 0.185052 0.528435 0.931412
O O13 0.000000 0.000000 0.000000
O O14 0.000000 0.500000 0.000000
#
# Coordination Sequence:
#
# PCOD9078271 Si02
#       6
#     2   2   2   2   2   2
#     4  10  19  37  60  90 120 161 207 245 306 373
#     4  10  21  36  62  93 121 157 208 254 301 364
#     4  11  22  38  63  89 125 166 203 250 316 370
#     4  10  21  34  59  90 124 157 200 251 304 362
#     4  10  18  35  60  88 117 160 204 245 298 364
#     4  11  21  37  63  94 122 156 212 259 298 364
#
# _framework density 28.21388
#
# number of rings (size 3 to 8) (size 9 to 14) (size 15 to 20)
#    0.000    1.667    5.000    1.000    0.000    6.000 
#    0.000    0.833    0.000   12.000    0.000    0.000 
#    0.000    0.000    0.000    0.000    0.000    0.000 
#
# Total GULP energy -67185.467315 kJ/mol
# GULP energy per Si atom -5598.788943 kJ/mol
# Density = 2.814966 g / cm^3
# Si number density = 28.213880 Si / 1000 Ang^3
#
#
#
# Elastic Constant Matrix: (Units=GPa)
#
#
# Indices 1 2 3 4 5 6 
#
# 1 279.8163 53.1634 80.4985 -5.9344 -13.2169 -94.4626
# 2 53.1634 109.0334 34.5874 -4.8554 1.9670 -21.9967
# 3 80.4985 34.5874 222.7421 -2.8289 -7.6832 -30.0125
# 4 -5.9344 -4.8554 -2.8289 46.7605 2.8923 13.0947
# 5 -13.2169 1.9670 -7.6832 2.8923 61.1308 -2.7844
# 6 -94.4626 -21.9967 -30.0125 13.0947 -2.7844 53.4681
#
#
#
# Elastic Compliance Matrix: (Units=1/GPa)
#
#
# Indices 1 2 3 4 5 6 
#
# 1 0.010428 -0.001269 -0.001017 -0.004261 0.003214 0.018542
# 2 -0.001269 0.010408 -0.000998 0.000535 -0.000700 0.001312
# 3 -0.001017 -0.000998 0.005126 -0.000159 0.000498 0.000736
# 4 -0.004261 0.000535 -0.000159 0.024879 -0.002757 -0.013634
# 5 0.003214 -0.000700 0.000498 -0.002757 0.017599 0.007261
# 6 0.018542 0.001312 0.000736 -0.013634 0.007261 0.056131
#
#
# Mechanical properties :
#
#
# Convention : Reuss Voigt Hill
#
# Bulk Modulus (GPa) = 51.56049 105.34338 78.45194
# Shear Modulus (GPa) = 36.33586 61.82806 49.08196
#
# Velocity S-wave (km/s) = 3.59259 4.68632 4.17542
# Velocity P-wave (km/s) = 5.96015 8.16705 7.14927
#
# Compressibility (1/GPa) = 0.01939469
#
# Stress axis : x y z
#
# Youngs Moduli (GPa) = 95.89184 96.07924 195.07851
#
# Poissons Ratio (x) = 0.12195 0.19831
# Poissons Ratio (y) = 0.12172 0.19470
# Poissons Ratio (z) = 0.09748 0.09590
#
# Static dielectric constant tensor:
#      x y z
#    x 2.321080 0.020530 0.000610 
#    y 0.020530 2.274120 0.016740 
#    z 0.000610 0.016740 2.169660 
# 
# From -- ./inp_files/325915.got.cif
#   From: 2010.05.17/outbox.cif.g08.bks.cpg/sg2_163_cif.got.tgz:325915.got - 2010.06.03 11:33:40.
