data_PCOD9078849
_publ_section_title
;
Structure prediction by ZEFSAII (Michael W. Deem and Ramdas Pophale) SiO2 
 PCOD9078849
Probable space group: P -1
;
_chemical_formula_sum "Si O2"
_cell_formula_units_Z 16
_cell_length_a 5.549292
_cell_length_b 11.027297
_cell_length_c 18.254916
_cell_angle_alpha 145.006738
_cell_angle_beta 116.346910
_cell_angle_gamma 64.868957
_cell_volume 570.006238
_symmetry_space_group_name_H-M "P -1"
_symmetry_group_IT_number 2
_symmetry_cell_setting 'triclinic'
loop_
_space_group_symop_operation_xyz
x,y,z
-x,-y,-z
loop_
_atom_site_type_symbol
_atom_site_label
_atom_site_fract_x
_atom_site_fract_y
_atom_site_fract_z
Si Si1 0.638196 0.382134 0.887537
Si Si2 0.145964 0.069511 0.453947
Si Si3 0.742041 0.213115 0.208497
Si Si4 0.387064 0.388664 0.534807
Si Si5 0.560041 0.028537 0.292709
Si Si6 0.908769 0.764843 0.869999
Si Si7 0.099562 0.666744 0.324039
Si Si8 0.765698 0.787752 0.065583
O O1 0.514793 0.160576 0.758283
O O2 0.955525 0.297718 0.899131
O O3 0.500000 0.500000 0.000000
O O4 0.627147 0.577036 0.924833
O O5 0.227815 0.819461 0.359336
O O6 0.858339 0.062102 0.373282
O O7 0.287105 0.218911 0.493431
O O8 0.124569 0.182864 0.586630
O O9 0.759669 0.373463 0.359270
O O10 0.419197 0.205978 0.149223
O O11 0.919948 0.307529 0.216881
O O12 0.849138 0.964993 0.110038
O O13 0.683245 0.402835 0.616814
O O14 0.393553 0.259727 0.396154
O O15 0.565232 0.932893 0.165293
O O16 0.991486 0.553113 0.826765
O O17 0.000000 0.000000 0.000000
#
# Coordination Sequence:
#
# PCOD9078849 Si02
#       8
#     2   2   2   2   2   2   2   2
#     4   9  20  40  61  84 127 159 211 267 315 376
#     4  10  18  36  59  87 122 166 207 268 319 374
#     4  11  25  43  71  92 133 176 212 264 335 377
#     4  10  20  38  60  89 132 167 213 266 314 388
#     4  10  21  36  60  94 126 162 216 268 312 384
#     4  11  24  46  65  97 131 167 220 269 315 396
#     4   9  20  36  60  86 122 167 211 260 330 367
#     4  10  22  41  64  90 128 171 210 264 322 387
#
# _framework density 28.069870000000002
#
# number of rings (size 3 to 8) (size 9 to 14) (size 15 to 20)
#    0.000    2.000    1.250    1.500    3.500    1.500 
#    6.750    2.500    0.000    0.000    0.000    0.000 
#    0.000    0.000    0.000    0.000    0.000    0.000 
#
# Total GULP energy -89344.248544 kJ/mol
# GULP energy per Si atom -5584.015534 kJ/mol
# Density = 2.800598 g / cm^3
# Si number density = 28.069870 Si / 1000 Ang^3
#
#
#
# Elastic Constant Matrix: (Units=GPa)
#
#
# Indices 1 2 3 4 5 6 
#
# 1 130.0238 20.9018 37.4452 7.5753 21.1904 19.5744
# 2 20.9018 83.6127 25.4620 29.4950 7.8305 21.6513
# 3 37.4452 25.4620 176.7850 54.5660 0.5607 6.5374
# 4 7.5753 29.4950 54.5660 48.0866 11.3476 8.7198
# 5 21.1904 7.8305 0.5607 11.3476 47.0907 7.7252
# 6 19.5744 21.6513 6.5374 8.7198 7.7252 50.7704
#
#
#
# Elastic Compliance Matrix: (Units=1/GPa)
#
#
# Indices 1 2 3 4 5 6 
#
# 1 0.009843 -0.002123 -0.003213 0.005006 -0.004817 -0.002603
# 2 -0.002123 0.017227 0.001772 -0.011742 0.001720 -0.005001
# 3 -0.003213 0.001772 0.010096 -0.013145 0.004063 0.000822
# 4 0.005006 -0.011742 -0.013145 0.044899 -0.010749 -0.001306
# 5 -0.004817 0.001720 0.004063 -0.010749 0.025904 -0.001495
# 6 -0.002603 -0.005001 0.000822 -0.001306 -0.001495 0.023179
#
#
# Mechanical properties :
#
#
# Convention : Reuss Voigt Hill
#
# Bulk Modulus (GPa) = 33.29003 62.00437 47.64720
# Shear Modulus (GPa) = 33.71843 49.63040 41.67442
#
# Velocity S-wave (km/s) = 3.46964 4.20944 3.85732
# Velocity P-wave (km/s) = 5.28551 6.76484 6.07041
#
# Compressibility (1/GPa) = 0.03003902
#
# Stress axis : x y z
#
# Youngs Moduli (GPa) = 101.59966 58.04834 99.05072
#
# Poissons Ratio (x) = 0.12323 0.31820
# Poissons Ratio (y) = 0.21569 -0.17554
# Poissons Ratio (z) = 0.32639 -0.10288
#
# Static dielectric constant tensor:
#      x y z
#    x 2.238700 0.009060 -0.035450 
#    y 0.009060 2.239700 -0.043960 
#    z -0.035450 -0.043960 2.291860 
# 
# From -- ./inp_files/83223.got.cif
#   From: 2010.05.17/outbox.cif.g08.bks.cpg/sg2_42_cif.got.tgz:83223.got - 2010.06.03 11:33:40.
