data_PCOD9078196
_publ_section_title
;
Structure prediction by ZEFSAII (Michael W. Deem and Ramdas Pophale) SiO2 
 PCOD9078196
Probable space group: P -1
;
_chemical_formula_sum "Si O2"
_cell_formula_units_Z 14
_cell_length_a 16.228935
_cell_length_b 7.219030
_cell_length_c 15.756870
_cell_angle_alpha 82.659830
_cell_angle_beta 17.769451
_cell_angle_gamma 89.951059
_cell_volume 512.332359
_symmetry_space_group_name_H-M "P -1"
_symmetry_group_IT_number 2
_symmetry_cell_setting 'triclinic'
loop_
_space_group_symop_operation_xyz
x,y,z
-x,-y,-z
loop_
_atom_site_type_symbol
_atom_site_label
_atom_site_fract_x
_atom_site_fract_y
_atom_site_fract_z
Si Si1 0.796655 0.557723 0.759800
Si Si2 0.203544 0.802451 0.782686
Si Si3 0.302913 0.989712 0.276966
Si Si4 0.365222 0.625026 0.490870
Si Si5 0.207332 0.431889 0.044921
Si Si6 0.110763 0.961043 0.027373
Si Si7 0.879170 0.031084 0.803652
O O1 0.000000 0.500000 0.500000
O O2 0.011066 0.789644 0.555193
O O3 0.500000 0.500000 0.000000
O O4 0.731498 0.469096 0.926078
O O5 0.269729 0.622861 0.683920
O O6 0.500000 0.000000 0.500000
O O7 0.062358 0.787252 0.015301
O O8 0.025867 0.888368 0.887890
O O9 0.130738 0.118744 0.479854
O O10 0.554830 0.007267 0.096724
O O11 0.500000 0.000000 0.000000
O O12 0.559469 0.512772 0.265436
O O13 0.560089 0.873295 0.284722
O O14 0.095545 0.578752 0.694960
O O15 0.159261 0.198864 0.124041
O O16 0.002909 0.859786 0.229544
#
# Coordination Sequence:
#
# PCOD9078196 Si02
#       7
#     2   2   2   2   2   2   2
#     4  11  21  35  53  76  99 131 170 220 268 306
#     4   9  16  22  37  59  95 125 167 195 240 292
#     4  11  23  37  53  75 101 137 179 218 255 303
#     4  10  15  26  38  58  89 128 162 193 234 298
#     4  10  18  28  45  65  90 124 168 199 244 303
#     4   9  16  25  37  63  89 129 170 197 237 300
#     4  10  18  31  50  66  95 135 177 205 247 309
#
# _framework density 27.32601
#
# number of rings (size 3 to 8) (size 9 to 14) (size 15 to 20)
#    0.000    2.000    2.857    6.429    2.000    0.000 
#    0.000    0.000    0.000    0.000    0.000    0.000 
#    0.000    0.000    0.000   25.714    4.857    1.286 
#
# Total GULP energy -78063.683637 kJ/mol
# GULP energy per Si atom -5575.977403 kJ/mol
# Density = 2.726381 g / cm^3
# Si number density = 27.326010 Si / 1000 Ang^3
#
#
#
# Elastic Constant Matrix: (Units=GPa)
#
#
# Indices 1 2 3 4 5 6 
#
# 1 218.8159 55.5976 85.9178 26.5192 -3.2899 66.2630
# 2 55.5976 90.2735 40.0348 -5.4347 -6.1793 36.7204
# 3 85.9178 40.0348 179.2458 24.8854 -19.2009 29.1483
# 4 26.5192 -5.4347 24.8854 45.4166 10.6573 11.2931
# 5 -3.2899 -6.1793 -19.2009 10.6573 68.3462 15.8093
# 6 66.2630 36.7204 29.1483 11.2931 15.8093 58.0955
#
#
#
# Elastic Compliance Matrix: (Units=1/GPa)
#
#
# Indices 1 2 3 4 5 6 
#
# 1 0.008311 -0.001063 -0.001910 -0.002429 0.001977 -0.007915
# 2 -0.001063 0.017574 -0.002275 0.006037 0.002405 -0.010582
# 3 -0.001910 -0.002275 0.007883 -0.004022 0.002606 -0.000266
# 4 -0.002429 0.006037 -0.004022 0.028207 -0.004329 -0.003333
# 5 0.001977 0.002405 0.002606 -0.004329 0.018496 -0.009274
# 6 -0.007915 -0.010582 -0.000266 -0.003333 -0.009274 0.036234
#
#
# Mechanical properties :
#
#
# Convention : Reuss Voigt Hill
#
# Bulk Modulus (GPa) = 42.97145 94.60396 68.78770
# Shear Modulus (GPa) = 37.04794 54.82397 45.93596
#
# Velocity S-wave (km/s) = 3.68608 4.48403 4.10449
# Velocity P-wave (km/s) = 5.82030 7.84247 6.90580
#
# Compressibility (1/GPa) = 0.02327126
#
# Stress axis : x y z
#
# Youngs Moduli (GPa) = 120.31912 56.90384 126.84751
#
# Poissons Ratio (x) = 0.06048 0.24231
# Poissons Ratio (y) = 0.12787 0.28864
# Poissons Ratio (z) = 0.22984 0.12948
#
# Static dielectric constant tensor:
#      x y z
#    x 2.353980 0.065040 0.277940 
#    y 0.065040 2.228820 0.061140 
#    z 0.277940 0.061140 2.326690 
# 
# From -- ./inp_files/531146.got.cif
#   From: 2010.05.17/outbox.cif.g08.bks.cpg/sg2_266_cif.got.tgz:531146.got - 2010.06.03 11:33:40.
