data_PCOD9078930
_publ_section_title
;
Structure prediction by ZEFSAII (Michael W. Deem and Ramdas Pophale) SiO2 
 PCOD9078930
Probable space group: P -1
;
_chemical_formula_sum "Si O2"
_cell_formula_units_Z 16
_cell_length_a 15.211879
_cell_length_b 9.432506
_cell_length_c 9.705621
_cell_angle_alpha 63.578576
_cell_angle_beta 30.178502
_cell_angle_gamma 73.930803
_cell_volume 608.679191
_symmetry_space_group_name_H-M "P -1"
_symmetry_group_IT_number 2
_symmetry_cell_setting 'triclinic'
loop_
_space_group_symop_operation_xyz
x,y,z
-x,-y,-z
loop_
_atom_site_type_symbol
_atom_site_label
_atom_site_fract_x
_atom_site_fract_y
_atom_site_fract_z
Si Si1 0.501699 0.716244 0.265933
Si Si2 0.724068 0.209318 0.709607
Si Si3 0.538201 0.415914 0.205435
Si Si4 0.724593 0.203446 0.216634
Si Si5 0.369804 0.130617 0.394506
Si Si6 0.152556 0.075469 0.430423
Si Si7 0.889863 0.616188 0.667689
Si Si8 0.993755 0.484877 0.846817
O O1 0.390057 0.792040 0.273139
O O2 0.460909 0.521441 0.377888
O O3 0.424963 0.758814 0.492781
O O4 0.703223 0.816882 0.918782
O O5 0.821150 0.399349 0.510030
O O6 0.869195 0.104266 0.521899
O O7 0.571155 0.139293 0.058335
O O8 0.658889 0.289685 0.138399
O O9 0.387736 0.308006 0.360354
O O10 0.696218 0.567148 0.873234
O O11 0.695770 0.010361 0.342557
O O12 0.916230 0.298913 0.982505
O O13 0.237054 0.084213 0.464349
O O14 0.015613 0.193593 0.567782
O O15 0.865134 0.565966 0.885438
O O16 0.000000 0.500000 0.500000
O O17 0.000000 0.500000 0.000000
#
# Coordination Sequence:
#
# PCOD9078930 Si02
#       8
#     2   2   2   2   2   2   2   2
#     4  10  18  36  60  89 117 156 200 247 301 350
#     4  11  20  37  65  89 117 158 205 248 294 359
#     4  10  23  34  60  94 121 158 202 253 300 361
#     4  11  20  39  60  86 130 159 196 251 306 353
#     4  11  20  38  64  91 119 156 207 249 300 354
#     4  10  20  37  63  89 117 154 206 253 293 354
#     4  10  23  41  60  86 127 162 197 251 310 357
#     4  11  22  38  62  87 120 162 201 241 303 363
#
# _framework density 26.286425999999999
#
# number of rings (size 3 to 8) (size 9 to 14) (size 15 to 20)
#    0.000    1.500    3.750    2.250    0.000    6.000 
#    0.000    0.000    5.500    4.500    0.000    0.000 
#    0.000    0.000    0.000    0.000    0.000    0.000 
#
# Total GULP energy -89174.675984 kJ/mol
# GULP energy per Si atom -5573.417249 kJ/mol
# Density = 2.622660 g / cm^3
# Si number density = 26.286426 Si / 1000 Ang^3
#
#
#
# Elastic Constant Matrix: (Units=GPa)
#
#
# Indices 1 2 3 4 5 6 
#
# 1 105.8484 27.3863 -0.9585 -17.3703 8.0506 10.7810
# 2 27.3863 134.0790 4.7054 -16.4822 -1.1417 1.9423
# 3 -0.9585 4.7054 57.2581 -31.1671 1.0635 -1.2750
# 4 -17.3703 -16.4822 -31.1671 34.7338 2.7221 0.0539
# 5 8.0506 -1.1417 1.0635 2.7221 25.0363 -7.4321
# 6 10.7810 1.9423 -1.2750 0.0539 -7.4321 35.2887
#
#
#
# Elastic Compliance Matrix: (Units=1/GPa)
#
#
# Indices 1 2 3 4 5 6 
#
# 1 0.013194 -0.001293 0.007703 0.013507 -0.007676 -0.005319
# 2 -0.001293 0.008284 0.002105 0.005160 0.000155 0.000040
# 3 0.007703 0.002105 0.040228 0.041701 -0.009541 -0.003089
# 4 0.013507 0.005160 0.041701 0.076686 -0.016122 -0.006416
# 5 -0.007676 0.000155 -0.009541 -0.016122 0.048187 0.012165
# 6 -0.005319 0.000040 -0.003089 -0.006416 0.012165 0.032421
#
#
# Mechanical properties :
#
#
# Convention : Reuss Voigt Hill
#
# Bulk Modulus (GPa) = 12.70086 39.93909 26.31997
# Shear Modulus (GPa) = 21.90924 36.74859 29.32891
#
# Velocity S-wave (km/s) = 2.89014 3.74305 3.34390
# Velocity P-wave (km/s) = 3.99743 5.82300 4.99433
#
# Compressibility (1/GPa) = 0.07873482
#
# Stress axis : x y z
#
# Youngs Moduli (GPa) = 75.79245 120.71940 24.85838
#
# Poissons Ratio (x) = 0.15612 -0.19149
# Poissons Ratio (y) = 0.09802 -0.05231
# Poissons Ratio (z) = -0.58386 -0.25406
#
# Static dielectric constant tensor:
#      x y z
#    x 2.218780 -0.030100 -0.061070 
#    y -0.030100 2.242330 0.031200 
#    z -0.061070 0.031200 2.185790 
# 
# From -- ./inp_files/461065.got.cif
#   From: 2010.05.17/outbox.cif.g08.bks.cpg/sg2_231_cif.got.tgz:461065.got - 2010.06.03 11:33:40.
