data_PCOD9078795
_publ_section_title
;
Structure prediction by ZEFSAII (Michael W. Deem and Ramdas Pophale) SiO2 
 PCOD9078795
Probable space group: P -1
;
_chemical_formula_sum "Si O2"
_cell_formula_units_Z 16
_cell_length_a 11.535552
_cell_length_b 15.068700
_cell_length_c 8.994741
_cell_angle_alpha 94.632231
_cell_angle_beta 56.798867
_cell_angle_gamma 141.438007
_cell_volume 608.309268
_symmetry_space_group_name_H-M "P -1"
_symmetry_group_IT_number 2
_symmetry_cell_setting 'triclinic'
loop_
_space_group_symop_operation_xyz
x,y,z
-x,-y,-z
loop_
_atom_site_type_symbol
_atom_site_label
_atom_site_fract_x
_atom_site_fract_y
_atom_site_fract_z
Si Si1 0.206413 0.201092 0.077231
Si Si2 0.834051 0.611205 0.216302
Si Si3 0.701043 0.026889 0.890206
Si Si4 0.314468 0.212575 0.681108
Si Si5 0.282079 0.638657 0.215812
Si Si6 0.989199 0.255180 0.210805
Si Si7 0.662010 0.251835 0.114281
Si Si8 0.406330 0.808013 0.499972
O O1 0.185708 0.191583 0.909957
O O2 0.527341 0.342925 0.903955
O O3 0.149252 0.266886 0.189280
O O4 0.944006 0.980000 0.262514
O O5 0.094173 0.686378 0.060201
O O6 0.461275 0.596969 0.536805
O O7 0.814602 0.614040 0.054655
O O8 0.982874 0.773474 0.233995
O O9 0.506901 0.851474 0.106692
O O10 0.665400 0.959952 0.745983
O O11 0.500000 0.000000 0.000000
O O12 0.501734 0.237369 0.628742
O O13 0.225821 0.616823 0.073115
O O14 0.000000 0.500000 0.500000
O O15 0.852520 0.268827 0.376094
O O16 0.695707 0.035869 0.326834
O O17 0.641198 0.250968 0.302926
#
# Coordination Sequence:
#
# PCOD9078795 Si02
#       8
#     2   2   2   2   2   2   2   2
#     4  10  22  38  54  95 123 152 202 250 306 349
#     4  10  18  36  58  89 118 153 199 248 302 350
#     4   8  18  33  55  85 118 147 206 249 287 339
#     4  10  22  35  59  89 129 156 191 251 304 360
#     4  10  20  37  60  85 119 160 201 255 294 352
#     4   9  20  35  58  86 123 156 195 247 300 358
#     4   8  18  33  57  83 114 157 205 244 281 358
#     4   9  18  38  60  85 120 166 195 237 307 367
#
# _framework density 26.302410999999999
#
# number of rings (size 3 to 8) (size 9 to 14) (size 15 to 20)
#    0.750    2.000    0.000    0.750    5.250    2.500 
#    0.000    2.500    0.000    0.000    0.000   20.125 
#    0.000    0.125    0.000    0.000    0.000    0.000 
#
# Total GULP energy -89279.456432 kJ/mol
# GULP energy per Si atom -5579.966027 kJ/mol
# Density = 2.624255 g / cm^3
# Si number density = 26.302411 Si / 1000 Ang^3
#
#
#
# Elastic Constant Matrix: (Units=GPa)
#
#
# Indices 1 2 3 4 5 6 
#
# 1 111.8378 10.7827 48.2507 2.7393 -22.5420 -16.0363
# 2 10.7827 77.7147 42.0573 -14.5613 0.6546 -11.7843
# 3 48.2507 42.0573 130.8422 -18.3843 -5.1645 -14.9333
# 4 2.7393 -14.5613 -18.3843 45.4847 -12.6994 -4.7010
# 5 -22.5420 0.6546 -5.1645 -12.6994 50.0943 1.8438
# 6 -16.0363 -11.7843 -14.9333 -4.7010 1.8438 40.4163
#
#
#
# Elastic Compliance Matrix: (Units=1/GPa)
#
#
# Indices 1 2 3 4 5 6 
#
# 1 0.012142 0.001010 -0.004312 -0.000485 0.004763 0.003245
# 2 0.001010 0.016589 -0.004678 0.003936 0.000608 0.003939
# 3 -0.004312 -0.004678 0.011423 0.003582 0.000149 0.001556
# 4 -0.000485 0.003936 0.003582 0.027149 0.006793 0.005126
# 5 0.004763 0.000608 0.000149 0.006793 0.023768 0.001828
# 6 0.003245 0.003939 0.001556 0.005126 0.001828 0.028266
#
#
# Mechanical properties :
#
#
# Convention : Reuss Voigt Hill
#
# Bulk Modulus (GPa) = 41.33311 58.06402 49.69856
# Shear Modulus (GPa) = 34.87675 41.81930 38.34803
#
# Velocity S-wave (km/s) = 3.64537 3.99173 3.82247
# Velocity P-wave (km/s) = 5.78506 6.58549 6.19821
#
# Compressibility (1/GPa) = 0.02419368
#
# Stress axis : x y z
#
# Youngs Moduli (GPa) = 82.36010 60.28178 87.54047
#
# Poissons Ratio (x) = -0.06088 0.37747
# Poissons Ratio (y) = -0.08317 0.40951
# Poissons Ratio (z) = 0.35513 0.28200
#
# Static dielectric constant tensor:
#      x y z
#    x 2.111630 0.054790 0.009230 
#    y 0.054790 2.332500 0.052450 
#    z 0.009230 0.052450 2.087850 
# 
# From -- ./inp_files/423580.got.cif
#   From: 2010.05.17/outbox.cif.g08.bks.cpg/sg2_212_cif.got.tgz:423580.got - 2010.06.03 11:33:40.
