data_PCOD9078264
_publ_section_title
;
Structure prediction by ZEFSAII (Michael W. Deem and Ramdas Pophale) SiO2 
 PCOD9078264
Probable space group: P -1
;
_chemical_formula_sum "Si O2"
_cell_formula_units_Z 16
_cell_length_a 7.695696
_cell_length_b 7.734563
_cell_length_c 17.530275
_cell_angle_alpha 135.531518
_cell_angle_beta 115.214946
_cell_angle_gamma 58.517617
_cell_volume 620.870807
_symmetry_space_group_name_H-M "P -1"
_symmetry_group_IT_number 2
_symmetry_cell_setting 'triclinic'
loop_
_space_group_symop_operation_xyz
x,y,z
-x,-y,-z
loop_
_atom_site_type_symbol
_atom_site_label
_atom_site_fract_x
_atom_site_fract_y
_atom_site_fract_z
Si Si1 0.798265 0.507453 0.917774
Si Si2 0.901536 0.675817 0.464094
Si Si3 0.697834 0.244501 0.442761
Si Si4 0.126365 0.169164 0.109683
Si Si5 0.649582 0.340232 0.285244
Si Si6 0.836164 0.699186 0.263671
Si Si7 0.574294 0.838799 0.107484
Si Si8 0.237618 0.801560 0.317681
O O1 0.804564 0.690007 0.904447
O O2 0.782803 0.245466 0.791788
O O3 0.613674 0.632716 0.981254
O O4 0.000000 0.500000 0.000000
O O5 0.793045 0.506386 0.344228
O O6 0.000000 0.500000 0.500000
O O7 0.097722 0.716645 0.473794
O O8 0.749669 0.937259 0.558711
O O9 0.500000 0.500000 0.500000
O O10 0.699436 0.251707 0.353604
O O11 0.702288 0.948945 0.370039
O O12 0.968664 0.392544 0.202026
O O13 0.337516 0.986614 0.128887
O O14 0.000000 0.000000 0.000000
O O15 0.424787 0.553846 0.303270
O O16 0.658519 0.067524 0.163194
O O17 0.700503 0.711001 0.166058
O O18 0.022923 0.798271 0.307769
#
# Coordination Sequence:
#
# PCOD9078264 Si02
#       8
#     2   2   2   2   2   2   2   2
#     4  11  21  39  66  93 122 164 213 256 302 373
#     4   9  19  34  56  86 116 151 198 249 302 360
#     4   9  19  37  61  84 118 162 203 247 311 377
#     4  11  23  39  61  89 127 163 210 256 312 373
#     4  10  19  34  64  85 119 157 198 253 313 362
#     4   9  19  38  60  86 120 164 204 247 318 371
#     4  11  20  39  66  88 120 166 207 256 314 369
#     4  10  18  35  60  87 119 154 204 247 312 364
#
# _framework density 25.770254999999999
#
# number of rings (size 3 to 8) (size 9 to 14) (size 15 to 20)
#    0.000    2.000    5.000    1.500    0.000    0.500 
#    0.000    7.500    2.750    0.000    0.000    0.000 
#    0.000    0.000    0.000    0.000    0.000    0.000 
#
# Total GULP energy -89351.155920 kJ/mol
# GULP energy per Si atom -5584.447245 kJ/mol
# Density = 2.571160 g / cm^3
# Si number density = 25.770255 Si / 1000 Ang^3
#
#
#
# Elastic Constant Matrix: (Units=GPa)
#
#
# Indices 1 2 3 4 5 6 
#
# 1 63.6007 45.7690 64.4064 2.2225 1.5830 -22.7851
# 2 45.7690 101.6393 24.4799 -0.3398 -8.8142 -38.3217
# 3 64.4064 24.4799 162.4620 25.8910 -14.0767 -15.2352
# 4 2.2225 -0.3398 25.8910 46.0078 -9.9185 -1.3227
# 5 1.5830 -8.8142 -14.0767 -9.9185 40.0067 -0.1702
# 6 -22.7851 -38.3217 -15.2352 -1.3227 -0.1702 40.7565
#
#
#
# Elastic Compliance Matrix: (Units=1/GPa)
#
#
# Indices 1 2 3 4 5 6 
#
# 1 0.046297 -0.015753 -0.017253 0.005331 -0.010032 0.004753
# 2 -0.015753 0.021310 0.004862 0.000090 0.007107 0.013080
# 3 -0.017253 0.004862 0.013598 -0.005682 0.005129 -0.000154
# 4 0.005331 0.000090 -0.005682 0.025627 0.004171 0.001790
# 5 -0.010032 0.007107 0.005129 0.004171 0.029811 0.003251
# 6 0.004753 0.013080 -0.000154 0.001790 0.003251 0.039506
#
#
# Mechanical properties :
#
#
# Convention : Reuss Voigt Hill
#
# Bulk Modulus (GPa) = 40.13392 66.33472 53.23432
# Shear Modulus (GPa) = 20.76911 38.22398 29.49655
#
# Velocity S-wave (km/s) = 2.84198 3.85549 3.38686
# Velocity P-wave (km/s) = 5.13582 6.75399 5.99971
#
# Compressibility (1/GPa) = 0.02491658
#
# Stress axis : x y z
#
# Youngs Moduli (GPa) = 21.59953 46.92741 73.53980
#
# Poissons Ratio (x) = 0.73924 1.26882
# Poissons Ratio (y) = 0.34025 -0.35756
# Poissons Ratio (z) = 0.37267 -0.22816
#
# Static dielectric constant tensor:
#      x y z
#    x 2.144650 0.052660 -0.065470 
#    y 0.052660 2.078350 0.025370 
#    z -0.065470 0.025370 2.283420 
# 
# From -- ./inp_files/587623.got.cif
#   From: 2010.05.17/outbox.cif.g08.bks.cpg/sg2_294_cif.got.tgz:587623.got - 2010.06.03 11:33:40.
