data_PCOD9078026
_publ_section_title
;
Structure prediction by ZEFSAII (Michael W. Deem and Ramdas Pophale) SiO2 
 PCOD9078026
Probable space group: P -1
;
_chemical_formula_sum "Si O2"
_cell_formula_units_Z 14
_cell_length_a 8.709211
_cell_length_b 14.549831
_cell_length_c 12.002495
_cell_angle_alpha 134.518912
_cell_angle_beta 40.484155
_cell_angle_gamma 143.342589
_cell_volume 573.059711
_symmetry_space_group_name_H-M "P -1"
_symmetry_group_IT_number 2
_symmetry_cell_setting 'triclinic'
loop_
_space_group_symop_operation_xyz
x,y,z
-x,-y,-z
loop_
_atom_site_type_symbol
_atom_site_label
_atom_site_fract_x
_atom_site_fract_y
_atom_site_fract_z
Si Si1 0.150390 0.336648 0.654784
Si Si2 0.860003 0.714996 0.982937
Si Si3 0.330438 0.330428 0.295192
Si Si4 0.291604 0.037132 0.087283
Si Si5 0.807485 0.842114 0.344491
Si Si6 0.244176 0.592171 0.171083
Si Si7 0.821675 0.316435 0.479648
O O1 0.249220 0.329712 0.469995
O O2 0.419229 0.484211 0.699183
O O3 0.055429 0.182103 0.644777
O O4 0.916719 0.376031 0.804706
O O5 0.775322 0.721639 0.163824
O O6 0.568288 0.645107 0.014634
O O7 0.938768 0.589997 0.840272
O O8 0.115433 0.897417 0.974562
O O9 0.429328 0.214681 0.126622
O O10 0.053556 0.275245 0.323823
O O11 0.041587 0.000447 0.283391
O O12 0.500000 0.000000 0.000000
O O13 0.487380 0.795656 0.506214
O O14 0.268438 0.692271 0.349428
O O15 0.000000 0.500000 0.500000
#
# Coordination Sequence:
#
# PCOD9078026 Si02
#       7
#     2   2   2   2   2   2   2
#     4  10  19  34  55  90 104 141 188 228 276 318
#     4   8  18  35  54  77 105 153 180 219 272 320
#     4  10  21  34  60  81 115 144 178 230 279 324
#     4  10  21  39  55  80 112 149 183 224 277 328
#     4   9  20  35  55  84 110 141 189 220 273 327
#     4   9  17  33  56  80 110 142 183 230 263 330
#     4  10  18  35  57  87 109 140 186 229 270 326
#
# _framework density 24.430264999999999
#
# number of rings (size 3 to 8) (size 9 to 14) (size 15 to 20)
#    0.857    1.714    1.429    0.857    0.000    1.714 
#    0.000    0.000    0.000    1.714    0.000    0.000 
#    0.000    0.000    0.000    0.000    0.000    0.000 
#
# Total GULP energy -78093.366478 kJ/mol
# GULP energy per Si atom -5578.097606 kJ/mol
# Density = 2.437466 g / cm^3
# Si number density = 24.430265 Si / 1000 Ang^3
#
#
#
# Elastic Constant Matrix: (Units=GPa)
#
#
# Indices 1 2 3 4 5 6 
#
# 1 68.6639 -0.1641 27.9834 2.9028 -26.1776 4.2346
# 2 -0.1641 68.9986 15.7070 9.7900 -1.3789 6.7171
# 3 27.9834 15.7070 71.6524 3.5433 -5.1998 -0.4571
# 4 2.9028 9.7900 3.5433 36.1329 -9.5736 0.0167
# 5 -26.1776 -1.3789 -5.1998 -9.5736 32.9431 -2.3617
# 6 4.2346 6.7171 -0.4571 0.0167 -2.3617 26.2061
#
#
#
# Elastic Compliance Matrix: (Units=1/GPa)
#
#
# Indices 1 2 3 4 5 6 
#
# 1 0.026191 0.002439 -0.009492 0.003522 0.020210 -0.003204
# 2 0.002439 0.016545 -0.004375 -0.004141 0.000402 -0.004672
# 3 -0.009492 -0.004375 0.018334 -0.001174 -0.004991 0.002526
# 4 0.003522 -0.004141 -0.001174 0.031749 0.011775 0.001513
# 5 0.020210 0.000402 -0.004991 0.011775 0.049135 0.000965
# 6 -0.003204 -0.004672 0.002526 0.001513 0.000965 0.040004
#
#
# Mechanical properties :
#
#
# Convention : Reuss Voigt Hill
#
# Bulk Modulus (GPa) = 26.16760 32.92974 29.54867
# Shear Modulus (GPa) = 22.98285 30.10899 26.54592
#
# Velocity S-wave (km/s) = 3.07050 3.51443 3.29994
# Velocity P-wave (km/s) = 4.82753 5.47509 5.16147
#
# Compressibility (1/GPa) = 0.03821520
#
# Stress axis : x y z
#
# Youngs Moduli (GPa) = 38.18046 60.43994 54.54294
#
# Poissons Ratio (x) = -0.14741 0.51770
# Poissons Ratio (y) = -0.09312 0.23864
# Poissons Ratio (z) = 0.36239 0.26445
#
# Static dielectric constant tensor:
#      x y z
#    x 1.957330 0.059240 0.005220 
#    y 0.059240 1.936910 -0.035890 
#    z 0.005220 -0.035890 2.006770 
# 
# From -- ./inp_files/167851.got.cif
#   From: 2010.05.17/outbox.cif.g08.bks.cpg/sg2_84_cif.got.tgz:167851.got - 2010.06.03 11:33:40.
