data_PCOD9078776
_publ_section_title
;
Structure prediction by ZEFSAII (Michael W. Deem and Ramdas Pophale) SiO2 
 PCOD9078776
Probable space group: P -1
;
_chemical_formula_sum "Si O2"
_cell_formula_units_Z 16
_cell_length_a 18.986368
_cell_length_b 9.316260
_cell_length_c 8.588642
_cell_angle_alpha 93.287933
_cell_angle_beta 42.609609
_cell_angle_gamma 61.830305
_cell_volume 666.224246
_symmetry_space_group_name_H-M "P -1"
_symmetry_group_IT_number 2
_symmetry_cell_setting 'triclinic'
loop_
_space_group_symop_operation_xyz
x,y,z
-x,-y,-z
loop_
_atom_site_type_symbol
_atom_site_label
_atom_site_fract_x
_atom_site_fract_y
_atom_site_fract_z
Si Si1 0.397282 0.559280 0.424939
Si Si2 0.609113 0.600410 0.078596
Si Si3 0.951608 0.986449 0.909634
Si Si4 0.876106 0.743960 0.790501
Si Si5 0.770655 0.511347 0.517261
Si Si6 0.523825 0.166085 0.385501
Si Si7 0.939245 0.239824 0.707267
Si Si8 0.803009 0.630102 0.170713
O O1 0.521757 0.546896 0.160115
O O2 0.321208 0.519564 0.430504
O O3 0.489536 0.361701 0.385853
O O4 0.242112 0.807113 0.761379
O O5 0.490409 0.800440 0.404477
O O6 0.663179 0.645297 0.852551
O O7 0.768777 0.399078 0.908101
O O8 0.998660 0.041199 0.694498
O O9 0.062512 0.730455 0.711001
O O10 0.000000 0.000000 0.000000
O O11 0.000000 0.500000 0.500000
O O12 0.936522 0.829514 0.624511
O O13 0.858157 0.714528 0.997897
O O14 0.693036 0.926816 0.042687
O O15 0.805647 0.605832 0.350040
O O16 0.377817 0.220787 0.573023
O O17 0.905812 0.393962 0.906765
#
# Coordination Sequence:
#
# PCOD9078776 Si02
#       8
#     2   2   2   2   2   2   2   2
#     4  10  20  38  58  86 125 163 195 232 302 358
#     4  11  22  36  56  89 128 158 193 242 297 358
#     4  10  18  36  58  83 127 150 189 244 290 352
#     4  10  22  38  65  87 111 153 210 253 291 343
#     4  10  21  36  60  89 124 158 197 238 291 365
#     4  10  20  37  60  86 120 151 200 254 292 349
#     4  10  20  37  58  91 116 149 204 244 295 345
#     4   9  18  41  60  84 114 157 199 246 293 346
#
# _framework density 24.015936
#
# number of rings (size 3 to 8) (size 9 to 14) (size 15 to 20)
#    0.000    2.000    5.000    1.125    1.750    1.500 
#    2.250    1.250    0.000    0.000    0.000    0.000 
#    0.000    0.000    0.000    0.000    0.000    0.000 
#
# Total GULP energy -89403.623079 kJ/mol
# GULP energy per Si atom -5587.726442 kJ/mol
# Density = 2.396128 g / cm^3
# Si number density = 24.015936 Si / 1000 Ang^3
#
#
#
# Elastic Constant Matrix: (Units=GPa)
#
#
# Indices 1 2 3 4 5 6 
#
# 1 43.5771 37.0466 25.3967 -11.0594 -7.3030 -5.4219
# 2 37.0466 157.1348 80.2656 -41.6221 -9.2375 -7.7204
# 3 25.3967 80.2656 145.9589 -18.6936 -3.9801 -5.9491
# 4 -11.0594 -41.6221 -18.6936 53.8368 5.5417 6.3436
# 5 -7.3030 -9.2375 -3.9801 5.5417 27.5824 -10.6446
# 6 -5.4219 -7.7204 -5.9491 6.3436 -10.6446 27.2044
#
#
#
# Elastic Compliance Matrix: (Units=1/GPa)
#
#
# Indices 1 2 3 4 5 6 
#
# 1 0.031214 -0.005608 -0.001827 -0.000454 0.009290 0.007971
# 2 -0.005608 0.011764 -0.004679 0.006276 0.000490 -0.000074
# 3 -0.001827 -0.004679 0.009667 -0.000651 -0.000358 0.000434
# 4 -0.000454 0.006276 -0.000651 0.024406 -0.005435 -0.006269
# 5 0.009290 0.000490 -0.000358 -0.005435 0.048465 0.022143
# 6 0.007971 -0.000074 0.000434 -0.006269 0.022143 0.048547
#
#
# Mechanical properties :
#
#
# Convention : Reuss Voigt Hill
#
# Bulk Modulus (GPa) = 35.19160 70.23206 52.71183
# Shear Modulus (GPa) = 24.06581 35.32219 29.69400
#
# Velocity S-wave (km/s) = 3.16899 3.83924 3.52010
# Velocity P-wave (km/s) = 5.29861 6.99717 6.20627
#
# Compressibility (1/GPa) = 0.02841587
#
# Stress axis : x y z
#
# Youngs Moduli (GPa) = 32.03703 85.00461 103.44519
#
# Poissons Ratio (x) = 0.47673 0.18899
# Poissons Ratio (y) = 0.17967 0.48405
# Poissons Ratio (z) = 0.05853 0.39776
#
# Static dielectric constant tensor:
#      x y z
#    x 2.011100 0.009050 0.015740 
#    y 0.009050 1.955380 -0.011140 
#    z 0.015740 -0.011140 1.892440 
# 
# From -- ./inp_files/353455.got.cif
#   From: 2010.05.17/outbox.cif.g08.bks.cpg/sg2_177_cif.got.tgz:353455.got - 2010.06.03 11:33:40.
