data_PCOD9078731
_publ_section_title
;
Structure prediction by ZEFSAII (Michael W. Deem and Ramdas Pophale) SiO2 
 PCOD9078731
Probable space group: P -1
;
_chemical_formula_sum "Si O2"
_cell_formula_units_Z 16
_cell_length_a 11.710632
_cell_length_b 10.902927
_cell_length_c 19.922791
_cell_angle_alpha 136.945518
_cell_angle_beta 155.548295
_cell_angle_gamma 47.363523
_cell_volume 718.155741
_symmetry_space_group_name_H-M "P -1"
_symmetry_group_IT_number 2
_symmetry_cell_setting 'triclinic'
loop_
_space_group_symop_operation_xyz
x,y,z
-x,-y,-z
loop_
_atom_site_type_symbol
_atom_site_label
_atom_site_fract_x
_atom_site_fract_y
_atom_site_fract_z
Si Si1 0.205577 0.481348 0.166718
Si Si2 0.745903 0.936400 0.294472
Si Si3 0.332745 0.841173 0.882799
Si Si4 0.753142 0.581627 0.071950
Si Si5 0.943380 0.885907 0.575884
Si Si6 0.912103 0.899834 0.047263
Si Si7 0.589299 0.186258 0.820804
Si Si8 0.685463 0.156653 0.636587
O O1 0.425108 0.637065 0.339655
O O2 0.000000 0.500000 0.000000
O O3 0.029957 0.542982 0.162353
O O4 0.275523 0.271820 0.131268
O O5 0.487398 0.940428 0.208681
O O6 0.796005 0.066865 0.310975
O O7 0.781214 0.731085 0.204266
O O8 0.000000 0.000000 0.500000
O O9 0.535059 0.671514 0.937940
O O10 0.076255 0.801656 0.681081
O O11 0.236500 0.914522 0.934288
O O12 0.500000 0.000000 0.000000
O O13 0.658723 0.384532 0.962667
O O14 0.690663 0.793915 0.366818
O O15 0.804092 0.080227 0.599910
O O16 0.152816 0.892860 0.117139
O O17 0.069512 0.852993 0.182636
O O18 0.500000 0.000000 0.500000
#
# Coordination Sequence:
#
# PCOD9078731 Si02
#       8
#     2   2   2   2   2   2   2   2
#     4   9  17  30  50  79 108 138 179 225 276 324
#     4  10  20  36  58  80 108 151 192 234 263 326
#     4  11  20  34  58  80 118 151 176 223 299 347
#     4  11  20  36  56  83 114 143 186 232 280 338
#     4  10  19  34  53  85 111 146 181 229 278 339
#     4   9  19  32  51  81 108 143 183 229 274 328
#     4  10  21  35  57  85 108 142 199 232 268 312
#     4  10  15  26  49  73 110 132 173 229 272 313
#
# _framework density 22.27929
#
# number of rings (size 3 to 8) (size 9 to 14) (size 15 to 20)
#    0.000    2.000    3.750    1.875    0.000    0.500 
#    0.000    0.625    0.000    0.000    0.000    6.125 
#    0.000    0.000    0.000    0.000    0.000    0.000 
#
# Total GULP energy -89119.456028 kJ/mol
# GULP energy per Si atom -5569.966002 kJ/mol
# Density = 2.222858 g / cm^3
# Si number density = 22.279290 Si / 1000 Ang^3
#
#
#
# Elastic Constant Matrix: (Units=GPa)
#
#
# Indices 1 2 3 4 5 6 
#
# 1 111.8060 26.5113 35.3012 7.0383 8.8518 -13.4878
# 2 26.5113 52.1031 21.7078 10.4452 12.6884 -12.2804
# 3 35.3012 21.7078 107.2276 20.9075 0.4006 -5.2251
# 4 7.0383 10.4452 20.9075 29.0453 6.5841 -1.2583
# 5 8.8518 12.6884 0.4006 6.5841 40.4832 3.0601
# 6 -13.4878 -12.2804 -5.2251 -1.2583 3.0601 29.5621
#
#
#
# Elastic Compliance Matrix: (Units=1/GPa)
#
#
# Indices 1 2 3 4 5 6 
#
# 1 0.011199 -0.003442 -0.003070 0.001289 -0.001805 0.003379
# 2 -0.003442 0.027340 -0.002983 -0.004661 -0.007775 0.009866
# 3 -0.003070 -0.002983 0.012398 -0.007796 0.002833 -0.001074
# 4 0.001289 -0.004661 -0.007796 0.042673 -0.005660 -0.000324
# 5 -0.001805 -0.007775 0.002833 -0.005660 0.028939 -0.006789
# 6 0.003379 0.009866 -0.001074 -0.000324 -0.006789 0.039966
#
#
# Mechanical properties :
#
#
# Convention : Reuss Voigt Hill
#
# Bulk Modulus (GPa) = 31.30245 48.68637 39.99441
# Shear Modulus (GPa) = 26.02084 32.32588 29.17336
#
# Velocity S-wave (km/s) = 3.42122 3.81325 3.62254
# Velocity P-wave (km/s) = 5.44856 6.42558 5.95713
#
# Compressibility (1/GPa) = 0.03194639
#
# Stress axis : x y z
#
# Youngs Moduli (GPa) = 89.29508 36.57666 80.65926
#
# Poissons Ratio (x) = 0.12589 0.24763
# Poissons Ratio (y) = 0.30733 0.24062
# Poissons Ratio (z) = 0.27414 0.10912
#
# Static dielectric constant tensor:
#      x y z
#    x 1.955400 -0.013900 0.010350 
#    y -0.013900 1.883920 0.017280 
#    z 0.010350 0.017280 1.911950 
# 
# From -- ./inp_files/244512.got.cif
#   From: 2010.05.17/outbox.cif.g08.bks.cpg/sg2_123_cif.got.tgz:244512.got - 2010.06.03 11:33:40.
