data_PCOD9078400
_publ_section_title
;
Structure prediction by ZEFSAII (Michael W. Deem and Ramdas Pophale) SiO2 
 PCOD9078400
Probable space group: P -1
;
_chemical_formula_sum "Si O2"
_cell_formula_units_Z 15
_cell_length_a 9.465048
_cell_length_b 12.613330
_cell_length_c 7.400880
_cell_angle_alpha 121.238834
_cell_angle_beta 48.832282
_cell_angle_gamma 102.343772
_cell_volume 557.407786
_symmetry_space_group_name_H-M "P -1"
_symmetry_group_IT_number 2
_symmetry_cell_setting 'triclinic'
loop_
_space_group_symop_operation_xyz
x,y,z
-x,-y,-z
loop_
_atom_site_type_symbol
_atom_site_label
_atom_site_fract_x
_atom_site_fract_y
_atom_site_fract_z
Si Si1 0.469283 0.130795 0.362589
Si Si2 0.202474 0.555860 0.647708
Si Si3 0.000000 0.500000 0.500000
Si Si4 0.566218 0.142575 0.864920
Si Si5 0.152584 0.201540 0.146361
Si Si6 0.815866 0.623246 0.185288
Si Si7 0.136600 0.849811 0.938168
Si Si8 0.955787 0.192138 0.642717
O O1 0.338349 0.260931 0.652487
O O2 0.681082 0.100013 0.241215
O O3 0.378207 0.007936 0.349578
O O4 0.502911 0.153997 0.140368
O O5 0.265588 0.470435 0.694255
O O6 0.227273 0.698120 0.757002
O O7 0.230882 0.499251 0.377630
O O8 0.962524 0.557547 0.846438
O O9 0.036381 0.345058 0.383343
O O10 0.743715 0.211876 0.754499
O O11 0.378743 0.190948 0.946733
O O12 0.044326 0.140816 0.028432
O O13 0.105221 0.137922 0.316826
O O14 0.960997 0.689089 0.241238
O O15 0.064446 0.887959 0.232807
#
# Coordination Sequence:
#
# PCOD9078400 Si02
#       8
#     2   2   1   2   2   2   2   2
#     4  10  20  40  60  93 126 162 210 267 295 378
#     4   9  18  33  58  90 115 164 198 252 311 373
#     4  10  18  36  64  84 126 158 200 254 316 356
#     4  10  22  39  65  91 126 165 217 252 314 364
#     4  11  21  43  63  92 129 164 201 271 304 374
#     4  10  18  35  62  86 125 159 205 253 311 363
#     4   9  22  38  62  93 126 160 213 247 324 367
#     4  10  20  41  63  92 123 169 206 254 313 375
#
# _framework density 26.91028
#
# number of rings (size 3 to 8) (size 9 to 14) (size 15 to 20)
#    0.000    2.133    2.667    0.000    0.000    1.600 
#   12.000    8.000    0.000    0.000    0.000    0.000 
#    0.000    0.000    0.000    0.000    0.000    0.000 
#
# Total GULP energy -83680.991074 kJ/mol
# GULP energy per Si atom -5578.732738 kJ/mol
# Density = 2.684903 g / cm^3
# Si number density = 26.910280 Si / 1000 Ang^3
#
#
#
# Elastic Constant Matrix: (Units=GPa)
#
#
# Indices 1 2 3 4 5 6 
#
# 1 164.4153 22.4188 44.5821 -10.3976 -23.0540 13.0439
# 2 22.4188 112.7323 16.3118 10.1162 -1.8780 0.7138
# 3 44.5821 16.3118 87.5882 12.4373 -20.5863 3.1095
# 4 -10.3976 10.1162 12.4373 37.4235 1.9930 -10.2795
# 5 -23.0540 -1.8780 -20.5863 1.9930 40.7000 -7.3336
# 6 13.0439 0.7138 3.1095 -10.2795 -7.3336 26.1513
#
#
#
# Elastic Compliance Matrix: (Units=1/GPa)
#
#
# Indices 1 2 3 4 5 6 
#
# 1 0.007877 -0.001277 -0.003676 0.003201 0.002097 -0.001611
# 2 -0.001277 0.009496 -0.000860 -0.002827 -0.000732 -0.000837
# 3 -0.003676 -0.000860 0.015846 -0.006635 0.006048 -0.000939
# 4 0.003201 -0.002827 -0.006635 0.034027 -0.001117 0.012331
# 5 0.002097 -0.000732 0.006048 -0.001117 0.029958 0.006217
# 6 -0.001611 -0.000837 -0.000939 0.012331 0.006217 0.045767
#
#
# Mechanical properties :
#
#
# Convention : Reuss Voigt Hill
#
# Bulk Modulus (GPa) = 46.31113 59.04012 52.67563
# Shear Modulus (GPa) = 30.90358 39.61649 35.26004
#
# Velocity S-wave (km/s) = 3.39247 3.84105 3.62371
# Velocity P-wave (km/s) = 5.70894 6.45436 6.09306
#
# Compressibility (1/GPa) = 0.02159308
#
# Stress axis : x y z
#
# Youngs Moduli (GPa) = 126.94607 105.31188 63.10930
#
# Poissons Ratio (x) = 0.13446 0.23202
# Poissons Ratio (y) = 0.16208 0.05424
# Poissons Ratio (z) = 0.46671 0.09052
#
# Static dielectric constant tensor:
#      x y z
#    x 9.338410 0.288820 7.124910 
#    y 0.288820 2.186370 0.301370 
#    z 7.124910 0.301370 9.217100 
# 
# From -- ./inp_files/197759.got.cif
#   From: 2010.05.17/outbox.cif.g08.bks.cpg/sg2_99_cif.got.tgz:197759.got - 2010.06.03 11:33:40.
