data_PCOD9078393
_publ_section_title
;
Structure prediction by ZEFSAII (Michael W. Deem and Ramdas Pophale) SiO2 
 PCOD9078393
Probable space group: P -1
;
_chemical_formula_sum "Si O2"
_cell_formula_units_Z 16
_cell_length_a 9.458959
_cell_length_b 11.724160
_cell_length_c 12.344678
_cell_angle_alpha 97.862245
_cell_angle_beta 55.736703
_cell_angle_gamma 128.034208
_cell_volume 843.472236
_symmetry_space_group_name_H-M "P -1"
_symmetry_group_IT_number 2
_symmetry_cell_setting 'triclinic'
loop_
_space_group_symop_operation_xyz
x,y,z
-x,-y,-z
loop_
_atom_site_type_symbol
_atom_site_label
_atom_site_fract_x
_atom_site_fract_y
_atom_site_fract_z
Si Si1 0.726798 0.364749 0.527972
Si Si2 0.256898 0.093518 0.626306
Si Si3 0.768088 0.613508 0.879647
Si Si4 0.467850 0.959687 0.134883
Si Si5 0.188711 0.607201 0.264450
Si Si6 0.054776 0.915099 0.388882
Si Si7 0.948977 0.212092 0.427399
Si Si8 0.897415 0.072700 0.100854
O O1 0.498365 0.261579 0.545830
O O2 0.701435 0.389343 0.668081
O O3 0.930811 0.518326 0.399354
O O4 0.816040 0.272372 0.485278
O O5 0.070715 0.104158 0.669877
O O6 0.221246 0.023972 0.750712
O O7 0.228943 0.969009 0.546419
O O8 0.820099 0.500695 0.831149
O O9 0.857693 0.704694 0.737508
O O10 0.910087 0.749335 0.924327
O O11 0.500000 0.500000 0.000000
O O12 0.326857 0.778321 0.187570
O O13 0.310780 0.990003 0.259675
O O14 0.707540 0.045508 0.102578
O O15 0.500000 0.000000 0.000000
O O16 0.962228 0.773525 0.488771
O O17 0.000000 0.000000 0.500000
O O18 0.000000 0.000000 0.000000
#
# Coordination Sequence:
#
# PCOD9078393 Si02
#       8
#     2   2   2   2   2   2   2   2
#     4  10  18  35  62  84 117 157 206 251 311 367
#     4  10  19  33  59  92 118 152 212 260 300 373
#     4  10  22  37  60  93 125 159 205 262 316 374
#     4  12  24  43  65  90 129 171 213 265 317 381
#     4  10  21  37  61  87 120 161 204 254 321 367
#     4  10  21  36  57  92 127 160 204 264 319 356
#     4   9  18  35  59  88 120 158 201 260 309 367
#     4  11  22  40  65  92 120 169 218 257 308 384
#
# _framework density 18.969208999999999
#
# number of rings (size 3 to 8) (size 9 to 14) (size 15 to 20)
#    0.000    1.750    2.500    1.875    0.000    7.000 
#    0.000    2.500    0.000    0.000    0.000    0.000 
#    0.000    0.000    0.000    0.000    0.000    0.000 
#
# Total GULP energy -89134.685839 kJ/mol
# GULP energy per Si atom -5570.917865 kJ/mol
# Density = 1.892603 g / cm^3
# Si number density = 18.969209 Si / 1000 Ang^3
#
#
#
# Elastic Constant Matrix: (Units=GPa)
#
#
# Indices 1 2 3 4 5 6 
#
# 1 131.5475 45.0817 51.8637 1.4592 -6.2455 16.9215
# 2 45.0817 142.0795 42.7284 3.5958 -15.7232 14.2438
# 3 51.8637 42.7284 95.5985 4.3751 -0.1498 4.2067
# 4 1.4592 3.5958 4.3751 33.1503 -6.4759 -10.3030
# 5 -6.2455 -15.7232 -0.1498 -6.4759 31.8053 2.0209
# 6 16.9215 14.2438 4.2067 -10.3030 2.0209 24.0183
#
#
#
# Elastic Compliance Matrix: (Units=1/GPa)
#
#
# Indices 1 2 3 4 5 6 
#
# 1 0.010972 -0.000999 -0.005122 -0.001545 0.001770 -0.007052
# 2 -0.000999 0.009427 -0.003376 -0.001273 0.004521 -0.005221
# 3 -0.005122 -0.003376 0.014666 -0.001045 -0.002999 0.002846
# 4 -0.001545 -0.001273 -0.001045 0.037001 0.005489 0.017436
# 5 0.001770 0.004521 -0.002999 0.005489 0.035383 -0.004025
# 6 -0.007052 -0.005221 0.002846 0.017436 -0.004025 0.057020
#
#
# Mechanical properties :
#
#
# Convention : Reuss Voigt Hill
#
# Bulk Modulus (GPa) = 62.22794 72.06368 67.14581
# Shear Modulus (GPa) = 26.48030 33.09822 29.78926
#
# Velocity S-wave (km/s) = 3.74031 4.18166 3.96713
# Velocity P-wave (km/s) = 7.17838 7.83501 7.51387
#
# Compressibility (1/GPa) = 0.01606995
#
# Stress axis : x y z
#
# Youngs Moduli (GPa) = 91.14169 106.08271 68.18409
#
# Poissons Ratio (x) = 0.10598 0.34925
# Poissons Ratio (y) = 0.09105 0.23020
# Poissons Ratio (z) = 0.46684 0.35816
#
# Static dielectric constant tensor:
#      x y z
#    x 1.687040 -0.003590 0.005530 
#    y -0.003590 1.720700 0.044660 
#    z 0.005530 0.044660 1.730600 
# 
# From -- ./inp_files/390381.got.cif
#   From: 2010.05.17/outbox.cif.g08.bks.cpg/sg2_196_cif.got.tgz:390381.got - 2010.06.03 11:33:40.
