data_PCOD9078320
_publ_section_title
;
Structure prediction by ZEFSAII (Michael W. Deem and Ramdas Pophale) SiO2 
 PCOD9078320
Probable space group: P -1
;
_chemical_formula_sum "Si O2"
_cell_formula_units_Z 14
_cell_length_a 12.511650
_cell_length_b 22.482558
_cell_length_c 8.762879
_cell_angle_alpha 136.935273
_cell_angle_beta 128.972591
_cell_angle_gamma 18.116435
_cell_volume 497.906137
_symmetry_space_group_name_H-M "P -1"
_symmetry_group_IT_number 2
_symmetry_cell_setting 'triclinic'
loop_
_space_group_symop_operation_xyz
x,y,z
-x,-y,-z
loop_
_atom_site_type_symbol
_atom_site_label
_atom_site_fract_x
_atom_site_fract_y
_atom_site_fract_z
Si Si1 0.806426 0.603606 0.771645
Si Si2 0.877542 0.316145 0.063791
Si Si3 0.165575 0.928714 0.224301
Si Si4 0.676548 0.774934 0.264929
Si Si5 0.343422 0.645171 0.774269
Si Si6 0.948181 0.817664 0.338877
Si Si7 0.402935 0.333279 0.586633
O O1 0.494249 0.764511 0.671190
O O2 0.952159 0.442105 0.712579
O O3 0.139128 0.428302 0.629155
O O4 0.719539 0.735762 0.050811
O O5 0.896318 0.271029 0.167402
O O6 0.828140 0.447328 0.256070
O O7 0.500000 0.500000 0.000000
O O8 0.160874 0.121870 0.823209
O O9 0.497810 0.785882 0.174588
O O10 0.284010 0.830524 0.317694
O O11 0.133974 0.858732 0.966465
O O12 0.920589 0.158962 0.465252
O O13 0.373719 0.012474 0.515041
O O14 0.500000 0.500000 0.500000
O O15 0.724934 0.438843 0.815810
#
# Coordination Sequence:
#
# PCOD9078320 Si02
#       7
#     2   2   2   2   2   2   2
#     4   9  18  34  62  87 114 156 193 233 295 333
#     4  10  20  38  58  81 118 153 187 240 287 345
#     4   9  19  37  60  78 119 152 181 243 281 339
#     4   8  18  37  58  84 116 151 188 240 286 337
#     4  11  23  39  57  88 116 153 193 242 296 335
#     4   9  20  39  59  84 117 148 200 232 285 361
#     4  10  18  35  61  85 115 155 192 232 290 344
#
# _framework density 28.117750999999998
#
# number of rings (size 3 to 8) (size 9 to 14) (size 15 to 20)
#    0.857    1.714    2.857    0.000    2.000    1.143 
#    2.571    1.429    0.000    0.000    0.000    0.000 
#    0.000    0.000    0.000    0.000    0.000    0.000 
#
# Total GULP energy -78145.230516 kJ/mol
# GULP energy per Si atom -5581.802180 kJ/mol
# Density = 2.805375 g / cm^3
# Si number density = 28.117751 Si / 1000 Ang^3
#
#
#
# Elastic Constant Matrix: (Units=GPa)
#
#
# Indices 1 2 3 4 5 6 
#
# 1 96.6478 10.0436 57.1135 -4.8087 0.0495 12.6580
# 2 10.0436 87.9686 34.5423 0.0356 -7.5731 15.1087
# 3 57.1135 34.5423 207.5405 -3.4165 -32.0826 10.6981
# 4 -4.8087 0.0356 -3.4165 47.4947 5.2925 -0.9701
# 5 0.0495 -7.5731 -32.0826 5.2925 58.0795 3.6872
# 6 12.6580 15.1087 10.6981 -0.9701 3.6872 26.8724
#
#
#
# Elastic Compliance Matrix: (Units=1/GPa)
#
#
# Indices 1 2 3 4 5 6 
#
# 1 0.013179 0.000632 -0.003744 0.001167 -0.001800 -0.004783
# 2 0.000632 0.013371 -0.001842 -0.000363 0.001219 -0.007262
# 3 -0.003744 -0.001842 0.006714 -0.000295 0.003522 -0.000367
# 4 0.001167 -0.000363 -0.000295 0.021417 -0.002217 0.000849
# 5 -0.001800 0.001219 0.003522 -0.002217 0.019782 -0.004034
# 6 -0.004783 -0.007262 -0.000367 0.000849 -0.004034 0.044280
#
#
# Mechanical properties :
#
#
# Convention : Reuss Voigt Hill
#
# Bulk Modulus (GPa) = 42.81844 66.17286 54.49565
# Shear Modulus (GPa) = 36.64665 45.85315 41.24990
#
# Velocity S-wave (km/s) = 3.61408 4.04264 3.83435
# Velocity P-wave (km/s) = 5.71636 6.73616 6.24710
#
# Compressibility (1/GPa) = 0.02335442
#
# Stress axis : x y z
#
# Youngs Moduli (GPa) = 75.87558 74.78593 148.94399
#
# Poissons Ratio (x) = -0.04724 0.55772
# Poissons Ratio (y) = -0.04793 0.27442
# Poissons Ratio (z) = 0.28412 0.13779
#
# Static dielectric constant tensor:
#      x y z
#    x 2.234190 -0.018430 -0.042150 
#    y -0.018430 2.308400 -0.104060 
#    z -0.042150 -0.104060 2.345950 
# 
# From -- ./inp_files/320744.got.cif
#   From: 2010.05.17/outbox.cif.g08.bks.cpg/sg2_161_cif.got.tgz:320744.got - 2010.06.03 11:33:40.
