data_PCOD9078848
_publ_section_title
;
Structure prediction by ZEFSAII (Michael W. Deem and Ramdas Pophale) SiO2 
 PCOD9078848
Probable space group: P -1
;
_chemical_formula_sum "Si O2"
_cell_formula_units_Z 14
_cell_length_a 12.497367
_cell_length_b 7.657070
_cell_length_c 8.915722
_cell_angle_alpha 79.057478
_cell_angle_beta 87.471597
_cell_angle_gamma 133.602855
_cell_volume 587.913979
_symmetry_space_group_name_H-M "P -1"
_symmetry_group_IT_number 2
_symmetry_cell_setting 'triclinic'
loop_
_space_group_symop_operation_xyz
x,y,z
-x,-y,-z
loop_
_atom_site_type_symbol
_atom_site_label
_atom_site_fract_x
_atom_site_fract_y
_atom_site_fract_z
Si Si1 0.113533 0.659173 0.607232
Si Si2 0.643360 0.764594 0.873181
Si Si3 0.953887 0.951531 0.820317
Si Si4 0.797774 0.847547 0.553883
Si Si5 0.869520 0.565433 0.095531
Si Si6 0.478438 0.888172 0.770970
Si Si7 0.364072 0.665199 0.501503
O O1 0.066080 0.521136 0.794230
O O2 0.253430 0.699640 0.541677
O O3 0.000000 0.500000 0.500000
O O4 0.159445 0.918571 0.566849
O O5 0.806064 0.888292 0.905268
O O6 0.666958 0.735445 0.704119
O O7 0.602926 0.925818 0.851103
O O8 0.500000 0.500000 0.000000
O O9 0.929716 0.939658 0.647047
O O10 0.941477 0.735936 0.914323
O O11 0.097782 0.228812 0.827497
O O12 0.730104 0.616739 0.492075
O O13 0.691187 0.317914 0.117349
O O14 0.457392 0.761341 0.633284
O O15 0.534643 0.148475 0.675431
#
# Coordination Sequence:
#
# PCOD9078848 Si02
#       7
#     2   2   2   2   2   2   2
#     4  11  20  38  61  89 117 156 195 244 301 345
#     4  10  18  36  59  87 116 154 204 236 296 355
#     4   9  19  35  59  85 115 160 195 239 299 352
#     4  10  21  38  63  89 116 157 201 246 290 354
#     4  10  19  35  59  85 119 155 196 240 299 355
#     4  10  19  37  58  87 119 156 192 249 301 340
#     4  10  22  37  60  89 122 150 199 251 294 351
#
# _framework density 23.813006999999999
#
# number of rings (size 3 to 8) (size 9 to 14) (size 15 to 20)
#    0.857    1.143    4.286    0.000    0.000    1.143 
#    0.000    2.857    0.000    0.857    0.000    0.000 
#    0.000    0.000    0.000    0.000    0.000    0.000 
#
# Total GULP energy -78095.734944 kJ/mol
# GULP energy per Si atom -5578.266782 kJ/mol
# Density = 2.375881 g / cm^3
# Si number density = 23.813007 Si / 1000 Ang^3
#
#
#
# Elastic Constant Matrix: (Units=GPa)
#
#
# Indices 1 2 3 4 5 6 
#
# 1 97.5721 39.8445 34.0857 2.3988 27.4653 -0.2932
# 2 39.8445 125.9325 23.6218 -29.2894 15.2764 -25.1983
# 3 34.0857 23.6218 105.9654 -29.8666 31.1052 -16.1810
# 4 2.3988 -29.2894 -29.8666 30.1031 -3.6406 11.8590
# 5 27.4653 15.2764 31.1052 -3.6406 42.5605 -13.0773
# 6 -0.2932 -25.1983 -16.1810 11.8590 -13.0773 35.4879
#
#
#
# Elastic Compliance Matrix: (Units=1/GPa)
#
#
# Indices 1 2 3 4 5 6 
#
# 1 0.018663 -0.008606 -0.007428 -0.015410 -0.006916 -0.006742
# 2 -0.008606 0.015358 0.005760 0.018484 -0.000394 0.007138
# 3 -0.007428 0.005760 0.020670 0.024922 -0.009782 0.001521
# 4 -0.015410 0.018484 0.024922 0.078079 -0.009875 -0.005370
# 5 -0.006916 -0.000394 -0.009782 -0.009875 0.038279 0.012609
# 6 -0.006742 0.007138 0.001521 -0.005370 0.012609 0.040326
#
#
# Mechanical properties :
#
#
# Convention : Reuss Voigt Hill
#
# Bulk Modulus (GPa) = 29.28703 58.28602 43.78653
# Shear Modulus (GPa) = 20.55034 37.09149 28.82091
#
# Velocity S-wave (km/s) = 2.94085 3.95094 3.48271
# Velocity P-wave (km/s) = 4.88436 6.73372 5.88217
#
# Compressibility (1/GPa) = 0.03414480
#
# Stress axis : x y z
#
# Youngs Moduli (GPa) = 53.58081 65.11084 48.37878
#
# Poissons Ratio (x) = 0.56034 0.35935
# Poissons Ratio (y) = 0.46112 -0.27867
# Poissons Ratio (z) = 0.39799 -0.37505
#
# Static dielectric constant tensor:
#      x y z
#    x 2.012030 0.039320 -0.013130 
#    y 0.039320 1.845710 -0.022150 
#    z -0.013130 -0.022150 2.005720 
# 
# From -- ./inp_files/412122.got.cif
#   From: 2010.05.17/outbox.cif.g08.bks.cpg/sg2_207_cif.got.tgz:412122.got - 2010.06.03 11:33:40.
