data_PCOD9078371
_publ_section_title
;
Structure prediction by ZEFSAII (Michael W. Deem and Ramdas Pophale) SiO2 
 PCOD9078371
Probable space group: P -1
;
_chemical_formula_sum "Si O2"
_cell_formula_units_Z 14
_cell_length_a 8.957277
_cell_length_b 6.952190
_cell_length_c 14.923079
_cell_angle_alpha 75.540071
_cell_angle_beta 112.573430
_cell_angle_gamma 57.459520
_cell_volume 586.156214
_symmetry_space_group_name_H-M "P -1"
_symmetry_group_IT_number 2
_symmetry_cell_setting 'triclinic'
loop_
_space_group_symop_operation_xyz
x,y,z
-x,-y,-z
loop_
_atom_site_type_symbol
_atom_site_label
_atom_site_fract_x
_atom_site_fract_y
_atom_site_fract_z
Si Si1 0.413802 0.844143 0.476220
Si Si2 0.951656 0.836047 0.803223
Si Si3 0.757487 0.939952 0.414598
Si Si4 0.442774 0.318299 0.992737
Si Si5 0.947354 0.815484 0.139188
Si Si6 0.699936 0.710774 0.842141
Si Si7 0.905585 0.414827 0.607586
O O1 0.653137 0.542536 0.536556
O O2 0.500000 0.000000 0.500000
O O3 0.224404 0.005722 0.337676
O O4 0.320234 0.847270 0.549090
O O5 0.839138 0.793353 0.857328
O O6 0.998938 0.006301 0.839100
O O7 0.196208 0.534342 0.863102
O O8 0.884358 0.650577 0.530399
O O9 0.922885 0.861254 0.382060
O O10 0.524896 0.073876 0.296902
O O11 0.389065 0.272941 0.083148
O O12 0.500000 0.500000 0.000000
O O13 0.674074 0.031863 0.034281
O O14 0.122927 0.597404 0.127928
O O15 0.007635 0.645818 0.264256
#
# Coordination Sequence:
#
# PCOD9078371 Si02
#       7
#     2   2   2   2   2   2   2
#     4  10  18  38  61  90 133 165 207 266 319 378
#     4  11  24  43  66 102 131 173 227 266 321 401
#     4  10  19  34  65  93 126 174 210 258 328 388
#     4  10  25  46  68  96 136 170 221 280 322 388
#     4  11  24  42  71  96 135 177 212 274 334 382
#     4  12  21  45  70  94 134 174 218 272 331 384
#     4  10  18  35  61  94 126 169 209 257 328 381
#
# _framework density 23.884418
#
# number of rings (size 3 to 8) (size 9 to 14) (size 15 to 20)
#    0.000    1.429    5.714    1.286    0.000    3.429 
#    0.000    7.857    0.000    0.000    0.000    0.000 
#    0.000    0.000    0.000    0.000    0.000    0.000 
#
# Total GULP energy -78283.943580 kJ/mol
# GULP energy per Si atom -5591.710256 kJ/mol
# Density = 2.383006 g / cm^3
# Si number density = 23.884418 Si / 1000 Ang^3
#
#
#
# Elastic Constant Matrix: (Units=GPa)
#
#
# Indices 1 2 3 4 5 6 
#
# 1 104.2080 49.9581 42.4190 -1.5168 25.0330 -6.9817
# 2 49.9581 123.9174 23.2661 -1.7598 11.0220 -23.2814
# 3 42.4190 23.2661 109.1899 -9.8364 27.8184 4.8156
# 4 -1.5168 -1.7598 -9.8364 37.7500 -6.1123 3.5884
# 5 25.0330 11.0220 27.8184 -6.1123 22.9160 -14.0733
# 6 -6.9817 -23.2814 4.8156 3.5884 -14.0733 41.7520
#
#
#
# Elastic Compliance Matrix: (Units=1/GPa)
#
#
# Indices 1 2 3 4 5 6 
#
# 1 0.017235 -0.006616 0.000341 -0.002260 -0.021516 -0.007905
# 2 -0.006616 0.012232 -0.003460 0.000360 0.011822 0.010067
# 3 0.000341 -0.003460 0.017601 0.001180 -0.028018 -0.013448
# 4 -0.002260 0.000360 0.001180 0.028076 0.008420 0.000112
# 5 -0.021516 0.011822 -0.028018 0.008420 0.127480 0.048472
# 6 -0.007905 0.010067 -0.013448 0.000112 0.048472 0.046123
#
#
# Mechanical properties :
#
#
# Convention : Reuss Voigt Hill
#
# Bulk Modulus (GPa) = 36.23435 63.17795 49.70615
# Shear Modulus (GPa) = 18.02347 35.26176 26.64261
#
# Velocity S-wave (km/s) = 2.75000 3.84650 3.34350
# Velocity P-wave (km/s) = 5.02862 6.79973 5.98011
#
# Compressibility (1/GPa) = 0.02759812
#
# Stress axis : x y z
#
# Youngs Moduli (GPa) = 58.02020 81.75494 56.81588
#
# Poissons Ratio (x) = 0.54088 -0.01936
# Poissons Ratio (y) = 0.38386 0.19656
# Poissons Ratio (z) = -0.01977 0.28284
#
# Static dielectric constant tensor:
#      x y z
#    x 1.958020 0.031970 -0.020710 
#    y 0.031970 2.061380 -0.044120 
#    z -0.020710 -0.044120 1.902220 
# 
# From -- ./inp_files/494672.got.cif
#   From: 2010.05.17/outbox.cif.g08.bks.cpg/sg2_248_cif.got.tgz:494672.got - 2010.06.03 11:33:40.
