data_PCOD9078981
_publ_section_title
;
Structure prediction by ZEFSAII (Michael W. Deem and Ramdas Pophale) SiO2 
 PCOD9078981
Probable space group: P -1
;
_chemical_formula_sum "Si O2"
_cell_formula_units_Z 15
_cell_length_a 7.303850
_cell_length_b 8.667080
_cell_length_c 11.860581
_cell_angle_alpha 99.295033
_cell_angle_beta 129.332854
_cell_angle_gamma 82.236087
_cell_volume 572.583052
_symmetry_space_group_name_H-M "P -1"
_symmetry_group_IT_number 2
_symmetry_cell_setting 'triclinic'
loop_
_space_group_symop_operation_xyz
x,y,z
-x,-y,-z
loop_
_atom_site_type_symbol
_atom_site_label
_atom_site_fract_x
_atom_site_fract_y
_atom_site_fract_z
Si Si1 0.353256 0.035373 0.331245
Si Si2 0.620802 0.703260 0.064727
Si Si3 0.111188 0.610483 0.856258
Si Si4 0.273627 0.458020 0.481768
Si Si5 0.237994 0.791967 0.563679
Si Si6 0.452194 0.698559 0.247332
Si Si7 0.080209 0.027658 0.724477
Si Si8 0.000000 0.500000 0.000000
O O1 0.371032 0.880540 0.243006
O O2 0.083197 0.060344 0.262970
O O3 0.500000 0.000000 0.500000
O O4 0.488605 0.176444 0.349115
O O5 0.796830 0.563401 0.068102
O O6 0.588869 0.665219 0.180203
O O7 0.733049 0.869868 0.125170
O O8 0.350644 0.687877 0.919162
O O9 0.939846 0.579141 0.685967
O O10 0.985424 0.660930 0.928220
O O11 0.500000 0.500000 0.500000
O O12 0.205953 0.611180 0.546577
O O13 0.359262 0.321455 0.581445
O O14 0.083582 0.848358 0.399933
O O15 0.172832 0.905079 0.654251
O O16 0.244580 0.578397 0.166372
#
# Coordination Sequence:
#
# PCOD9078981 Si02
#       8
#     2   2   2   2   2   2   2   1
#     4  10  20  35  62  91 120 165 217 251 308 379
#     4  10  20  38  60  91 124 168 211 259 303 382
#     4  10  21  36  59  90 126 164 209 259 315 371
#     4  12  22  39  62  97 134 158 203 275 324 360
#     4  10  21  36  58  93 126 163 210 260 312 373
#     4  11  22  37  64  94 127 162 207 260 320 371
#     4  10  18  36  61  84 124 167 215 258 296 379
#     4  10  20  38  58  86 120 168 212 240 304 390
#
# _framework density 26.197071999999999
#
# number of rings (size 3 to 8) (size 9 to 14) (size 15 to 20)
#    0.000    1.600    4.000    2.400    0.000    0.533 
#    0.000    0.000    0.000    4.800    0.000   14.000 
#    0.000    0.000    0.000    0.000    0.000    0.000 
#
# Total GULP energy -83863.489915 kJ/mol
# GULP energy per Si atom -5590.899328 kJ/mol
# Density = 2.613745 g / cm^3
# Si number density = 26.197072 Si / 1000 Ang^3
#
#
#
# Elastic Constant Matrix: (Units=GPa)
#
#
# Indices 1 2 3 4 5 6 
#
# 1 84.7695 14.8982 40.8455 7.7184 30.6039 15.3577
# 2 14.8982 80.8328 33.8377 30.6701 12.2536 -8.7712
# 3 40.8455 33.8377 182.6528 22.4614 33.9648 4.0685
# 4 7.7184 30.6701 22.4614 45.0206 9.1094 2.7971
# 5 30.6039 12.2536 33.9648 9.1094 47.0236 10.7630
# 6 15.3577 -8.7712 4.0685 2.7971 10.7630 28.6970
#
#
#
# Elastic Compliance Matrix: (Units=1/GPa)
#
#
# Indices 1 2 3 4 5 6 
#
# 1 0.017104 -0.002587 -0.001963 0.001819 -0.007809 -0.006914
# 2 -0.002587 0.019431 -0.001307 -0.012281 -0.002242 0.009547
# 3 -0.001963 -0.001307 0.006953 -0.001635 -0.003333 0.001075
# 4 0.001819 -0.012281 -0.001635 0.031794 -0.001339 -0.007092
# 5 -0.007809 -0.002242 -0.003333 -0.001339 0.031353 -0.007662
# 6 -0.006914 0.009547 0.001075 -0.007092 -0.007662 0.044878
#
#
# Mechanical properties :
#
#
# Convention : Reuss Voigt Hill
#
# Bulk Modulus (GPa) = 31.47340 58.60197 45.03768
# Shear Modulus (GPa) = 28.76596 41.39315 35.07956
#
# Velocity S-wave (km/s) = 3.31729 3.97932 3.66329
# Velocity P-wave (km/s) = 5.16844 6.59784 5.92639
#
# Compressibility (1/GPa) = 0.03177287
#
# Stress axis : x y z
#
# Youngs Moduli (GPa) = 58.46728 51.46528 143.82685
#
# Poissons Ratio (x) = 0.13316 0.28234
# Poissons Ratio (y) = 0.15128 0.18792
# Poissons Ratio (z) = 0.11477 0.06724
#
# Static dielectric constant tensor:
#      x y z
#    x -2.093210 0.558830 0.925220 
#    y 0.558830 2.040580 -0.171770 
#    z 0.925220 -0.171770 1.872510 
# 
# From -- ./inp_files/495541.got.cif
#   From: 2010.05.17/outbox.cif.g08.bks.cpg/sg2_248_cif.got.tgz:495541.got - 2010.06.03 11:33:40.
