data_PCOD9078747
_publ_section_title
;
Structure prediction by ZEFSAII (Michael W. Deem and Ramdas Pophale) SiO2 
 PCOD9078747
Probable space group: P -1
;
_chemical_formula_sum "Si O2"
_cell_formula_units_Z 16
_cell_length_a 11.274227
_cell_length_b 7.740611
_cell_length_c 9.804445
_cell_angle_alpha 46.048861
_cell_angle_beta 112.429924
_cell_angle_gamma 105.279771
_cell_volume 569.391062
_symmetry_space_group_name_H-M "P -1"
_symmetry_group_IT_number 2
_symmetry_cell_setting 'triclinic'
loop_
_space_group_symop_operation_xyz
x,y,z
-x,-y,-z
loop_
_atom_site_type_symbol
_atom_site_label
_atom_site_fract_x
_atom_site_fract_y
_atom_site_fract_z
Si Si1 0.265326 0.520365 0.076818
Si Si2 0.031740 0.263873 0.008457
Si Si3 0.418924 0.150551 0.185989
Si Si4 0.233681 0.282444 0.605691
Si Si5 0.968311 0.150029 0.543029
Si Si6 0.484971 0.290563 0.843502
Si Si7 0.798132 0.029005 0.965476
Si Si8 0.704990 0.105908 0.359089
O O1 0.114788 0.463990 0.013877
O O2 0.329913 0.274841 0.188872
O O3 0.374921 0.603041 0.186135
O O4 0.287944 0.724756 0.862114
O O5 0.025593 0.040013 0.230147
O O6 0.114456 0.169429 0.967191
O O7 0.882297 0.268714 0.892949
O O8 0.557104 0.095214 0.337905
O O9 0.328120 0.946074 0.195430
O O10 0.442787 0.320608 0.968555
O O11 0.369384 0.398774 0.643124
O O12 0.081144 0.346112 0.500774
O O13 0.256150 0.154796 0.539553
O O14 0.231268 0.087697 0.837062
O O15 0.818414 0.217614 0.438146
O O16 0.000000 0.000000 0.500000
O O17 0.500000 0.000000 0.000000
#
# Coordination Sequence:
#
# PCOD9078747 Si02
#       8
#     2   2   2   2   2   2   2   2
#     4  10  19  30  51  80 105 129 169 224 258 284
#     4   9  17  34  51  74 103 134 168 214 259 295
#     4   9  17  29  50  77 103 131 172 211 256 296
#     4   9  16  29  49  75  98 134 175 203 245 304
#     4   9  19  33  52  71 102 141 173 197 255 324
#     4  10  15  26  49  76 104 128 168 213 251 293
#     4   8  16  29  52  70  99 132 171 204 256 294
#     4  10  17  30  51  76 103 133 172 207 250 310
#
# _framework density 28.100193999999998
#
# number of rings (size 3 to 8) (size 9 to 14) (size 15 to 20)
#    0.000    2.750    2.500    1.500    0.000    0.000 
#    0.000    8.125    0.000   41.250    0.000    0.000 
#    0.000    1.000    0.000    0.000    0.000    0.000 
#
# Total GULP energy -89245.154499 kJ/mol
# GULP energy per Si atom -5577.822156 kJ/mol
# Density = 2.803624 g / cm^3
# Si number density = 28.100194 Si / 1000 Ang^3
#
#
#
# Elastic Constant Matrix: (Units=GPa)
#
#
# Indices 1 2 3 4 5 6 
#
# 1 172.5564 60.2956 22.8697 30.6929 43.7834 57.3654
# 2 60.2956 163.2850 13.6393 32.8921 25.6236 43.6466
# 3 22.8697 13.6393 53.6739 12.9256 3.3057 23.1572
# 4 30.6929 32.8921 12.9256 31.3703 23.3074 17.1311
# 5 43.7834 25.6236 3.3057 23.3074 60.2241 36.2543
# 6 57.3654 43.6466 23.1572 17.1311 36.2543 74.1632
#
#
#
# Elastic Compliance Matrix: (Units=1/GPa)
#
#
# Indices 1 2 3 4 5 6 
#
# 1 0.008764 -0.001073 -0.000758 -0.003323 -0.002113 -0.004110
# 2 -0.001073 0.008858 0.002090 -0.008916 0.003031 -0.004458
# 3 -0.000758 0.002090 0.025486 -0.013550 0.009637 -0.010182
# 4 -0.003323 -0.008916 -0.013550 0.061821 -0.022146 0.008594
# 5 -0.002113 0.003031 0.009637 -0.022146 0.033604 -0.014470
# 6 -0.004110 -0.004458 -0.010182 0.008594 -0.014470 0.027554
#
#
# Mechanical properties :
#
#
# Convention : Reuss Voigt Hill
#
# Bulk Modulus (GPa) = 22.92233 64.79160 43.85696
# Shear Modulus (GPa) = 27.76064 52.66558 40.21311
#
# Velocity S-wave (km/s) = 3.14652 4.33391 3.78704
# Velocity P-wave (km/s) = 4.62341 6.93910 5.89606
#
# Compressibility (1/GPa) = 0.04362559
#
# Stress axis : x y z
#
# Youngs Moduli (GPa) = 114.09781 112.89151 39.23795
#
# Poissons Ratio (x) = 0.12118 0.02974
# Poissons Ratio (y) = 0.12248 -0.08201
# Poissons Ratio (z) = 0.08648 -0.23596
#
# Static dielectric constant tensor:
#      x y z
#    x 2.353400 0.005760 0.066820 
#    y 0.005760 2.333840 0.071550 
#    z 0.066820 0.071550 2.213290 
# 
# From -- ./inp_files/418983.got.cif
#   From: 2010.05.17/outbox.cif.g08.bks.cpg/sg2_210_cif.got.tgz:418983.got - 2010.06.03 11:33:40.
