data_PCOD9078443
_publ_section_title
;
Structure prediction by ZEFSAII (Michael W. Deem and Ramdas Pophale) SiO2 
 PCOD9078443
Probable space group: P -1
;
_chemical_formula_sum "Si O2"
_cell_formula_units_Z 16
_cell_length_a 9.131587
_cell_length_b 15.788452
_cell_length_c 7.216203
_cell_angle_alpha 108.704655
_cell_angle_beta 73.913695
_cell_angle_gamma 52.396903
_cell_volume 606.297779
_symmetry_space_group_name_H-M "P -1"
_symmetry_group_IT_number 2
_symmetry_cell_setting 'triclinic'
loop_
_space_group_symop_operation_xyz
x,y,z
-x,-y,-z
loop_
_atom_site_type_symbol
_atom_site_label
_atom_site_fract_x
_atom_site_fract_y
_atom_site_fract_z
Si Si1 0.466103 0.008948 0.739805
Si Si2 0.371155 0.688669 0.490308
Si Si3 0.049276 0.311341 0.135688
Si Si4 0.129044 0.020010 0.087784
Si Si5 0.030886 0.285892 0.544464
Si Si6 0.694967 0.378503 0.041336
Si Si7 0.793672 0.604025 0.370438
Si Si8 0.457195 0.725973 0.881800
O O1 0.299879 0.004284 0.885198
O O2 0.726312 0.881665 0.648536
O O3 0.500000 0.000000 0.500000
O O4 0.324762 0.162928 0.942812
O O5 0.096097 0.828241 0.634513
O O6 0.511627 0.535371 0.289808
O O7 0.561282 0.683842 0.384772
O O8 0.367447 0.701508 0.725702
O O9 0.923245 0.294118 0.038144
O O10 0.977640 0.440453 0.177223
O O11 0.039482 0.660699 0.603743
O O12 0.291207 0.886447 0.071999
O O13 0.000000 0.000000 0.000000
O O14 0.108683 0.343082 0.656874
O O15 0.816427 0.348908 0.785277
O O16 0.571897 0.338119 0.005217
O O17 0.702937 0.645111 0.647223
#
# Coordination Sequence:
#
# PCOD9078443 Si02
#       8
#     2   2   2   2   2   2   2   2
#     4  12  24  40  66  97 126 166 217 261 313 380
#     4   8  18  32  62  90 120 162 209 251 314 370
#     4  11  24  41  66  93 133 170 205 261 325 374
#     4  10  18  35  62  94 122 167 209 256 320 375
#     4  12  24  44  63  97 131 167 212 264 313 379
#     4  11  22  39  68  96 123 163 217 261 311 380
#     4   9  21  39  64  92 129 170 208 258 323 370
#     4   9  18  35  63  90 125 168 211 257 316 374
#
# _framework density 26.389672999999998
#
# number of rings (size 3 to 8) (size 9 to 14) (size 15 to 20)
#    0.750    1.000    2.500    2.625    1.750    2.000 
#    4.500    0.625    0.000    0.750    0.000    0.875 
#    0.000    0.000    0.000    0.000    0.000    0.000 
#
# Total GULP energy -89421.342151 kJ/mol
# GULP energy per Si atom -5588.833884 kJ/mol
# Density = 2.632961 g / cm^3
# Si number density = 26.389673 Si / 1000 Ang^3
#
#
#
# Elastic Constant Matrix: (Units=GPa)
#
#
# Indices 1 2 3 4 5 6 
#
# 1 85.1590 25.7920 21.2682 -3.7148 -18.9746 -6.6432
# 2 25.7920 85.6348 65.7299 27.2344 -8.8293 9.7468
# 3 21.2682 65.7299 146.5225 15.9388 -5.4995 27.2156
# 4 -3.7148 27.2344 15.9388 46.8187 6.4761 7.1888
# 5 -18.9746 -8.8293 -5.4995 6.4761 37.5566 -7.0965
# 6 -6.6432 9.7468 27.2156 7.1888 -7.0965 49.0895
#
#
#
# Elastic Compliance Matrix: (Units=1/GPa)
#
#
# Indices 1 2 3 4 5 6 
#
# 1 0.015296 -0.004365 -0.001047 0.002519 0.006898 0.004146
# 2 -0.004365 0.024065 -0.009050 -0.012229 0.004634 0.002109
# 3 -0.001047 -0.009050 0.011716 0.002374 -0.002396 -0.005535
# 4 0.002519 -0.012229 0.002374 0.029437 -0.007064 -0.003879
# 5 0.006898 0.004634 -0.002396 -0.007064 0.033430 0.007209
# 6 0.004146 0.002109 -0.005535 -0.003879 0.007209 0.025192
#
#
# Mechanical properties :
#
#
# Convention : Reuss Voigt Hill
#
# Bulk Modulus (GPa) = 45.13747 60.32185 52.72966
# Shear Modulus (GPa) = 28.49882 40.32805 34.41343
#
# Velocity S-wave (km/s) = 3.28978 3.91343 3.61508
# Velocity P-wave (km/s) = 5.61886 6.58237 6.11961
#
# Compressibility (1/GPa) = 0.02215454
#
# Stress axis : x y z
#
# Youngs Moduli (GPa) = 65.37449 41.55371 85.35013
#
# Poissons Ratio (x) = 0.18137 0.08939
# Poissons Ratio (y) = 0.28535 0.77238
# Poissons Ratio (z) = 0.06847 0.37604
#
# Static dielectric constant tensor:
#      x y z
#    x 2.213550 0.101160 -0.036560 
#    y 0.101160 2.281730 -0.100640 
#    z -0.036560 -0.100640 2.083560 
# 
# From -- ./inp_files/435814.got.cif
#   From: 2010.05.17/outbox.cif.g08.bks.cpg/sg2_218_cif.got.tgz:435814.got - 2010.06.03 11:33:40.
