data_PCOD9078584
_publ_section_title
;
Structure prediction by ZEFSAII (Michael W. Deem and Ramdas Pophale) SiO2 
 PCOD9078584
Probable space group: P -1
;
_chemical_formula_sum "Si O2"
_cell_formula_units_Z 14
_cell_length_a 6.826660
_cell_length_b 25.551348
_cell_length_c 14.236294
_cell_angle_alpha 157.376894
_cell_angle_beta 132.844833
_cell_angle_gamma 37.194182
_cell_volume 560.894142
_symmetry_space_group_name_H-M "P -1"
_symmetry_group_IT_number 2
_symmetry_cell_setting 'triclinic'
loop_
_space_group_symop_operation_xyz
x,y,z
-x,-y,-z
loop_
_atom_site_type_symbol
_atom_site_label
_atom_site_fract_x
_atom_site_fract_y
_atom_site_fract_z
Si Si1 0.718555 0.297517 0.239826
Si Si2 0.652679 0.833935 0.987319
Si Si3 0.077458 0.996676 0.294659
Si Si4 0.892435 0.768485 0.564208
Si Si5 0.805201 0.496141 0.129400
Si Si6 0.478740 0.732593 0.581794
Si Si7 0.201682 0.136837 0.729048
O O1 0.500000 0.500000 0.500000
O O2 0.521485 0.238063 0.131998
O O3 0.024423 0.235711 0.305738
O O4 0.823293 0.190288 0.000231
O O5 0.675017 0.761041 0.770396
O O6 0.908330 0.807299 0.106677
O O7 0.407062 0.037565 0.232397
O O8 0.394438 0.991984 0.356330
O O9 0.033765 0.064724 0.498397
O O10 0.760257 0.118932 0.326517
O O11 0.841670 0.623511 0.293829
O O12 0.213126 0.721883 0.534274
O O13 0.723770 0.567611 0.326955
O O14 0.500000 0.500000 0.000000
O O15 0.111760 0.300278 0.911571
#
# Coordination Sequence:
#
# PCOD9078584 Si02
#       7
#     2   2   2   2   2   2   2
#     4  10  18  35  66 103 127 169 226 272 322 400
#     4  10  20  40  69  98 133 175 227 272 327 406
#     4  10  18  38  70  94 132 180 217 261 339 401
#     4  11  21  41  70  95 131 180 219 276 333 390
#     4  12  27  43  64 101 140 172 226 282 330 397
#     4  11  21  43  71  98 131 178 224 269 332 404
#     4  10  21  39  66  95 137 177 214 279 329 388
#
# _framework density 24.960146999999999
#
# number of rings (size 3 to 8) (size 9 to 14) (size 15 to 20)
#    0.000    1.429    5.714    2.571    0.000    1.714 
#    0.000    3.571    3.143    0.000    0.000    0.000 
#    0.000    0.000    0.000    0.000    0.000    0.000 
#
# Total GULP energy -78246.942536 kJ/mol
# GULP energy per Si atom -5589.067324 kJ/mol
# Density = 2.490334 g / cm^3
# Si number density = 24.960147 Si / 1000 Ang^3
#
#
#
# Elastic Constant Matrix: (Units=GPa)
#
#
# Indices 1 2 3 4 5 6 
#
# 1 69.8413 13.3814 38.8035 -17.3241 19.9691 12.2952
# 2 13.3814 146.6995 81.0179 -24.3001 4.9984 12.0404
# 3 38.8035 81.0179 208.6315 -13.0538 16.8222 15.8567
# 4 -17.3241 -24.3001 -13.0538 64.9263 2.1565 -2.5341
# 5 19.9691 4.9984 16.8222 2.1565 43.2535 -1.6146
# 6 12.2952 12.0404 15.8567 -2.5341 -1.6146 28.4709
#
#
#
# Elastic Compliance Matrix: (Units=1/GPa)
#
#
# Indices 1 2 3 4 5 6 
#
# 1 0.021122 0.001547 -0.002788 0.005646 -0.009436 -0.008256
# 2 0.001547 0.009339 -0.003477 0.003137 -0.000689 -0.002441
# 3 -0.002788 -0.003477 0.006789 -0.000696 -0.000962 -0.001223
# 4 0.005646 0.003137 -0.000696 0.017987 -0.003669 -0.001984
# 5 -0.009436 -0.000689 -0.000962 -0.003669 0.028343 0.006183
# 6 -0.008256 -0.002441 -0.001223 -0.001984 0.006183 0.040577
#
#
# Mechanical properties :
#
#
# Convention : Reuss Voigt Hill
#
# Bulk Modulus (GPa) = 35.95168 76.84199 56.39683
# Shear Modulus (GPa) = 34.99810 46.79478 40.89644
#
# Velocity S-wave (km/s) = 3.74860 4.33457 4.05219
# Velocity P-wave (km/s) = 5.75942 7.47690 6.67364
#
# Compressibility (1/GPa) = 0.02781511
#
# Stress axis : x y z
#
# Youngs Moduli (GPa) = 47.34307 107.07469 147.29800
#
# Poissons Ratio (x) = -0.16567 0.41065
# Poissons Ratio (y) = -0.07325 0.51218
# Poissons Ratio (z) = 0.13199 0.37232
#
# Static dielectric constant tensor:
#      x y z
#    x 2.115130 0.015390 -0.009160 
#    y 0.015390 1.999300 -0.036160 
#    z -0.009160 -0.036160 1.966420 
# 
# From -- ./inp_files/381333.got.cif
#   From: 2010.05.17/outbox.cif.g08.bks.cpg/sg2_191_cif.got.tgz:381333.got - 2010.06.03 11:33:40.
