data_PCOD9078830
_publ_section_title
;
Structure prediction by ZEFSAII (Michael W. Deem and Ramdas Pophale) SiO2 
 PCOD9078830
Probable space group: P -1
;
_chemical_formula_sum "Si O2"
_cell_formula_units_Z 12
_cell_length_a 14.206077
_cell_length_b 7.262049
_cell_length_c 7.217537
_cell_angle_alpha 84.927105
_cell_angle_beta 108.962037
_cell_angle_gamma 141.960023
_cell_volume 415.622628
_symmetry_space_group_name_H-M "P -1"
_symmetry_group_IT_number 2
_symmetry_cell_setting 'triclinic'
loop_
_space_group_symop_operation_xyz
x,y,z
-x,-y,-z
loop_
_atom_site_type_symbol
_atom_site_label
_atom_site_fract_x
_atom_site_fract_y
_atom_site_fract_z
Si Si1 0.773906 0.727827 0.930198
Si Si2 0.604002 0.951796 0.705796
Si Si3 0.752527 0.535318 0.550135
Si Si4 0.205886 0.650437 0.856400
Si Si5 0.066878 0.795815 0.712286
Si Si6 0.613937 0.827850 0.322264
O O1 0.895911 0.054352 0.079560
O O2 0.807855 0.755162 0.730635
O O3 0.798806 0.567205 0.064447
O O4 0.576720 0.489958 0.836081
O O5 0.407450 0.639320 0.651623
O O6 0.625410 0.855454 0.548256
O O7 0.665750 0.242490 0.642755
O O8 0.709728 0.103145 0.944935
O O9 0.912703 0.682312 0.543283
O O10 0.041104 0.534462 0.728465
O O11 0.334334 0.891561 0.750516
O O12 0.235567 0.065957 0.677123
#
# Coordination Sequence:
#
# PCOD9078830 Si02
#       6
#     2   2   2   2   2   2
#     4  10  18  36  59  84 118 153 187 236 290 343
#     4   9  18  38  62  80 118 156 189 233 292 346
#     4   9  19  34  58  86 114 155 188 236 292 334
#     4   9  21  36  65  84 108 159 195 229 288 344
#     4  10  21  35  60  90 114 147 197 240 282 340
#     4   9  20  36  61  87 112 153 192 237 286 338
#
# _framework density 28.872343999999998
#
# number of rings (size 3 to 8) (size 9 to 14) (size 15 to 20)
#    1.000    1.667    0.000    2.500    0.000    3.333 
#    0.000    3.333   14.667    8.000    0.000    0.000 
#    0.000    0.000    0.000    0.000    0.000    0.000 
#
# Total GULP energy -67181.963494 kJ/mol
# GULP energy per Si atom -5598.496958 kJ/mol
# Density = 2.880663 g / cm^3
# Si number density = 28.872344 Si / 1000 Ang^3
#
#
#
# Elastic Constant Matrix: (Units=GPa)
#
#
# Indices 1 2 3 4 5 6 
#
# 1 145.8195 37.9848 13.2111 -6.0586 22.3105 28.0227
# 2 37.9848 79.8808 5.9014 2.6851 15.9413 -15.4353
# 3 13.2111 5.9014 103.5838 -1.1277 2.2225 3.4299
# 4 -6.0586 2.6851 -1.1277 36.6562 2.9817 13.3492
# 5 22.3105 15.9413 2.2225 2.9817 43.4498 6.3420
# 6 28.0227 -15.4353 3.4299 13.3492 6.3420 65.4911
#
#
#
# Elastic Compliance Matrix: (Units=1/GPa)
#
#
# Indices 1 2 3 4 5 6 
#
# 1 0.010195 -0.005684 -0.000662 0.004602 -0.002503 -0.006363
# 2 -0.005684 0.017877 -0.000519 -0.004849 -0.004462 0.008093
# 3 -0.000662 -0.000519 0.009785 0.000383 0.000067 -0.000436
# 4 0.004602 -0.004849 0.000383 0.031988 -0.001410 -0.009516
# 5 -0.002503 -0.004462 0.000067 -0.001410 0.026359 -0.002249
# 6 -0.006363 0.008093 -0.000436 -0.009516 -0.002249 0.022080
#
#
# Mechanical properties :
#
#
# Convention : Reuss Voigt Hill
#
# Bulk Modulus (GPa) = 41.44451 49.27540 45.35996
# Shear Modulus (GPa) = 35.69996 47.26522 41.48259
#
# Velocity S-wave (km/s) = 3.52017 4.05043 3.79457
# Velocity P-wave (km/s) = 5.55947 6.24326 5.91126
#
# Compressibility (1/GPa) = 0.02412865
#
# Stress axis : x y z
#
# Youngs Moduli (GPa) = 98.08418 55.93750 102.19556
#
# Poissons Ratio (x) = 0.31794 0.06765
# Poissons Ratio (y) = 0.55750 0.05300
# Poissons Ratio (z) = 0.06493 0.02901
#
# Static dielectric constant tensor:
#      x y z
#    x 2.369140 -0.042280 0.053800 
#    y -0.042280 2.161210 0.013190 
#    z 0.053800 0.013190 2.245180 
# 
# From -- ./inp_files/211905.got.cif
#   From: 2010.05.17/outbox.cif.g08.bks.cpg/sg2_106_cif.got.tgz:211905.got - 2010.06.03 11:33:40.
