data_PCOD9078161
_publ_section_title
;
Structure prediction by ZEFSAII (Michael W. Deem and Ramdas Pophale) SiO2 
 PCOD9078161
Probable space group: P -1
;
_chemical_formula_sum "Si O2"
_cell_formula_units_Z 16
_cell_length_a 11.470815
_cell_length_b 12.819626
_cell_length_c 11.686685
_cell_angle_alpha 33.044777
_cell_angle_beta 60.775404
_cell_angle_gamma 84.322160
_cell_volume 620.023723
_symmetry_space_group_name_H-M "P -1"
_symmetry_group_IT_number 2
_symmetry_cell_setting 'triclinic'
loop_
_space_group_symop_operation_xyz
x,y,z
-x,-y,-z
loop_
_atom_site_type_symbol
_atom_site_label
_atom_site_fract_x
_atom_site_fract_y
_atom_site_fract_z
Si Si1 0.609797 0.418353 0.562742
Si Si2 0.682053 0.119953 0.680115
Si Si3 0.986600 0.157887 0.606815
Si Si4 0.780162 0.695909 0.448833
Si Si5 0.752563 0.381747 0.095688
Si Si6 0.140564 0.247744 0.127545
Si Si7 0.340280 0.076628 0.556844
Si Si8 0.408598 0.238040 0.125897
O O1 0.500000 0.500000 0.500000
O O2 0.670089 0.335163 0.507746
O O3 0.753837 0.626214 0.393029
O O4 0.483345 0.152092 0.937094
O O5 0.845302 0.183841 0.612407
O O6 0.678058 0.036055 0.630134
O O7 0.040209 0.203352 0.671286
O O8 0.160806 0.379645 0.249455
O O9 0.912552 0.883806 0.849684
O O10 0.743836 0.877734 0.343939
O O11 0.615824 0.430594 0.830123
O O12 0.540342 0.202389 0.376363
O O13 0.773810 0.207437 0.173203
O O14 0.853453 0.534648 0.024138
O O15 0.326110 0.326393 0.004828
O O16 0.000000 0.000000 0.500000
O O17 0.363352 0.216111 0.299702
#
# Coordination Sequence:
#
# PCOD9078161 Si02
#       8
#     2   2   2   2   2   2   2   2
#     4  10  23  46  71  91 116 161 221 265 314 379
#     4   9  22  44  67  94 119 167 210 262 320 372
#     4  10  20  39  60  89 128 163 208 252 318 379
#     4  11  21  37  63  90 123 171 206 256 314 374
#     4  10  20  32  52  89 132 172 202 252 299 366
#     4   9  17  32  52  75 116 171 203 236 295 366
#     4  11  20  32  55  96 129 161 213 251 299 367
#     4  10  18  35  59  84 123 165 211 244 301 380
#
# _framework density 25.805465000000002
#
# number of rings (size 3 to 8) (size 9 to 14) (size 15 to 20)
#    0.000    2.000    2.500    1.875    0.000    2.500 
#    4.500    9.375    0.000    0.000    0.000    0.000 
#    0.000    0.000    0.000    0.000    0.000    0.000 
#
# Total GULP energy -89443.464167 kJ/mol
# GULP energy per Si atom -5590.216510 kJ/mol
# Density = 2.574673 g / cm^3
# Si number density = 25.805465 Si / 1000 Ang^3
#
#
#
# Elastic Constant Matrix: (Units=GPa)
#
#
# Indices 1 2 3 4 5 6 
#
# 1 104.4766 53.4882 17.2373 -37.4731 -9.0533 1.2962
# 2 53.4882 176.8826 40.2959 -52.3070 7.9470 1.3844
# 3 17.2373 40.2959 111.1857 -43.3745 10.6490 -2.4083
# 4 -37.4731 -52.3070 -43.3745 62.8646 -7.5623 7.3791
# 5 -9.0533 7.9470 10.6490 -7.5623 36.7289 -17.2358
# 6 1.2962 1.3844 -2.4083 7.3791 -17.2358 46.1395
#
#
#
# Elastic Compliance Matrix: (Units=1/GPa)
#
#
# Indices 1 2 3 4 5 6 
#
# 1 0.013822 -0.002449 0.001213 0.007625 0.005414 0.000551
# 2 -0.002449 0.008046 -0.000484 0.004861 -0.002014 -0.001728
# 3 0.001213 -0.000484 0.012658 0.008981 -0.002171 -0.001606
# 4 0.007625 0.004861 0.008981 0.031494 0.002905 -0.003843
# 5 0.005414 -0.002014 -0.002171 0.002905 0.036268 0.012879
# 6 0.000551 -0.001728 -0.001606 -0.003843 0.012879 0.027051
#
#
# Mechanical properties :
#
#
# Convention : Reuss Voigt Hill
#
# Bulk Modulus (GPa) = 32.16968 68.28752 50.22860
# Shear Modulus (GPa) = 34.93011 47.91482 41.42247
#
# Velocity S-wave (km/s) = 3.68311 4.31370 4.01082
# Velocity P-wave (km/s) = 5.52995 7.16453 6.39965
#
# Compressibility (1/GPa) = 0.03108517
#
# Stress axis : x y z
#
# Youngs Moduli (GPa) = 72.34644 124.28756 79.00029
#
# Poissons Ratio (x) = 0.30435 -0.09580
# Poissons Ratio (y) = 0.17716 0.03828
# Poissons Ratio (z) = -0.08773 0.06022
#
# Static dielectric constant tensor:
#      x y z
#    x 2.065370 -0.020440 0.027300 
#    y -0.020440 2.092530 0.031690 
#    z 0.027300 0.031690 2.085610 
# 
# From -- ./inp_files/427380.got.cif
#   From: 2010.05.17/outbox.cif.g08.bks.cpg/sg2_214_cif.got.tgz:427380.got - 2010.06.03 11:33:40.
