data_PCOD9078567
_publ_section_title
;
Structure prediction by ZEFSAII (Michael W. Deem and Ramdas Pophale) SiO2 
 PCOD9078567
Probable space group: P -1
;
_chemical_formula_sum "Si O2"
_cell_formula_units_Z 14
_cell_length_a 9.004716
_cell_length_b 10.950304
_cell_length_c 10.257354
_cell_angle_alpha 99.068036
_cell_angle_beta 137.858609
_cell_angle_gamma 98.758132
_cell_volume 612.371153
_symmetry_space_group_name_H-M "P -1"
_symmetry_group_IT_number 2
_symmetry_cell_setting 'triclinic'
loop_
_space_group_symop_operation_xyz
x,y,z
-x,-y,-z
loop_
_atom_site_type_symbol
_atom_site_label
_atom_site_fract_x
_atom_site_fract_y
_atom_site_fract_z
Si Si1 0.840361 0.075326 0.851957
Si Si2 0.835308 0.532633 0.222589
Si Si3 0.965659 0.316531 0.171486
Si Si4 0.294356 0.856769 0.488438
Si Si5 0.339901 0.591563 0.509045
Si Si6 0.326196 0.852399 0.810963
Si Si7 0.412953 0.345700 0.078627
O O1 0.859735 0.106148 0.715222
O O2 0.562111 0.977386 0.678648
O O3 0.905472 0.212666 0.998172
O O4 0.000000 0.000000 0.000000
O O5 0.804938 0.406426 0.086486
O O6 0.629657 0.481945 0.186995
O O7 0.108820 0.573016 0.452470
O O8 0.812740 0.651163 0.144238
O O9 0.889650 0.228878 0.241277
O O10 0.235930 0.437906 0.364799
O O11 0.337044 0.720577 0.451531
O O12 0.234131 0.854064 0.603477
O O13 0.576510 0.636697 0.757665
O O14 0.504780 0.774088 0.913564
O O15 0.500000 0.000000 0.000000
#
# Coordination Sequence:
#
# PCOD9078567 Si02
#       7
#     2   2   2   2   2   2   2
#     4  11  24  46  60  83 124 166 200 242 304 365
#     4   8  17  31  53  84 115 154 187 238 291 347
#     4   9  20  39  62  88 124 152 194 258 292 344
#     4  10  23  40  66  85 118 165 197 248 305 350
#     4   9  19  35  59  87 117 151 197 249 290 348
#     4  10  18  35  65  91 124 153 197 249 298 360
#     4   9  16  30  54  84 121 155 182 232 305 348
#
# _framework density 22.861951999999999
#
# number of rings (size 3 to 8) (size 9 to 14) (size 15 to 20)
#    0.857    1.714    1.429    0.429    2.000    2.857 
#    5.143    1.429    0.000    0.000    0.000    0.000 
#    0.000    0.000    0.000    0.000    0.000    0.000 
#
# Total GULP energy -77960.830766 kJ/mol
# GULP energy per Si atom -5568.630769 kJ/mol
# Density = 2.280992 g / cm^3
# Si number density = 22.861952 Si / 1000 Ang^3
#
#
#
# Elastic Constant Matrix: (Units=GPa)
#
#
# Indices 1 2 3 4 5 6 
#
# 1 55.9210 19.7239 28.4273 -2.1492 -15.9446 12.0342
# 2 19.7239 132.5319 79.8123 7.8629 -12.0163 4.6163
# 3 28.4273 79.8123 138.7984 -22.1989 -24.6159 -10.4109
# 4 -2.1492 7.8629 -22.1989 62.5068 -1.0640 4.0424
# 5 -15.9446 -12.0163 -24.6159 -1.0640 17.4214 5.8865
# 6 12.0342 4.6163 -10.4109 4.0424 5.8865 28.7964
#
#
#
# Elastic Compliance Matrix: (Units=1/GPa)
#
#
# Indices 1 2 3 4 5 6 
#
# 1 0.034290 -0.000086 -0.001743 0.002673 0.036740 -0.022832
# 2 -0.000086 0.013242 -0.009148 -0.004694 -0.002747 -0.004174
# 3 -0.001743 -0.009148 0.016939 0.007087 0.015025 0.004253
# 4 0.002673 -0.004694 0.007087 0.019578 0.011391 -0.002879
# 5 0.036740 -0.002747 0.015025 0.011391 0.123319 -0.036289
# 6 -0.022832 -0.004174 0.004253 -0.002879 -0.036289 0.054297
#
#
# Mechanical properties :
#
#
# Convention : Reuss Voigt Hill
#
# Bulk Modulus (GPa) = 23.51940 64.79761 44.15850
# Shear Modulus (GPa) = 16.79030 35.03077 25.91053
#
# Velocity S-wave (km/s) = 2.71296 3.91867 3.37017
# Velocity P-wave (km/s) = 4.48592 6.99137 5.87378
#
# Compressibility (1/GPa) = 0.04251809
#
# Stress axis : x y z
#
# Youngs Moduli (GPa) = 29.16270 75.51792 59.03463
#
# Poissons Ratio (x) = 0.00648 0.10290
# Poissons Ratio (y) = 0.00250 0.54004
# Poissons Ratio (z) = 0.05083 0.69083
#
# Static dielectric constant tensor:
#      x y z
#    x 1.902760 0.035710 -0.001480 
#    y 0.035710 1.914600 0.023930 
#    z -0.001480 0.023930 1.853940 
# 
# From -- ./inp_files/171852.got.cif
#   From: 2010.05.17/outbox.cif.g08.bks.cpg/sg2_86_cif.got.tgz:171852.got - 2010.06.03 11:33:40.
