data_PCOD9078392
_publ_section_title
;
Structure prediction by ZEFSAII (Michael W. Deem and Ramdas Pophale) SiO2 
 PCOD9078392
Probable space group: P -1
;
_chemical_formula_sum "Si O2"
_cell_formula_units_Z 16
_cell_length_a 13.769903
_cell_length_b 23.571025
_cell_length_c 15.409902
_cell_angle_alpha 23.694944
_cell_angle_beta 35.099228
_cell_angle_gamma 20.576050
_cell_volume 678.762316
_symmetry_space_group_name_H-M "P -1"
_symmetry_group_IT_number 2
_symmetry_cell_setting 'triclinic'
loop_
_space_group_symop_operation_xyz
x,y,z
-x,-y,-z
loop_
_atom_site_type_symbol
_atom_site_label
_atom_site_fract_x
_atom_site_fract_y
_atom_site_fract_z
Si Si1 0.617947 0.723008 0.385247
Si Si2 0.217799 0.614771 0.011506
Si Si3 0.135648 0.501285 0.973282
Si Si4 0.295384 0.027399 0.659577
Si Si5 0.007255 0.486639 0.279537
Si Si6 0.060971 0.918853 0.968823
Si Si7 0.690071 0.347338 0.296440
Si Si8 0.855466 0.815651 0.161106
O O1 0.364934 0.781560 0.477454
O O2 0.602331 0.874454 0.243576
O O3 0.722487 0.697069 0.249385
O O4 0.886337 0.453901 0.608354
O O5 0.239592 0.431719 0.233150
O O6 0.978065 0.787756 0.018350
O O7 0.500000 0.500000 0.000000
O O8 0.173358 0.709523 0.816683
O O9 0.006166 0.535611 0.112090
O O10 0.468860 0.228692 0.108382
O O11 0.137140 0.671267 0.735633
O O12 0.000000 0.500000 0.000000
O O13 0.093900 0.264346 0.531133
O O14 0.500000 0.000000 0.500000
O O15 0.107646 0.043516 0.719043
O O16 0.365127 0.632436 0.135319
O O17 0.826972 0.973757 0.019804
O O18 0.000000 0.000000 0.000000
#
# Coordination Sequence:
#
# PCOD9078392 Si02
#       8
#     2   2   2   2   2   2   2   2
#     4   9  15  26  41  66  96 115 151 197 241 269
#     4  10  15  26  43  66  98 121 155 189 236 277
#     4   9  18  32  47  65  94 132 164 187 230 285
#     4   9  17  28  44  66  94 120 148 193 234 267
#     4   9  18  28  45  70  98 117 150 202 239 267
#     4  10  17  26  38  62 102 126 144 178 240 286
#     4   9  17  28  45  65  91 125 157 197 228 274
#     4   9  17  24  39  63  97 129 150 183 238 292
#
# _framework density 23.572317000000002
#
# number of rings (size 3 to 8) (size 9 to 14) (size 15 to 20)
#    0.000    2.750    2.500    2.250    0.000    0.000 
#    0.000    0.625    0.000    0.000    0.000    3.500 
#    0.000   68.000    0.000    0.000    0.000    0.000 
#
# Total GULP energy -89150.160472 kJ/mol
# GULP energy per Si atom -5571.885029 kJ/mol
# Density = 2.351867 g / cm^3
# Si number density = 23.572317 Si / 1000 Ang^3
#
#
#
# Elastic Constant Matrix: (Units=GPa)
#
#
# Indices 1 2 3 4 5 6 
#
# 1 181.8597 28.9318 82.0943 16.0369 -69.2694 14.9226
# 2 28.9318 60.8848 38.1889 4.0171 -1.9925 19.3378
# 3 82.0943 38.1889 101.1389 21.2384 -56.6195 -7.7532
# 4 16.0369 4.0171 21.2384 36.5708 -4.2623 1.0174
# 5 -69.2694 -1.9925 -56.6195 -4.2623 63.9529 10.4353
# 6 14.9226 19.3378 -7.7532 1.0174 10.4353 30.6750
#
#
#
# Elastic Compliance Matrix: (Units=1/GPa)
#
#
# Indices 1 2 3 4 5 6 
#
# 1 0.013384 0.002366 -0.006509 -0.000703 0.010939 -0.013345
# 2 0.002366 0.050529 -0.041282 0.015379 -0.025639 -0.035227
# 3 -0.006509 -0.041282 0.058785 -0.023349 0.036885 0.032276
# 4 -0.000703 0.015379 -0.023349 0.037883 -0.016660 -0.010844
# 5 0.010939 -0.025639 0.036885 -0.016660 0.058074 0.000961
# 6 -0.013345 -0.035227 0.032276 -0.010844 0.000961 0.069490
#
#
# Mechanical properties :
#
#
# Convention : Reuss Voigt Hill
#
# Bulk Modulus (GPa) = 31.40061 71.36814 51.38437
# Shear Modulus (GPa) = 12.83328 39.21764 26.02546
#
# Velocity S-wave (km/s) = 2.33582 4.08329 3.32636
# Velocity P-wave (km/s) = 4.54143 7.25073 6.04969
#
# Compressibility (1/GPa) = 0.03184652
#
# Stress axis : x y z
#
# Youngs Moduli (GPa) = 74.71509 19.79068 17.01120
#
# Poissons Ratio (x) = -0.04682 0.11072
# Poissons Ratio (y) = -0.17674 0.70226
# Poissons Ratio (z) = 0.48631 0.81701
#
# Static dielectric constant tensor:
#      x y z
#    x 1.981750 -0.051540 -0.045900 
#    y -0.051540 1.978250 0.032370 
#    z -0.045900 0.032370 2.020620 
# 
# From -- ./inp_files/276697.got.cif
#   From: 2010.05.17/outbox.cif.g08.bks.cpg/sg2_139_cif.got.tgz:276697.got - 2010.06.03 11:33:40.
