data_PCOD9078501
_publ_section_title
;
Structure prediction by ZEFSAII (Michael W. Deem and Ramdas Pophale) SiO2 
 PCOD9078501
Probable space group: P -1
;
_chemical_formula_sum "Si O2"
_cell_formula_units_Z 14
_cell_length_a 7.440076
_cell_length_b 12.951528
_cell_length_c 11.577756
_cell_angle_alpha 46.857501
_cell_angle_beta 137.362911
_cell_angle_gamma 133.697562
_cell_volume 510.029274
_symmetry_space_group_name_H-M "P -1"
_symmetry_group_IT_number 2
_symmetry_cell_setting 'triclinic'
loop_
_space_group_symop_operation_xyz
x,y,z
-x,-y,-z
loop_
_atom_site_type_symbol
_atom_site_label
_atom_site_fract_x
_atom_site_fract_y
_atom_site_fract_z
Si Si1 0.134430 0.214289 0.232985
Si Si2 0.821825 0.372983 0.796539
Si Si3 0.167602 0.923445 0.366649
Si Si4 0.638935 0.488687 0.198950
Si Si5 0.967771 0.701238 0.638662
Si Si6 0.774491 0.103461 0.859591
Si Si7 0.585183 0.772190 0.980459
O O1 0.469118 0.320518 0.291529
O O2 0.093228 0.204820 0.357571
O O3 0.048773 0.049122 0.262964
O O4 0.966452 0.314787 0.017083
O O5 0.032297 0.453235 0.725042
O O6 0.767622 0.522514 0.693964
O O7 0.637102 0.211187 0.773339
O O8 0.985993 0.772522 0.467378
O O9 0.195634 0.892167 0.268538
O O10 0.500000 0.000000 0.500000
O O11 0.500000 0.500000 0.000000
O O12 0.584615 0.616644 0.153444
O O13 0.297931 0.725693 0.806542
O O14 0.622493 0.923736 0.954315
O O15 0.119126 0.173138 0.996098
#
# Coordination Sequence:
#
# PCOD9078501 Si02
#       7
#     2   2   2   2   2   2   2
#     4  11  22  38  63  97 127 162 203 262 307 372
#     4  10  21  38  68  94 119 160 219 256 300 364
#     4  12  24  41  65  89 126 168 211 254 309 374
#     4   9  15  30  60  88 113 151 210 248 286 342
#     4  12  23  38  65  98 126 165 202 251 323 377
#     4  10  21  38  63  95 124 157 214 267 299 349
#     4  10  18  35  63  94 117 157 212 259 293 361
#
# _framework density 27.449404999999999
#
# number of rings (size 3 to 8) (size 9 to 14) (size 15 to 20)
#    0.000    1.429    4.286    5.143    0.000    0.571 
#    0.000    2.857    0.000    4.286    0.000    0.000 
#    0.000    0.000    0.000    0.000    0.000    0.000 
#
# Total GULP energy -78182.612830 kJ/mol
# GULP energy per Si atom -5584.472345 kJ/mol
# Density = 2.738693 g / cm^3
# Si number density = 27.449405 Si / 1000 Ang^3
#
#
#
# Elastic Constant Matrix: (Units=GPa)
#
#
# Indices 1 2 3 4 5 6 
#
# 1 78.1455 18.1804 27.4579 3.1703 -28.0022 -2.1652
# 2 18.1804 185.9677 39.3527 -30.4278 -7.2515 -29.8562
# 3 27.4579 39.3527 59.7412 -8.1224 -19.2530 -7.6315
# 4 3.1703 -30.4278 -8.1224 50.1982 3.9839 -0.1429
# 5 -28.0022 -7.2515 -19.2530 3.9839 32.2981 9.1142
# 6 -2.1652 -29.8562 -7.6315 -0.1429 9.1142 40.0060
#
#
#
# Elastic Compliance Matrix: (Units=1/GPa)
#
#
# Indices 1 2 3 4 5 6 
#
# 1 0.020939 -0.002133 -0.003911 -0.004642 0.017378 -0.005180
# 2 -0.002133 0.008139 -0.004580 0.004750 -0.005106 0.006265
# 3 -0.003911 -0.004580 0.024933 0.000649 0.010735 -0.001317
# 4 -0.004642 0.004750 0.000649 0.023764 -0.006937 0.005083
# 5 0.017378 -0.005106 0.010735 -0.006937 0.055974 -0.013599
# 6 -0.005180 0.006265 -0.001317 0.005083 -0.013599 0.032257
#
#
# Mechanical properties :
#
#
# Convention : Reuss Voigt Hill
#
# Bulk Modulus (GPa) = 30.52301 54.87073 42.69687
# Shear Modulus (GPa) = 25.23011 40.42468 32.82739
#
# Velocity S-wave (km/s) = 3.03504 3.84174 3.46196
# Velocity P-wave (km/s) = 4.84002 6.30173 5.61861
#
# Compressibility (1/GPa) = 0.03276217
#
# Stress axis : x y z
#
# Youngs Moduli (GPa) = 47.75752 122.86514 40.10679
#
# Poissons Ratio (x) = 0.26206 0.15687
# Poissons Ratio (y) = 0.10186 0.18371
# Poissons Ratio (z) = 0.18680 0.56278
#
# Static dielectric constant tensor:
#      x y z
#    x 2.206240 -0.083580 0.144350 
#    y -0.083580 2.231570 -0.035080 
#    z 0.144350 -0.035080 2.302530 
# 
# From -- ./inp_files/389212.got.cif
#   From: 2010.05.17/outbox.cif.g08.bks.cpg/sg2_195_cif.got.tgz:389212.got - 2010.06.03 11:33:40.
