data_PCOD9078368
_publ_section_title
;
Structure prediction by ZEFSAII (Michael W. Deem and Ramdas Pophale) SiO2 
 PCOD9078368
Probable space group: P -1
;
_chemical_formula_sum "Si O2"
_cell_formula_units_Z 14
_cell_length_a 9.003089
_cell_length_b 6.981848
_cell_length_c 12.309203
_cell_angle_alpha 72.266035
_cell_angle_beta 54.748123
_cell_angle_gamma 81.036483
_cell_volume 601.625220
_symmetry_space_group_name_H-M "P -1"
_symmetry_group_IT_number 2
_symmetry_cell_setting 'triclinic'
loop_
_space_group_symop_operation_xyz
x,y,z
-x,-y,-z
loop_
_atom_site_type_symbol
_atom_site_label
_atom_site_fract_x
_atom_site_fract_y
_atom_site_fract_z
Si Si1 0.675293 0.617804 0.953154
Si Si2 0.021731 0.390821 0.341650
Si Si3 0.560224 0.852741 0.160297
Si Si4 0.678048 0.602281 0.354308
Si Si5 0.868937 0.197155 0.647548
Si Si6 0.079050 0.046603 0.774584
Si Si7 0.175782 0.779666 0.958459
O O1 0.809387 0.672715 0.789945
O O2 0.500000 0.500000 0.000000
O O3 0.618272 0.797084 0.023695
O O4 0.775621 0.448363 0.009596
O O5 0.096718 0.589966 0.340282
O O6 0.847517 0.459620 0.332821
O O7 0.954781 0.232912 0.487392
O O8 0.632865 0.675600 0.239061
O O9 0.344085 0.851438 0.261687
O O10 0.655895 0.063565 0.117179
O O11 0.500000 0.500000 0.500000
O O12 0.739886 0.816927 0.344890
O O13 0.971511 0.046609 0.709079
O O14 0.109047 0.836285 0.856888
O O15 0.968754 0.163352 0.896553
#
# Coordination Sequence:
#
# PCOD9078368 Si02
#       7
#     2   2   2   2   2   2   2
#     4  12  23  40  64  98 125 157 208 264 306 362
#     4  10  20  36  60  91 129 160 206 259 306 367
#     4  11  23  36  69  96 118 166 211 251 312 368
#     4  10  18  35  61  93 122 165 214 247 302 378
#     4  10  18  36  64  91 118 172 208 244 318 368
#     4   9  19  36  59  86 124 165 200 252 309 364
#     4  10  21  41  60  91 131 159 199 260 312 366
#
# _framework density 23.270302000000001
#
# number of rings (size 3 to 8) (size 9 to 14) (size 15 to 20)
#    0.000    1.714    5.714    0.000    0.000    2.857 
#    0.000    0.000    0.000   14.571    0.000    0.000 
#    0.000    0.000    0.000    0.000    0.000    0.000 
#
# Total GULP energy -78366.705920 kJ/mol
# GULP energy per Si atom -5597.621851 kJ/mol
# Density = 2.321734 g / cm^3
# Si number density = 23.270302 Si / 1000 Ang^3
#
#
#
# Elastic Constant Matrix: (Units=GPa)
#
#
# Indices 1 2 3 4 5 6 
#
# 1 134.8582 18.7660 77.4524 -8.6490 -0.2691 -8.0273
# 2 18.7660 64.5708 37.9404 -9.0196 5.1319 5.0961
# 3 77.4524 37.9404 193.4026 -10.4472 -8.5232 4.2843
# 4 -8.6490 -9.0196 -10.4472 23.8755 1.0560 2.6769
# 5 -0.2691 5.1319 -8.5232 1.0560 49.5836 -13.2350
# 6 -8.0273 5.0961 4.2843 2.6769 -13.2350 29.3818
#
#
#
# Elastic Compliance Matrix: (Units=1/GPa)
#
#
# Indices 1 2 3 4 5 6 
#
# 1 0.010027 -0.000781 -0.003856 0.001241 0.000379 0.003495
# 2 -0.000781 0.019243 -0.003177 0.006402 -0.004158 -0.005544
# 3 -0.003856 -0.003177 0.007458 0.000730 0.001287 -0.001077
# 4 0.001241 0.006402 0.000730 0.045948 -0.003251 -0.006528
# 5 0.000379 -0.004158 0.001287 -0.003251 0.024029 0.011757
# 6 0.003495 -0.005544 -0.001077 -0.006528 0.011757 0.041999
#
#
# Mechanical properties :
#
#
# Convention : Reuss Voigt Hill
#
# Bulk Modulus (GPa) = 47.39280 73.46106 60.42693
# Shear Modulus (GPa) = 29.17774 37.81302 33.49538
#
# Velocity S-wave (km/s) = 3.54483 4.03544 3.79806
# Velocity P-wave (km/s) = 6.09630 7.30412 6.72737
#
# Compressibility (1/GPa) = 0.02110025
#
# Stress axis : x y z
#
# Youngs Moduli (GPa) = 99.73272 51.96774 134.08474
#
# Poissons Ratio (x) = 0.04058 0.51702
# Poissons Ratio (y) = 0.07788 0.42596
# Poissons Ratio (z) = 0.38456 0.16509
#
# Static dielectric constant tensor:
#      x y z
#    x 1.905290 -0.017900 0.016260 
#    y -0.017900 1.917620 -0.009190 
#    z 0.016260 -0.009190 1.832360 
# 
# From -- ./inp_files/225219.got.cif
#   From: 2010.05.17/outbox.cif.g08.bks.cpg/sg2_113_cif.got.tgz:225219.got - 2010.06.03 11:33:40.
