data_PCOD9078989
_publ_section_title
;
Structure prediction by ZEFSAII (Michael W. Deem and Ramdas Pophale) SiO2 
 PCOD9078989
Probable space group: P -1
;
_chemical_formula_sum "Si O2"
_cell_formula_units_Z 14
_cell_length_a 7.102838
_cell_length_b 11.679856
_cell_length_c 9.764862
_cell_angle_alpha 55.457160
_cell_angle_beta 84.131217
_cell_angle_gamma 60.128243
_cell_volume 559.915078
_symmetry_space_group_name_H-M "P -1"
_symmetry_group_IT_number 2
_symmetry_cell_setting 'triclinic'
loop_
_space_group_symop_operation_xyz
x,y,z
-x,-y,-z
loop_
_atom_site_type_symbol
_atom_site_label
_atom_site_fract_x
_atom_site_fract_y
_atom_site_fract_z
Si Si1 0.362178 0.257084 0.160533
Si Si2 0.255408 0.334117 0.657249
Si Si3 0.070199 0.518349 0.810329
Si Si4 0.953192 0.270904 0.879523
Si Si5 0.462212 0.464558 0.374040
Si Si6 0.668583 0.004709 0.810800
Si Si7 0.740421 0.140042 0.437623
O O1 0.402305 0.123737 0.133611
O O2 0.581400 0.183317 0.288323
O O3 0.144137 0.309353 0.240213
O O4 0.269456 0.426885 0.968453
O O5 0.175176 0.478473 0.677602
O O6 0.299238 0.392852 0.469657
O O7 0.080235 0.275864 0.728780
O O8 0.487127 0.168053 0.791618
O O9 0.975829 0.395314 0.893611
O O10 0.692547 0.362729 0.806874
O O11 0.096492 0.094631 0.059169
O O12 0.500000 0.500000 0.500000
O O13 0.672599 0.320666 0.374307
O O14 0.675924 0.068203 0.617729
O O15 0.000000 0.000000 0.500000
#
# Coordination Sequence:
#
# PCOD9078989 Si02
#       7
#     2   2   2   2   2   2   2
#     4  10  18  36  61  86 114 148 187 238 286 342
#     4   9  19  37  59  87 114 137 194 244 283 327
#     4   8  18  33  63  86 110 140 194 237 285 322
#     4   9  18  37  60  85 112 140 188 247 283 329
#     4  11  23  40  58  80 115 161 195 227 280 348
#     4  10  21  36  62  90 112 145 193 242 292 331
#     4  11  24  42  53  85 125 155 187 234 286 350
#
# _framework density 25.003793000000002
#
# number of rings (size 3 to 8) (size 9 to 14) (size 15 to 20)
#    0.857    1.429    1.429    1.286    0.000    2.286 
#    2.571    2.143    0.000    0.000    0.000    0.000 
#    0.000    0.000    0.000    0.000    0.000    0.000 
#
# Total GULP energy -78009.873353 kJ/mol
# GULP energy per Si atom -5572.133811 kJ/mol
# Density = 2.494688 g / cm^3
# Si number density = 25.003793 Si / 1000 Ang^3
#
#
#
# Elastic Constant Matrix: (Units=GPa)
#
#
# Indices 1 2 3 4 5 6 
#
# 1 44.7315 38.2951 33.9090 -6.3413 27.1959 -8.2163
# 2 38.2951 120.0248 47.3694 -17.7849 26.2505 -21.0339
# 3 33.9090 47.3694 140.3886 -29.6771 55.3318 -12.7504
# 4 -6.3413 -17.7849 -29.6771 45.1993 -17.9813 0.3410
# 5 27.1959 26.2505 55.3318 -17.9813 51.4119 -7.0097
# 6 -8.2163 -21.0339 -12.7504 0.3410 -7.0097 31.1656
#
#
#
# Elastic Compliance Matrix: (Units=1/GPa)
#
#
# Indices 1 2 3 4 5 6 
#
# 1 0.041600 -0.009851 -0.000798 -0.005781 -0.018142 -0.000025
# 2 -0.009851 0.013236 -0.001709 0.003609 0.002391 0.006135
# 3 -0.000798 -0.001709 0.013334 0.003302 -0.011707 0.001422
# 4 -0.005781 0.003609 0.003302 0.028049 0.007983 0.003751
# 5 -0.018142 0.002391 -0.011707 0.007983 0.043454 0.001727
# 6 -0.000025 0.006135 0.001422 0.003751 0.001727 0.037150
#
#
# Mechanical properties :
#
#
# Convention : Reuss Voigt Hill
#
# Bulk Modulus (GPa) = 23.01253 60.47688 41.74470
# Shear Modulus (GPa) = 23.14561 37.92677 30.53619
#
# Velocity S-wave (km/s) = 3.04581 3.89889 3.49845
# Velocity P-wave (km/s) = 4.64681 6.67143 5.74895
#
# Compressibility (1/GPa) = 0.04345459
#
# Stress axis : x y z
#
# Youngs Moduli (GPa) = 24.03831 75.55038 74.99796
#
# Poissons Ratio (x) = 0.74426 0.05984
# Poissons Ratio (y) = 0.23681 0.12816
# Poissons Ratio (z) = 0.01918 0.12910
#
# Static dielectric constant tensor:
#      x y z
#    x 2.248530 -0.034580 -0.046820 
#    y -0.034580 2.012860 -0.013420 
#    z -0.046820 -0.013420 1.984050 
# 
# From -- ./inp_files/393986.got.cif
#   From: 2010.05.17/outbox.cif.g08.bks.cpg/sg2_197_cif.got.tgz:393986.got - 2010.06.03 11:33:40.
