data_PCOD9078313
_publ_section_title
;
Structure prediction by ZEFSAII (Michael W. Deem and Ramdas Pophale) SiO2 
 PCOD9078313
Probable space group: P -1
;
_chemical_formula_sum "Si O2"
_cell_formula_units_Z 14
_cell_length_a 11.060375
_cell_length_b 7.408047
_cell_length_c 15.742341
_cell_angle_alpha 46.794702
_cell_angle_beta 134.778596
_cell_angle_gamma 103.267241
_cell_volume 582.344858
_symmetry_space_group_name_H-M "P -1"
_symmetry_group_IT_number 2
_symmetry_cell_setting 'triclinic'
loop_
_space_group_symop_operation_xyz
x,y,z
-x,-y,-z
loop_
_atom_site_type_symbol
_atom_site_label
_atom_site_fract_x
_atom_site_fract_y
_atom_site_fract_z
Si Si1 0.248829 0.173205 0.141776
Si Si2 0.362202 0.330494 0.490744
Si Si3 0.295400 0.584313 0.914799
Si Si4 0.879183 0.945532 0.588548
Si Si5 0.175282 0.455122 0.187242
Si Si6 0.287107 0.088887 0.829759
Si Si7 0.850475 0.447564 0.521659
O O1 0.274589 0.328391 0.188245
O O2 0.409176 0.850437 0.327212
O O3 0.285855 0.313903 0.032012
O O4 0.024044 0.250270 0.011526
O O5 0.310184 0.449958 0.331303
O O6 0.254178 0.537544 0.447489
O O7 0.280409 0.099952 0.526497
O O8 0.279819 0.798661 0.912529
O O9 0.500000 0.500000 0.000000
O O10 0.090841 0.779969 0.701804
O O11 0.831786 0.248471 0.503873
O O12 0.896168 0.761829 0.741367
O O13 0.253813 0.239781 0.672494
O O14 0.081896 0.316294 0.697735
O O15 0.500000 0.000000 0.000000
#
# Coordination Sequence:
#
# PCOD9078313 Si02
#       7
#     2   2   2   2   2   2   2
#     4  10  18  35  61  84 113 149 186 238 283 331
#     4  10  20  34  63  82 109 152 188 227 289 339
#     4  10  20  35  56  85 112 147 198 226 276 346
#     4   8  20  37  56  84 116 145 184 240 281 328
#     4   8  19  36  60  85 112 144 190 235 283 337
#     4  10  23  36  54  79 115 158 184 234 282 325
#     4  10  21  40  52  83 121 141 193 238 271 339
#
# _framework density 24.040738000000001
#
# number of rings (size 3 to 8) (size 9 to 14) (size 15 to 20)
#    0.857    1.714    0.000    1.286    4.000    1.143 
#    0.000    3.571    0.000    8.571    0.000    0.000 
#    0.000    0.000    0.000    0.000    0.000    0.000 
#
# Total GULP energy -78096.393784 kJ/mol
# GULP energy per Si atom -5578.313842 kJ/mol
# Density = 2.398602 g / cm^3
# Si number density = 24.040738 Si / 1000 Ang^3
#
#
#
# Elastic Constant Matrix: (Units=GPa)
#
#
# Indices 1 2 3 4 5 6 
#
# 1 35.3909 -4.9112 10.5620 -23.2902 0.3344 9.1298
# 2 -4.9112 72.0631 20.2362 -6.7640 4.2150 14.8389
# 3 10.5620 20.2362 119.0660 -0.5718 12.3754 -4.4007
# 4 -23.2902 -6.7640 -0.5718 -1.7872 -12.1193 17.0495
# 5 0.3344 4.2150 12.3754 -12.1193 23.2159 5.4216
# 6 9.1298 14.8389 -4.4007 17.0495 5.4216 30.6149
#
#
#
# Elastic Compliance Matrix: (Units=1/GPa)
#
#
# Indices 1 2 3 4 5 6 
#
# 1 0.014118 -0.001944 0.000490 -0.017632 -0.011331 0.008628
# 2 -0.001944 0.014161 -0.001795 -0.007418 -0.005107 -0.001506
# 3 0.000490 -0.001795 0.008846 0.004934 -0.001716 -0.000449
# 4 -0.017632 -0.007418 0.004934 -0.015174 -0.013724 0.020444
# 5 -0.011331 -0.005107 -0.001716 -0.013724 0.036322 0.006819
# 6 0.008628 -0.001506 -0.000449 0.020444 0.006819 0.018164
#
#
# Mechanical properties :
#
#
# Convention : Reuss Voigt Hill
#
# Bulk Modulus (GPa) = 32.65165 30.92155 31.78660
# Shear Modulus (GPa) = 53.68042 23.78425 38.73233
#
# Velocity S-wave (km/s) = 4.73048 3.14878 4.01822
# Velocity P-wave (km/s) = 6.59150 5.10977 5.89736
#
# Compressibility (1/GPa) = 0.03062633
#
# Stress axis : x y z
#
# Youngs Moduli (GPa) = 70.83188 70.61761 113.04868
#
# Poissons Ratio (x) = 0.13730 -0.05539
# Poissons Ratio (y) = 0.13772 0.20289
# Poissons Ratio (z) = -0.03471 0.12674
#
# Static dielectric constant tensor:
#      x y z
#    x 1.939210 0.040240 0.002010 
#    y 0.040240 1.927170 0.008310 
#    z 0.002010 0.008310 1.951860 
# 
# From -- ./inp_files/565199.got.cif
#   From: 2010.05.17/outbox.cif.g08.bks.cpg/sg2_283_cif.got.tgz:565199.got - 2010.06.03 11:33:40.
