data_PCOD9078337
_publ_section_title
;
Structure prediction by ZEFSAII (Michael W. Deem and Ramdas Pophale) SiO2 
 PCOD9078337
Probable space group: P -1
;
_chemical_formula_sum "Si O2"
_cell_formula_units_Z 14
_cell_length_a 24.118326
_cell_length_b 11.447322
_cell_length_c 11.532114
_cell_angle_alpha 35.521673
_cell_angle_beta 148.984241
_cell_angle_gamma 161.301112
_cell_volume 525.919102
_symmetry_space_group_name_H-M "P -1"
_symmetry_group_IT_number 2
_symmetry_cell_setting 'triclinic'
loop_
_space_group_symop_operation_xyz
x,y,z
-x,-y,-z
loop_
_atom_site_type_symbol
_atom_site_label
_atom_site_fract_x
_atom_site_fract_y
_atom_site_fract_z
Si Si1 0.626734 0.129004 0.017105
Si Si2 0.720918 0.819447 0.385045
Si Si3 0.333558 0.700199 0.293491
Si Si4 0.769854 0.168006 0.819629
Si Si5 0.863257 0.960639 0.009530
Si Si6 0.079774 0.277214 0.519952
Si Si7 0.939688 0.191226 0.702615
O O1 0.843555 0.548981 0.096044
O O2 0.626915 0.888254 0.188712
O O3 0.567482 0.129599 0.789667
O O4 0.500000 0.000000 0.000000
O O5 0.630173 0.469128 0.459327
O O6 0.809685 0.895135 0.608385
O O7 0.900005 0.130591 0.365055
O O8 0.359626 0.940464 0.222773
O O9 0.096944 0.346085 0.137959
O O10 0.774095 0.350877 0.584455
O O11 0.735970 0.905249 0.908911
O O12 0.000000 0.500000 0.000000
O O13 0.836250 0.701995 0.231939
O O14 0.836017 0.996195 0.799493
O O15 0.000000 0.000000 0.500000
O O16 0.000000 0.500000 0.500000
#
# Coordination Sequence:
#
# PCOD9078337 Si02
#       7
#     2   2   2   2   2   2   2
#     4  10  21  34  50  74 103 139 177 208 249 301
#     4  10  19  33  53  76 110 127 168 214 258 311
#     4   9  18  28  47  73 101 134 162 205 264 289
#     4  10  15  26  42  68 107 128 159 205 256 311
#     4   9  18  27  45  73 106 131 164 203 264 307
#     4  11  17  26  46  80 108 131 158 210 275 303
#     4   9  18  35  53  75 107 138 167 213 264 303
#
# _framework density 26.620062999999998
#
# number of rings (size 3 to 8) (size 9 to 14) (size 15 to 20)
#    0.000    2.286    4.286    3.429    0.000    5.714 
#    0.000    0.000    0.000    0.000    0.000   10.000 
#    0.000    0.571    0.000    0.000    0.000    0.000 
#
# Total GULP energy -78181.383080 kJ/mol
# GULP energy per Si atom -5584.384506 kJ/mol
# Density = 2.655947 g / cm^3
# Si number density = 26.620063 Si / 1000 Ang^3
#
#
#
# Elastic Constant Matrix: (Units=GPa)
#
#
# Indices 1 2 3 4 5 6 
#
# 1 163.4055 11.4707 31.3128 -10.6865 15.4415 21.6315
# 2 11.4707 46.6431 5.7176 -1.6545 -6.4912 -11.5612
# 3 31.3128 5.7176 105.9515 -14.0152 -0.5507 0.3373
# 4 -10.6865 -1.6545 -14.0152 41.8238 0.1915 -4.7350
# 5 15.4415 -6.4912 -0.5507 0.1915 64.0214 -1.7216
# 6 21.6315 -11.5612 0.3373 -4.7350 -1.7216 47.5151
#
#
#
# Elastic Compliance Matrix: (Units=1/GPa)
#
#
# Indices 1 2 3 4 5 6 
#
# 1 0.007503 -0.002913 -0.001968 0.000686 -0.002235 -0.004123
# 2 -0.002913 0.024568 -0.000346 0.000948 0.003390 0.007524
# 3 -0.001968 -0.000346 0.010449 0.003103 0.000549 0.001067
# 4 0.000686 0.000948 0.003103 0.025438 -0.000053 0.002429
# 5 -0.002235 0.003390 0.000549 -0.000053 0.016573 0.002434
# 6 -0.004123 0.007524 0.001067 0.002429 0.002434 0.025076
#
#
# Mechanical properties :
#
#
# Convention : Reuss Voigt Hill
#
# Bulk Modulus (GPa) = 31.18500 45.88915 38.53708
# Shear Modulus (GPa) = 38.24110 48.50533 43.37321
#
# Velocity S-wave (km/s) = 3.79430 4.27328 4.04089
# Velocity P-wave (km/s) = 5.56200 6.45165 6.02328
#
# Compressibility (1/GPa) = 0.03206670
#
# Stress axis : x y z
#
# Youngs Moduli (GPa) = 133.27594 40.70272 95.70746
#
# Poissons Ratio (x) = 0.11855 0.18836
# Poissons Ratio (y) = 0.38819 0.03311
# Poissons Ratio (z) = 0.26230 0.01408
#
# Static dielectric constant tensor:
#      x y z
#    x 2.078050 -0.083740 -0.010530 
#    y -0.083740 2.330710 0.043820 
#    z -0.010530 0.043820 2.131470 
# 
# From -- ./inp_files/470294.got.cif
#   From: 2010.05.17/outbox.cif.g08.bks.cpg/sg2_236_cif.got.tgz:470294.got - 2010.06.03 11:33:40.
