data_PCOD9078012
_publ_section_title
;
Structure prediction by ZEFSAII (Michael W. Deem and Ramdas Pophale) SiO2 
 PCOD9078012
Probable space group: P -1
;
_chemical_formula_sum "Si O2"
_cell_formula_units_Z 16
_cell_length_a 24.674709
_cell_length_b 10.104498
_cell_length_c 9.459423
_cell_angle_alpha 40.732916
_cell_angle_beta 28.857925
_cell_angle_gamma 30.105832
_cell_volume 570.966489
_symmetry_space_group_name_H-M "P -1"
_symmetry_group_IT_number 2
_symmetry_cell_setting 'triclinic'
loop_
_space_group_symop_operation_xyz
x,y,z
-x,-y,-z
loop_
_atom_site_type_symbol
_atom_site_label
_atom_site_fract_x
_atom_site_fract_y
_atom_site_fract_z
Si Si1 0.660448 0.912580 0.208915
Si Si2 0.039160 0.540391 0.221061
Si Si3 0.054484 0.769842 0.384891
Si Si4 0.329782 0.283686 0.052219
Si Si5 0.607177 0.181193 0.384274
Si Si6 0.737142 0.253755 0.620708
Si Si7 0.316529 0.507384 0.177778
Si Si8 0.247286 0.921668 0.565571
O O1 0.790968 0.635602 0.061076
O O2 0.500000 0.000000 0.500000
O O3 0.694425 0.937524 0.273572
O O4 0.666064 0.125265 0.944379
O O5 0.988463 0.414318 0.335556
O O6 0.927706 0.851287 0.202334
O O7 0.000000 0.500000 0.500000
O O8 0.183255 0.587800 0.122207
O O9 0.148935 0.750649 0.313563
O O10 0.909055 0.034296 0.443245
O O11 0.458306 0.240148 0.711673
O O12 0.355922 0.279263 0.167049
O O13 0.301225 0.082065 0.254563
O O14 0.587148 0.417173 0.158121
O O15 0.684227 0.158638 0.371036
O O16 0.720036 0.270363 0.479414
O O17 0.677945 0.496994 0.663240
#
# Coordination Sequence:
#
# PCOD9078012 Si02
#       8
#     2   2   2   2   2   2   2   2
#     4  10  21  33  58  87 117 146 195 243 281 335
#     4  10  18  36  61  86 108 156 201 231 274 356
#     4   8  17  30  60  79  99 147 207 228 258 340
#     4   9  20  35  58  81 112 159 196 226 284 357
#     4  11  22  35  53  91 122 143 185 253 301 321
#     4  10  18  35  57  86 106 153 200 231 276 355
#     4   9  20  35  58  81 109 152 202 236 278 338
#     4  11  21  35  61  84 118 150 191 241 292 342
#
# _framework density 28.022660999999999
#
# number of rings (size 3 to 8) (size 9 to 14) (size 15 to 20)
#    0.750    1.500    2.500    1.875    1.750    0.500 
#    0.000    1.250    0.000    4.500    0.000    0.000 
#    0.000    0.000    0.000    0.000    0.000    0.000 
#
# Total GULP energy -89589.028667 kJ/mol
# GULP energy per Si atom -5599.314292 kJ/mol
# Density = 2.795888 g / cm^3
# Si number density = 28.022661 Si / 1000 Ang^3
#
#
#
# Elastic Constant Matrix: (Units=GPa)
#
#
# Indices 1 2 3 4 5 6 
#
# 1 178.0673 72.7272 69.5694 33.1675 13.3670 25.5990
# 2 72.7272 97.8750 48.0796 15.0502 4.1434 28.1457
# 3 69.5694 48.0796 174.8361 22.0076 -14.5812 8.3784
# 4 33.1675 15.0502 22.0076 48.0446 7.5635 -2.8021
# 5 13.3670 4.1434 -14.5812 7.5635 55.5644 16.4407
# 6 25.5990 28.1457 8.3784 -2.8021 16.4407 64.2095
#
#
#
# Elastic Compliance Matrix: (Units=1/GPa)
#
#
# Indices 1 2 3 4 5 6 
#
# 1 0.009446 -0.005104 -0.001953 -0.003840 -0.001575 -0.001038
# 2 -0.005104 0.016709 -0.002043 -0.001280 0.001215 -0.005390
# 3 -0.001953 -0.002043 0.007552 -0.001937 0.002909 -0.000140
# 4 -0.003840 -0.001280 -0.001937 0.025704 -0.004343 0.004579
# 5 -0.001575 0.001215 0.002909 -0.004343 0.021402 -0.005954
# 6 -0.001038 -0.005390 -0.000140 0.004579 -0.005954 0.020093
#
#
# Mechanical properties :
#
#
# Convention : Reuss Voigt Hill
#
# Bulk Modulus (GPa) = 64.49133 92.39231 78.44182
# Shear Modulus (GPa) = 40.23326 50.92384 45.57855
#
# Velocity S-wave (km/s) = 3.79323 4.26753 4.03735
# Velocity P-wave (km/s) = 6.49990 7.57130 7.05597
#
# Compressibility (1/GPa) = 0.01550596
#
# Stress axis : x y z
#
# Youngs Moduli (GPa) = 105.86064 59.84947 132.41551
#
# Poissons Ratio (x) = 0.30546 0.25866
# Poissons Ratio (y) = 0.54030 0.27055
# Poissons Ratio (z) = 0.20679 0.12229
#
# Static dielectric constant tensor:
#      x y z
#    x 2.174340 -0.019420 -0.022220 
#    y -0.019420 2.226960 -0.002770 
#    z -0.022220 -0.002770 2.186890 
# 
# From -- ./inp_files/328580.got.cif
#   From: 2010.05.17/outbox.cif.g08.bks.cpg/sg2_165_cif.got.tgz:328580.got - 2010.06.03 11:33:40.
