data_PCOD9078307
_publ_section_title
;
Structure prediction by ZEFSAII (Michael W. Deem and Ramdas Pophale) SiO2 
 PCOD9078307
Probable space group: P -1
;
_chemical_formula_sum "Si O2"
_cell_formula_units_Z 14
_cell_length_a 14.000916
_cell_length_b 28.090093
_cell_length_c 8.770895
_cell_angle_alpha 149.026684
_cell_angle_beta 40.078237
_cell_angle_gamma 159.993802
_cell_volume 591.059858
_symmetry_space_group_name_H-M "P -1"
_symmetry_group_IT_number 2
_symmetry_cell_setting 'triclinic'
loop_
_space_group_symop_operation_xyz
x,y,z
-x,-y,-z
loop_
_atom_site_type_symbol
_atom_site_label
_atom_site_fract_x
_atom_site_fract_y
_atom_site_fract_z
Si Si1 0.479165 0.392707 0.029096
Si Si2 0.923925 0.051044 0.636499
Si Si3 0.341917 0.719192 0.572471
Si Si4 0.266764 0.059647 0.762940
Si Si5 0.216539 0.629063 0.826851
Si Si6 0.856110 0.754829 0.672787
Si Si7 0.306307 0.858625 0.486987
O O1 0.694800 0.593117 0.321961
O O2 0.367511 0.322217 0.146576
O O3 0.610242 0.365830 0.740200
O O4 0.199758 0.261819 0.905733
O O5 0.614061 0.914935 0.705864
O O6 0.889242 0.001103 0.368517
O O7 0.000000 0.000000 0.500000
O O8 0.317420 0.717855 0.780132
O O9 0.044164 0.578578 0.460735
O O10 0.448991 0.063454 0.502947
O O11 0.511924 0.253779 0.077849
O O12 0.040385 0.915677 0.776084
O O13 0.117485 0.669113 0.145067
O O14 0.083457 0.820645 0.683141
O O15 0.500000 0.000000 0.500000
#
# Coordination Sequence:
#
# PCOD9078307 Si02
#       7
#     2   2   2   2   2   2   2
#     4  10  20  34  55  82 113 145 179 228 279 327
#     4  10  22  37  53  78 117 148 184 233 270 326
#     4  10  19  35  54  84 110 145 179 232 277 326
#     4   9  19  36  58  82 107 147 189 227 274 329
#     4   9  18  33  60  79 107 143 188 225 281 327
#     4  10  18  35  61  80 109 145 185 223 283 336
#     4   8  16  32  59  81 101 141 183 229 268 333
#
# _framework density 23.686264000000001
#
# number of rings (size 3 to 8) (size 9 to 14) (size 15 to 20)
#    0.857    1.714    1.429    0.857    0.000    1.143 
#    0.000   12.143    0.000    6.857    0.000    0.000 
#    0.000    0.000    0.000    0.000    0.000    0.000 
#
# Total GULP energy -78008.696889 kJ/mol
# GULP energy per Si atom -5572.049778 kJ/mol
# Density = 2.363235 g / cm^3
# Si number density = 23.686264 Si / 1000 Ang^3
#
#
#
# Elastic Constant Matrix: (Units=GPa)
#
#
# Indices 1 2 3 4 5 6 
#
# 1 79.9501 15.2410 32.7377 -0.7882 33.5198 5.2221
# 2 15.2410 84.1132 26.3619 14.8384 16.7477 10.5969
# 3 32.7377 26.3619 100.7822 26.4306 30.6423 5.1336
# 4 -0.7882 14.8384 26.4306 49.3296 11.3697 9.5366
# 5 33.5198 16.7477 30.6423 11.3697 37.2109 2.5267
# 6 5.2221 10.5969 5.1336 9.5366 2.5267 10.4767
#
#
#
# Elastic Compliance Matrix: (Units=1/GPa)
#
#
# Indices 1 2 3 4 5 6 
#
# 1 0.023407 0.001123 -0.003316 0.009451 -0.020745 -0.014778
# 2 0.001123 0.015066 -0.002141 0.000545 -0.005246 -0.013981
# 3 -0.003316 -0.002141 0.015184 -0.006797 -0.006761 0.004197
# 4 0.009451 0.000545 -0.006797 0.031910 -0.010988 -0.028329
# 5 -0.020745 -0.005246 -0.006761 -0.010988 0.055794 0.015506
# 6 -0.014778 -0.013981 0.004197 -0.028329 0.015506 0.136948
#
#
# Mechanical properties :
#
#
# Convention : Reuss Voigt Hill
#
# Bulk Modulus (GPa) = 22.22764 45.94741 34.08753
# Shear Modulus (GPa) = 16.55767 32.10377 24.33072
#
# Velocity S-wave (km/s) = 2.64681 3.68554 3.20849
# Velocity P-wave (km/s) = 4.32959 6.12792 5.30550
#
# Compressibility (1/GPa) = 0.04498902
#
# Stress axis : x y z
#
# Youngs Moduli (GPa) = 42.72172 66.37399 65.85781
#
# Poissons Ratio (x) = -0.07453 0.21837
# Poissons Ratio (y) = -0.04797 0.14103
# Poissons Ratio (z) = 0.14166 0.14214
#
# Static dielectric constant tensor:
#      x y z
#    x 1.975060 0.099210 -0.041800 
#    y 0.099210 1.956780 0.016390 
#    z -0.041800 0.016390 1.936600 
# 
# From -- ./inp_files/320886.got.cif
#   From: 2010.05.17/outbox.cif.g08.bks.cpg/sg2_161_cif.got.tgz:320886.got - 2010.06.03 11:33:40.
