data_PCOD9078242
_publ_section_title
;
Structure prediction by ZEFSAII (Michael W. Deem and Ramdas Pophale) SiO2 
 PCOD9078242
Probable space group: P -1
;
_chemical_formula_sum "Si O2"
_cell_formula_units_Z 14
_cell_length_a 10.930613
_cell_length_b 7.223870
_cell_length_c 9.195479
_cell_angle_alpha 121.804385
_cell_angle_beta 119.320855
_cell_angle_gamma 73.523405
_cell_volume 537.695441
_symmetry_space_group_name_H-M "P -1"
_symmetry_group_IT_number 2
_symmetry_cell_setting 'triclinic'
loop_
_space_group_symop_operation_xyz
x,y,z
-x,-y,-z
loop_
_atom_site_type_symbol
_atom_site_label
_atom_site_fract_x
_atom_site_fract_y
_atom_site_fract_z
Si Si1 0.694036 0.572464 0.527217
Si Si2 0.877361 0.063415 0.631056
Si Si3 0.463596 0.170649 0.918449
Si Si4 0.035021 0.226903 0.189029
Si Si5 0.171273 0.124054 0.796240
Si Si6 0.758145 0.317089 0.174307
Si Si7 0.583577 0.182692 0.495626
O O1 0.821343 0.667818 0.734539
O O2 0.759098 0.472143 0.377880
O O3 0.626313 0.373960 0.489758
O O4 0.563874 0.739684 0.488851
O O5 0.730498 0.145203 0.650295
O O6 0.013999 0.211175 0.778407
O O7 0.924925 0.845837 0.653171
O O8 0.847510 0.002349 0.421431
O O9 0.308875 0.264938 0.912479
O O10 0.446433 0.026841 0.705548
O O11 0.596114 0.318471 0.034157
O O12 0.500000 0.000000 0.000000
O O13 0.889438 0.364750 0.167694
O O14 0.000000 0.000000 0.000000
O O15 0.211586 0.932991 0.856229
#
# Coordination Sequence:
#
# PCOD9078242 Si02
#       7
#     2   2   2   2   2   2   2
#     4  11  21  36  56  87 113 144 186 229 283 327
#     4   9  17  35  56  80 110 148 189 224 271 332
#     4   9  14  29  55  86 104 138 182 228 263 325
#     4  11  24  38  57  81 113 151 188 227 281 336
#     4   8  15  29  58  85 105 140 192 223 267 325
#     4  10  18  35  60  85 111 144 186 231 274 329
#     4  10  20  35  60  84 113 145 188 231 271 330
#
# _framework density 26.037046
#
# number of rings (size 3 to 8) (size 9 to 14) (size 15 to 20)
#    0.000    2.286    4.286    1.286    0.000    0.571 
#    0.000    0.714    0.000    4.286    0.000    0.000 
#    0.000    0.000    0.000    0.000    0.000    0.000 
#
# Total GULP energy -78205.101587 kJ/mol
# GULP energy per Si atom -5586.078685 kJ/mol
# Density = 2.597778 g / cm^3
# Si number density = 26.037046 Si / 1000 Ang^3
#
#
#
# Elastic Constant Matrix: (Units=GPa)
#
#
# Indices 1 2 3 4 5 6 
#
# 1 149.5348 43.7062 51.8919 3.4572 42.3256 -28.8018
# 2 43.7062 59.9200 22.3273 -19.0800 19.9689 -10.1971
# 3 51.8919 22.3273 103.3995 8.8228 41.9933 -6.3951
# 4 3.4572 -19.0800 8.8228 27.1521 -7.7742 11.6277
# 5 42.3256 19.9689 41.9933 -7.7742 48.2656 -10.2484
# 6 -28.8018 -10.1971 -6.3951 11.6277 -10.2484 49.8090
#
#
#
# Elastic Compliance Matrix: (Units=1/GPa)
#
#
# Indices 1 2 3 4 5 6 
#
# 1 0.014329 -0.011534 0.001175 -0.016504 -0.009793 0.007913
# 2 -0.011534 0.035422 -0.007576 0.033523 0.005967 -0.006989
# 3 0.001175 -0.007576 0.019259 -0.017542 -0.017011 0.002196
# 4 -0.016504 0.033523 -0.017542 0.083670 0.025251 -0.019269
# 5 -0.009793 0.005967 -0.017011 0.025251 0.045014 -0.003259
# 6 0.007913 -0.006989 0.002196 -0.019269 -0.003259 0.027331
#
#
# Mechanical properties :
#
#
# Convention : Reuss Voigt Hill
#
# Bulk Modulus (GPa) = 30.17671 60.96724 45.57198
# Shear Modulus (GPa) = 18.38633 38.04058 28.21345
#
# Velocity S-wave (km/s) = 2.66025 3.82647 3.29536
# Velocity P-wave (km/s) = 4.58814 6.55659 5.65862
#
# Compressibility (1/GPa) = 0.03313814
#
# Stress axis : x y z
#
# Youngs Moduli (GPa) = 69.79082 28.23138 51.92362
#
# Poissons Ratio (x) = 0.32562 -0.06099
# Poissons Ratio (y) = 0.80496 0.39338
# Poissons Ratio (z) = -0.08197 0.21389
#
# Static dielectric constant tensor:
#      x y z
#    x 2.259520 -0.002920 0.057350 
#    y -0.002920 2.109170 -0.055040 
#    z 0.057350 -0.055040 2.025170 
# 
# From -- ./inp_files/175472.got.cif
#   From: 2010.05.17/outbox.cif.g08.bks.cpg/sg2_88_cif.got.tgz:175472.got - 2010.06.03 11:33:40.
