data_PCOD9078979
_publ_section_title
;
Structure prediction by ZEFSAII (Michael W. Deem and Ramdas Pophale) SiO2 
 PCOD9078979
Probable space group: P -1
;
_chemical_formula_sum "Si O2"
_cell_formula_units_Z 14
_cell_length_a 7.453214
_cell_length_b 10.738632
_cell_length_c 20.205341
_cell_angle_alpha 142.905621
_cell_angle_beta 67.447120
_cell_angle_gamma 85.538629
_cell_volume 652.950746
_symmetry_space_group_name_H-M "P -1"
_symmetry_group_IT_number 2
_symmetry_cell_setting 'triclinic'
loop_
_space_group_symop_operation_xyz
x,y,z
-x,-y,-z
loop_
_atom_site_type_symbol
_atom_site_label
_atom_site_fract_x
_atom_site_fract_y
_atom_site_fract_z
Si Si1 0.749345 0.209221 0.672759
Si Si2 0.011706 0.711443 0.891366
Si Si3 0.321668 0.848774 0.973935
Si Si4 0.978206 0.247069 0.455511
Si Si5 0.985082 0.702463 0.680004
Si Si6 0.441058 0.431605 0.590753
Si Si7 0.643510 0.857120 0.348833
O O1 0.602086 0.531180 0.813092
O O2 0.528221 0.196156 0.683683
O O3 0.000000 0.000000 0.500000
O O4 0.871023 0.056222 0.661220
O O5 0.108147 0.820012 0.974052
O O6 0.228745 0.562728 0.736850
O O7 0.065603 0.452461 0.808296
O O8 0.730078 0.967424 0.004845
O O9 0.231814 0.039494 0.131689
O O10 0.019588 0.429970 0.567016
O O11 0.660083 0.439941 0.580976
O O12 0.068789 0.213961 0.353382
O O13 0.263576 0.596069 0.621053
O O14 0.609867 0.096185 0.417697
O O15 0.500000 0.000000 0.500000
#
# Coordination Sequence:
#
# PCOD9078979 Si02
#       7
#     2   2   2   2   2   2   2
#     4  11  21  36  59  89 115 150 195 245 291 351
#     4   8  16  31  58  86 112 154 191 232 293 351
#     4   9  18  35  57  82 120 154 187 243 296 330
#     4  11  22  37  61  88 116 151 207 233 279 354
#     4  10  22  39  60  85 116 160 195 239 284 339
#     4  10  18  36  61  84 115 154 195 238 287 343
#     4   9  16  30  56  83 114 149 186 232 288 345
#
# _framework density 21.441127000000002
#
# number of rings (size 3 to 8) (size 9 to 14) (size 15 to 20)
#    0.000    2.286    1.429    3.000    0.000    0.571 
#    0.000    2.857   22.000    3.429    0.000    0.000 
#    0.000    0.000    0.000    0.000    0.000    0.000 
#
# Total GULP energy -78117.428796 kJ/mol
# GULP energy per Si atom -5579.816343 kJ/mol
# Density = 2.139233 g / cm^3
# Si number density = 21.441127 Si / 1000 Ang^3
#
#
#
# Elastic Constant Matrix: (Units=GPa)
#
#
# Indices 1 2 3 4 5 6 
#
# 1 63.5676 11.7241 25.1556 0.3417 -9.8445 -16.4780
# 2 11.7241 78.1669 61.0338 28.0394 -0.2008 -16.0399
# 3 25.1556 61.0338 134.6970 34.8442 5.1722 -14.5337
# 4 0.3417 28.0394 34.8442 38.7811 -9.0143 -1.7415
# 5 -9.8445 -0.2008 5.1722 -9.0143 22.9707 0.5841
# 6 -16.4780 -16.0399 -14.5337 -1.7415 0.5841 26.4096
#
#
#
# Elastic Compliance Matrix: (Units=1/GPa)
#
#
# Indices 1 2 3 4 5 6 
#
# 1 0.023343 0.000647 -0.006227 0.008840 0.014581 0.011791
# 2 0.000647 0.024490 -0.006938 -0.011644 -0.002789 0.010753
# 3 -0.006227 -0.006938 0.014837 -0.010659 -0.010243 -0.000410
# 4 0.008840 -0.011644 -0.010659 0.049444 0.025610 -0.004728
# 5 0.014581 -0.002789 -0.010243 0.025610 0.062062 0.002083
# 6 0.011791 0.010753 -0.000410 -0.004728 0.002083 0.051169
#
#
# Mechanical properties :
#
#
# Convention : Reuss Voigt Hill
#
# Bulk Modulus (GPa) = 26.57209 52.47319 39.52264
# Shear Modulus (GPa) = 19.01675 29.53349 24.27512
#
# Velocity S-wave (km/s) = 2.98137 3.71539 3.36843
# Velocity P-wave (km/s) = 4.92660 6.55223 5.79669
#
# Compressibility (1/GPa) = 0.03763347
#
# Stress axis : x y z
#
# Youngs Moduli (GPa) = 42.83865 40.83360 67.39830
#
# Poissons Ratio (x) = -0.02642 0.41970
# Poissons Ratio (y) = -0.02771 0.46762
# Poissons Ratio (z) = 0.26676 0.28331
#
# Static dielectric constant tensor:
#      x y z
#    x 1.816830 -0.007090 0.009250 
#    y -0.007090 1.811910 0.052570 
#    z 0.009250 0.052570 1.793100 
# 
# From -- ./inp_files/588471.got.cif
#   From: 2010.05.17/outbox.cif.g08.bks.cpg/sg2_295_cif.got.tgz:588471.got - 2010.06.03 11:33:40.
