data_PCOD9078967
_publ_section_title
;
Structure prediction by ZEFSAII (Michael W. Deem and Ramdas Pophale) SiO2 
 PCOD9078967
Probable space group: P -1
;
_chemical_formula_sum "Si O2"
_cell_formula_units_Z 16
_cell_length_a 12.363966
_cell_length_b 14.588179
_cell_length_c 14.725847
_cell_angle_alpha 42.066520
_cell_angle_beta 28.831422
_cell_angle_gamma 49.836907
_cell_volume 858.039293
_symmetry_space_group_name_H-M "P -1"
_symmetry_group_IT_number 2
_symmetry_cell_setting 'triclinic'
loop_
_space_group_symop_operation_xyz
x,y,z
-x,-y,-z
loop_
_atom_site_type_symbol
_atom_site_label
_atom_site_fract_x
_atom_site_fract_y
_atom_site_fract_z
Si Si1 0.744557 0.497827 0.655584
Si Si2 0.506661 0.225758 0.314852
Si Si3 0.692594 0.697545 0.180421
Si Si4 0.453013 0.086459 0.738266
Si Si5 0.141357 0.131689 0.771528
Si Si6 0.680040 0.215441 0.993050
Si Si7 0.441045 0.477657 0.420221
Si Si8 0.788064 0.250370 0.265940
O O1 0.610518 0.626910 0.698157
O O2 0.721789 0.509851 0.554898
O O3 0.000000 0.500000 0.500000
O O4 0.626627 0.355416 0.878686
O O5 0.322250 0.118753 0.568543
O O6 0.570911 0.202336 0.182099
O O7 0.711292 0.225640 0.236088
O O8 0.587142 0.836545 0.194802
O O9 0.545610 0.623285 0.266119
O O10 0.678474 0.590927 0.354111
O O11 0.947863 0.724318 0.943640
O O12 0.286204 0.161002 0.733184
O O13 0.694463 0.124523 0.489179
O O14 0.386858 0.926299 0.903977
O O15 0.946917 0.226685 0.808840
O O16 0.000000 0.000000 0.000000
O O17 0.647818 0.380363 0.310078
#
# Coordination Sequence:
#
# PCOD9078967 Si02
#       8
#     2   2   2   2   2   2   2   2
#     4  11  22  38  55  76 112 142 181 226 265 322
#     4  10  20  33  52  80 104 146 183 212 271 324
#     4  10  18  36  61  79 108 138 175 227 275 308
#     4   9  20  32  50  83 108 137 182 217 263 323
#     4   9  18  32  50  78 112 139 175 219 264 314
#     4  11  21  34  52  74 114 148 176 221 266 320
#     4   9  21  36  56  86 104 137 184 221 265 323
#     4   9  18  32  56  80 109 134 175 228 267 311
#
# _framework density 18.647164
#
# number of rings (size 3 to 8) (size 9 to 14) (size 15 to 20)
#    0.000    2.250    1.250    2.250    1.750    6.500 
#    0.000    0.625    0.000    0.750    0.000    0.000 
#    0.000    0.000    0.000    0.000    0.000    0.000 
#
# Total GULP energy -89197.134031 kJ/mol
# GULP energy per Si atom -5574.820877 kJ/mol
# Density = 1.860472 g / cm^3
# Si number density = 18.647164 Si / 1000 Ang^3
#
#
#
# Elastic Constant Matrix: (Units=GPa)
#
#
# Indices 1 2 3 4 5 6 
#
# 1 55.0625 20.1343 21.8348 0.0715 -9.5172 13.7740
# 2 20.1343 63.8294 32.0582 -16.4621 -6.8276 14.4311
# 3 21.8348 32.0582 108.8170 -8.3469 -15.1843 4.8378
# 4 0.0715 -16.4621 -8.3469 28.6862 -2.4024 -1.9952
# 5 -9.5172 -6.8276 -15.1843 -2.4024 26.0294 -4.4654
# 6 13.7740 14.4311 4.8378 -1.9952 -4.4654 27.3248
#
#
#
# Elastic Compliance Matrix: (Units=1/GPa)
#
#
# Indices 1 2 3 4 5 6 
#
# 1 0.023850 -0.004756 -0.002731 -0.003847 0.004041 -0.008647
# 2 -0.004756 0.024958 -0.004824 0.012459 0.001642 -0.008751
# 3 -0.002731 -0.004824 0.011871 0.001326 0.005260 0.002779
# 4 -0.003847 0.012459 0.001326 0.042900 0.006477 -0.000685
# 5 0.004041 0.001642 0.005260 0.006477 0.044668 0.003937
# 6 -0.008647 -0.008751 0.002779 -0.000685 0.003937 0.045679
#
#
# Mechanical properties :
#
#
# Convention : Reuss Voigt Hill
#
# Bulk Modulus (GPa) = 27.73528 41.75151 34.74340
# Shear Modulus (GPa) = 21.68556 26.65353 24.16954
#
# Velocity S-wave (km/s) = 3.41389 3.78479 3.60412
# Velocity P-wave (km/s) = 5.51775 6.44503 5.99933
#
# Compressibility (1/GPa) = 0.03605517
#
# Stress axis : x y z
#
# Youngs Moduli (GPa) = 41.92871 40.06798 84.23707
#
# Poissons Ratio (x) = 0.19057 0.23006
# Poissons Ratio (y) = 0.19942 0.40640
# Poissons Ratio (z) = 0.11451 0.19331
#
# Static dielectric constant tensor:
#      x y z
#    x 1.637300 -0.002420 -0.007450 
#    y -0.002420 1.696250 -0.029290 
#    z -0.007450 -0.029290 1.669100 
# 
# From -- ./inp_files/94679.got.cif
#   From: 2010.05.17/outbox.cif.g08.bks.cpg/sg2_48_cif.got.tgz:94679.got - 2010.06.03 11:33:40.
