data_PCOD9078078
_publ_section_title
;
Structure prediction by ZEFSAII (Michael W. Deem and Ramdas Pophale) SiO2 
 PCOD9078078
Probable space group: P -1
;
_chemical_formula_sum "Si O2"
_cell_formula_units_Z 16
_cell_length_a 19.669136
_cell_length_b 12.710328
_cell_length_c 7.713633
_cell_angle_alpha 134.133670
_cell_angle_beta 28.919592
_cell_angle_gamma 130.272575
_cell_volume 665.507006
_symmetry_space_group_name_H-M "P -1"
_symmetry_group_IT_number 2
_symmetry_cell_setting 'triclinic'
loop_
_space_group_symop_operation_xyz
x,y,z
-x,-y,-z
loop_
_atom_site_type_symbol
_atom_site_label
_atom_site_fract_x
_atom_site_fract_y
_atom_site_fract_z
Si Si1 0.826886 0.591332 0.825091
Si Si2 0.490073 0.193111 0.919052
Si Si3 0.352580 0.413429 0.293265
Si Si4 0.701560 0.822464 0.157694
Si Si5 0.152600 0.587093 0.755058
Si Si6 0.854444 0.328367 0.695305
Si Si7 0.601434 0.130481 0.208796
Si Si8 0.206634 0.839944 0.696349
O O1 0.779745 0.482597 0.645464
O O2 0.805227 0.482890 0.912833
O O3 0.995942 0.639379 0.505394
O O4 0.754624 0.736662 0.105473
O O5 0.557547 0.174500 0.552843
O O6 0.629180 0.195214 0.728304
O O7 0.390989 0.043874 0.004319
O O8 0.401291 0.331577 0.261892
O O9 0.241396 0.532510 0.653335
O O10 0.500000 0.500000 0.000000
O O11 0.292561 0.281025 0.144917
O O12 0.535978 0.841769 0.565107
O O13 0.783903 0.983546 0.126084
O O14 0.150999 0.757565 0.903256
O O15 0.000000 0.500000 0.000000
O O16 0.881867 0.238866 0.353145
O O17 0.738904 0.218285 0.924420
#
# Coordination Sequence:
#
# PCOD9078078 Si02
#       8
#     2   2   2   2   2   2   2   2
#     4   9  21  40  55  81 117 150 192 234 279 337
#     4   9  18  34  58  86 115 140 186 236 281 329
#     4  10  18  35  58  83 114 149 182 231 284 336
#     4   9  20  36  57  84 115 145 187 237 283 331
#     4  10  21  36  58  85 113 150 192 233 281 336
#     4  10  21  37  61  79 111 159 189 230 281 336
#     4   9  19  35  60  85 111 149 186 229 284 336
#     4  10  20  37  59  81 119 150 183 236 288 326
#
# _framework density 24.041820999999999
#
# number of rings (size 3 to 8) (size 9 to 14) (size 15 to 20)
#    0.000    2.500    1.250    0.750    1.750    3.000 
#    2.250    1.250   13.750    0.000    0.000    0.000 
#    0.000    0.000    0.000    0.000    0.000    0.000 
#
# Total GULP energy -89344.385501 kJ/mol
# GULP energy per Si atom -5584.024094 kJ/mol
# Density = 2.398710 g / cm^3
# Si number density = 24.041821 Si / 1000 Ang^3
#
#
#
# Elastic Constant Matrix: (Units=GPa)
#
#
# Indices 1 2 3 4 5 6 
#
# 1 92.0434 29.1255 8.3361 8.0241 -13.5814 -18.8397
# 2 29.1255 212.9125 34.3153 -4.2003 -7.6261 -21.8293
# 3 8.3361 34.3153 26.8935 -1.3780 -9.8434 -14.6442
# 4 8.0241 -4.2003 -1.3780 39.3619 -3.5667 2.2000
# 5 -13.5814 -7.6261 -9.8434 -3.5667 25.9471 0.9477
# 6 -18.8397 -21.8293 -14.6442 2.2000 0.9477 40.8269
#
#
#
# Elastic Compliance Matrix: (Units=1/GPa)
#
#
# Indices 1 2 3 4 5 6 
#
# 1 0.013791 -0.001641 0.004353 -0.002520 0.007786 0.007003
# 2 -0.001641 0.006154 -0.008328 0.000532 -0.002121 -0.000434
# 3 0.004353 -0.008328 0.066976 0.001638 0.024700 0.020918
# 4 -0.002520 0.000532 0.001638 0.026419 0.003155 -0.001788
# 5 0.007786 -0.002121 0.024700 0.003155 0.051432 0.009954
# 6 0.007003 -0.000434 0.020918 -0.001788 0.009954 0.034862
#
#
# Mechanical properties :
#
#
# Convention : Reuss Voigt Hill
#
# Bulk Modulus (GPa) = 13.21214 52.82257 33.01736
# Shear Modulus (GPa) = 21.17783 38.56535 29.87159
#
# Velocity S-wave (km/s) = 2.97117 4.00946 3.52871
# Velocity P-wave (km/s) = 4.15667 6.59190 5.51049
#
# Compressibility (1/GPa) = 0.07568795
#
# Stress axis : x y z
#
# Youngs Moduli (GPa) = 72.50905 162.50687 14.93073
#
# Poissons Ratio (x) = 0.26667 -0.06499
# Poissons Ratio (y) = 0.11899 0.12435
# Poissons Ratio (z) = -0.31562 1.35342
#
# Static dielectric constant tensor:
#      x y z
#    x 1.991940 -0.023240 0.071090 
#    y -0.023240 1.903120 0.021270 
#    z 0.071090 0.021270 1.986080 
# 
# From -- ./inp_files/346321.got.cif
#   From: 2010.05.17/outbox.cif.g08.bks.cpg/sg2_174_cif.got.tgz:346321.got - 2010.06.03 11:33:40.
