data_PCOD9078924
_publ_section_title
;
Structure prediction by ZEFSAII (Michael W. Deem and Ramdas Pophale) SiO2 
 PCOD9078924
Probable space group: P -1
;
_chemical_formula_sum "Si O2"
_cell_formula_units_Z 14
_cell_length_a 11.324869
_cell_length_b 6.620326
_cell_length_c 9.874524
_cell_angle_alpha 123.086516
_cell_angle_beta 81.030599
_cell_angle_gamma 126.023705
_cell_volume 486.545451
_symmetry_space_group_name_H-M "P -1"
_symmetry_group_IT_number 2
_symmetry_cell_setting 'triclinic'
loop_
_space_group_symop_operation_xyz
x,y,z
-x,-y,-z
loop_
_atom_site_type_symbol
_atom_site_label
_atom_site_fract_x
_atom_site_fract_y
_atom_site_fract_z
Si Si1 0.257156 0.574824 0.377860
Si Si2 0.116691 0.326486 0.670550
Si Si3 0.336263 0.865955 0.152894
Si Si4 0.642241 0.021356 0.258618
Si Si5 0.712976 0.804153 0.945775
Si Si6 0.037460 0.403552 0.131616
Si Si7 0.323573 0.276406 0.485611
O O1 0.346946 0.898529 0.556158
O O2 0.096543 0.438166 0.289491
O O3 0.248058 0.358744 0.416846
O O4 0.339720 0.511040 0.225958
O O5 0.205804 0.658105 0.704104
O O6 0.258804 0.309956 0.648452
O O7 0.013617 0.378635 0.799516
O O8 0.000000 0.000000 0.500000
O O9 0.342634 0.049084 0.089725
O O10 0.182874 0.521710 0.053106
O O11 0.501466 0.973416 0.192272
O O12 0.291038 0.967064 0.331665
O O13 0.656871 0.780156 0.099031
O O14 0.893305 0.059869 0.003185
O O15 0.500000 0.500000 0.500000
#
# Coordination Sequence:
#
# PCOD9078924 Si02
#       7
#     2   2   2   2   2   2   2
#     4  10  22  40  67  89 130 168 203 264 318 371
#     4  10  19  33  58  91 123 153 206 257 296 372
#     4  11  20  38  63  90 128 163 208 268 308 372
#     4  10  22  40  65  92 124 164 218 251 320 371
#     4  10  23  40  66  87 125 172 214 252 314 374
#     4  11  23  38  61  96 130 163 211 258 322 372
#     4  10  18  36  60  88 122 163 208 249 309 369
#
# _framework density 28.774287999999999
#
# number of rings (size 3 to 8) (size 9 to 14) (size 15 to 20)
#    0.000    1.714    4.286    1.286    0.000    5.714 
#    0.000    0.714    0.000    0.000    0.000    0.000 
#    0.000    0.000    0.000    0.000    0.000    0.000 
#
# Total GULP energy -78059.814496 kJ/mol
# GULP energy per Si atom -5575.701035 kJ/mol
# Density = 2.870880 g / cm^3
# Si number density = 28.774288 Si / 1000 Ang^3
#
#
#
# Elastic Constant Matrix: (Units=GPa)
#
#
# Indices 1 2 3 4 5 6 
#
# 1 185.1396 36.6617 87.6955 -8.0369 15.5546 26.8189
# 2 36.6617 91.7692 28.4602 22.7235 20.2258 23.7814
# 3 87.6955 28.4602 197.6439 4.8456 -10.2151 4.8853
# 4 -8.0369 22.7235 4.8456 54.3191 -0.5913 3.3432
# 5 15.5546 20.2258 -10.2151 -0.5913 83.8963 -3.9264
# 6 26.8189 23.7814 4.8853 3.3432 -3.9264 37.1419
#
#
#
# Elastic Compliance Matrix: (Units=1/GPa)
#
#
# Indices 1 2 3 4 5 6 
#
# 1 0.008326 -0.000951 -0.003583 0.002257 -0.001985 -0.005344
# 2 -0.000951 0.017081 -0.001874 -0.006561 -0.004680 -0.009908
# 3 -0.003583 -0.001874 0.006964 -0.000538 0.002107 0.003142
# 4 0.002257 -0.006561 -0.000538 0.021498 0.001289 0.000843
# 5 -0.001985 -0.004680 0.002107 0.001289 0.013939 0.005510
# 6 -0.005344 -0.009908 0.003142 0.000843 0.005510 0.037220
#
#
# Mechanical properties :
#
#
# Convention : Reuss Voigt Hill
#
# Bulk Modulus (GPa) = 51.13852 86.68750 68.91301
# Shear Modulus (GPa) = 40.20506 56.52049 48.36278
#
# Velocity S-wave (km/s) = 3.74204 4.43682 4.10416
# Velocity P-wave (km/s) = 6.03998 7.51261 6.81618
#
# Compressibility (1/GPa) = 0.01955473
#
# Stress axis : x y z
#
# Youngs Moduli (GPa) = 120.10913 58.54292 143.60335
#
# Poissons Ratio (x) = 0.05570 0.51453
# Poissons Ratio (y) = 0.11427 0.26907
# Poissons Ratio (z) = 0.43035 0.10969
#
# Static dielectric constant tensor:
#      x y z
#    x 2.337020 -0.035730 -0.037930 
#    y -0.035730 2.380730 -0.107960 
#    z -0.037930 -0.107960 2.464960 
# 
# From -- ./inp_files/413641.got.cif
#   From: 2010.05.17/outbox.cif.g08.bks.cpg/sg2_207_cif.got.tgz:413641.got - 2010.06.03 11:33:40.
