data_PCOD9078268
_publ_section_title
;
Structure prediction by ZEFSAII (Michael W. Deem and Ramdas Pophale) SiO2 
 PCOD9078268
Probable space group: P -1
;
_chemical_formula_sum "Si O2"
_cell_formula_units_Z 13
_cell_length_a 6.756566
_cell_length_b 9.244043
_cell_length_c 11.864543
_cell_angle_alpha 130.280022
_cell_angle_beta 111.492876
_cell_angle_gamma 52.981731
_cell_volume 451.067027
_symmetry_space_group_name_H-M "P -1"
_symmetry_group_IT_number 2
_symmetry_cell_setting 'triclinic'
loop_
_space_group_symop_operation_xyz
x,y,z
-x,-y,-z
loop_
_atom_site_type_symbol
_atom_site_label
_atom_site_fract_x
_atom_site_fract_y
_atom_site_fract_z
Si Si1 0.631402 0.689255 0.074015
Si Si2 0.659319 0.277984 0.573126
Si Si3 0.977420 0.228343 0.940427
Si Si4 0.765236 0.847329 0.822237
Si Si5 0.000000 0.500000 0.500000
Si Si6 0.823580 0.794917 0.385340
Si Si7 0.668429 0.238429 0.284638
O O1 0.675420 0.739124 0.236097
O O2 0.716321 0.433007 0.949107
O O3 0.364697 0.887882 0.081995
O O4 0.822539 0.728899 0.060372
O O5 0.677935 0.251007 0.427577
O O6 0.410909 0.519047 0.656893
O O7 0.914765 0.265334 0.652281
O O8 0.679298 0.057615 0.511997
O O9 0.016796 0.245667 0.089413
O O10 0.078394 0.972881 0.807423
O O11 0.555435 0.801823 0.807637
O O12 0.833537 0.720304 0.655681
O O13 0.088787 0.346931 0.556066
#
# Coordination Sequence:
#
# PCOD9078268 Si02
#       7
#     2   2   2   2   1   2   2
#     4  10  19  35  58  89 117 149 196 248 301 331
#     4  10  20  35  58  88 121 148 199 241 296 348
#     4  10  19  34  57  89 122 144 196 255 290 340
#     4  11  21  37  56  91 121 154 194 246 294 344
#     4  12  24  38  58  84 128 156 200 240 288 352
#     4  11  21  37  56  90 117 156 195 244 291 349
#     4  10  18  35  60  88 115 153 194 245 303 339
#
# _framework density 28.820550999999998
#
# number of rings (size 3 to 8) (size 9 to 14) (size 15 to 20)
#    0.000    1.538    6.154    1.846    0.000    1.846 
#    0.000    0.000    0.000    1.846    0.000    0.000 
#    0.000    0.000    0.000    0.000    0.000    0.000 
#
# Total GULP energy -72789.631825 kJ/mol
# GULP energy per Si atom -5599.202448 kJ/mol
# Density = 2.875495 g / cm^3
# Si number density = 28.820551 Si / 1000 Ang^3
#
#
#
# Elastic Constant Matrix: (Units=GPa)
#
#
# Indices 1 2 3 4 5 6 
#
# 1 114.4146 38.9373 34.9856 13.6101 -1.4167 3.0266
# 2 38.9373 220.7068 57.5760 46.1585 6.9100 14.7681
# 3 34.9856 57.5760 133.1522 19.9209 -17.9840 7.7714
# 4 13.6101 46.1585 19.9209 82.6646 -4.8682 -6.2007
# 5 -1.4167 6.9100 -17.9840 -4.8682 40.7194 13.8894
# 6 3.0266 14.7681 7.7714 -6.2007 13.8894 29.7221
#
#
#
# Elastic Compliance Matrix: (Units=1/GPa)
#
#
# Indices 1 2 3 4 5 6 
#
# 1 0.009801 -0.001063 -0.002127 -0.000522 -0.000563 0.000240
# 2 -0.001063 0.006058 -0.001959 -0.002998 -0.001499 -0.002314
# 3 -0.002127 -0.001959 0.010166 -0.000984 0.006188 -0.004565
# 4 -0.000522 -0.002998 -0.000984 0.014459 0.000169 0.004737
# 5 -0.000563 -0.001499 0.006188 0.000169 0.033086 -0.016242
# 6 0.000240 -0.002314 -0.004565 0.004737 -0.016242 0.044542
#
#
# Mechanical properties :
#
#
# Convention : Reuss Voigt Hill
#
# Bulk Modulus (GPa) = 63.59168 81.25237 72.42202
# Shear Modulus (GPa) = 37.40988 53.07287 45.24138
#
# Velocity S-wave (km/s) = 3.60672 4.29592 3.96632
# Velocity P-wave (km/s) = 6.28150 7.27051 6.79402
#
# Compressibility (1/GPa) = 0.01572533
#
# Stress axis : x y z
#
# Youngs Moduli (GPa) = 102.02676 165.06241 98.37097
#
# Poissons Ratio (x) = 0.17553 0.20927
# Poissons Ratio (y) = 0.10850 0.19273
# Poissons Ratio (z) = 0.21704 0.32339
#
# Static dielectric constant tensor:
#      x y z
#    x 4.831650 -0.742280 0.791130 
#    y -0.742280 2.370220 -0.207370 
#    z 0.791130 -0.207370 2.498380 
# 
# From -- ./inp_files/420558.got.cif
#   From: 2010.05.17/outbox.cif.g08.bks.cpg/sg2_211_cif.got.tgz:420558.got - 2010.06.03 11:33:40.
