data_PCOD9078903
_publ_section_title
;
Structure prediction by ZEFSAII (Michael W. Deem and Ramdas Pophale) SiO2 
 PCOD9078903
Probable space group: P -1
;
_chemical_formula_sum "Si O2"
_cell_formula_units_Z 16
_cell_length_a 13.656854
_cell_length_b 16.812552
_cell_length_c 8.124881
_cell_angle_alpha 127.813921
_cell_angle_beta 112.492134
_cell_angle_gamma 28.932671
_cell_volume 652.526341
_symmetry_space_group_name_H-M "P -1"
_symmetry_group_IT_number 2
_symmetry_cell_setting 'triclinic'
loop_
_space_group_symop_operation_xyz
x,y,z
-x,-y,-z
loop_
_atom_site_type_symbol
_atom_site_label
_atom_site_fract_x
_atom_site_fract_y
_atom_site_fract_z
Si Si1 0.321750 0.102508 0.390709
Si Si2 0.675197 0.089203 0.677232
Si Si3 0.364652 0.514229 0.085226
Si Si4 0.989802 0.067339 0.755333
Si Si5 0.168031 0.727462 0.554794
Si Si6 0.491383 0.897315 0.718135
Si Si7 0.153240 0.540559 0.498269
Si Si8 0.966000 0.746301 0.997637
O O1 0.375389 0.117433 0.279614
O O2 0.064107 0.325555 0.559849
O O3 0.500000 0.000000 0.500000
O O4 0.352422 0.956724 0.237193
O O5 0.547831 0.143578 0.515493
O O6 0.587946 0.272456 0.884459
O O7 0.931420 0.882574 0.534155
O O8 0.259030 0.677773 0.090065
O O9 0.349693 0.572724 0.331288
O O10 0.179232 0.578899 0.040226
O O11 0.117053 0.067731 0.839613
O O12 0.000000 0.000000 0.500000
O O13 0.096286 0.904227 0.751524
O O14 0.216836 0.601757 0.562464
O O15 0.642601 0.705257 0.692102
O O16 0.245881 0.131865 0.912630
O O17 0.060804 0.627631 0.736017
#
# Coordination Sequence:
#
# PCOD9078903 Si02
#       8
#     2   2   2   2   2   2   2   2
#     4   9  22  38  60  85 111 145 193 237 278 343
#     4  10  18  36  60  85 111 150 193 235 278 337
#     4   9  18  35  58  82 112 150 191 227 274 338
#     4   8  16  35  57  84 115 149 191 233 270 334
#     4  10  20  36  58  84 119 150 188 237 279 325
#     4  11  19  39  60  78 117 156 179 234 299 324
#     4  11  23  37  58  87 116 148 188 234 287 339
#     4  10  21  36  58  85 116 151 189 233 276 338
#
# _framework density 24.520084000000001
#
# number of rings (size 3 to 8) (size 9 to 14) (size 15 to 20)
#    0.750    1.500    2.500    0.375    0.000    3.500 
#    0.000    5.000    0.000    0.000    0.000    0.000 
#    0.000    0.000    0.000    0.000    0.000    0.000 
#
# Total GULP energy -89156.307059 kJ/mol
# GULP energy per Si atom -5572.269191 kJ/mol
# Density = 2.446427 g / cm^3
# Si number density = 24.520084 Si / 1000 Ang^3
#
#
#
# Elastic Constant Matrix: (Units=GPa)
#
#
# Indices 1 2 3 4 5 6 
#
# 1 84.4789 -8.1610 -14.5087 6.1644 -11.5595 19.7437
# 2 -8.1610 48.5407 -0.0579 16.4004 0.3769 8.8266
# 3 -14.5087 -0.0579 65.3899 1.7656 3.3061 3.1233
# 4 6.1644 16.4004 1.7656 19.2333 0.2640 5.3433
# 5 -11.5595 0.3769 3.3061 0.2640 17.3205 -3.2054
# 6 19.7437 8.8266 3.1233 5.3433 -3.2054 35.2886
#
#
#
# Elastic Compliance Matrix: (Units=1/GPa)
#
#
# Indices 1 2 3 4 5 6 
#
# 1 0.017693 0.008247 0.004227 -0.010460 0.009145 -0.009922
# 2 0.008247 0.033313 0.002893 -0.028987 0.003090 -0.008533
# 3 0.004227 0.002893 0.016594 -0.004214 -0.001089 -0.004018
# 4 -0.010460 -0.028987 -0.004214 0.080345 -0.006640 0.000707
# 5 0.009145 0.003090 -0.001089 -0.006640 0.064275 0.001050
# 6 -0.009922 -0.008533 -0.004018 0.000707 0.001050 0.036367
#
#
# Mechanical properties :
#
#
# Convention : Reuss Voigt Hill
#
# Bulk Modulus (GPa) = 10.16925 16.99494 13.58210
# Shear Modulus (GPa) = 19.94973 29.11096 24.53035
#
# Velocity S-wave (km/s) = 2.85548 3.44936 3.16637
# Velocity P-wave (km/s) = 3.87659 4.77600 4.34961
#
# Compressibility (1/GPa) = 0.09833568
#
# Stress axis : x y z
#
# Youngs Moduli (GPa) = 56.51803 30.01861 60.26237
#
# Poissons Ratio (x) = -0.24757 -0.25473
# Poissons Ratio (y) = -0.46612 -0.17436
# Poissons Ratio (z) = -0.23891 -0.08686
#
# Static dielectric constant tensor:
#      x y z
#    x 2.044140 0.012910 -0.024760 
#    y 0.012910 2.002220 -0.034830 
#    z -0.024760 -0.034830 1.939400 
# 
# From -- ./inp_files/318090.got.cif
#   From: 2010.05.17/outbox.cif.g08.bks.cpg/sg2_160_cif.got.tgz:318090.got - 2010.06.03 11:33:40.
