data_PCOD9078703
_publ_section_title
;
Structure prediction by ZEFSAII (Michael W. Deem and Ramdas Pophale) SiO2 
 PCOD9078703
Probable space group: P -1
;
_chemical_formula_sum "Si O2"
_cell_formula_units_Z 16
_cell_length_a 19.378888
_cell_length_b 12.603068
_cell_length_c 10.318141
_cell_angle_alpha 83.382342
_cell_angle_beta 71.911634
_cell_angle_gamma 21.203054
_cell_volume 746.905098
_symmetry_space_group_name_H-M "P -1"
_symmetry_group_IT_number 2
_symmetry_cell_setting 'triclinic'
loop_
_space_group_symop_operation_xyz
x,y,z
-x,-y,-z
loop_
_atom_site_type_symbol
_atom_site_label
_atom_site_fract_x
_atom_site_fract_y
_atom_site_fract_z
Si Si1 0.824358 0.670446 0.001365
Si Si2 0.156075 0.688183 0.837621
Si Si3 0.677646 0.334954 0.167264
Si Si4 0.274724 0.389280 0.053940
Si Si5 0.350304 0.348292 0.297600
Si Si6 0.694232 0.056046 0.887747
Si Si7 0.415783 0.503049 0.245481
Si Si8 0.055291 0.710668 0.650193
O O1 0.906215 0.447458 0.917385
O O2 0.720462 0.894938 0.921902
O O3 0.000000 0.500000 0.000000
O O4 0.611496 0.942188 0.182942
O O5 0.217069 0.728131 0.783114
O O6 0.202080 0.562818 0.696705
O O7 0.282692 0.461983 0.921755
O O8 0.885143 0.046651 0.980596
O O9 0.457071 0.700303 0.180419
O O10 0.575187 0.361519 0.256213
O O11 0.233972 0.501446 0.200589
O O12 0.500000 0.000000 0.000000
O O13 0.372292 0.440946 0.317207
O O14 0.204789 0.487059 0.466627
O O15 0.560147 0.291681 0.056728
O O16 0.943237 0.761073 0.767147
O O17 0.166753 0.904742 0.309772
#
# Coordination Sequence:
#
# PCOD9078703 Si02
#       8
#     2   2   2   2   2   2   2   2
#     4  10  21  39  62  84 109 159 207 239 278 353
#     4  11  20  33  60  90 114 147 203 241 284 342
#     4  10  19  31  56  87 114 148 196 239 277 346
#     4  10  22  40  58  82 115 158 199 235 287 353
#     4  10  23  38  59  85 123 153 193 241 300 345
#     4  10  18  36  60  83 116 156 197 227 290 359
#     4  10  18  36  56  84 123 162 187 221 298 368
#     4  11  20  36  59  93 118 150 189 250 297 338
#
# _framework density 21.42173
#
# number of rings (size 3 to 8) (size 9 to 14) (size 15 to 20)
#    0.000    1.750    2.500    4.125    3.500    0.000 
#    0.000    9.375    0.000    0.000    0.000    0.000 
#    0.000    0.000    0.000    0.000    0.000    0.000 
#
# Total GULP energy -89226.555591 kJ/mol
# GULP energy per Si atom -5576.659724 kJ/mol
# Density = 2.137297 g / cm^3
# Si number density = 21.421730 Si / 1000 Ang^3
#
#
#
# Elastic Constant Matrix: (Units=GPa)
#
#
# Indices 1 2 3 4 5 6 
#
# 1 106.7289 7.9227 10.4401 3.2962 2.9370 -15.9371
# 2 7.9227 63.0182 12.1266 -1.9873 4.5880 -9.2914
# 3 10.4401 12.1266 84.4118 5.1258 -4.7087 -11.6558
# 4 3.2962 -1.9873 5.1258 14.9580 -8.6910 0.5540
# 5 2.9370 4.5880 -4.7087 -8.6910 15.9937 -3.5250
# 6 -15.9371 -9.2914 -11.6558 0.5540 -3.5250 31.5675
#
#
#
# Elastic Compliance Matrix: (Units=1/GPa)
#
#
# Indices 1 2 3 4 5 6 
#
# 1 0.010360 -0.000422 -0.000503 -0.004188 -0.003183 0.004638
# 2 -0.000422 0.017208 -0.002209 0.000374 -0.004529 0.003524
# 3 -0.000503 -0.002209 0.013234 -0.002370 0.004328 0.004507
# 4 -0.004188 0.000374 -0.002370 0.100476 0.054891 0.001487
# 5 -0.003183 -0.004529 0.004328 0.054891 0.097399 0.008571
# 6 0.004638 0.003524 0.004507 0.001487 0.008571 0.037652
#
#
# Mechanical properties :
#
#
# Convention : Reuss Voigt Hill
#
# Bulk Modulus (GPa) = 28.95794 35.01531 31.98663
# Shear Modulus (GPa) = 17.00055 27.41514 22.20784
#
# Velocity S-wave (km/s) = 2.82017 3.58128 3.22327
# Velocity P-wave (km/s) = 4.91445 5.78636 5.36814
#
# Compressibility (1/GPa) = 0.03453285
#
# Stress axis : x y z
#
# Youngs Moduli (GPa) = 96.52878 58.11382 75.56350
#
# Poissons Ratio (x) = 0.02453 0.03804
# Poissons Ratio (y) = 0.04074 0.16689
# Poissons Ratio (z) = 0.04860 0.12835
#
# Static dielectric constant tensor:
#      x y z
#    x 1.873700 -0.031960 0.010460 
#    y -0.031960 1.861440 -0.001370 
#    z 0.010460 -0.001370 1.740430 
# 
# From -- ./inp_files/347251.got.cif
#   From: 2010.05.17/outbox.cif.g08.bks.cpg/sg2_174_cif.got.tgz:347251.got - 2010.06.03 11:33:40.
