data_PCOD9078804
_publ_section_title
;
Structure prediction by ZEFSAII (Michael W. Deem and Ramdas Pophale) SiO2 
 PCOD9078804
Probable space group: P -1
;
_chemical_formula_sum "Si O2"
_cell_formula_units_Z 16
_cell_length_a 8.669795
_cell_length_b 15.223964
_cell_length_c 15.230082
_cell_angle_alpha 59.224594
_cell_angle_beta 65.529923
_cell_angle_gamma 23.824524
_cell_volume 689.197088
_symmetry_space_group_name_H-M "P -1"
_symmetry_group_IT_number 2
_symmetry_cell_setting 'triclinic'
loop_
_space_group_symop_operation_xyz
x,y,z
-x,-y,-z
loop_
_atom_site_type_symbol
_atom_site_label
_atom_site_fract_x
_atom_site_fract_y
_atom_site_fract_z
Si Si1 0.602612 0.794176 0.850092
Si Si2 0.554383 0.051495 0.728812
Si Si3 0.493739 0.698822 0.069410
Si Si4 0.333323 0.565440 0.600426
Si Si5 0.527101 0.241678 0.281905
Si Si6 0.503026 0.472824 0.228772
Si Si7 0.691007 0.075109 0.513139
Si Si8 0.403846 0.795157 0.238206
O O1 0.423279 0.005142 0.783888
O O2 0.624846 0.736963 0.776493
O O3 0.039209 0.564626 0.900276
O O4 0.398314 0.822780 0.947091
O O5 0.448632 0.176785 0.604331
O O6 0.025318 0.788135 0.750883
O O7 0.454747 0.174592 0.772503
O O8 0.366139 0.650082 0.123650
O O9 0.372702 0.813549 0.131682
O O10 0.500000 0.500000 0.500000
O O11 0.571517 0.479082 0.673192
O O12 0.333762 0.444164 0.676484
O O13 0.928346 0.842822 0.557603
O O14 0.378870 0.437638 0.227907
O O15 0.476183 0.220397 0.400563
O O16 0.989857 0.996245 0.278124
O O17 0.000000 0.000000 0.500000
#
# Coordination Sequence:
#
# PCOD9078804 Si02
#       8
#     2   2   2   2   2   2   2   2
#     4  10  22  38  56  76 112 148 181 222 280 325
#     4   9  18  34  53  78 109 148 181 208 268 342
#     4   9  20  40  57  76 106 150 183 223 277 327
#     4  10  15  26  51  81 103 137 171 217 258 315
#     4  11  20  33  56  88 108 139 185 230 265 315
#     4   8  17  31  53  79 104 136 185 218 258 325
#     4  11  17  32  57  83 109 147 180 214 266 333
#     4  10  19  33  58  82 104 141 192 224 258 320
#
# _framework density 23.215420000000002
#
# number of rings (size 3 to 8) (size 9 to 14) (size 15 to 20)
#    0.000    2.250    5.000    0.750    0.000    2.000 
#    0.000    2.500    0.000    1.500    0.000    0.000 
#    0.000    0.000    0.000    0.000    0.000    0.000 
#
# Total GULP energy -89422.602326 kJ/mol
# GULP energy per Si atom -5588.912645 kJ/mol
# Density = 2.316258 g / cm^3
# Si number density = 23.215420 Si / 1000 Ang^3
#
#
#
# Elastic Constant Matrix: (Units=GPa)
#
#
# Indices 1 2 3 4 5 6 
#
# 1 113.9523 46.6768 76.0166 -7.0139 -22.4002 44.2041
# 2 46.6768 68.4776 33.8858 1.6041 -7.1120 23.1313
# 3 76.0166 33.8858 161.6959 8.8346 -21.7516 26.9893
# 4 -7.0139 1.6041 8.8346 25.2802 4.6200 2.0572
# 5 -22.4002 -7.1120 -21.7516 4.6200 19.8973 -3.3271
# 6 44.2041 23.1313 26.9893 2.0572 -3.3271 55.7004
#
#
#
# Elastic Compliance Matrix: (Units=1/GPa)
#
#
# Indices 1 2 3 4 5 6 
#
# 1 0.024125 -0.007986 -0.006213 0.007882 0.013627 -0.012296
# 2 -0.007986 0.020830 -0.000296 -0.002978 -0.001537 -0.002151
# 3 -0.006213 -0.000296 0.010146 -0.006327 0.005578 0.000705
# 4 0.007882 -0.002978 -0.006327 0.046432 -0.010609 -0.004301
# 5 0.013627 -0.001537 0.005578 -0.010609 0.072244 -0.008172
# 6 -0.012296 -0.002151 0.000705 -0.004301 -0.008172 0.027934
#
#
# Mechanical properties :
#
#
# Convention : Reuss Voigt Hill
#
# Bulk Modulus (GPa) = 38.29795 73.03158 55.66476
# Shear Modulus (GPa) = 20.88499 32.67866 26.78183
#
# Velocity S-wave (km/s) = 3.00262 3.75591 3.40019
# Velocity P-wave (km/s) = 5.34355 7.09476 6.28049
#
# Compressibility (1/GPa) = 0.02611106
#
# Stress axis : x y z
#
# Youngs Moduli (GPa) = 41.44996 48.00769 98.56159
#
# Poissons Ratio (x) = 0.38338 0.61240
# Poissons Ratio (y) = 0.33101 0.02916
# Poissons Ratio (z) = 0.25755 0.01420
#
# Static dielectric constant tensor:
#      x y z
#    x 1.916650 -0.073310 -0.014320 
#    y -0.073310 1.930360 0.011880 
#    z -0.014320 0.011880 1.854100 
# 
# From -- ./inp_files/212065.got.cif
#   From: 2010.05.17/outbox.cif.g08.bks.cpg/sg2_107_cif.got.tgz:212065.got - 2010.06.03 11:33:40.
