data_PCOD9078340
_publ_section_title
;
Structure prediction by ZEFSAII (Michael W. Deem and Ramdas Pophale) SiO2 
 PCOD9078340
Probable space group: P -1
;
_chemical_formula_sum "Si O2"
_cell_formula_units_Z 14
_cell_length_a 9.626840
_cell_length_b 11.128233
_cell_length_c 9.188375
_cell_angle_alpha 63.139813
_cell_angle_beta 126.478933
_cell_angle_gamma 128.838989
_cell_volume 611.580768
_symmetry_space_group_name_H-M "P -1"
_symmetry_group_IT_number 2
_symmetry_cell_setting 'triclinic'
loop_
_space_group_symop_operation_xyz
x,y,z
-x,-y,-z
loop_
_atom_site_type_symbol
_atom_site_label
_atom_site_fract_x
_atom_site_fract_y
_atom_site_fract_z
Si Si1 0.534873 0.740757 0.664578
Si Si2 0.370984 0.815616 0.040512
Si Si3 0.291264 0.401030 0.341551
Si Si4 0.825337 0.376775 0.730048
Si Si5 0.791230 0.337943 0.281012
Si Si6 0.159054 0.939699 0.440033
Si Si7 0.769556 0.856681 0.348036
O O1 0.663846 0.659699 0.745696
O O2 0.360669 0.685479 0.463017
O O3 0.412333 0.683552 0.766861
O O4 0.679359 0.926496 0.636882
O O5 0.544779 0.772089 0.199283
O O6 0.254237 0.731623 0.870299
O O7 0.225022 0.766262 0.116433
O O8 0.500000 0.000000 0.000000
O O9 0.500000 0.500000 0.500000
O O10 0.184898 0.501331 0.229457
O O11 0.182780 0.254124 0.461552
O O12 0.029752 0.484332 0.713326
O O13 0.839029 0.220999 0.468767
O O14 0.937396 0.915335 0.297226
O O15 0.216044 0.017051 0.595173
#
# Coordination Sequence:
#
# PCOD9078340 Si02
#       7
#     2   2   2   2   2   2   2
#     4  10  21  37  59  92 122 151 200 253 291 340
#     4  12  23  39  59  90 126 154 192 249 305 353
#     4   9  16  34  64  81 109 152 212 236 273 342
#     4  11  21  40  62  87 115 165 203 238 286 364
#     4  12  23  36  59  95 125 152 190 255 308 341
#     4  10  19  35  63  86 112 158 207 236 283 352
#     4  10  18  35  61  89 108 156 208 242 271 351
#
# _framework density 22.891497000000001
#
# number of rings (size 3 to 8) (size 9 to 14) (size 15 to 20)
#    0.000    1.429    7.143    1.286    0.000    0.000 
#    0.000    1.429    0.000    1.714    0.000    0.000 
#    0.000    0.000    0.000    0.000    0.000    0.000 
#
# Total GULP energy -78122.265789 kJ/mol
# GULP energy per Si atom -5580.161842 kJ/mol
# Density = 2.283940 g / cm^3
# Si number density = 22.891497 Si / 1000 Ang^3
#
#
#
# Elastic Constant Matrix: (Units=GPa)
#
#
# Indices 1 2 3 4 5 6 
#
# 1 80.4221 33.6142 -3.7709 -1.7165 10.3092 35.1062
# 2 33.6142 117.7971 9.5605 -0.2491 -0.6084 41.0301
# 3 -3.7709 9.5605 24.8390 5.5699 1.7787 6.3608
# 4 -1.7165 -0.2491 5.5699 26.6612 2.4758 7.3814
# 5 10.3092 -0.6084 1.7787 2.4758 23.1137 5.5559
# 6 35.1062 41.0301 6.3608 7.3814 5.5559 48.7657
#
#
#
# Elastic Compliance Matrix: (Units=1/GPa)
#
#
# Indices 1 2 3 4 5 6 
#
# 1 0.020627 -0.001436 0.006858 0.004511 -0.006776 -0.014446
# 2 -0.001436 0.012717 -0.003496 0.003239 0.003320 -0.010078
# 3 0.006858 -0.003496 0.046194 -0.007047 -0.004400 -0.006453
# 4 0.004511 0.003239 -0.007047 0.042690 -0.003279 -0.011141
# 5 -0.006776 0.003320 -0.004400 -0.003279 0.047610 -0.002269
# 6 -0.014446 -0.010078 -0.006453 -0.011141 -0.002269 0.042172
#
#
# Mechanical properties :
#
#
# Convention : Reuss Voigt Hill
#
# Bulk Modulus (GPa) = 11.99203 33.54062 22.76633
# Shear Modulus (GPa) = 21.19043 31.95173 26.57108
#
# Velocity S-wave (km/s) = 3.04582 3.74008 3.41066
# Velocity P-wave (km/s) = 4.19754 5.77363 5.04748
#
# Compressibility (1/GPa) = 0.08338869
#
# Stress axis : x y z
#
# Youngs Moduli (GPa) = 48.47920 78.63372 21.64798
#
# Poissons Ratio (x) = 0.11295 -0.14845
# Poissons Ratio (y) = 0.06963 0.07568
# Poissons Ratio (z) = -0.33245 0.27490
#
# Static dielectric constant tensor:
#      x y z
#    x 1.917460 0.033130 0.033300 
#    y 0.033130 1.998600 -0.070510 
#    z 0.033300 -0.070510 1.882280 
# 
# From -- ./inp_files/320173.got.cif
#   From: 2010.05.17/outbox.cif.g08.bks.cpg/sg2_161_cif.got.tgz:320173.got - 2010.06.03 11:33:40.
