data_PCOD9078417
_publ_section_title
;
Structure prediction by ZEFSAII (Michael W. Deem and Ramdas Pophale) SiO2 
 PCOD9078417
Probable space group: P -1
;
_chemical_formula_sum "Si O2"
_cell_formula_units_Z 16
_cell_length_a 16.828545
_cell_length_b 10.742811
_cell_length_c 11.787279
_cell_angle_alpha 40.345347
_cell_angle_beta 146.702788
_cell_angle_gamma 143.853154
_cell_volume 664.555414
_symmetry_space_group_name_H-M "P -1"
_symmetry_group_IT_number 2
_symmetry_cell_setting 'triclinic'
loop_
_space_group_symop_operation_xyz
x,y,z
-x,-y,-z
loop_
_atom_site_type_symbol
_atom_site_label
_atom_site_fract_x
_atom_site_fract_y
_atom_site_fract_z
Si Si1 0.666636 0.917918 0.827918
Si Si2 0.906250 0.606467 0.934494
Si Si3 0.637224 0.722966 0.568692
Si Si4 0.126975 0.669447 0.362875
Si Si5 0.362656 0.078847 0.789056
Si Si6 0.461735 0.460211 0.198419
Si Si7 0.139887 0.336193 0.786394
Si Si8 0.209249 0.832397 0.983921
O O1 0.721080 0.115804 0.664033
O O2 0.518555 0.675326 0.788771
O O3 0.657253 0.002606 0.882776
O O4 0.820719 0.862603 0.054125
O O5 0.803650 0.710582 0.792081
O O6 0.034651 0.749879 0.892466
O O7 0.777099 0.385135 0.871230
O O8 0.008652 0.568067 0.182353
O O9 0.500000 0.500000 0.500000
O O10 0.678061 0.909991 0.397281
O O11 0.574748 0.718028 0.622628
O O12 0.149269 0.483717 0.586717
O O13 0.025369 0.732932 0.289965
O O14 0.421021 0.310242 0.763366
O O15 0.218636 0.923202 0.807695
O O16 0.500000 0.000000 0.000000
O O17 0.299519 0.479557 0.957010
#
# Coordination Sequence:
#
# PCOD9078417 Si02
#       8
#     2   2   2   2   2   2   2   2
#     4   9  20  38  57  88 130 161 206 255 321 370
#     4  10  20  41  60  91 131 162 209 259 324 367
#     4  10  20  39  66  87 122 165 205 263 313 367
#     4  10  18  35  62  89 128 166 209 262 310 372
#     4  11  24  41  64  92 120 163 224 264 310 386
#     4   9  20  39  60  87 126 160 205 264 310 369
#     4   9  19  34  59  93 124 164 214 256 304 387
#     4  10  22  40  62  90 127 169 205 267 311 386
#
# _framework density 24.076246999999999
#
# number of rings (size 3 to 8) (size 9 to 14) (size 15 to 20)
#    0.750    1.500    1.250    1.875    0.000    2.000 
#   13.500    0.000    0.000    9.750    0.000    0.000 
#    0.000    0.000    0.000    0.000    0.000    0.000 
#
# Total GULP energy -89162.709840 kJ/mol
# GULP energy per Si atom -5572.669365 kJ/mol
# Density = 2.402145 g / cm^3
# Si number density = 24.076247 Si / 1000 Ang^3
#
#
#
# Elastic Constant Matrix: (Units=GPa)
#
#
# Indices 1 2 3 4 5 6 
#
# 1 54.5012 20.3155 26.0153 -12.9753 -21.2585 7.0342
# 2 20.3155 69.8781 5.2526 -8.1981 -3.2443 -19.2706
# 3 26.0153 5.2526 92.3940 -11.6502 -21.4848 22.1287
# 4 -12.9753 -8.1981 -11.6502 24.5481 3.3955 -6.3016
# 5 -21.2585 -3.2443 -21.4848 3.3955 33.0133 -14.2872
# 6 7.0342 -19.2706 22.1287 -6.3016 -14.2872 30.8629
#
#
#
# Elastic Compliance Matrix: (Units=1/GPa)
#
#
# Indices 1 2 3 4 5 6 
#
# 1 0.031351 -0.006459 -0.003525 0.010759 0.016707 0.001280
# 2 -0.006459 0.023751 -0.002601 0.008278 0.005283 0.022303
# 3 -0.003525 -0.002601 0.015242 0.001509 0.002860 -0.010117
# 4 0.010759 0.008278 0.001509 0.052884 0.010835 0.017449
# 5 0.016707 0.005283 0.002860 0.010835 0.052728 0.024062
# 6 0.001280 0.022303 -0.010117 0.017449 0.024062 0.067991
#
#
# Mechanical properties :
#
#
# Convention : Reuss Voigt Hill
#
# Bulk Modulus (GPa) = 22.13677 35.54892 28.84285
# Shear Modulus (GPa) = 17.59478 28.69752 23.14615
#
# Velocity S-wave (km/s) = 2.70625 3.45620 3.10396
# Velocity P-wave (km/s) = 4.35654 5.54295 4.98517
#
# Compressibility (1/GPa) = 0.04517371
#
# Stress axis : x y z
#
# Youngs Moduli (GPa) = 31.89669 42.10380 65.60748
#
# Poissons Ratio (x) = 0.27194 0.23130
# Poissons Ratio (y) = 0.20601 0.17064
# Poissons Ratio (z) = 0.11245 0.10951
#
# Static dielectric constant tensor:
#      x y z
#    x 1.922480 -0.011270 -0.009010 
#    y -0.011270 2.066060 -0.018260 
#    z -0.009010 -0.018260 1.935890 
# 
# From -- ./inp_files/463513.got.cif
#   From: 2010.05.17/outbox.cif.g08.bks.cpg/sg2_232_cif.got.tgz:463513.got - 2010.06.03 11:33:40.
