data_PCOD9078717
_publ_section_title
;
Structure prediction by ZEFSAII (Michael W. Deem and Ramdas Pophale) SiO2 
 PCOD9078717
Probable space group: P -1
;
_chemical_formula_sum "Si O2"
_cell_formula_units_Z 10
_cell_length_a 7.218696
_cell_length_b 7.889898
_cell_length_c 13.428344
_cell_angle_alpha 98.936561
_cell_angle_beta 148.490595
_cell_angle_gamma 94.867698
_cell_volume 358.191679
_symmetry_space_group_name_H-M "P -1"
_symmetry_group_IT_number 2
_symmetry_cell_setting 'triclinic'
loop_
_space_group_symop_operation_xyz
x,y,z
-x,-y,-z
loop_
_atom_site_type_symbol
_atom_site_label
_atom_site_fract_x
_atom_site_fract_y
_atom_site_fract_z
Si Si1 0.787071 0.225456 0.462901
Si Si2 0.857911 0.146584 0.893697
Si Si3 0.047758 0.262483 0.367144
Si Si4 0.821687 0.590641 0.765200
Si Si5 0.975921 0.121308 0.727212
O O1 0.091954 0.703084 0.586512
O O2 0.473238 0.304061 0.360129
O O3 0.073247 0.261426 0.691018
O O4 0.590937 0.996208 0.341547
O O5 0.074414 0.198416 0.891406
O O6 0.930050 0.319645 0.015151
O O7 0.000000 0.000000 0.000000
O O8 0.522040 0.371858 0.607975
O O9 0.961600 0.352114 0.235536
O O10 0.884151 0.041771 0.248000
O O11 0.500000 0.000000 0.500000
#
# Coordination Sequence:
#
# PCOD9078717 Si02
#       5
#     2   2   2   2   2
#     4  10  20  35  59  78 105 141 181 213 258 320
#     4   9  17  36  55  76 110 138 171 223 259 305
#     4  11  20  34  60  78 105 143 179 210 269 314
#     4  10  21  37  54  81 110 136 174 225 261 307
#     4  10  18  36  57  76 107 143 175 215 263 314
#
# _framework density 27.918011
#
# number of rings (size 3 to 8) (size 9 to 14) (size 15 to 20)
#    0.000    2.000    6.000    1.200    0.000    0.800 
#    0.000    5.000    0.000    0.000    0.000    0.000 
#    0.000    0.000    0.000    0.000    0.000    0.000 
#
# Total GULP energy -55934.104362 kJ/mol
# GULP energy per Si atom -5593.410436 kJ/mol
# Density = 2.785447 g / cm^3
# Si number density = 27.918011 Si / 1000 Ang^3
#
#
#
# Elastic Constant Matrix: (Units=GPa)
#
#
# Indices 1 2 3 4 5 6 
#
# 1 155.1203 33.1539 68.7109 -7.8703 -63.2437 20.9265
# 2 33.1539 110.0074 41.8074 14.1009 -24.7729 -11.5455
# 3 68.7109 41.8074 133.8072 -0.4790 -66.1626 4.2969
# 4 -7.8703 14.1009 -0.4790 35.9405 -0.1670 -8.3362
# 5 -63.2437 -24.7729 -66.1626 -0.1670 68.3564 -9.9873
# 6 20.9265 -11.5455 4.2969 -8.3362 -9.9873 25.4422
#
#
#
# Elastic Compliance Matrix: (Units=1/GPa)
#
#
# Indices 1 2 3 4 5 6 
#
# 1 0.011647 -0.002241 -0.001177 0.001898 0.007852 -0.006694
# 2 -0.002241 0.012088 -0.002348 -0.003651 0.001040 0.006937
# 3 -0.001177 -0.002348 0.015313 0.001647 0.013337 0.003091
# 4 0.001898 -0.003651 0.001647 0.031600 0.003295 0.008151
# 5 0.007852 0.001040 0.013337 0.003295 0.036219 0.007058
# 6 -0.006694 0.006937 0.003091 0.008151 0.007058 0.052878
#
#
# Mechanical properties :
#
#
# Convention : Reuss Voigt Hill
#
# Bulk Modulus (GPa) = 36.34084 76.25328 56.29706
# Shear Modulus (GPa) = 27.70877 42.96533 35.33705
#
# Velocity S-wave (km/s) = 3.15382 3.92724 3.56159
# Velocity P-wave (km/s) = 5.12907 6.92365 6.09279
#
# Compressibility (1/GPa) = 0.02751725
#
# Stress axis : x y z
#
# Youngs Moduli (GPa) = 85.85661 82.72613 65.30497
#
# Poissons Ratio (x) = 0.18537 0.07685
# Poissons Ratio (y) = 0.19238 0.15334
# Poissons Ratio (z) = 0.10103 0.19424
#
# Static dielectric constant tensor:
#      x y z
#    x 2.202790 0.039730 0.043070 
#    y 0.039730 2.187070 0.008190 
#    z 0.043070 0.008190 2.358670 
# 
# From -- ./inp_files/374419.got.cif
#   From: 2010.05.17/outbox.cif.g08.bks.cpg/sg2_188_cif.got.tgz:374419.got - 2010.06.03 11:33:40.
