data_PCOD9078096
_publ_section_title
;
Structure prediction by ZEFSAII (Michael W. Deem and Ramdas Pophale) SiO2 
 PCOD9078096
Probable space group: P -1
;
_chemical_formula_sum "Si O2"
_cell_formula_units_Z 16
_cell_length_a 17.256333
_cell_length_b 8.108527
_cell_length_c 7.004218
_cell_angle_alpha 56.302489
_cell_angle_beta 117.397404
_cell_angle_gamma 122.947775
_cell_volume 666.396734
_symmetry_space_group_name_H-M "P -1"
_symmetry_group_IT_number 2
_symmetry_cell_setting 'triclinic'
loop_
_space_group_symop_operation_xyz
x,y,z
-x,-y,-z
loop_
_atom_site_type_symbol
_atom_site_label
_atom_site_fract_x
_atom_site_fract_y
_atom_site_fract_z
Si Si1 0.951898 0.269224 0.987422
Si Si2 0.293453 0.103959 0.372762
Si Si3 0.780717 0.354472 0.548992
Si Si4 0.349911 0.179348 0.828196
Si Si5 0.140666 0.284719 0.127234
Si Si6 0.689121 0.312169 0.861298
Si Si7 0.154071 0.186221 0.655825
Si Si8 0.453724 0.506314 0.239583
O O1 0.035745 0.249660 0.966310
O O2 0.915599 0.051601 0.211392
O O3 0.860122 0.284981 0.778660
O O4 0.000000 0.500000 0.000000
O O5 0.322365 0.180384 0.572643
O O6 0.199625 0.152728 0.193131
O O7 0.384134 0.265517 0.255155
O O8 0.276454 0.854983 0.504579
O O9 0.708051 0.373158 0.617569
O O10 0.838940 0.591649 0.379604
O O11 0.259236 0.197339 0.808826
O O12 0.454640 0.355791 0.867592
O O13 0.343110 0.940790 0.010729
O O14 0.208742 0.537570 0.033308
O O15 0.133888 0.221107 0.387540
O O16 0.615372 0.373235 0.861950
O O17 0.500000 0.500000 0.500000
#
# Coordination Sequence:
#
# PCOD9078096 Si02
#       8
#     2   2   2   2   2   2   2   2
#     4  12  20  35  62  85 106 151 199 224 272 339
#     4   9  21  38  53  81 120 144 181 235 293 318
#     4  11  22  37  56  84 119 146 179 243 284 319
#     4  10  18  37  60  82 107 153 193 225 270 344
#     4   9  19  35  58  79 111 153 184 233 272 338
#     4  10  18  35  58  87 108 145 196 226 272 337
#     4  10  20  36  58  84 113 144 195 228 275 331
#     4   9  18  35  60  80 109 152 190 223 273 343
#
# _framework density 24.009722
#
# number of rings (size 3 to 8) (size 9 to 14) (size 15 to 20)
#    0.000    2.000    3.750    3.000    0.000    0.500 
#    4.500    6.875    0.000    0.000    0.000    0.000 
#    0.000    0.000    0.000    0.000    0.000    0.000 
#
# Total GULP energy -89303.631849 kJ/mol
# GULP energy per Si atom -5581.476991 kJ/mol
# Density = 2.395507 g / cm^3
# Si number density = 24.009722 Si / 1000 Ang^3
#
#
#
# Elastic Constant Matrix: (Units=GPa)
#
#
# Indices 1 2 3 4 5 6 
#
# 1 101.3948 48.4231 19.7687 -8.6243 -4.8287 28.7146
# 2 48.4231 147.3217 40.0740 -43.1562 -1.4265 2.8866
# 3 19.7687 40.0740 55.9549 -28.6015 -3.2211 13.5848
# 4 -8.6243 -43.1562 -28.6015 52.0798 0.0800 -3.6831
# 5 -4.8287 -1.4265 -3.2211 0.0800 27.4107 -1.3657
# 6 28.7146 2.8866 13.5848 -3.6831 -1.3657 41.0459
#
#
#
# Elastic Compliance Matrix: (Units=1/GPa)
#
#
# Indices 1 2 3 4 5 6 
#
# 1 0.015428 -0.005658 -0.000294 -0.003041 0.001874 -0.010509
# 2 -0.005658 0.011666 -0.004149 0.006813 -0.000643 0.005101
# 3 -0.000294 -0.004149 0.029154 0.011955 0.002725 -0.007988
# 4 -0.003041 0.006813 0.011955 0.030943 0.001159 0.000507
# 5 0.001874 -0.000643 0.002725 0.001159 0.037054 -0.000831
# 6 -0.010509 0.005101 -0.007988 0.000507 -0.000831 0.034017
#
#
# Mechanical properties :
#
#
# Convention : Reuss Voigt Hill
#
# Bulk Modulus (GPa) = 27.74172 57.91146 42.82659
# Shear Modulus (GPa) = 26.24949 37.20097 31.72523
#
# Velocity S-wave (km/s) = 3.31007 3.94053 3.63898
# Velocity P-wave (km/s) = 5.11744 6.69896 5.96088
#
# Compressibility (1/GPa) = 0.03604680
#
# Stress axis : x y z
#
# Youngs Moduli (GPa) = 64.81528 85.72047 34.30093
#
# Poissons Ratio (x) = 0.48501 0.01008
# Poissons Ratio (y) = 0.36673 0.14230
# Poissons Ratio (z) = 0.01905 0.35562
#
# Static dielectric constant tensor:
#      x y z
#    x 2.184130 0.032370 -0.082480 
#    y 0.032370 1.942200 0.009480 
#    z -0.082480 0.009480 1.992420 
# 
# From -- ./inp_files/202895.got.cif
#   From: 2010.05.17/outbox.cif.g08.bks.cpg/sg2_102_cif.got.tgz:202895.got - 2010.06.03 11:33:40.
