data_PCOD9078960
_publ_section_title
;
Structure prediction by ZEFSAII (Michael W. Deem and Ramdas Pophale) SiO2 
 PCOD9078960
Probable space group: P -1
;
_chemical_formula_sum "Si O2"
_cell_formula_units_Z 16
_cell_length_a 8.226186
_cell_length_b 14.731790
_cell_length_c 10.697453
_cell_angle_alpha 43.512564
_cell_angle_beta 102.783535
_cell_angle_gamma 79.053108
_cell_volume 742.552070
_symmetry_space_group_name_H-M "P -1"
_symmetry_group_IT_number 2
_symmetry_cell_setting 'triclinic'
loop_
_space_group_symop_operation_xyz
x,y,z
-x,-y,-z
loop_
_atom_site_type_symbol
_atom_site_label
_atom_site_fract_x
_atom_site_fract_y
_atom_site_fract_z
Si Si1 0.207043 0.850926 0.650366
Si Si2 0.194837 0.696270 0.035385
Si Si3 0.593362 0.818307 0.839029
Si Si4 0.507026 0.241985 0.853294
Si Si5 0.826499 0.968618 0.029315
Si Si6 0.110933 0.357689 0.561352
Si Si7 0.785011 0.003611 0.716778
Si Si8 0.976495 0.521858 0.124130
O O1 0.225090 0.715027 0.873982
O O2 0.376107 0.874415 0.707440
O O3 0.227650 0.854186 0.501667
O O4 0.000000 0.000000 0.500000
O O5 0.009232 0.859511 0.889354
O O6 0.384452 0.668684 0.171148
O O7 0.116462 0.581577 0.139273
O O8 0.660211 0.937644 0.701146
O O9 0.598394 0.781101 0.023349
O O10 0.751941 0.657476 0.965250
O O11 0.336316 0.315118 0.648732
O O12 0.682339 0.075391 0.005872
O O13 0.895909 0.791191 0.242996
O O14 0.712336 0.031414 0.817130
O O15 0.000000 0.000000 0.000000
O O16 0.000000 0.500000 0.500000
O O17 0.024808 0.395106 0.367526
O O18 0.000000 0.500000 0.000000
#
# Coordination Sequence:
#
# PCOD9078960 Si02
#       8
#     2   2   2   2   2   2   2   2
#     4   9  19  34  61  96 125 170 216 272 348 412
#     4   9  20  41  64  96 138 178 226 289 351 403
#     4  10  20  40  65  92 136 180 224 283 347 408
#     4  11  22  42  72 100 140 182 234 290 350 416
#     4  12  25  42  67 107 141 170 234 302 334 406
#     4  12  25  47  73 100 142 196 233 277 361 424
#     4  10  18  36  60  96 137 170 220 272 352 402
#     4  11  25  46  69  98 135 183 240 292 337 425
#
# _framework density 21.54731
#
# number of rings (size 3 to 8) (size 9 to 14) (size 15 to 20)
#    0.000    1.500    3.750    1.500    0.000    2.500 
#    9.000    2.500    0.000    0.000    0.000    0.000 
#    0.000    0.000    0.000    0.000    0.000    0.000 
#
# Total GULP energy -89139.920593 kJ/mol
# GULP energy per Si atom -5571.245037 kJ/mol
# Density = 2.149827 g / cm^3
# Si number density = 21.547310 Si / 1000 Ang^3
#
#
#
# Elastic Constant Matrix: (Units=GPa)
#
#
# Indices 1 2 3 4 5 6 
#
# 1 112.0921 15.9790 27.3866 -9.2937 20.9254 1.9391
# 2 15.9790 86.6231 34.4014 6.3839 -0.8933 -25.7177
# 3 27.3866 34.4014 78.0762 14.5255 -2.5923 0.7647
# 4 -9.2937 6.3839 14.5255 26.3155 -5.9410 -5.2181
# 5 20.9254 -0.8933 -2.5923 -5.9410 27.8024 11.6615
# 6 1.9391 -25.7177 0.7647 -5.2181 11.6615 36.6188
#
#
#
# Elastic Compliance Matrix: (Units=1/GPa)
#
#
# Indices 1 2 3 4 5 6 
#
# 1 0.012828 0.000962 -0.006504 0.006346 -0.010744 0.004458
# 2 0.000962 0.020240 -0.010187 0.002736 -0.007655 0.017204
# 3 -0.006504 -0.010187 0.022314 -0.012478 0.008979 -0.011914
# 4 0.006346 0.002736 -0.012478 0.048351 0.000942 0.008436
# 5 -0.010744 -0.007655 0.008979 0.000942 0.054114 -0.022094
# 6 0.004458 0.017204 -0.011914 0.008436 -0.022094 0.047641
#
#
# Mechanical properties :
#
#
# Convention : Reuss Voigt Hill
#
# Bulk Modulus (GPa) = 41.80068 48.03616 44.91842
# Shear Modulus (GPa) = 20.41469 31.41562 25.91516
#
# Velocity S-wave (km/s) = 3.08138 3.82250 3.47177
# Velocity P-wave (km/s) = 5.66582 6.46713 6.07969
#
# Compressibility (1/GPa) = 0.02392305
#
# Stress axis : x y z
#
# Youngs Moduli (GPa) = 77.95401 49.40830 44.81437
#
# Poissons Ratio (x) = -0.04753 0.29149
# Poissons Ratio (y) = -0.07498 0.45652
# Poissons Ratio (z) = 0.50705 0.50331
#
# Static dielectric constant tensor:
#      x y z
#    x 1.800960 0.044060 -0.000780 
#    y 0.044060 1.844370 0.084090 
#    z -0.000780 0.084090 1.875650 
# 
# From -- ./inp_files/401020.got.cif
#   From: 2010.05.17/outbox.cif.g08.bks.cpg/sg2_201_cif.got.tgz:401020.got - 2010.06.03 11:33:40.
