data_PCOD9078764
_publ_section_title
;
Structure prediction by ZEFSAII (Michael W. Deem and Ramdas Pophale) SiO2 
 PCOD9078764
Probable space group: P -1
;
_chemical_formula_sum "Si O2"
_cell_formula_units_Z 14
_cell_length_a 7.225254
_cell_length_b 11.862937
_cell_length_c 13.682857
_cell_angle_alpha 71.788337
_cell_angle_beta 112.861760
_cell_angle_gamma 55.274273
_cell_volume 629.992588
_symmetry_space_group_name_H-M "P -1"
_symmetry_group_IT_number 2
_symmetry_cell_setting 'triclinic'
loop_
_space_group_symop_operation_xyz
x,y,z
-x,-y,-z
loop_
_atom_site_type_symbol
_atom_site_label
_atom_site_fract_x
_atom_site_fract_y
_atom_site_fract_z
Si Si1 0.186150 0.327332 0.768495
Si Si2 0.602363 0.010251 0.281497
Si Si3 0.590927 0.193849 0.061868
Si Si4 0.176970 0.019239 0.134789
Si Si5 0.241200 0.556409 0.501999
Si Si6 0.360222 0.363714 0.156221
Si Si7 0.766936 0.358476 0.807177
O O1 0.312852 0.343289 0.882833
O O2 0.914722 0.476032 0.587723
O O3 0.030546 0.283944 0.802371
O O4 0.514692 0.154671 0.821512
O O5 0.327014 0.041396 0.236959
O O6 0.534742 0.162027 0.286187
O O7 0.538598 0.094594 0.136080
O O8 0.949571 0.782651 0.411526
O O9 0.560101 0.301593 0.115078
O O10 0.953835 0.025198 0.137993
O O11 0.929786 0.201422 0.963711
O O12 0.500000 0.500000 0.500000
O O13 0.462914 0.432409 0.675596
O O14 0.348000 0.469647 0.205724
O O15 0.000000 0.500000 0.000000
#
# Coordination Sequence:
#
# PCOD9078764 Si02
#       7
#     2   2   2   2   2   2   2
#     4  10  19  36  54  79 116 139 184 230 267 329
#     4   9  20  38  57  80 113 146 179 233 268 324
#     4  10  21  34  59  87 106 141 192 222 286 312
#     4  11  20  33  61  82 111 145 181 237 273 323
#     4   9  21  33  59  81 110 154 179 218 284 330
#     4  10  18  36  58  82 112 140 187 233 265 325
#     4  11  19  35  58  83 110 148 186 221 279 328
#
# _framework density 22.222483
#
# number of rings (size 3 to 8) (size 9 to 14) (size 15 to 20)
#    0.857    1.143    4.286    0.857    4.000    1.143 
#    0.000    0.714    9.429    3.429    0.000    0.000 
#    0.000    0.000    0.000    0.000    0.000    0.000 
#
# Total GULP energy -77959.465791 kJ/mol
# GULP energy per Si atom -5568.533271 kJ/mol
# Density = 2.217190 g / cm^3
# Si number density = 22.222483 Si / 1000 Ang^3
#
#
#
# Elastic Constant Matrix: (Units=GPa)
#
#
# Indices 1 2 3 4 5 6 
#
# 1 58.3391 12.7428 11.3137 -3.4657 17.5451 0.5337
# 2 12.7428 80.5978 14.0935 -3.9519 8.8301 5.2657
# 3 11.3137 14.0935 96.2888 -11.6760 19.7397 6.2541
# 4 -3.4657 -3.9519 -11.6760 26.6306 0.8767 6.4433
# 5 17.5451 8.8301 19.7397 0.8767 29.3524 -4.9582
# 6 0.5337 5.2657 6.2541 6.4433 -4.9582 19.7601
#
#
#
# Elastic Compliance Matrix: (Units=1/GPa)
#
#
# Indices 1 2 3 4 5 6 
#
# 1 0.022070 -0.001452 0.001825 0.005508 -0.015229 -0.006404
# 2 -0.001452 0.013655 -0.000222 0.003237 -0.004137 -0.005623
# 3 0.001825 -0.000222 0.014828 0.009850 -0.013183 -0.011203
# 4 0.005508 0.003237 0.009850 0.049517 -0.016493 -0.024414
# 5 -0.015229 -0.004137 -0.013183 -0.016493 0.058107 0.025644
# 6 -0.006404 -0.005623 -0.011203 -0.024414 0.025644 0.070219
#
#
# Mechanical properties :
#
#
# Convention : Reuss Voigt Hill
#
# Bulk Modulus (GPa) = 19.66331 34.61398 27.13865
# Shear Modulus (GPa) = 20.40439 28.28699 24.34569
#
# Velocity S-wave (km/s) = 3.03345 3.57164 3.31349
# Velocity P-wave (km/s) = 4.59746 5.71128 5.18437
#
# Compressibility (1/GPa) = 0.05085613
#
# Stress axis : x y z
#
# Youngs Moduli (GPa) = 45.31000 73.23342 67.43927
#
# Poissons Ratio (x) = 0.10630 -0.12309
# Poissons Ratio (y) = 0.06577 0.01499
# Poissons Ratio (z) = -0.08270 0.01628
#
# Static dielectric constant tensor:
#      x y z
#    x 1.842290 0.025430 0.006700 
#    y 0.025430 1.897130 0.024550 
#    z 0.006700 0.024550 1.862450 
# 
# From -- ./inp_files/280038.got.cif
#   From: 2010.05.17/outbox.cif.g08.bks.cpg/sg2_141_cif.got.tgz:280038.got - 2010.06.03 11:33:40.
