data_PCOD9078775
_publ_section_title
;
Structure prediction by ZEFSAII (Michael W. Deem and Ramdas Pophale) SiO2 
 PCOD9078775
Probable space group: P -1
;
_chemical_formula_sum "Si O2"
_cell_formula_units_Z 14
_cell_length_a 8.489895
_cell_length_b 10.223259
_cell_length_c 12.591154
_cell_angle_alpha 147.257699
_cell_angle_beta 89.175936
_cell_angle_gamma 79.775590
_cell_volume 553.502490
_symmetry_space_group_name_H-M "P -1"
_symmetry_group_IT_number 2
_symmetry_cell_setting 'triclinic'
loop_
_space_group_symop_operation_xyz
x,y,z
-x,-y,-z
loop_
_atom_site_type_symbol
_atom_site_label
_atom_site_fract_x
_atom_site_fract_y
_atom_site_fract_z
Si Si1 0.630239 0.637805 0.634665
Si Si2 0.013012 0.417760 0.096843
Si Si3 0.798490 0.884457 0.279531
Si Si4 0.434524 0.010423 0.385087
Si Si5 0.299897 0.657094 0.244723
Si Si6 0.445307 0.771391 0.939886
Si Si7 0.809134 0.426434 0.298715
O O1 0.500000 0.500000 0.500000
O O2 0.598269 0.668455 0.782142
O O3 0.799146 0.465782 0.452949
O O4 0.588673 0.943145 0.821385
O O5 0.861139 0.640604 0.192644
O O6 0.972217 0.380291 0.193076
O O7 0.167260 0.515598 0.141728
O O8 0.068970 0.163377 0.849806
O O9 0.613219 0.922370 0.265795
O O10 0.777241 0.136717 0.519840
O O11 0.324256 0.827255 0.262783
O O12 0.500000 0.000000 0.500000
O O13 0.321831 0.294985 0.546968
O O14 0.485035 0.454526 0.129736
O O15 0.280134 0.768838 0.877119
#
# Coordination Sequence:
#
# PCOD9078775 Si02
#       7
#     2   2   2   2   2   2   2
#     4   9  22  39  65  87 112 145 201 255 291 339
#     4  11  23  34  55  87 127 163 191 227 297 344
#     4  10  21  38  51  81 127 163 189 236 276 348
#     4  10  18  36  58  83 123 155 194 239 277 340
#     4  11  21  36  60  87 121 155 198 240 284 347
#     4  10  20  40  64  89 109 152 203 242 294 344
#     4  11  20  39  59  87 121 155 193 241 288 350
#
# _framework density 25.293472000000001
#
# number of rings (size 3 to 8) (size 9 to 14) (size 15 to 20)
#    0.000    1.714    5.714    0.429    2.000    1.714 
#    2.571    0.714    0.000    8.571    0.000    0.000 
#    0.000    0.000    0.000    0.000    0.000    0.000 
#
# Total GULP energy -78158.542939 kJ/mol
# GULP energy per Si atom -5582.753067 kJ/mol
# Density = 2.523590 g / cm^3
# Si number density = 25.293472 Si / 1000 Ang^3
#
#
#
# Elastic Constant Matrix: (Units=GPa)
#
#
# Indices 1 2 3 4 5 6 
#
# 1 47.2959 -1.1750 15.1629 -2.2109 0.4853 9.1041
# 2 -1.1750 20.9346 28.8426 -0.7644 7.2478 14.5049
# 3 15.1629 28.8426 174.3484 -17.3234 -3.3916 14.9290
# 4 -2.2109 -0.7644 -17.3234 47.2934 10.8367 -6.7144
# 5 0.4853 7.2478 -3.3916 10.8367 31.9590 -5.9549
# 6 9.1041 14.5049 14.9290 -6.7144 -5.9549 23.7208
#
#
#
# Elastic Compliance Matrix: (Units=1/GPa)
#
#
# Indices 1 2 3 4 5 6 
#
# 1 0.033971 0.052051 -0.008300 -0.002284 -0.020912 -0.045539
# 2 0.052051 0.252687 -0.033797 -0.010313 -0.091562 -0.179126
# 3 -0.008300 -0.033797 0.010814 0.003314 0.011714 0.020924
# 4 -0.002284 -0.010313 0.003314 0.024468 -0.003495 0.011146
# 5 -0.020912 -0.091562 0.011714 -0.003495 0.068369 0.072817
# 6 -0.045539 -0.179126 0.020924 0.011146 0.072817 0.177435
#
#
# Mechanical properties :
#
#
# Convention : Reuss Voigt Hill
#
# Bulk Modulus (GPa) = 3.15079 36.47109 19.81094
# Shear Modulus (GPa) = 7.64961 33.91120 20.78041
#
# Velocity S-wave (km/s) = 1.74095 3.66554 2.86942
# Velocity P-wave (km/s) = 2.29991 5.68906 4.33907
#
# Compressibility (1/GPa) = 0.31738090
#
# Stress axis : x y z
#
# Youngs Moduli (GPa) = 29.43664 3.95747 92.47375
#
# Poissons Ratio (x) = -0.20599 0.76750
# Poissons Ratio (y) = -1.53220 3.12531
# Poissons Ratio (z) = 0.24431 0.13375
#
# Static dielectric constant tensor:
#      x y z
#    x 2.052960 0.025710 0.059420 
#    y 0.025710 2.118970 -0.070160 
#    z 0.059420 -0.070160 2.072670 
# 
# From -- ./inp_files/241520.got.cif
#   From: 2010.05.17/outbox.cif.g08.bks.cpg/sg2_121_cif.got.tgz:241520.got - 2010.06.03 11:33:40.
