data_PCOD9078625
_publ_section_title
;
Structure prediction by ZEFSAII (Michael W. Deem and Ramdas Pophale) SiO2 
 PCOD9078625
Probable space group: P -1
;
_chemical_formula_sum "Si O2"
_cell_formula_units_Z 16
_cell_length_a 13.641665
_cell_length_b 11.430249
_cell_length_c 18.291604
_cell_angle_alpha 132.167036
_cell_angle_beta 157.162755
_cell_angle_gamma 54.328418
_cell_volume 814.191002
_symmetry_space_group_name_H-M "P -1"
_symmetry_group_IT_number 2
_symmetry_cell_setting 'triclinic'
loop_
_space_group_symop_operation_xyz
x,y,z
-x,-y,-z
loop_
_atom_site_type_symbol
_atom_site_label
_atom_site_fract_x
_atom_site_fract_y
_atom_site_fract_z
Si Si1 0.442000 0.804683 0.321471
Si Si2 0.129772 0.929341 0.654604
Si Si3 0.045510 0.423410 0.619185
Si Si4 0.798218 0.259563 0.076342
Si Si5 0.596763 0.506624 0.244552
Si Si6 0.411255 0.834535 0.954331
Si Si7 0.289265 0.115678 0.312206
Si Si8 0.628152 0.975844 0.390989
O O1 0.406258 0.627965 0.190896
O O2 0.528991 0.809080 0.466310
O O3 0.669048 0.898757 0.466998
O O4 0.234513 0.926321 0.216490
O O5 0.029880 0.756056 0.481318
O O6 0.887046 0.017581 0.543778
O O7 0.351782 0.035622 0.809190
O O8 0.256831 0.892711 0.804432
O O9 0.171226 0.549482 0.817549
O O10 0.234048 0.424578 0.679576
O O11 0.794534 0.487679 0.439134
O O12 0.038657 0.199410 0.177287
O O13 0.774489 0.207161 0.122902
O O14 0.548643 0.165489 0.830118
O O15 0.489417 0.329048 0.072426
O O16 0.450757 0.110756 0.346692
#
# Coordination Sequence:
#
# PCOD9078625 Si02
#       8
#     2   2   2   2   2   2   2   2
#     4   9  16  29  50  73  92 123 157 206 233 274
#     4  10  18  36  48  73  96 131 165 191 241 281
#     4   9  16  26  51  69 100 121 155 204 233 287
#     4  11  19  31  47  78 100 128 155 196 249 281
#     4   9  14  29  48  76  90 121 162 200 243 268
#     4   9  21  31  54  69 101 127 158 201 238 294
#     4   9  18  30  49  75  95 125 161 205 238 273
#     4  10  20  29  50  71 103 126 160 200 232 291
#
# _framework density 19.651409999999998
#
# number of rings (size 3 to 8) (size 9 to 14) (size 15 to 20)
#    0.750    1.750    2.500    1.875    0.000    1.000 
#    0.000    0.000    0.000    2.250    0.000    2.625 
#    0.000    0.000    0.000    0.000    0.000    0.000 
#
# Total GULP energy -89114.430647 kJ/mol
# GULP energy per Si atom -5569.651915 kJ/mol
# Density = 1.960668 g / cm^3
# Si number density = 19.651410 Si / 1000 Ang^3
#
#
#
# Elastic Constant Matrix: (Units=GPa)
#
#
# Indices 1 2 3 4 5 6 
#
# 1 30.2763 25.5389 20.6147 6.1874 -4.5569 -12.1830
# 2 25.5389 75.5798 22.6581 9.3084 2.7159 -29.4333
# 3 20.6147 22.6581 62.8721 18.7803 6.0183 -12.0973
# 4 6.1874 9.3084 18.7803 27.5386 -1.8468 -2.0595
# 5 -4.5569 2.7159 6.0183 -1.8468 26.8341 1.4284
# 6 -12.1830 -29.4333 -12.0973 -2.0595 1.4284 28.1506
#
#
#
# Elastic Compliance Matrix: (Units=1/GPa)
#
#
# Indices 1 2 3 4 5 6 
#
# 1 0.059465 -0.015477 -0.016234 0.004137 0.015479 0.002094
# 2 -0.015477 0.027976 0.002048 -0.006136 -0.007585 0.023368
# 3 -0.016234 0.002048 0.027505 -0.016040 -0.010572 0.006298
# 4 0.004137 -0.006136 -0.016040 0.048350 0.008697 -0.008423
# 5 0.015479 -0.007585 -0.010572 0.008697 0.044025 -0.007373
# 6 0.002094 0.023368 0.006298 -0.008423 -0.007373 0.063327
#
#
# Mechanical properties :
#
#
# Convention : Reuss Voigt Hill
#
# Bulk Modulus (GPa) = 17.97933 34.03907 26.00920
# Shear Modulus (GPa) = 14.34665 23.16577 18.75621
#
# Velocity S-wave (km/s) = 2.70489 3.43714 3.09276
# Velocity P-wave (km/s) = 4.35020 5.75421 5.10074
#
# Compressibility (1/GPa) = 0.05561941
#
# Stress axis : x y z
#
# Youngs Moduli (GPa) = 16.81660 35.74552 36.35651
#
# Poissons Ratio (x) = 0.55323 0.59022
# Poissons Ratio (y) = 0.26027 -0.07446
# Poissons Ratio (z) = 0.27301 -0.07321
#
# Static dielectric constant tensor:
#      x y z
#    x 1.703320 -0.003820 -0.051710 
#    y -0.003820 1.740660 -0.015320 
#    z -0.051710 -0.015320 1.711480 
# 
# From -- ./inp_files/235272.got.cif
#   From: 2010.05.17/outbox.cif.g08.bks.cpg/sg2_118_cif.got.tgz:235272.got - 2010.06.03 11:33:40.
