data_PCOD9078404
_publ_section_title
;
Structure prediction by ZEFSAII (Michael W. Deem and Ramdas Pophale) SiO2 
 PCOD9078404
Probable space group: P -1
;
_chemical_formula_sum "Si O2"
_cell_formula_units_Z 16
_cell_length_a 9.621341
_cell_length_b 9.146799
_cell_length_c 11.737679
_cell_angle_alpha 74.132903
_cell_angle_beta 57.916604
_cell_angle_gamma 99.713938
_cell_volume 776.892092
_symmetry_space_group_name_H-M "P -1"
_symmetry_group_IT_number 2
_symmetry_cell_setting 'triclinic'
loop_
_space_group_symop_operation_xyz
x,y,z
-x,-y,-z
loop_
_atom_site_type_symbol
_atom_site_label
_atom_site_fract_x
_atom_site_fract_y
_atom_site_fract_z
Si Si1 0.309171 0.975163 0.323388
Si Si2 0.663531 0.163637 0.439897
Si Si3 0.318884 0.759114 0.832118
Si Si4 0.693703 0.487469 0.919236
Si Si5 0.529215 0.248843 0.848106
Si Si6 0.163188 0.142904 0.178148
Si Si7 0.455022 0.339871 0.627549
Si Si8 0.866895 0.990585 0.158320
O O1 0.231852 0.892377 0.496702
O O2 0.396970 0.875208 0.223411
O O3 0.472442 0.144097 0.252103
O O4 0.173886 0.023170 0.297877
O O5 0.728114 0.270948 0.274983
O O6 0.580669 0.258716 0.536729
O O7 0.500000 0.000000 0.500000
O O8 0.238485 0.897595 0.860870
O O9 0.263815 0.599988 0.969723
O O10 0.675384 0.364619 0.847932
O O11 0.818982 0.678531 0.822558
O O12 0.500000 0.500000 0.000000
O O13 0.492947 0.360026 0.741142
O O14 0.340157 0.167981 0.015690
O O15 0.983936 0.067013 0.200840
O O16 0.500000 0.500000 0.500000
O O17 0.261371 0.197683 0.727090
O O18 0.000000 0.000000 0.000000
#
# Coordination Sequence:
#
# PCOD9078404 Si02
#       8
#     2   2   2   2   2   2   2   2
#     4  10  18  35  62  88 116 173 216 252 300 386
#     4   9  19  36  63  87 118 165 221 247 304 372
#     4  11  20  38  65  91 129 167 218 258 310 387
#     4  10  22  34  60  95 123 162 211 267 305 363
#     4  10  19  36  60  92 119 166 220 252 304 373
#     4  11  22  36  59  94 132 158 208 264 324 367
#     4  11  23  38  65  94 123 170 215 266 306 379
#     4  12  24  40  62  99 134 165 205 265 338 372
#
# _framework density 20.59488
#
# number of rings (size 3 to 8) (size 9 to 14) (size 15 to 20)
#    0.000    1.500    7.500    0.375    5.250    0.500 
#    0.000    0.625    0.000    1.500    0.000    0.000 
#    0.000    0.000    0.000    0.000    0.000    0.000 
#
# Total GULP energy -89155.829964 kJ/mol
# GULP energy per Si atom -5572.239373 kJ/mol
# Density = 2.054800 g / cm^3
# Si number density = 20.594880 Si / 1000 Ang^3
#
#
#
# Elastic Constant Matrix: (Units=GPa)
#
#
# Indices 1 2 3 4 5 6 
#
# 1 94.8589 28.3029 36.7912 -22.8893 37.9860 -1.9084
# 2 28.3029 66.0588 43.8826 -15.1408 18.8004 4.3850
# 3 36.7912 43.8826 102.3285 -10.1029 38.7280 -0.6342
# 4 -22.8893 -15.1408 -10.1029 35.8258 -3.3519 7.1570
# 5 37.9860 18.8004 38.7280 -3.3519 42.1714 0.3290
# 6 -1.9084 4.3850 -0.6342 7.1570 0.3290 18.6882
#
#
#
# Elastic Compliance Matrix: (Units=1/GPa)
#
#
# Indices 1 2 3 4 5 6 
#
# 1 0.020433 -0.001874 0.001327 0.011248 -0.017884 -0.001421
# 2 -0.001874 0.024569 -0.008977 0.008532 -0.000268 -0.009523
# 3 0.001327 -0.008977 0.018600 0.000368 -0.014269 0.002983
# 4 0.011248 0.008532 0.000368 0.041062 -0.010882 -0.016375
# 5 -0.017884 -0.000268 -0.014269 -0.010882 0.052172 0.001001
# 6 -0.001421 -0.009523 0.002983 -0.016375 0.001001 0.061954
#
#
# Mechanical properties :
#
#
# Convention : Reuss Voigt Hill
#
# Bulk Modulus (GPa) = 22.44509 53.46661 37.95585
# Shear Modulus (GPa) = 19.78711 29.62172 24.70441
#
# Velocity S-wave (km/s) = 3.10300 3.79661 3.46720
# Velocity P-wave (km/s) = 4.87445 6.72581 5.87353
#
# Compressibility (1/GPa) = 0.04455318
#
# Stress axis : x y z
#
# Youngs Moduli (GPa) = 48.93951 40.70231 53.76262
#
# Poissons Ratio (x) = 0.07629 -0.07135
# Poissons Ratio (y) = 0.09173 0.48265
# Poissons Ratio (z) = -0.06495 0.36540
#
# Static dielectric constant tensor:
#      x y z
#    x 1.820470 -0.081780 0.079280 
#    y -0.081780 1.809950 -0.039230 
#    z 0.079280 -0.039230 1.835070 
# 
# From -- ./inp_files/381654.got.cif
#   From: 2010.05.17/outbox.cif.g08.bks.cpg/sg2_191_cif.got.tgz:381654.got - 2010.06.03 11:33:40.
