data_PCOD9078350
_publ_section_title
;
Structure prediction by ZEFSAII (Michael W. Deem and Ramdas Pophale) SiO2 
 PCOD9078350
Probable space group: P -1
;
_chemical_formula_sum "Si O2"
_cell_formula_units_Z 14
_cell_length_a 10.162365
_cell_length_b 19.746878
_cell_length_c 8.084275
_cell_angle_alpha 51.864486
_cell_angle_beta 125.008676
_cell_angle_gamma 156.920945
_cell_volume 500.123566
_symmetry_space_group_name_H-M "P -1"
_symmetry_group_IT_number 2
_symmetry_cell_setting 'triclinic'
loop_
_space_group_symop_operation_xyz
x,y,z
-x,-y,-z
loop_
_atom_site_type_symbol
_atom_site_label
_atom_site_fract_x
_atom_site_fract_y
_atom_site_fract_z
Si Si1 0.677748 0.774773 0.770505
Si Si2 0.120392 0.916678 0.298075
Si Si3 0.228400 0.443912 0.169990
Si Si4 0.147943 0.382026 0.572049
Si Si5 0.306419 0.741515 0.332379
Si Si6 0.650910 0.840807 0.138429
Si Si7 0.847629 0.121062 0.248060
O O1 0.493146 0.764177 0.558703
O O2 0.426567 0.609382 0.963686
O O3 0.011599 0.969012 0.807606
O O4 0.834336 0.779692 0.748841
O O5 0.217463 0.935750 0.522521
O O6 0.362830 0.100634 0.112951
O O7 0.074850 0.810701 0.314020
O O8 0.762002 0.797586 0.234624
O O9 0.106684 0.406574 0.324903
O O10 0.487277 0.486421 0.329359
O O11 0.949402 0.268333 0.116293
O O12 0.032205 0.387143 0.631085
O O13 0.339845 0.706871 0.236406
O O14 0.538553 0.936149 0.203585
#
# Coordination Sequence:
#
# PCOD9078350 Si02
#       7
#     2   2   2   2   2   2   2
#     4  11  19  39  63  92 118 167 197 254 296 377
#     4  10  18  35  61  90 117 162 201 240 297 370
#     4  10  22  40  63  84 126 172 197 232 318 380
#     4  10  23  40  62  90 126 160 202 252 302 362
#     4  11  22  39  65  96 121 148 211 267 291 337
#     4  10  19  35  63  91 118 162 204 247 298 363
#     4  10  20  38  65  90 119 158 207 250 300 357
#
# _framework density 27.993082000000001
#
# number of rings (size 3 to 8) (size 9 to 14) (size 15 to 20)
#    0.000    1.714    4.286    1.286    0.000    3.429 
#    0.000    0.714    3.143    0.000    0.000    0.000 
#    0.000    0.000    0.000    0.000    0.000    0.000 
#
# Total GULP energy -78556.976639 kJ/mol
# GULP energy per Si atom -5611.212617 kJ/mol
# Density = 2.792937 g / cm^3
# Si number density = 27.993082 Si / 1000 Ang^3
#
#
#
# Elastic Constant Matrix: (Units=GPa)
#
#
# Indices 1 2 3 4 5 6 
#
# 1 170.1920 18.4914 48.2007 4.0555 -30.4395 1.1022
# 2 18.4914 90.3186 14.9268 -6.2583 6.5541 -3.9809
# 3 48.2007 14.9268 145.7874 -15.9129 1.7788 -3.4473
# 4 4.0555 -6.2583 -15.9129 36.1834 -10.8538 7.3915
# 5 -30.4395 6.5541 1.7788 -10.8538 44.6320 3.5991
# 6 1.1022 -3.9809 -3.4473 7.3915 3.5991 36.4220
#
#
#
# Elastic Compliance Matrix: (Units=1/GPa)
#
#
# Indices 1 2 3 4 5 6 
#
# 1 0.007809 -0.001665 -0.002545 -0.000343 0.005681 -0.001151
# 2 -0.001665 0.011817 -0.000494 0.000909 -0.002742 0.001382
# 3 -0.002545 -0.000494 0.008140 0.003378 -0.001184 0.000225
# 4 -0.000343 0.000909 0.003378 0.033217 0.008149 -0.007117
# 5 0.005681 -0.002742 -0.001184 0.008149 0.029124 -0.005115
# 6 -0.001151 0.001382 0.000225 -0.007117 -0.005115 0.029613
#
#
# Mechanical properties :
#
#
# Convention : Reuss Voigt Hill
#
# Bulk Modulus (GPa) = 54.47398 63.28173 58.87786
# Shear Modulus (GPa) = 36.96890 45.09275 41.03083
#
# Velocity S-wave (km/s) = 3.63801 4.01790 3.83266
# Velocity P-wave (km/s) = 6.09499 6.64680 6.37687
#
# Compressibility (1/GPa) = 0.01835739
#
# Stress axis : x y z
#
# Youngs Moduli (GPa) = 128.05281 84.62197 122.84978
#
# Poissons Ratio (x) = 0.14089 0.31271
# Poissons Ratio (y) = 0.21320 0.06071
# Poissons Ratio (z) = 0.32596 0.04182
#
# Static dielectric constant tensor:
#      x y z
#    x 2.139990 0.021920 -0.022050 
#    y 0.021920 2.236160 0.001320 
#    z -0.022050 0.001320 2.161010 
# 
# From -- ./inp_files/320076.got.cif
#   From: 2010.05.17/outbox.cif.g08.bks.cpg/sg2_161_cif.got.tgz:320076.got - 2010.06.03 11:33:40.
