data_PCOD9078401
_publ_section_title
;
Structure prediction by ZEFSAII (Michael W. Deem and Ramdas Pophale) SiO2 
 PCOD9078401
Probable space group: P -1
;
_chemical_formula_sum "Si O2"
_cell_formula_units_Z 16
_cell_length_a 14.115405
_cell_length_b 7.457431
_cell_length_c 9.343913
_cell_angle_alpha 47.041476
_cell_angle_beta 88.966323
_cell_angle_gamma 68.533345
_cell_volume 630.066960
_symmetry_space_group_name_H-M "P -1"
_symmetry_group_IT_number 2
_symmetry_cell_setting 'triclinic'
loop_
_space_group_symop_operation_xyz
x,y,z
-x,-y,-z
loop_
_atom_site_type_symbol
_atom_site_label
_atom_site_fract_x
_atom_site_fract_y
_atom_site_fract_z
Si Si1 0.127207 0.335296 0.716304
Si Si2 0.222145 0.685593 0.597954
Si Si3 0.483770 0.992753 0.337729
Si Si4 0.637691 0.161644 0.064343
Si Si5 0.945102 0.092677 0.102633
Si Si6 0.032818 0.217743 0.309425
Si Si7 0.736132 0.508003 0.988600
Si Si8 0.524428 0.688906 0.237863
O O1 0.163175 0.572603 0.547584
O O2 0.034872 0.499055 0.751826
O O3 0.079088 0.167356 0.713362
O O4 0.250822 0.080914 0.876917
O O5 0.209263 0.563257 0.818728
O O6 0.350426 0.533281 0.662386
O O7 0.163111 0.022739 0.420113
O O8 0.500000 0.000000 0.500000
O O9 0.506430 0.729798 0.384401
O O10 0.568751 0.071580 0.217307
O O11 0.357227 0.186565 0.200867
O O12 0.558953 0.352145 0.837099
O O13 0.672614 0.333710 0.073031
O O14 0.828932 0.369916 0.943915
O O15 0.003773 0.198078 0.156292
O O16 0.000000 0.000000 0.000000
O O17 0.000000 0.000000 0.500000
O O18 0.500000 0.000000 0.000000
#
# Coordination Sequence:
#
# PCOD9078401 Si02
#       8
#     2   2   2   2   2   2   2   2
#     4  10  20  40  66  92 123 165 214 256 313 370
#     4  11  19  38  66  91 121 163 218 259 298 371
#     4  11  22  36  59  93 129 158 203 270 320 368
#     4  10  20  38  69  91 118 170 220 246 308 390
#     4  11  25  42  63  92 128 167 209 267 324 373
#     4  10  22  39  63  91 124 161 215 263 302 375
#     4  11  21  40  64  89 125 167 216 254 310 391
#     4  10  18  35  62  87 119 166 211 246 305 378
#
# _framework density 25.394126
#
# number of rings (size 3 to 8) (size 9 to 14) (size 15 to 20)
#    0.000    1.500    7.500    0.375    0.000    3.500 
#    0.000    0.625    5.500    0.000    0.000    0.000 
#    0.000    0.000    0.000    0.000    0.000    0.000 
#
# Total GULP energy -89151.787560 kJ/mol
# GULP energy per Si atom -5571.986723 kJ/mol
# Density = 2.533633 g / cm^3
# Si number density = 25.394126 Si / 1000 Ang^3
#
#
#
# Elastic Constant Matrix: (Units=GPa)
#
#
# Indices 1 2 3 4 5 6 
#
# 1 72.4881 54.0529 44.6815 -11.9749 28.3747 -20.8105
# 2 54.0529 178.6895 52.7609 4.2488 19.9828 -42.7303
# 3 44.6815 52.7609 71.9780 20.7888 16.9150 -14.4498
# 4 -11.9749 4.2488 20.7888 41.7658 -0.2906 11.4187
# 5 28.3747 19.9828 16.9150 -0.2906 35.2383 -10.8208
# 6 -20.8105 -42.7303 -14.4498 11.4187 -10.8208 58.0445
#
#
#
# Elastic Compliance Matrix: (Units=1/GPa)
#
#
# Indices 1 2 3 4 5 6 
#
# 1 0.051017 -0.004915 -0.032735 0.032421 -0.023620 -0.004257
# 2 -0.004915 0.008748 -0.001912 -0.002704 0.001428 0.005000
# 3 -0.032735 -0.001912 0.044492 -0.032874 0.007602 0.005816
# 4 0.032421 -0.002704 -0.032874 0.052841 -0.011778 -0.011141
# 5 -0.023620 0.001428 0.007602 -0.011778 0.044398 0.005069
# 6 -0.004257 0.005000 0.005816 -0.011141 0.005069 0.023967
#
#
# Mechanical properties :
#
#
# Convention : Reuss Voigt Hill
#
# Bulk Modulus (GPa) = 39.78843 69.57180 54.68012
# Shear Modulus (GPa) = 15.97622 38.45374 27.21498
#
# Velocity S-wave (km/s) = 2.51097 3.89559 3.27724
# Velocity P-wave (km/s) = 4.91009 6.90583 5.99164
#
# Compressibility (1/GPa) = 0.02513294
#
# Stress axis : x y z
#
# Youngs Moduli (GPa) = 19.60112 114.31405 22.47608
#
# Poissons Ratio (x) = 0.56180 0.73576
# Poissons Ratio (y) = 0.09633 0.04298
# Poissons Ratio (z) = 0.64165 0.21859
#
# Static dielectric constant tensor:
#      x y z
#    x 2.124720 0.038410 -0.037480 
#    y 0.038410 2.089740 -0.105230 
#    z -0.037480 -0.105230 2.771020 
# 
# From -- ./inp_files/328433.got.cif
#   From: 2010.05.17/outbox.cif.g08.bks.cpg/sg2_165_cif.got.tgz:328433.got - 2010.06.03 11:33:40.
