data_PCOD9078428
_publ_section_title
;
Structure prediction by ZEFSAII (Michael W. Deem and Ramdas Pophale) SiO2 
 PCOD9078428
Probable space group: P -1
;
_chemical_formula_sum "Si O2"
_cell_formula_units_Z 14
_cell_length_a 7.116624
_cell_length_b 11.034221
_cell_length_c 8.187826
_cell_angle_alpha 121.460663
_cell_angle_beta 103.579344
_cell_angle_gamma 99.082813
_cell_volume 501.702962
_symmetry_space_group_name_H-M "P -1"
_symmetry_group_IT_number 2
_symmetry_cell_setting 'triclinic'
loop_
_space_group_symop_operation_xyz
x,y,z
-x,-y,-z
loop_
_atom_site_type_symbol
_atom_site_label
_atom_site_fract_x
_atom_site_fract_y
_atom_site_fract_z
Si Si1 0.850014 0.221576 0.173982
Si Si2 0.496688 0.134421 0.285453
Si Si3 0.720592 0.968968 0.383483
Si Si4 0.205464 0.534146 0.867977
Si Si5 0.286284 0.562110 0.259701
Si Si6 0.116440 0.222744 0.531601
Si Si7 0.796185 0.786097 0.959114
O O1 0.660706 0.122903 0.172256
O O2 0.764220 0.351861 0.192244
O O3 0.036092 0.260961 0.369581
O O4 0.962958 0.180369 0.011847
O O5 0.591225 0.300665 0.504181
O O6 0.299107 0.140919 0.152589
O O7 0.516734 0.004240 0.320050
O O8 0.753497 0.887940 0.498478
O O9 0.762540 0.862984 0.173986
O O10 0.907136 0.129664 0.520508
O O11 0.253460 0.383474 0.739982
O O12 0.957683 0.472555 0.790105
O O13 0.312832 0.607238 0.106797
O O14 0.305628 0.396872 0.178596
#
# Coordination Sequence:
#
# PCOD9078428 Si02
#       7
#     2   2   2   2   2   2   2
#     4  10  23  37  65  92 118 156 206 247 301 350
#     4  11  23  42  61  91 122 159 202 246 299 359
#     4  10  21  38  61  88 124 163 197 240 305 363
#     4  10  18  35  62  91 121 153 201 253 297 350
#     4  10  20  36  60  90 120 156 202 242 299 358
#     4  10  19  36  61  91 118 160 203 241 299 363
#     4  11  23  40  62  89 125 159 198 250 298 353
#
# _framework density 27.904955999999999
#
# number of rings (size 3 to 8) (size 9 to 14) (size 15 to 20)
#    0.000    1.714    4.286    1.286    2.000    2.286 
#    0.000    2.857    0.000    0.000    0.000    0.000 
#    0.000    0.000    0.000    0.000    0.000    0.000 
#
# Total GULP energy -78399.763268 kJ/mol
# GULP energy per Si atom -5599.983091 kJ/mol
# Density = 2.784144 g / cm^3
# Si number density = 27.904956 Si / 1000 Ang^3
#
#
#
# Elastic Constant Matrix: (Units=GPa)
#
#
# Indices 1 2 3 4 5 6 
#
# 1 87.9627 15.1910 18.6319 7.1492 7.5348 -33.9290
# 2 15.1910 216.8232 65.4096 -17.0269 -2.2988 -30.4954
# 3 18.6319 65.4096 124.0625 11.7288 1.4801 1.1604
# 4 7.1492 -17.0269 11.7288 54.9246 -8.4418 0.2199
# 5 7.5348 -2.2988 1.4801 -8.4418 31.0794 2.2998
# 6 -33.9290 -30.4954 1.1604 0.2199 2.2998 44.6996
#
#
#
# Elastic Compliance Matrix: (Units=1/GPa)
#
#
# Indices 1 2 3 4 5 6 
#
# 1 0.018557 0.001769 -0.003600 -0.002071 -0.005921 0.015701
# 2 0.001769 0.006843 -0.004208 0.002858 0.000605 0.006075
# 3 -0.003600 -0.004208 0.011188 -0.003267 -0.000425 -0.005855
# 4 -0.002071 0.002858 -0.003267 0.021073 0.006592 0.000020
# 5 -0.005921 0.000605 -0.000425 0.006592 0.035907 -0.005951
# 6 0.015701 0.006075 -0.005855 0.000020 -0.005951 0.038891
#
#
# Mechanical properties :
#
#
# Convention : Reuss Voigt Hill
#
# Bulk Modulus (GPa) = 40.79894 69.70151 55.25022
# Shear Modulus (GPa) = 32.74244 48.11509 40.42876
#
# Velocity S-wave (km/s) = 3.42914 4.15691 3.81044
# Velocity P-wave (km/s) = 5.50737 6.93342 6.26113
#
# Compressibility (1/GPa) = 0.02451044
#
# Stress axis : x y z
#
# Youngs Moduli (GPa) = 53.88779 146.14136 89.38059
#
# Poissons Ratio (x) = -0.25846 0.32175
# Poissons Ratio (y) = -0.09531 0.37607
# Poissons Ratio (z) = 0.19398 0.61489
#
# Static dielectric constant tensor:
#      x y z
#    x 2.218160 0.028160 -0.068600 
#    y 0.028160 2.169130 -0.008590 
#    z -0.068600 -0.008590 2.177070 
# 
# From -- ./inp_files/182876.got.cif
#   From: 2010.05.17/outbox.cif.g08.bks.cpg/sg2_92_cif.got.tgz:182876.got - 2010.06.03 11:33:40.
