data_PCOD9078412
_publ_section_title
;
Structure prediction by ZEFSAII (Michael W. Deem and Ramdas Pophale) SiO2 
 PCOD9078412
Probable space group: P -1
;
_chemical_formula_sum "Si O2"
_cell_formula_units_Z 16
_cell_length_a 11.722083
_cell_length_b 9.162040
_cell_length_c 18.099195
_cell_angle_alpha 106.479302
_cell_angle_beta 152.487169
_cell_angle_gamma 80.861225
_cell_volume 841.966153
_symmetry_space_group_name_H-M "P -1"
_symmetry_group_IT_number 2
_symmetry_cell_setting 'triclinic'
loop_
_space_group_symop_operation_xyz
x,y,z
-x,-y,-z
loop_
_atom_site_type_symbol
_atom_site_label
_atom_site_fract_x
_atom_site_fract_y
_atom_site_fract_z
Si Si1 0.791713 0.524582 0.082769
Si Si2 0.257013 0.581674 0.119909
Si Si3 0.596252 0.513882 0.433727
Si Si4 0.268706 0.968358 0.681547
Si Si5 0.197974 0.336556 0.286242
Si Si6 0.816237 0.098998 0.947347
Si Si7 0.342868 0.274987 0.843163
Si Si8 0.960521 0.374724 0.524365
O O1 0.770619 0.674809 0.138978
O O2 0.066484 0.486166 0.230889
O O3 0.703388 0.511898 0.945274
O O4 0.621829 0.380229 0.009461
O O5 0.473292 0.578628 0.302191
O O6 0.227988 0.753265 0.104439
O O7 0.000000 0.500000 0.000000
O O8 0.401589 0.374765 0.343223
O O9 0.676298 0.649109 0.559618
O O10 0.821800 0.443447 0.521124
O O11 0.531892 0.010116 0.792054
O O12 0.325953 0.091951 0.799021
O O13 0.205649 0.783553 0.627806
O O14 0.000000 0.000000 0.500000
O O15 0.986236 0.184607 0.125423
O O16 0.000000 0.000000 0.000000
O O17 0.198687 0.328817 0.696547
O O18 0.000000 0.500000 0.500000
#
# Coordination Sequence:
#
# PCOD9078412 Si02
#       8
#     2   2   2   2   2   2   2   2
#     4  10  18  35  62  89 118 169 206 250 305 372
#     4  11  21  37  64  95 124 160 212 267 305 372
#     4  11  21  37  62  96 123 157 216 259 309 372
#     4  10  22  38  59  94 125 168 211 257 318 380
#     4  10  20  37  64  91 124 167 208 256 309 378
#     4  11  22  42  65  92 128 170 209 258 322 381
#     4  10  19  37  61  85 121 165 214 245 307 384
#     4  11  23  36  61  92 124 159 206 265 318 375
#
# _framework density 19.003139999999998
#
# number of rings (size 3 to 8) (size 9 to 14) (size 15 to 20)
#    0.000    1.500    6.250    1.500    1.750    0.000 
#    0.000    0.625    2.750    7.500    0.000    0.000 
#    0.000    0.000    0.000    0.000    0.000    0.000 
#
# Total GULP energy -89124.875847 kJ/mol
# GULP energy per Si atom -5570.304740 kJ/mol
# Density = 1.895989 g / cm^3
# Si number density = 19.003140 Si / 1000 Ang^3
#
#
#
# Elastic Constant Matrix: (Units=GPa)
#
#
# Indices 1 2 3 4 5 6 
#
# 1 110.5075 36.4392 24.9111 13.4742 -1.3752 -12.2555
# 2 36.4392 85.6861 25.9109 26.0863 -3.0638 -0.9488
# 3 24.9111 25.9109 77.7028 6.8660 -4.2497 4.0579
# 4 13.4742 26.0863 6.8660 32.2546 2.6953 -1.6177
# 5 -1.3752 -3.0638 -4.2497 2.6953 46.6128 0.9643
# 6 -12.2555 -0.9488 4.0579 -1.6177 0.9643 30.9080
#
#
#
# Elastic Compliance Matrix: (Units=1/GPa)
#
#
# Indices 1 2 3 4 5 6 
#
# 1 0.011523 -0.003776 -0.002610 -0.000950 -0.000190 0.004752
# 2 -0.003776 0.018245 -0.003617 -0.012593 0.001510 -0.001169
# 3 -0.002610 -0.003617 0.015087 0.000556 0.001093 -0.003132
# 4 -0.000950 -0.012593 0.000556 0.041812 -0.003253 0.001454
# 5 -0.000190 0.001510 0.001093 -0.003253 0.021856 -0.001024
# 6 0.004752 -0.001169 -0.003132 0.001454 -0.001024 0.034722
#
#
# Mechanical properties :
#
#
# Convention : Reuss Voigt Hill
#
# Bulk Modulus (GPa) = 40.24276 49.82431 45.03353
# Shear Modulus (GPa) = 29.14897 34.39744 31.77320
#
# Velocity S-wave (km/s) = 3.92076 4.25913 4.09344
# Velocity P-wave (km/s) = 6.45905 7.10372 6.78904
#
# Compressibility (1/GPa) = 0.02484919
#
# Stress axis : x y z
#
# Youngs Moduli (GPa) = 86.78235 54.80913 66.28420
#
# Poissons Ratio (x) = 0.20697 0.17298
# Poissons Ratio (y) = 0.32770 0.23975
# Poissons Ratio (z) = 0.22647 0.19825
#
# Static dielectric constant tensor:
#      x y z
#    x 1.682760 -0.024050 0.000030 
#    y -0.024050 1.653520 -0.012390 
#    z 0.000030 -0.012390 1.754280 
# 
# From -- ./inp_files/566831.got.cif
#   From: 2010.05.17/outbox.cif.g08.bks.cpg/sg2_284_cif.got.tgz:566831.got - 2010.06.03 11:33:40.
