data_PCOD9078136
_publ_section_title
;
Structure prediction by ZEFSAII (Michael W. Deem and Ramdas Pophale) SiO2 
 PCOD9078136
Probable space group: P -1
;
_chemical_formula_sum "Si O2"
_cell_formula_units_Z 14
_cell_length_a 20.482460
_cell_length_b 8.893873
_cell_length_c 9.987089
_cell_angle_alpha 116.209427
_cell_angle_beta 28.353009
_cell_angle_gamma 131.548881
_cell_volume 592.730227
_symmetry_space_group_name_H-M "P -1"
_symmetry_group_IT_number 2
_symmetry_cell_setting 'triclinic'
loop_
_space_group_symop_operation_xyz
x,y,z
-x,-y,-z
loop_
_atom_site_type_symbol
_atom_site_label
_atom_site_fract_x
_atom_site_fract_y
_atom_site_fract_z
Si Si1 0.124912 0.058451 0.450769
Si Si2 0.416851 0.374466 0.239872
Si Si3 0.620076 0.727475 0.189909
Si Si4 0.651849 0.252391 0.861033
Si Si5 0.176251 0.412333 0.106615
Si Si6 0.996112 0.603221 0.857791
Si Si7 0.132494 0.840710 0.972318
O O1 0.233239 0.148356 0.431684
O O2 0.005403 0.134290 0.700903
O O3 0.254846 0.163747 0.128671
O O4 0.997289 0.795259 0.580076
O O5 0.428884 0.530095 0.390711
O O6 0.500000 0.500000 0.000000
O O7 0.556006 0.348824 0.032852
O O8 0.686149 0.632748 0.134086
O O9 0.669226 0.932232 0.264065
O O10 0.732570 0.351094 0.901395
O O11 0.824165 0.344837 0.499524
O O12 0.500000 0.000000 0.000000
O O13 0.105624 0.391657 0.078960
O O14 0.882829 0.361190 0.029352
O O15 0.066444 0.783645 0.916098
#
# Coordination Sequence:
#
# PCOD9078136 Si02
#       7
#     2   2   2   2   2   2   2
#     4  10  18  35  59  81 105 142 188 225 261 313
#     4   9  18  32  54  79 104 137 179 222 260 307
#     4   9  18  34  55  81 109 142 185 225 263 313
#     4  11  22  36  55  83 112 137 177 227 272 321
#     4  10  20  34  56  78 103 141 185 224 261 316
#     4  11  22  36  54  82 113 145 177 218 279 325
#     4  10  21  36  56  80 112 143 179 226 267 324
#
# _framework density 23.619515
#
# number of rings (size 3 to 8) (size 9 to 14) (size 15 to 20)
#    0.000    2.000    0.000    6.429    0.000    4.571 
#    0.000    1.429    0.000   13.714    0.000    0.000 
#    0.000    0.000    0.000    0.000    0.000    0.000 
#
# Total GULP energy -78133.713217 kJ/mol
# GULP energy per Si atom -5580.979515 kJ/mol
# Density = 2.356576 g / cm^3
# Si number density = 23.619515 Si / 1000 Ang^3
#
#
#
# Elastic Constant Matrix: (Units=GPa)
#
#
# Indices 1 2 3 4 5 6 
#
# 1 162.3731 60.6678 7.0077 -9.2888 7.3171 40.2066
# 2 60.6678 145.1867 14.6307 -14.2208 6.7371 55.0441
# 3 7.0077 14.6307 40.7831 1.5652 -4.8619 4.3852
# 4 -9.2888 -14.2208 1.5652 17.7320 7.2141 -7.8045
# 5 7.3171 6.7371 -4.8619 7.2141 17.4566 -3.8114
# 6 40.2066 55.0441 4.3852 -7.8045 -3.8114 52.7599
#
#
#
# Elastic Compliance Matrix: (Units=1/GPa)
#
#
# Indices 1 2 3 4 5 6 
#
# 1 0.008348 -0.000438 -0.001668 0.004504 -0.006878 -0.005597
# 2 -0.000438 0.014934 -0.006094 0.012405 -0.015465 -0.014022
# 3 -0.001668 -0.006094 0.029150 -0.013590 0.017764 0.004479
# 4 0.004504 0.012405 -0.013590 0.086672 -0.047558 -0.005860
# 5 -0.006878 -0.015465 0.017764 -0.047558 0.095046 0.019731
# 6 -0.005597 -0.014022 0.004479 -0.005860 0.019731 0.038034
#
#
# Mechanical properties :
#
#
# Convention : Reuss Voigt Hill
#
# Bulk Modulus (GPa) = 27.75378 56.99504 42.37441
# Shear Modulus (GPa) = 16.63367 35.32547 25.97957
#
# Velocity S-wave (km/s) = 2.65662 3.87150 3.32010
# Velocity P-wave (km/s) = 4.60283 6.64587 5.71636
#
# Compressibility (1/GPa) = 0.03603113
#
# Stress axis : x y z
#
# Youngs Moduli (GPa) = 119.79364 66.96287 34.30478
#
# Poissons Ratio (x) = 0.02933 0.05723
# Poissons Ratio (y) = 0.05247 0.20906
# Poissons Ratio (z) = 0.19985 0.40808
#
# Static dielectric constant tensor:
#      x y z
#    x 1.877280 0.074000 0.009580 
#    y 0.074000 2.022740 -0.023470 
#    z 0.009580 -0.023470 1.911560 
# 
# From -- ./inp_files/292559.got.cif
#   From: 2010.05.17/outbox.cif.g08.bks.cpg/sg2_147_cif.got.tgz:292559.got - 2010.06.03 11:33:40.
