data_PCOD9078890
_publ_section_title
;
Structure prediction by ZEFSAII (Michael W. Deem and Ramdas Pophale) SiO2 
 PCOD9078890
Probable space group: P -1
;
_chemical_formula_sum "Si O2"
_cell_formula_units_Z 14
_cell_length_a 19.953218
_cell_length_b 5.216610
_cell_length_c 17.881256
_cell_angle_alpha 114.500263
_cell_angle_beta 22.622139
_cell_angle_gamma 111.801532
_cell_volume 651.116862
_symmetry_space_group_name_H-M "P -1"
_symmetry_group_IT_number 2
_symmetry_cell_setting 'triclinic'
loop_
_space_group_symop_operation_xyz
x,y,z
-x,-y,-z
loop_
_atom_site_type_symbol
_atom_site_label
_atom_site_fract_x
_atom_site_fract_y
_atom_site_fract_z
Si Si1 0.385257 0.393925 0.037134
Si Si2 0.432854 0.195743 0.808470
Si Si3 0.632847 0.980293 0.432135
Si Si4 0.813221 0.375430 0.192812
Si Si5 0.141099 0.891685 0.282256
Si Si6 0.079676 0.495520 0.168093
Si Si7 0.875705 0.104426 0.944119
O O1 0.264390 0.654970 0.165389
O O2 0.259638 0.143748 0.161517
O O3 0.500000 0.500000 0.000000
O O4 0.493652 0.295578 0.839109
O O5 0.561043 0.106500 0.599406
O O6 0.296957 0.947701 0.933269
O O7 0.287631 0.418019 0.951521
O O8 0.784782 0.180751 0.270341
O O9 0.500000 0.000000 0.500000
O O10 0.686588 0.652917 0.351144
O O11 0.799040 0.165702 0.111619
O O12 0.000000 0.500000 0.000000
O O13 0.043498 0.728549 0.296295
O O14 0.000000 0.000000 0.500000
O O15 0.034203 0.631451 0.152133
O O16 0.008854 0.183227 0.213333
#
# Coordination Sequence:
#
# PCOD9078890 Si02
#       7
#     2   2   2   2   2   2   2
#     4  11  23  41  64  92 130 159 197 263 318 350
#     4   9  21  35  65  87 117 155 218 243 294 354
#     4  12  23  39  69  92 116 164 221 249 286 379
#     4  12  26  41  58  94 134 159 191 261 328 353
#     4  11  21  39  64  93 119 163 209 250 298 380
#     4   9  18  34  58  88 112 154 205 251 288 348
#     4  10  18  36  60  83 115 161 202 240 296 360
#
# _framework density 21.501515000000001
#
# number of rings (size 3 to 8) (size 9 to 14) (size 15 to 20)
#    0.857    0.571    2.857    3.429    2.000    0.000 
#    0.000    4.286    0.000    0.000    0.000    0.000 
#    0.000    0.000    0.000    0.000    0.000    0.000 
#
# Total GULP energy -78015.483599 kJ/mol
# GULP energy per Si atom -5572.534543 kJ/mol
# Density = 2.145258 g / cm^3
# Si number density = 21.501515 Si / 1000 Ang^3
#
#
#
# Elastic Constant Matrix: (Units=GPa)
#
#
# Indices 1 2 3 4 5 6 
#
# 1 61.1926 30.5685 29.8193 4.5134 26.9204 11.3078
# 2 30.5685 146.8337 41.6494 -2.8462 22.1044 -21.5960
# 3 29.8193 41.6494 103.0423 18.8222 35.0378 13.7467
# 4 4.5134 -2.8462 18.8222 38.1777 8.1028 13.0265
# 5 26.9204 22.1044 35.0378 8.1028 28.1268 3.8779
# 6 11.3078 -21.5960 13.7467 13.0265 3.8779 41.7595
#
#
#
# Elastic Compliance Matrix: (Units=1/GPa)
#
#
# Indices 1 2 3 4 5 6 
#
# 1 0.032620 -0.004586 0.004123 0.004393 -0.032514 -0.010913
# 2 -0.004586 0.009938 -0.003855 0.000605 0.000180 0.007445
# 3 0.004123 -0.003855 0.019438 -0.003248 -0.023322 -0.006330
# 4 0.004393 0.000605 -0.003248 0.032254 -0.008676 -0.009063
# 5 -0.032514 0.000180 -0.023322 -0.008676 0.096662 0.010305
# 6 -0.010913 0.007445 -0.006330 -0.009063 0.010305 0.034706
#
#
# Mechanical properties :
#
#
# Convention : Reuss Voigt Hill
#
# Bulk Modulus (GPa) = 18.74045 57.23810 37.98928
# Shear Modulus (GPa) = 19.83812 35.54823 27.69318
#
# Velocity S-wave (km/s) = 3.04079 4.07048 3.59271
# Velocity P-wave (km/s) = 4.58948 6.98355 5.90903
#
# Compressibility (1/GPa) = 0.05336050
#
# Stress axis : x y z
#
# Youngs Moduli (GPa) = 30.65616 100.62304 51.44627
#
# Poissons Ratio (x) = 0.46141 -0.21210
# Poissons Ratio (y) = 0.14058 0.19832
# Poissons Ratio (z) = -0.12639 0.38789
#
# Static dielectric constant tensor:
#      x y z
#    x 1.870950 0.092430 0.000180 
#    y 0.092430 1.940940 0.008230 
#    z 0.000180 0.008230 1.881790 
# 
# From -- ./inp_files/578578.got.cif
#   From: 2010.05.17/outbox.cif.g08.bks.cpg/sg2_290_cif.got.tgz:578578.got - 2010.06.03 11:33:40.
