data_PCOD9078053
_publ_section_title
;
Structure prediction by ZEFSAII (Michael W. Deem and Ramdas Pophale) SiO2 
 PCOD9078053
Probable space group: P -1
;
_chemical_formula_sum "Si O2"
_cell_formula_units_Z 16
_cell_length_a 7.890570
_cell_length_b 11.953093
_cell_length_c 7.613127
_cell_angle_alpha 111.495945
_cell_angle_beta 80.324165
_cell_angle_gamma 70.164229
_cell_volume 592.349346
_symmetry_space_group_name_H-M "P -1"
_symmetry_group_IT_number 2
_symmetry_cell_setting 'triclinic'
loop_
_space_group_symop_operation_xyz
x,y,z
-x,-y,-z
loop_
_atom_site_type_symbol
_atom_site_label
_atom_site_fract_x
_atom_site_fract_y
_atom_site_fract_z
Si Si1 0.814461 0.764393 0.476468
Si Si2 0.044398 0.149209 0.847675
Si Si3 0.524090 0.729757 0.918346
Si Si4 0.262356 0.613628 0.749550
Si Si5 0.572970 0.364052 0.746677
Si Si6 0.632235 0.111279 0.424926
Si Si7 0.745464 0.025892 0.750738
Si Si8 0.834700 0.478401 0.654253
O O1 0.884134 0.788212 0.286988
O O2 0.588040 0.815767 0.548237
O O3 0.943087 0.610043 0.407716
O O4 0.847373 0.866952 0.661041
O O5 0.896420 0.089367 0.775658
O O6 0.227404 0.011286 0.789143
O O7 0.928110 0.270385 0.067889
O O8 0.408851 0.682314 0.773988
O O9 0.475889 0.688277 0.094862
O O10 0.744456 0.636863 0.789941
O O11 0.429707 0.888077 0.041665
O O12 0.381351 0.477775 0.761978
O O13 0.225986 0.564667 0.541740
O O14 0.679306 0.235071 0.530146
O O15 0.721849 0.426561 0.781706
O O16 0.659135 0.047422 0.580158
#
# Coordination Sequence:
#
# PCOD9078053 Si02
#       8
#     2   2   2   2   2   2   2   2
#     4  11  20  34  54  80 108 139 174 214 259 313
#     4  10  18  35  58  81 104 133 174 223 263 304
#     4   9  17  32  56  83 103 128 171 223 265 300
#     4  10  20  33  54  82 106 136 175 218 262 307
#     4  10  18  35  58  81 104 133 174 223 263 304
#     4  10  20  33  54  82 106 136 175 218 262 307
#     4   9  17  32  56  83 103 128 171 223 265 300
#     4  11  20  34  54  80 108 139 174 214 259 313
#
# _framework density 27.011088000000001
#
# number of rings (size 3 to 8) (size 9 to 14) (size 15 to 20)
#    0.000    2.000    0.000    9.750    0.000    0.000 
#    0.000   15.000    0.000    4.500    0.000    0.000 
#    0.000    0.000    0.000    0.000    0.000    0.000 
#
# Total GULP energy -89561.989617 kJ/mol
# GULP energy per Si atom -5597.624351 kJ/mol
# Density = 2.694961 g / cm^3
# Si number density = 27.011088 Si / 1000 Ang^3
#
#
#
# Elastic Constant Matrix: (Units=GPa)
#
#
# Indices 1 2 3 4 5 6 
#
# 1 99.6399 32.5937 15.5992 9.6659 -21.3606 -24.2397
# 2 32.5937 101.6286 56.6222 19.6545 -23.8835 -38.0912
# 3 15.5992 56.6222 114.0505 33.4342 -37.5114 -20.3265
# 4 9.6659 19.6545 33.4342 49.2769 -22.8780 -12.0697
# 5 -21.3606 -23.8835 -37.5114 -22.8780 37.6010 12.7736
# 6 -24.2397 -38.0912 -20.3265 -12.0697 12.7736 56.4188
#
#
#
# Elastic Compliance Matrix: (Units=1/GPa)
#
#
# Indices 1 2 3 4 5 6 
#
# 1 0.012798 -0.002673 0.002221 0.001299 0.007538 0.003066
# 2 -0.002673 0.017663 -0.006977 0.000292 0.000097 0.008303
# 3 0.002221 -0.006977 0.016626 -0.003914 0.011440 -0.001194
# 4 0.001299 0.000292 -0.003914 0.029840 0.014330 0.002484
# 5 0.007538 0.000097 0.011440 0.014330 0.051465 -0.001161
# 6 0.003066 0.008303 -0.001194 0.002484 -0.001161 0.025012
#
#
# Mechanical properties :
#
#
# Convention : Reuss Voigt Hill
#
# Bulk Modulus (GPa) = 31.02818 58.32768 44.67793
# Shear Modulus (GPa) = 27.93230 42.69294 35.31262
#
# Velocity S-wave (km/s) = 3.21924 3.97995 3.61964
# Velocity P-wave (km/s) = 5.03291 6.53918 5.83485
#
# Compressibility (1/GPa) = 0.03222877
#
# Stress axis : x y z
#
# Youngs Moduli (GPa) = 78.13449 56.61584 60.14841
#
# Poissons Ratio (x) = 0.15133 -0.13361
# Poissons Ratio (y) = 0.20885 0.41968
# Poissons Ratio (z) = -0.17356 0.39503
#
# Static dielectric constant tensor:
#      x y z
#    x 2.134580 0.016050 -0.028410 
#    y 0.016050 2.202720 -0.000480 
#    z -0.028410 -0.000480 2.121160 
# 
# From -- ./inp_files/213583.got.cif
#   From: 2010.05.17/outbox.cif.g08.bks.cpg/sg2_107_cif.got.tgz:213583.got - 2010.06.03 11:33:40.
