data_PCOD9078934
_publ_section_title
;
Structure prediction by ZEFSAII (Michael W. Deem and Ramdas Pophale) SiO2 
 PCOD9078934
Probable space group: P -1
;
_chemical_formula_sum "Si O2"
_cell_formula_units_Z 16
_cell_length_a 16.208275
_cell_length_b 9.579517
_cell_length_c 9.552642
_cell_angle_alpha 86.391020
_cell_angle_beta 32.240559
_cell_angle_gamma 94.769164
_cell_volume 763.340753
_symmetry_space_group_name_H-M "P -1"
_symmetry_group_IT_number 2
_symmetry_cell_setting 'triclinic'
loop_
_space_group_symop_operation_xyz
x,y,z
-x,-y,-z
loop_
_atom_site_type_symbol
_atom_site_label
_atom_site_fract_x
_atom_site_fract_y
_atom_site_fract_z
Si Si1 0.894609 0.886674 0.269825
Si Si2 0.267137 0.351955 0.668511
Si Si3 0.077023 0.658549 0.135534
Si Si4 0.307808 0.887477 0.941378
Si Si5 0.056731 0.661838 0.708539
Si Si6 0.884876 0.057006 0.553030
Si Si7 0.670042 0.327646 0.475654
Si Si8 0.581741 0.829320 0.359402
O O1 0.746234 0.782055 0.408644
O O2 0.985470 0.771390 0.202924
O O3 0.856263 0.967340 0.456387
O O4 0.000000 0.000000 0.000000
O O5 0.352040 0.510863 0.480740
O O6 0.352714 0.306015 0.683277
O O7 0.085127 0.349934 0.972993
O O8 0.968365 0.496836 0.311952
O O9 0.173388 0.737835 0.124664
O O10 0.212206 0.653641 0.828171
O O11 0.467482 0.859964 0.646132
O O12 0.285285 0.020975 0.867239
O O13 0.279117 0.939301 0.133252
O O14 0.035797 0.780163 0.621060
O O15 0.227154 0.708203 0.540740
O O16 0.000000 0.000000 0.500000
O O17 0.517206 0.211321 0.641073
#
# Coordination Sequence:
#
# PCOD9078934 Si02
#       8
#     2   2   2   2   2   2   2   2
#     4  12  20  35  62  94 128 160 200 254 312 367
#     4  11  19  36  62  95 123 160 217 253 308 373
#     4  10  18  36  60  89 126 159 202 250 316 372
#     4  10  22  40  57  87 125 165 209 253 313 371
#     4  11  21  37  63  95 126 162 201 267 319 371
#     4  12  24  38  62  97 131 156 210 269 317 365
#     4  10  19  36  62  94 123 162 211 257 306 375
#     4  10  22  39  65  86 125 172 211 254 308 379
#
# _framework density 20.960495999999999
#
# number of rings (size 3 to 8) (size 9 to 14) (size 15 to 20)
#    0.000    1.250    5.000    2.625    0.000    2.500 
#    0.000    2.500    0.000    1.500    0.000    0.000 
#    0.000    0.000    0.000    0.000    0.000    0.000 
#
# Total GULP energy -89196.679928 kJ/mol
# GULP energy per Si atom -5574.792495 kJ/mol
# Density = 2.091279 g / cm^3
# Si number density = 20.960496 Si / 1000 Ang^3
#
#
#
# Elastic Constant Matrix: (Units=GPa)
#
#
# Indices 1 2 3 4 5 6 
#
# 1 80.4680 47.9807 20.1364 3.4019 0.6291 10.4164
# 2 47.9807 139.4033 34.1650 -1.6309 11.0441 5.5445
# 3 20.1364 34.1650 46.3984 8.2242 14.6703 24.5145
# 4 3.4019 -1.6309 8.2242 20.4254 5.1422 2.7554
# 5 0.6291 11.0441 14.6703 5.1422 24.5671 6.0788
# 6 10.4164 5.5445 24.5145 2.7554 6.0788 32.7854
#
#
#
# Elastic Compliance Matrix: (Units=1/GPa)
#
#
# Indices 1 2 3 4 5 6 
#
# 1 0.016839 -0.005432 -0.002761 -0.002984 0.005038 -0.003051
# 2 -0.005432 0.011523 -0.010499 0.005488 -0.001775 0.007495
# 3 -0.002761 -0.010499 0.057597 -0.014260 -0.017729 -0.035929
# 4 -0.002984 0.005488 -0.014260 0.056541 -0.007523 0.007325
# 5 0.005038 -0.001775 -0.017729 -0.007523 0.052845 0.002790
# 6 -0.003051 0.007495 -0.035929 0.007325 0.002790 0.055935
#
#
# Mechanical properties :
#
#
# Convention : Reuss Voigt Hill
#
# Bulk Modulus (GPa) = 20.58633 52.31488 36.45061
# Shear Modulus (GPa) = 16.40126 26.48809 21.44467
#
# Velocity S-wave (km/s) = 2.80033 3.55873 3.20206
# Velocity P-wave (km/s) = 4.50540 6.47295 5.57663
#
# Compressibility (1/GPa) = 0.04857592
#
# Stress axis : x y z
#
# Youngs Moduli (GPa) = 59.38752 86.78456 17.36188
#
# Poissons Ratio (x) = 0.47140 0.04793
# Poissons Ratio (y) = 0.32258 0.18228
# Poissons Ratio (z) = 0.16394 0.91116
#
# Static dielectric constant tensor:
#      x y z
#    x 1.835470 0.022650 -0.020180 
#    y 0.022650 1.829080 0.013790 
#    z -0.020180 0.013790 1.750170 
# 
# From -- ./inp_files/277879.got.cif
#   From: 2010.05.17/outbox.cif.g08.bks.cpg/sg2_139_cif.got.tgz:277879.got - 2010.06.03 11:33:40.
