data_PCOD9078770
_publ_section_title
;
Structure prediction by ZEFSAII (Michael W. Deem and Ramdas Pophale) SiO2 
 PCOD9078770
Probable space group: P -1
;
_chemical_formula_sum "Si O2"
_cell_formula_units_Z 12
_cell_length_a 7.167431
_cell_length_b 7.234535
_cell_length_c 13.934089
_cell_angle_alpha 57.584114
_cell_angle_beta 80.987244
_cell_angle_gamma 119.673878
_cell_volume 433.433046
_symmetry_space_group_name_H-M "P -1"
_symmetry_group_IT_number 2
_symmetry_cell_setting 'triclinic'
loop_
_space_group_symop_operation_xyz
x,y,z
-x,-y,-z
loop_
_atom_site_type_symbol
_atom_site_label
_atom_site_fract_x
_atom_site_fract_y
_atom_site_fract_z
Si Si1 0.543903 0.900139 0.426476
Si Si2 0.748698 0.377307 0.997359
Si Si3 0.214616 0.675878 0.205953
Si Si4 0.524952 0.721927 0.783061
Si Si5 0.091232 0.239513 0.681040
Si Si6 0.396358 0.462737 0.367494
O O1 0.706276 0.821998 0.479494
O O2 0.271138 0.556661 0.520563
O O3 0.500000 0.000000 0.500000
O O4 0.574383 0.116825 0.286791
O O5 0.642729 0.472940 0.054921
O O6 0.505024 0.011842 0.104617
O O7 0.820357 0.466254 0.854840
O O8 0.000000 0.500000 0.000000
O O9 0.011391 0.708176 0.231629
O O10 0.194222 0.483789 0.346064
O O11 0.514951 0.561570 0.736469
O O12 0.826088 0.972420 0.723004
O O13 0.314709 0.242488 0.692977
#
# Coordination Sequence:
#
# PCOD9078770 Si02
#       6
#     2   2   2   2   2   2
#     4   8  17  34  59  80 112 147 176 225 284 325
#     4  10  22  37  59  78 117 148 183 233 272 325
#     4  10  21  40  56  87 108 146 190 224 278 327
#     4  10  18  36  58  83 108 154 183 218 284 330
#     4   9  19  35  60  78 114 147 175 232 277 320
#     4   9  20  35  59  84 114 138 188 228 273 331
#
# _framework density 27.685936999999999
#
# number of rings (size 3 to 8) (size 9 to 14) (size 15 to 20)
#    1.000    1.667    0.000    1.500    0.000    2.000 
#    0.000   18.333    0.000    0.000    0.000    0.000 
#    0.000    0.000    0.000    0.000    0.000    0.000 
#
# Total GULP energy -67016.799293 kJ/mol
# GULP energy per Si atom -5584.733274 kJ/mol
# Density = 2.762292 g / cm^3
# Si number density = 27.685937 Si / 1000 Ang^3
#
#
#
# Elastic Constant Matrix: (Units=GPa)
#
#
# Indices 1 2 3 4 5 6 
#
# 1 124.4811 -1.7048 37.2019 -8.8064 5.7725 28.7891
# 2 -1.7048 102.0834 11.5186 28.0888 2.9803 31.0287
# 3 37.2019 11.5186 69.3310 33.3488 3.2827 18.5450
# 4 -8.8064 28.0888 33.3488 58.7256 6.6888 -1.3400
# 5 5.7725 2.9803 3.2827 6.6888 45.3077 -8.4983
# 6 28.7891 31.0287 18.5450 -1.3400 -8.4983 51.3734
#
#
#
# Elastic Compliance Matrix: (Units=1/GPa)
#
#
# Indices 1 2 3 4 5 6 
#
# 1 0.012214 0.000889 -0.008398 0.006391 -0.002822 -0.004650
# 2 0.000889 0.016166 0.005623 -0.010812 -0.002421 -0.012974
# 3 -0.008398 0.005623 0.031458 -0.022019 -0.000331 -0.010675
# 4 0.006391 -0.010812 -0.022019 0.036117 -0.001671 0.011563
# 5 -0.002822 -0.002421 -0.000331 -0.001671 0.024197 0.007122
# 6 -0.004650 -0.012974 -0.010675 0.011563 0.007122 0.035241
#
#
# Mechanical properties :
#
#
# Convention : Reuss Voigt Hill
#
# Bulk Modulus (GPa) = 17.83624 43.32521 30.58072
# Shear Modulus (GPa) = 28.11337 47.67333 37.89335
#
# Velocity S-wave (km/s) = 3.19005 4.15412 3.70359
# Velocity P-wave (km/s) = 4.47492 6.22027 5.41833
#
# Compressibility (1/GPa) = 0.05606564
#
# Stress axis : x y z
#
# Youngs Moduli (GPa) = 81.87581 61.85954 31.78841
#
# Poissons Ratio (x) = -0.05498 0.26696
# Poissons Ratio (y) = -0.07277 -0.17876
# Poissons Ratio (z) = 0.68759 -0.34785
#
# Static dielectric constant tensor:
#      x y z
#    x 2.181830 -0.168120 -0.048690 
#    y -0.168120 2.260250 0.056810 
#    z -0.048690 0.056810 2.132810 
# 
# From -- ./inp_files/32789.got.cif
#   From: 2010.05.17/outbox.cif.g08.bks.cpg/sg2_17_cif.got.tgz:32789.got - 2010.06.03 11:33:40.
