data_PCOD9078160
_publ_section_title
;
Structure prediction by ZEFSAII (Michael W. Deem and Ramdas Pophale) SiO2 
 PCOD9078160
Probable space group: P -1
;
_chemical_formula_sum "Si O2"
_cell_formula_units_Z 16
_cell_length_a 14.527257
_cell_length_b 10.382149
_cell_length_c 15.318465
_cell_angle_alpha 114.587662
_cell_angle_beta 152.407819
_cell_angle_gamma 48.434123
_cell_volume 695.160548
_symmetry_space_group_name_H-M "P -1"
_symmetry_group_IT_number 2
_symmetry_cell_setting 'triclinic'
loop_
_space_group_symop_operation_xyz
x,y,z
-x,-y,-z
loop_
_atom_site_type_symbol
_atom_site_label
_atom_site_fract_x
_atom_site_fract_y
_atom_site_fract_z
Si Si1 0.558505 0.210198 0.740970
Si Si2 0.255129 0.512591 0.803891
Si Si3 0.047831 0.701517 0.146642
Si Si4 0.361891 0.127159 0.007179
Si Si5 0.039700 0.439144 0.270294
Si Si6 0.120006 0.977466 0.216797
Si Si7 0.713514 0.805702 0.333048
Si Si8 0.352804 0.264367 0.310508
O O1 0.273941 0.411556 0.514522
O O2 0.724220 0.069406 0.756711
O O3 0.446973 0.153209 0.701323
O O4 0.795891 0.176176 0.984288
O O5 0.341797 0.305044 0.805348
O O6 0.087071 0.603646 0.778438
O O7 0.036698 0.649673 0.581839
O O8 0.500000 0.500000 0.000000
O O9 0.121701 0.805146 0.184706
O O10 0.289598 0.465233 0.301258
O O11 0.893667 0.822995 0.141889
O O12 0.816798 0.728301 0.905705
O O13 0.606414 0.995649 0.246483
O O14 0.216248 0.345640 0.922299
O O15 0.500000 0.000000 0.000000
O O16 0.198672 0.300332 0.281455
O O17 0.321369 0.926839 0.450539
#
# Coordination Sequence:
#
# PCOD9078160 Si02
#       8
#     2   2   2   2   2   2   2   2
#     4   9  19  35  57  89 117 150 195 240 286 354
#     4  10  21  38  62  85 116 155 198 244 293 349
#     4  10  20  36  59  86 120 154 194 240 297 343
#     4  11  20  37  65  85 113 165 196 240 299 344
#     4   9  19  37  61  87 121 156 197 241 301 349
#     4  10  18  35  59  84 118 153 198 235 293 349
#     4  10  20  39  60  85 119 154 196 244 295 345
#     4   9  20  36  58  88 120 154 191 243 291 354
#
# _framework density 23.016265000000001
#
# number of rings (size 3 to 8) (size 9 to 14) (size 15 to 20)
#    0.000    2.250    2.500    0.375    0.000    1.000 
#    2.250    6.250    8.250    0.000    0.000    0.000 
#    0.000    0.000    0.000    0.000    0.000    0.000 
#
# Total GULP energy -89211.905434 kJ/mol
# GULP energy per Si atom -5575.744090 kJ/mol
# Density = 2.296388 g / cm^3
# Si number density = 23.016265 Si / 1000 Ang^3
#
#
#
# Elastic Constant Matrix: (Units=GPa)
#
#
# Indices 1 2 3 4 5 6 
#
# 1 104.9827 19.1758 29.8995 6.8920 -11.4984 -4.8431
# 2 19.1758 73.5189 41.0785 -2.7028 -0.3565 8.7738
# 3 29.8995 41.0785 156.2135 -3.4587 -4.9154 10.9119
# 4 6.8920 -2.7028 -3.4587 30.6686 8.6490 -1.8566
# 5 -11.4984 -0.3565 -4.9154 8.6490 34.4726 -6.5215
# 6 -4.8431 8.7738 10.9119 -1.8566 -6.5215 15.0569
#
#
#
# Elastic Compliance Matrix: (Units=1/GPa)
#
#
# Indices 1 2 3 4 5 6 
#
# 1 0.012195 -0.003343 -0.002021 -0.004573 0.006724 0.009684
# 2 -0.003343 0.017651 -0.003350 0.002424 -0.003977 -0.010357
# 3 -0.002021 -0.003350 0.007995 0.000974 -0.000698 -0.004674
# 4 -0.004573 0.002424 0.000974 0.036926 -0.011376 -0.003963
# 5 0.006724 -0.003977 -0.000698 -0.011376 0.037735 0.019927
# 6 0.009684 -0.010357 -0.004674 -0.003963 0.019927 0.087095
#
#
# Mechanical properties :
#
#
# Convention : Reuss Voigt Hill
#
# Bulk Modulus (GPa) = 48.98542 57.22476 53.10509
# Shear Modulus (GPa) = 22.33842 32.34371 27.34106
#
# Velocity S-wave (km/s) = 3.11874 3.75274 3.45033
# Velocity P-wave (km/s) = 5.85644 6.61015 6.24468
#
# Compressibility (1/GPa) = 0.02041424
#
# Stress axis : x y z
#
# Youngs Moduli (GPa) = 82.00067 56.65280 125.07145
#
# Poissons Ratio (x) = 0.18937 0.25280
# Poissons Ratio (y) = 0.27410 0.41898
# Poissons Ratio (z) = 0.16575 0.18978
#
# Static dielectric constant tensor:
#      x y z
#    x 1.853450 -0.027370 -0.020220 
#    y -0.027370 1.976700 -0.015720 
#    z -0.020220 -0.015720 1.902450 
# 
# From -- ./inp_files/532567.got.cif
#   From: 2010.05.17/outbox.cif.g08.bks.cpg/sg2_267_cif.got.tgz:532567.got - 2010.06.03 11:33:40.
