data_PCOD9078291
_publ_section_title
;
Structure prediction by ZEFSAII (Michael W. Deem and Ramdas Pophale) SiO2 
 PCOD9078291
Probable space group: P -1
;
_chemical_formula_sum "Si O2"
_cell_formula_units_Z 16
_cell_length_a 5.757399
_cell_length_b 15.985570
_cell_length_c 8.209910
_cell_angle_alpha 95.777515
_cell_angle_beta 60.397924
_cell_angle_gamma 87.970637
_cell_volume 650.467601
_symmetry_space_group_name_H-M "P -1"
_symmetry_group_IT_number 2
_symmetry_cell_setting 'triclinic'
loop_
_space_group_symop_operation_xyz
x,y,z
-x,-y,-z
loop_
_atom_site_type_symbol
_atom_site_label
_atom_site_fract_x
_atom_site_fract_y
_atom_site_fract_z
Si Si1 0.661850 0.199885 0.903776
Si Si2 0.626982 0.945516 0.093561
Si Si3 0.221584 0.646926 0.261398
Si Si4 0.611647 0.266759 0.468168
Si Si5 0.281169 0.407883 0.405699
Si Si6 0.230038 0.561469 0.921016
Si Si7 0.117582 0.318480 0.150628
Si Si8 0.769244 0.113245 0.204655
O O1 0.580536 0.122420 0.806701
O O2 0.873360 0.259660 0.765794
O O3 0.391930 0.263700 0.012807
O O4 0.710930 0.162375 0.060326
O O5 0.690055 0.017155 0.213239
O O6 0.905959 0.899239 0.918675
O O7 0.500000 0.000000 0.000000
O O8 0.989510 0.591215 0.395917
O O9 0.409497 0.677781 0.347615
O O10 0.340424 0.587920 0.062417
O O11 0.437764 0.322045 0.406639
O O12 0.600456 0.168358 0.411945
O O13 0.926056 0.268544 0.318657
O O14 0.169648 0.396416 0.261945
O O15 0.529250 0.464273 0.296788
O O16 0.000000 0.500000 0.000000
O O17 0.061449 0.647028 0.930499
#
# Coordination Sequence:
#
# PCOD9078291 Si02
#       8
#     2   2   2   2   2   2   2   2
#     4  11  19  36  62  92 121 161 214 253 295 370
#     4   9  20  31  58  93 126 163 208 251 308 363
#     4  11  25  37  64  97 118 165 208 251 311 372
#     4  10  20  37  62  91 124 160 209 258 299 367
#     4  10  22  42  62  93 123 158 209 256 303 371
#     4  11  25  44  65  91 126 162 201 258 317 369
#     4  10  19  38  66  89 118 163 210 249 303 361
#     4  10  18  35  60  92 125 168 203 256 315 353
#
# _framework density 24.597687000000001
#
# number of rings (size 3 to 8) (size 9 to 14) (size 15 to 20)
#    0.000    1.750    3.750    0.750    1.750    1.000 
#    0.000    6.250    0.000    7.500    0.000    0.000 
#    0.000    0.000    0.000    0.000    0.000    0.000 
#
# Total GULP energy -89100.416041 kJ/mol
# GULP energy per Si atom -5568.776003 kJ/mol
# Density = 2.454170 g / cm^3
# Si number density = 24.597687 Si / 1000 Ang^3
#
#
#
# Elastic Constant Matrix: (Units=GPa)
#
#
# Indices 1 2 3 4 5 6 
#
# 1 72.5557 21.3380 29.4771 11.0390 6.6748 -5.7506
# 2 21.3380 110.0561 35.5732 4.9138 7.9663 22.2174
# 3 29.4771 35.5732 100.8662 -6.5942 -1.8466 8.3286
# 4 11.0390 4.9138 -6.5942 30.3678 10.3895 -13.1225
# 5 6.6748 7.9663 -1.8466 10.3895 34.5053 -1.0223
# 6 -5.7506 22.2174 8.3286 -13.1225 -1.0223 45.8820
#
#
#
# Elastic Compliance Matrix: (Units=1/GPa)
#
#
# Indices 1 2 3 4 5 6 
#
# 1 0.017581 -0.001897 -0.005062 -0.005649 -0.001462 0.002393
# 2 -0.001897 0.012297 -0.003538 -0.004527 -0.001502 -0.006878
# 3 -0.005062 -0.003538 0.012970 0.004957 0.001002 0.000164
# 4 -0.005649 -0.004527 0.004957 0.046517 -0.011199 0.013639
# 5 -0.001462 -0.001502 0.001002 -0.011199 0.032974 -0.002106
# 6 0.002393 -0.006878 0.000164 0.013639 -0.002106 0.029250
#
#
# Mechanical properties :
#
#
# Convention : Reuss Voigt Hill
#
# Bulk Modulus (GPa) = 45.76068 50.69495 48.22782
# Shear Modulus (GPa) = 27.79821 35.29033 31.54427
#
# Velocity S-wave (km/s) = 3.36536 3.79185 3.58496
# Velocity P-wave (km/s) = 5.80904 6.31073 6.06507
#
# Compressibility (1/GPa) = 0.02185282
#
# Stress axis : x y z
#
# Youngs Moduli (GPa) = 56.88028 81.32013 77.10031
#
# Poissons Ratio (x) = 0.15430 0.39030
# Poissons Ratio (y) = 0.10792 0.27277
# Poissons Ratio (z) = 0.28794 0.28770
#
# Static dielectric constant tensor:
#      x y z
#    x 1.998570 0.116400 0.012700 
#    y 0.116400 2.071600 -0.012900 
#    z 0.012700 -0.012900 2.026060 
# 
# From -- ./inp_files/139026.got.cif
#   From: 2010.05.17/outbox.cif.g08.bks.cpg/sg2_70_cif.got.tgz:139026.got - 2010.06.03 11:33:40.
