data_PCOD9078719
_publ_section_title
;
Structure prediction by ZEFSAII (Michael W. Deem and Ramdas Pophale) SiO2 
 PCOD9078719
Probable space group: P -1
;
_chemical_formula_sum "Si O2"
_cell_formula_units_Z 14
_cell_length_a 8.505374
_cell_length_b 7.703526
_cell_length_c 11.876411
_cell_angle_alpha 69.535517
_cell_angle_beta 97.357560
_cell_angle_gamma 127.289903
_cell_volume 576.342746
_symmetry_space_group_name_H-M "P -1"
_symmetry_group_IT_number 2
_symmetry_cell_setting 'triclinic'
loop_
_space_group_symop_operation_xyz
x,y,z
-x,-y,-z
loop_
_atom_site_type_symbol
_atom_site_label
_atom_site_fract_x
_atom_site_fract_y
_atom_site_fract_z
Si Si1 0.799740 0.653652 0.051341
Si Si2 0.159245 0.179360 0.351694
Si Si3 0.542320 0.845786 0.467521
Si Si4 0.424661 0.911863 0.220811
Si Si5 0.864536 0.524044 0.563061
Si Si6 0.420978 0.619655 0.105928
Si Si7 0.902399 0.053487 0.815042
O O1 0.616780 0.641132 0.088900
O O2 0.947112 0.711183 0.153749
O O3 0.705979 0.436660 0.007256
O O4 0.915102 0.869489 0.926181
O O5 0.304536 0.165449 0.446832
O O6 0.050695 0.244078 0.412044
O O7 0.292590 0.402595 0.230187
O O8 0.046685 0.960028 0.306370
O O9 0.580954 0.957564 0.320338
O O10 0.341902 0.580285 0.497207
O O11 0.500000 0.000000 0.500000
O O12 0.222704 0.677735 0.306465
O O13 0.471119 0.841906 0.126224
O O14 0.330974 0.050121 0.175391
O O15 0.000000 0.500000 0.500000
#
# Coordination Sequence:
#
# PCOD9078719 Si02
#       7
#     2   2   2   2   2   2   2
#     4   9  20  36  56  78 102 138 182 222 267 316
#     4  10  18  36  57  76 111 148 169 217 266 317
#     4  10  19  36  54  79 108 145 175 214 259 323
#     4   9  20  34  54  78 110 137 178 216 261 319
#     4   9  20  35  51  79 109 140 180 215 257 311
#     4   9  19  36  56  79 102 139 183 216 267 317
#     4  10  19  36  55  79 109 138 174 223 272 308
#
# _framework density 24.291101999999999
#
# number of rings (size 3 to 8) (size 9 to 14) (size 15 to 20)
#    0.857    1.714    1.429    0.429    0.000    2.286 
#    2.571    1.429    0.000    0.000    0.000    0.000 
#    0.000    0.000    0.000    0.000    0.000    0.000 
#
# Total GULP energy -78048.187268 kJ/mol
# GULP energy per Si atom -5574.870519 kJ/mol
# Density = 2.423581 g / cm^3
# Si number density = 24.291102 Si / 1000 Ang^3
#
#
#
# Elastic Constant Matrix: (Units=GPa)
#
#
# Indices 1 2 3 4 5 6 
#
# 1 57.9266 14.4657 59.0572 15.9771 -4.7804 -8.4638
# 2 14.4657 66.8521 53.5053 30.5121 -3.5437 -5.7806
# 3 59.0572 53.5053 149.8169 55.8389 5.2883 -1.8279
# 4 15.9771 30.5121 55.8389 48.1592 -1.6504 -9.3463
# 5 -4.7804 -3.5437 5.2883 -1.6504 43.1852 11.1846
# 6 -8.4638 -5.7806 -1.8279 -9.3463 11.1846 38.0451
#
#
#
# Elastic Compliance Matrix: (Units=1/GPa)
#
#
# Indices 1 2 3 4 5 6 
#
# 1 0.033970 0.004096 -0.018312 0.009114 0.004564 0.008197
# 2 0.004096 0.023613 -0.007369 -0.007381 0.002606 0.001566
# 3 -0.018312 -0.007369 0.023170 -0.017657 -0.004290 -0.007157
# 4 0.009114 -0.007381 -0.017657 0.045013 0.001523 0.010668
# 5 0.004564 0.002606 -0.004290 0.001523 0.026032 -0.006074
# 6 0.008197 0.001566 -0.007157 0.010668 -0.006074 0.032408
#
#
# Mechanical properties :
#
#
# Convention : Reuss Voigt Hill
#
# Bulk Modulus (GPa) = 26.60775 58.73911 42.67343
# Shear Modulus (GPa) = 20.84170 35.71572 28.27871
#
# Velocity S-wave (km/s) = 2.93234 3.83864 3.41568
# Velocity P-wave (km/s) = 4.73733 6.62425 5.75860
#
# Compressibility (1/GPa) = 0.03758304
#
# Stress axis : x y z
#
# Youngs Moduli (GPa) = 29.43765 42.35020 43.15859
#
# Poissons Ratio (x) = -0.17348 0.79032
# Poissons Ratio (y) = -0.12059 0.31805
# Poissons Ratio (z) = 0.53906 0.31210
#
# Static dielectric constant tensor:
#      x y z
#    x 1.971650 -0.045860 0.027880 
#    y -0.045860 2.090130 -0.045200 
#    z 0.027880 -0.045200 1.982030 
# 
# From -- ./inp_files/329451.got.cif
#   From: 2010.05.17/outbox.cif.g08.bks.cpg/sg2_165_cif.got.tgz:329451.got - 2010.06.03 11:33:40.
