data_PCOD9078244
_publ_section_title
;
Structure prediction by ZEFSAII (Michael W. Deem and Ramdas Pophale) SiO2 
 PCOD9078244
Probable space group: P -1
;
_chemical_formula_sum "Si O2"
_cell_formula_units_Z 16
_cell_length_a 9.103953
_cell_length_b 10.910582
_cell_length_c 8.109091
_cell_angle_alpha 111.736892
_cell_angle_beta 106.611827
_cell_angle_gamma 100.015980
_cell_volume 680.628481
_symmetry_space_group_name_H-M "P -1"
_symmetry_group_IT_number 2
_symmetry_cell_setting 'triclinic'
loop_
_space_group_symop_operation_xyz
x,y,z
-x,-y,-z
loop_
_atom_site_type_symbol
_atom_site_label
_atom_site_fract_x
_atom_site_fract_y
_atom_site_fract_z
Si Si1 0.311530 0.968901 0.970617
Si Si2 0.814483 0.333062 0.722587
Si Si3 0.416202 0.534047 0.152143
Si Si4 0.093504 0.459348 0.665988
Si Si5 0.739881 0.740636 0.503359
Si Si6 0.314103 0.973734 0.371155
Si Si7 0.679073 0.297926 0.298991
Si Si8 0.298145 0.243713 0.127912
O O1 0.302134 0.963470 0.163175
O O2 0.237168 0.089751 0.952751
O O3 0.243143 0.820494 0.788301
O O4 0.500000 0.000000 0.000000
O O5 0.705232 0.375346 0.844114
O O6 0.729742 0.339889 0.522489
O O7 0.991364 0.436067 0.788406
O O8 0.797633 0.172730 0.667698
O O9 0.564598 0.624897 0.359677
O O10 0.307240 0.383218 0.106694
O O11 0.500000 0.500000 0.000000
O O12 0.133125 0.317620 0.575492
O O13 0.259238 0.582860 0.757915
O O14 0.000000 0.500000 0.500000
O O15 0.730375 0.890107 0.521046
O O16 0.777126 0.751736 0.715561
O O17 0.500000 0.000000 0.500000
O O18 0.486442 0.255688 0.219202
#
# Coordination Sequence:
#
# PCOD9078244 Si02
#       8
#     2   2   2   2   2   2   2   2
#     4   9  20  31  57  88 113 154 197 243 301 344
#     4  11  23  39  58  89 122 159 200 248 309 356
#     4  12  24  35  59  91 121 152 199 258 304 356
#     4  10  22  38  63  87 118 164 209 246 297 368
#     4  11  21  39  63  88 118 163 202 246 305 352
#     4  11  21  37  61  89 127 155 197 252 299 364
#     4  10  18  36  61  85 115 158 202 249 289 358
#     4  10  18  35  60  85 116 149 204 249 290 353
#
# _framework density 23.507684000000001
#
# number of rings (size 3 to 8) (size 9 to 14) (size 15 to 20)
#    0.000    1.500    3.750    3.375    3.500    1.500 
#    0.000    2.500    0.000   18.750    0.000    0.000 
#    0.000    0.000    0.000    0.000    0.000    0.000 
#
# Total GULP energy -89326.340619 kJ/mol
# GULP energy per Si atom -5582.896289 kJ/mol
# Density = 2.345418 g / cm^3
# Si number density = 23.507684 Si / 1000 Ang^3
#
#
#
# Elastic Constant Matrix: (Units=GPa)
#
#
# Indices 1 2 3 4 5 6 
#
# 1 53.3791 17.9778 24.0278 -1.8075 -25.5096 -6.1285
# 2 17.9778 127.9455 12.2668 13.7226 -22.6289 -4.8786
# 3 24.0278 12.2668 78.1407 8.1018 -28.9422 -9.0065
# 4 -1.8075 13.7226 8.1018 28.9001 -6.8732 -15.1588
# 5 -25.5096 -22.6289 -28.9422 -6.8732 37.5315 1.4734
# 6 -6.1285 -4.8786 -9.0065 -15.1588 1.4734 38.0014
#
#
#
# Elastic Compliance Matrix: (Units=1/GPa)
#
#
# Indices 1 2 3 4 5 6 
#
# 1 0.031669 -0.001587 -0.002032 0.012892 0.021018 0.008750
# 2 -0.001587 0.009146 0.001090 -0.003966 0.004573 -0.000583
# 3 -0.002032 0.001090 0.018693 -0.000946 0.013386 0.003346
# 4 0.012892 -0.003966 -0.000946 0.052341 0.014376 0.021667
# 5 0.021018 0.004573 0.013386 0.014376 0.056223 0.010704
# 6 0.008750 -0.000583 0.003346 0.021667 0.010704 0.036672
#
#
# Mechanical properties :
#
#
# Convention : Reuss Voigt Hill
#
# Bulk Modulus (GPa) = 18.36533 40.89003 29.62768
# Shear Modulus (GPa) = 21.93450 34.56612 28.25031
#
# Velocity S-wave (km/s) = 3.05795 3.83876 3.47038
# Velocity P-wave (km/s) = 4.50527 6.08935 5.35620
#
# Compressibility (1/GPa) = 0.05445043
#
# Stress axis : x y z
#
# Youngs Moduli (GPa) = 31.57691 109.33468 53.49567
#
# Poissons Ratio (x) = 0.17348 0.10871
# Poissons Ratio (y) = 0.05010 -0.05831
# Poissons Ratio (z) = 0.06417 -0.11917
#
# Static dielectric constant tensor:
#      x y z
#    x 1.948570 0.013170 0.069270 
#    y 0.013170 1.960830 0.067170 
#    z 0.069270 0.067170 1.951860 
# 
# From -- ./inp_files/182589.got.cif
#   From: 2010.05.17/outbox.cif.g08.bks.cpg/sg2_92_cif.got.tgz:182589.got - 2010.06.03 11:33:40.
