data_PCOD9078535
_publ_section_title
;
Structure prediction by ZEFSAII (Michael W. Deem and Ramdas Pophale) SiO2 
 PCOD9078535
Probable space group: P -1
;
_chemical_formula_sum "Si O2"
_cell_formula_units_Z 16
_cell_length_a 12.566730
_cell_length_b 7.571147
_cell_length_c 8.714657
_cell_angle_alpha 88.592893
_cell_angle_beta 95.055444
_cell_angle_gamma 53.684600
_cell_volume 662.457212
_symmetry_space_group_name_H-M "P -1"
_symmetry_group_IT_number 2
_symmetry_cell_setting 'triclinic'
loop_
_space_group_symop_operation_xyz
x,y,z
-x,-y,-z
loop_
_atom_site_type_symbol
_atom_site_label
_atom_site_fract_x
_atom_site_fract_y
_atom_site_fract_z
Si Si1 0.915601 0.410949 0.523887
Si Si2 0.308592 0.757887 0.355601
Si Si3 0.585940 0.365001 0.290779
Si Si4 0.517712 0.021937 0.314559
Si Si5 0.269097 0.460587 0.789042
Si Si6 0.970587 0.114102 0.768689
Si Si7 0.969963 0.315704 0.067435
Si Si8 0.228023 0.227572 0.254741
O O1 0.837002 0.431896 0.365342
O O2 0.007880 0.166041 0.611108
O O3 0.812700 0.583522 0.633322
O O4 0.000000 0.500000 0.500000
O O5 0.438329 0.592211 0.274814
O O6 0.347572 0.663496 0.533911
O O7 0.184947 0.775046 0.272558
O O8 0.265170 0.004320 0.344245
O O9 0.669403 0.403936 0.183260
O O10 0.572118 0.166613 0.286741
O O11 0.616543 0.783247 0.254202
O O12 0.500000 0.000000 0.500000
O O13 0.372359 0.145562 0.215197
O O14 0.180015 0.474947 0.917610
O O15 0.995091 0.234932 0.898664
O O16 0.028763 0.874075 0.839265
O O17 0.093489 0.310505 0.142008
#
# Coordination Sequence:
#
# PCOD9078535 Si02
#       8
#     2   2   2   2   2   2   2   2
#     4  12  23  38  65 103 133 167 222 284 336 389
#     4  10  18  35  64  92 124 171 222 266 328 391
#     4  11  20  35  64 100 128 170 211 277 339 382
#     4  12  21  36  66  99 138 167 218 275 337 404
#     4  12  23  41  63 105 134 166 220 285 330 391
#     4  10  23  44  67  91 129 186 228 260 332 413
#     4  10  25  45  66  92 135 181 223 272 331 392
#     4  11  21  38  62  96 132 173 216 272 330 398
#
# _framework density 24.152504
#
# number of rings (size 3 to 8) (size 9 to 14) (size 15 to 20)
#    0.000    1.000    6.250    1.500    0.000    3.000 
#    0.000    0.625    0.000    1.500    0.000    0.000 
#    0.000    0.000    0.000    0.000    0.000    0.000 
#
# Total GULP energy -89446.822025 kJ/mol
# GULP energy per Si atom -5590.426377 kJ/mol
# Density = 2.409753 g / cm^3
# Si number density = 24.152504 Si / 1000 Ang^3
#
#
#
# Elastic Constant Matrix: (Units=GPa)
#
#
# Indices 1 2 3 4 5 6 
#
# 1 109.9339 34.9098 22.5862 5.7597 -16.2933 0.7040
# 2 34.9098 97.8197 30.0774 0.8476 -8.0681 13.4026
# 3 22.5862 30.0774 25.8665 6.8079 12.1184 -4.7437
# 4 5.7597 0.8476 6.8079 27.1858 5.6704 -0.2426
# 5 -16.2933 -8.0681 12.1184 5.6704 39.2991 -8.1278
# 6 0.7040 13.4026 -4.7437 -0.2426 -8.1278 48.1540
#
#
#
# Elastic Compliance Matrix: (Units=1/GPa)
#
#
# Indices 1 2 3 4 5 6 
#
# 1 0.014969 0.003098 -0.023262 -0.000341 0.013850 -0.001037
# 2 0.003098 0.024465 -0.041950 0.005517 0.016765 -0.008129
# 3 -0.023262 -0.041950 0.141580 -0.017390 -0.056009 0.016422
# 4 -0.000341 0.005517 -0.017390 0.041054 -0.000205 -0.003071
# 5 0.013850 0.016765 -0.056009 -0.000205 0.051583 -0.001681
# 6 -0.001037 -0.008129 0.016422 -0.003071 -0.001681 0.024363
#
#
# Mechanical properties :
#
#
# Convention : Reuss Voigt Hill
#
# Bulk Modulus (GPa) = 17.61008 45.41855 31.51431
# Shear Modulus (GPa) = 11.33347 32.66420 21.99883
#
# Velocity S-wave (km/s) = 2.16856 3.68151 3.02127
# Velocity P-wave (km/s) = 3.68473 6.07594 5.02465
#
# Compressibility (1/GPa) = 0.05678567
#
# Stress axis : x y z
#
# Youngs Moduli (GPa) = 66.80428 40.87479 7.06315
#
# Poissons Ratio (x) = -0.12661 0.16430
# Poissons Ratio (y) = -0.20693 0.29630
# Poissons Ratio (z) = 1.55399 1.71470
#
# Static dielectric constant tensor:
#      x y z
#    x 1.930950 0.010230 -0.057930 
#    y 0.010230 1.964710 -0.038800 
#    z -0.057930 -0.038800 1.952560 
# 
# From -- ./inp_files/244032.got.cif
#   From: 2010.05.17/outbox.cif.g08.bks.cpg/sg2_123_cif.got.tgz:244032.got - 2010.06.03 11:33:40.
