data_PCOD9078359
_publ_section_title
;
Structure prediction by ZEFSAII (Michael W. Deem and Ramdas Pophale) SiO2 
 PCOD9078359
Probable space group: P -1
;
_chemical_formula_sum "Si O2"
_cell_formula_units_Z 14
_cell_length_a 9.299708
_cell_length_b 12.843939
_cell_length_c 9.573719
_cell_angle_alpha 91.561686
_cell_angle_beta 118.021462
_cell_angle_gamma 45.514884
_cell_volume 632.025164
_symmetry_space_group_name_H-M "P -1"
_symmetry_group_IT_number 2
_symmetry_cell_setting 'triclinic'
loop_
_space_group_symop_operation_xyz
x,y,z
-x,-y,-z
loop_
_atom_site_type_symbol
_atom_site_label
_atom_site_fract_x
_atom_site_fract_y
_atom_site_fract_z
Si Si1 0.085048 0.210519 0.289774
Si Si2 0.521649 0.805763 0.159030
Si Si3 0.020087 0.615711 0.499647
Si Si4 0.442121 0.869558 0.580005
Si Si5 0.460157 0.672512 0.376026
Si Si6 0.234711 0.322080 0.020984
Si Si7 0.029242 0.195686 0.944209
O O1 0.315977 0.178615 0.361889
O O2 0.911967 0.360487 0.325134
O O3 0.196062 0.057523 0.421845
O O4 0.983943 0.225296 0.093323
O O5 0.457312 0.749759 0.240893
O O6 0.727341 0.785349 0.321857
O O7 0.667342 0.688426 0.085017
O O8 0.258621 0.998501 0.014358
O O9 0.254818 0.520046 0.499485
O O10 0.000000 0.500000 0.500000
O O11 0.436609 0.762098 0.497005
O O12 0.512471 0.812969 0.769746
O O13 0.227500 0.710146 0.249092
O O14 0.129369 0.258503 0.948560
O O15 0.000000 0.500000 0.000000
#
# Coordination Sequence:
#
# PCOD9078359 Si02
#       7
#     2   2   2   2   2   2   2
#     4  10  18  35  61  91 119 163 214 250 299 377
#     4  11  21  41  66  91 124 169 212 249 313 386
#     4  10  19  34  61  92 122 162 209 251 305 375
#     4  10  19  38  62  88 123 166 209 254 304 380
#     4  11  22  39  67  97 126 156 216 268 315 352
#     4  11  25  41  63  91 130 170 211 253 315 382
#     4  11  24  40  65  96 128 163 208 270 313 362
#
# _framework density 22.151019000000002
#
# number of rings (size 3 to 8) (size 9 to 14) (size 15 to 20)
#    0.000    1.429    4.286    3.429    6.000    0.571 
#    0.000    3.571    0.000    0.000    0.000    0.000 
#    0.000    0.000    0.000    0.000    0.000    0.000 
#
# Total GULP energy -78205.300892 kJ/mol
# GULP energy per Si atom -5586.092921 kJ/mol
# Density = 2.210060 g / cm^3
# Si number density = 22.151019 Si / 1000 Ang^3
#
#
#
# Elastic Constant Matrix: (Units=GPa)
#
#
# Indices 1 2 3 4 5 6 
#
# 1 46.6227 11.9850 42.6156 3.0254 3.2513 1.9997
# 2 11.9850 52.8370 2.4152 18.1599 -2.4865 -8.8509
# 3 42.6156 2.4152 98.0199 17.9100 2.5995 -2.6739
# 4 3.0254 18.1599 17.9100 36.2608 -0.2166 -1.7100
# 5 3.2513 -2.4865 2.5995 -0.2166 35.6551 -4.6361
# 6 1.9997 -8.8509 -2.6739 -1.7100 -4.6361 14.0398
#
#
#
# Elastic Compliance Matrix: (Units=1/GPa)
#
#
# Indices 1 2 3 4 5 6 
#
# 1 0.049965 -0.020695 -0.024856 0.017239 -0.007363 -0.025228
# 2 -0.020695 0.035012 0.012466 -0.020645 0.006822 0.027132
# 3 -0.024856 0.012466 0.023804 -0.015192 0.003280 0.015165
# 4 0.017239 -0.020645 -0.015192 0.043290 -0.003493 -0.014244
# 5 -0.007363 0.006822 0.003280 -0.003493 0.030985 0.015780
# 6 -0.025228 0.027132 0.015165 -0.014244 0.015780 0.098288
#
#
# Mechanical properties :
#
#
# Convention : Reuss Voigt Hill
#
# Bulk Modulus (GPa) = 23.46768 34.61234 29.04001
# Shear Modulus (GPa) = 13.82294 26.55539 20.18916
#
# Velocity S-wave (km/s) = 2.50077 3.46617 3.02227
# Velocity P-wave (km/s) = 4.35384 5.62838 5.03163
#
# Compressibility (1/GPa) = 0.04261180
#
# Stress axis : x y z
#
# Youngs Moduli (GPa) = 20.01386 28.56162 42.00982
#
# Poissons Ratio (x) = 0.59108 1.04420
# Poissons Ratio (y) = 0.41418 -0.52370
# Poissons Ratio (z) = 0.49747 -0.35605
#
# Static dielectric constant tensor:
#      x y z
#    x 1.813140 -0.022020 -0.019780 
#    y -0.022020 1.859760 -0.026490 
#    z -0.019780 -0.026490 1.849310 
# 
# From -- ./inp_files/184501.got.cif
#   From: 2010.05.17/outbox.cif.g08.bks.cpg/sg2_93_cif.got.tgz:184501.got - 2010.06.03 11:33:40.
