data_PCOD9078086
_publ_section_title
;
Structure prediction by ZEFSAII (Michael W. Deem and Ramdas Pophale) SiO2 
 PCOD9078086
Probable space group: P -1
;
_chemical_formula_sum "Si O2"
_cell_formula_units_Z 16
_cell_length_a 9.399985
_cell_length_b 7.836864
_cell_length_c 8.968507
_cell_angle_alpha 96.404966
_cell_angle_beta 85.136335
_cell_angle_gamma 116.696527
_cell_volume 586.116989
_symmetry_space_group_name_H-M "P -1"
_symmetry_group_IT_number 2
_symmetry_cell_setting 'triclinic'
loop_
_space_group_symop_operation_xyz
x,y,z
-x,-y,-z
loop_
_atom_site_type_symbol
_atom_site_label
_atom_site_fract_x
_atom_site_fract_y
_atom_site_fract_z
Si Si1 0.111025 0.433244 0.798248
Si Si2 0.592132 0.333225 0.015166
Si Si3 0.725465 0.002470 0.277310
Si Si4 0.283728 0.436469 0.243714
Si Si5 0.608199 0.019969 0.815572
Si Si6 0.376406 0.210918 0.452897
Si Si7 0.757323 0.366541 0.475230
Si Si8 0.981457 0.228233 0.065277
O O1 0.137570 0.451408 0.621028
O O2 0.052008 0.591988 0.866046
O O3 0.288223 0.521536 0.863295
O O4 0.009826 0.245436 0.886816
O O5 0.582811 0.443496 0.878673
O O6 0.678761 0.205540 0.930184
O O7 0.443766 0.171353 0.098076
O O8 0.556012 0.978054 0.227541
O O9 0.791748 0.196172 0.390731
O O10 0.842918 0.041800 0.132685
O O11 0.696356 0.835148 0.380580
O O12 0.341624 0.354643 0.368349
O O13 0.222099 0.574896 0.348508
O O14 0.143666 0.276764 0.145652
O O15 0.686888 0.983349 0.659355
O O16 0.566479 0.285602 0.457025
#
# Coordination Sequence:
#
# PCOD9078086 Si02
#       8
#     2   2   2   2   2   2   2   2
#     4   9  17  35  60  78 108 138 184 235 258 309
#     4  10  18  35  58  85 104 136 184 229 269 313
#     4  10  19  35  59  78 109 144 182 227 263 315
#     4  11  23  33  55  83 114 147 174 220 272 331
#     4  10  19  34  59  86 104 138 184 230 272 310
#     4  11  21  35  54  84 117 142 170 225 283 323
#     4  10  19  37  56  84 104 141 188 225 269 312
#     4   9  19  35  54  79 106 148 184 216 268 315
#
# _framework density 27.298306
#
# number of rings (size 3 to 8) (size 9 to 14) (size 15 to 20)
#    0.000    2.000    3.750    3.375    0.000    3.000 
#    0.000    1.250    0.000    1.500    0.000    0.000 
#    0.000    0.000    0.000    0.000    0.000    0.000 
#
# Total GULP energy -89542.985723 kJ/mol
# GULP energy per Si atom -5596.436608 kJ/mol
# Density = 2.723617 g / cm^3
# Si number density = 27.298306 Si / 1000 Ang^3
#
#
#
# Elastic Constant Matrix: (Units=GPa)
#
#
# Indices 1 2 3 4 5 6 
#
# 1 52.0592 29.1938 13.1026 -14.5599 5.7483 6.0973
# 2 29.1938 62.6415 47.1006 -25.0336 -2.3185 -3.7592
# 3 13.1026 47.1006 176.0887 -47.9143 -21.5474 18.0212
# 4 -14.5599 -25.0336 -47.9143 77.2856 0.2053 -4.6242
# 5 5.7483 -2.3185 -21.5474 0.2053 44.8031 -4.4084
# 6 6.0973 -3.7592 18.0212 -4.6242 -4.4084 30.3349
#
#
#
# Elastic Compliance Matrix: (Units=1/GPa)
#
#
# Indices 1 2 3 4 5 6 
#
# 1 0.029670 -0.016288 0.003136 0.001659 -0.004152 -0.010196
# 2 -0.016288 0.031116 -0.007319 0.003197 0.001362 0.012163
# 3 0.003136 -0.007319 0.009414 0.003682 0.003128 -0.006114
# 4 0.001659 0.003197 0.003682 0.016604 0.001712 0.000655
# 5 -0.004152 0.001362 0.003128 0.001712 0.024715 0.002998
# 6 -0.010196 0.012163 -0.006114 0.000655 0.002998 0.040690
#
#
# Mechanical properties :
#
#
# Convention : Reuss Voigt Hill
#
# Bulk Modulus (GPa) = 34.18012 52.17593 43.17803
# Shear Modulus (GPa) = 24.64214 43.91088 34.27651
#
# Velocity S-wave (km/s) = 3.00775 4.01503 3.54733
# Velocity P-wave (km/s) = 4.96087 6.37564 5.71222
#
# Compressibility (1/GPa) = 0.02925677
#
# Stress axis : x y z
#
# Youngs Moduli (GPa) = 33.70380 32.13763 106.22729
#
# Poissons Ratio (x) = 0.52346 -0.33310
# Poissons Ratio (y) = 0.54897 0.77752
# Poissons Ratio (z) = -0.10569 0.23523
#
# Static dielectric constant tensor:
#      x y z
#    x 2.204540 -0.059080 -0.004610 
#    y -0.059080 2.207870 -0.005670 
#    z -0.004610 -0.005670 2.087510 
# 
# From -- ./inp_files/243580.got.cif
#   From: 2010.05.17/outbox.cif.g08.bks.cpg/sg2_122_cif.got.tgz:243580.got - 2010.06.03 11:33:40.
