data_PCOD9078383
_publ_section_title
;
Structure prediction by ZEFSAII (Michael W. Deem and Ramdas Pophale) SiO2 
 PCOD9078383
Probable space group: P -1
;
_chemical_formula_sum "Si O2"
_cell_formula_units_Z 14
_cell_length_a 14.284282
_cell_length_b 9.927982
_cell_length_c 10.219102
_cell_angle_alpha 40.793560
_cell_angle_beta 80.461772
_cell_angle_gamma 63.018673
_cell_volume 803.469163
_symmetry_space_group_name_H-M "P -1"
_symmetry_group_IT_number 2
_symmetry_cell_setting 'triclinic'
loop_
_space_group_symop_operation_xyz
x,y,z
-x,-y,-z
loop_
_atom_site_type_symbol
_atom_site_label
_atom_site_fract_x
_atom_site_fract_y
_atom_site_fract_z
Si Si1 0.844197 0.623393 0.802272
Si Si2 0.000608 0.912139 0.919895
Si Si3 0.402484 0.137262 0.023775
Si Si4 0.410155 0.007404 0.418287
Si Si5 0.203825 0.088646 0.148089
Si Si6 0.075698 0.034071 0.563609
Si Si7 0.305215 0.701683 0.641067
O O1 0.714359 0.772556 0.688317
O O2 0.847008 0.677933 0.916153
O O3 0.908166 0.744745 0.634697
O O4 0.901701 0.355280 0.938606
O O5 0.888311 0.914303 0.914594
O O6 0.019668 0.064163 0.693815
O O7 0.000000 0.000000 0.000000
O O8 0.357731 0.420358 0.821186
O O9 0.434730 0.042427 0.235947
O O10 0.302854 0.090019 0.049756
O O11 0.500000 0.000000 0.000000
O O12 0.500000 0.000000 0.500000
O O13 0.394356 0.777497 0.604707
O O14 0.253005 0.861226 0.403649
O O15 0.200831 0.808381 0.685352
O O16 0.000000 0.000000 0.500000
#
# Coordination Sequence:
#
# PCOD9078383 Si02
#       7
#     2   2   2   2   2   2   2
#     4   9  20  37  62  80 112 154 197 219 271 352
#     4  12  23  36  53  92 124 140 180 243 293 327
#     4  10  21  38  58  85 109 148 192 230 277 334
#     4   9  20  40  58  85 112 144 191 237 276 323
#     4   9  20  37  59  83 111 154 194 226 275 339
#     4  10  18  35  62  81 103 155 190 218 275 342
#     4   9  19  37  62  83 107 146 202 222 266 348
#
# _framework density 17.424440000000001
#
# number of rings (size 3 to 8) (size 9 to 14) (size 15 to 20)
#    0.000    2.857    2.857    2.143    2.000    3.429 
#   10.286    0.000    0.000    0.000    0.000    0.000 
#    0.000    0.000    0.000    0.000    0.000    0.000 
#
# Total GULP energy -78027.520420 kJ/mol
# GULP energy per Si atom -5573.394316 kJ/mol
# Density = 1.738478 g / cm^3
# Si number density = 17.424440 Si / 1000 Ang^3
#
#
#
# Elastic Constant Matrix: (Units=GPa)
#
#
# Indices 1 2 3 4 5 6 
#
# 1 158.5081 60.2571 49.2796 19.8470 -2.9626 4.3809
# 2 60.2571 83.1985 39.4686 18.5536 -8.9995 -5.1040
# 3 49.2796 39.4686 50.2328 13.2181 -12.6308 -2.5122
# 4 19.8470 18.5536 13.2181 24.6683 -0.0936 -2.2802
# 5 -2.9626 -8.9995 -12.6308 -0.0936 25.5238 13.0827
# 6 4.3809 -5.1040 -2.5122 -2.2802 13.0827 24.0377
#
#
#
# Elastic Compliance Matrix: (Units=1/GPa)
#
#
# Indices 1 2 3 4 5 6 
#
# 1 0.010348 -0.004114 -0.007326 -0.001516 -0.002773 -0.002159
# 2 -0.004114 0.022166 -0.011454 -0.006878 -0.000283 0.003761
# 3 -0.007326 -0.011454 0.043489 -0.009545 0.021211 -0.009002
# 4 -0.001516 -0.006878 -0.009545 0.052861 -0.011904 0.009311
# 5 -0.002773 -0.000283 0.021211 -0.011904 0.067161 -0.035020
# 6 -0.002159 0.003761 -0.009002 0.009311 -0.035020 0.061796
#
#
# Mechanical properties :
#
#
# Convention : Reuss Voigt Hill
#
# Bulk Modulus (GPa) = 33.09485 65.55002 49.32244
# Shear Modulus (GPa) = 15.93983 24.37491 20.15737
#
# Velocity S-wave (km/s) = 3.02784 3.74423 3.40493
# Velocity P-wave (km/s) = 5.59092 7.50957 6.62012
#
# Compressibility (1/GPa) = 0.03021618
#
# Stress axis : x y z
#
# Youngs Moduli (GPa) = 96.63843 45.11317 22.99445
#
# Poissons Ratio (x) = 0.18558 0.16845
# Poissons Ratio (y) = 0.39753 0.26338
# Poissons Ratio (z) = 0.70795 0.51673
#
# Static dielectric constant tensor:
#      x y z
#    x 1.594190 -0.013100 -0.007770 
#    y -0.013100 1.571150 -0.012720 
#    z -0.007770 -0.012720 1.639010 
# 
# From -- ./inp_files/200439.got.cif
#   From: 2010.05.17/outbox.cif.g08.bks.cpg/sg2_101_cif.got.tgz:200439.got - 2010.06.03 11:33:40.
