data_PCOD9078698
_publ_section_title
;
Structure prediction by ZEFSAII (Michael W. Deem and Ramdas Pophale) SiO2 
 PCOD9078698
Probable space group: P -1
;
_chemical_formula_sum "Si O2"
_cell_formula_units_Z 14
_cell_length_a 14.081527
_cell_length_b 16.428007
_cell_length_c 9.804413
_cell_angle_alpha 144.836899
_cell_angle_beta 42.637814
_cell_angle_gamma 139.811130
_cell_volume 804.330325
_symmetry_space_group_name_H-M "P -1"
_symmetry_group_IT_number 2
_symmetry_cell_setting 'triclinic'
loop_
_space_group_symop_operation_xyz
x,y,z
-x,-y,-z
loop_
_atom_site_type_symbol
_atom_site_label
_atom_site_fract_x
_atom_site_fract_y
_atom_site_fract_z
Si Si1 0.759317 0.368175 0.979440
Si Si2 0.570005 0.723227 0.327128
Si Si3 0.208404 0.398769 0.954367
Si Si4 0.627190 0.050570 0.817505
Si Si5 0.911400 0.644123 0.404793
Si Si6 0.271246 0.425399 0.225439
Si Si7 0.025617 0.854062 0.326858
O O1 0.638903 0.199626 0.923080
O O2 0.921602 0.359142 0.761472
O O3 0.717306 0.445747 0.000213
O O4 0.800888 0.489938 0.227646
O O5 0.676850 0.688105 0.278360
O O6 0.395350 0.599815 0.363338
O O7 0.595877 0.899565 0.551749
O O8 0.630192 0.673034 0.055941
O O9 0.053199 0.287077 0.889270
O O10 0.186461 0.427154 0.175071
O O11 0.795588 0.103023 0.779539
O O12 0.500000 0.000000 0.000000
O O13 0.838384 0.645646 0.629285
O O14 0.940700 0.788325 0.470640
O O15 0.000000 0.000000 0.500000
#
# Coordination Sequence:
#
# PCOD9078698 Si02
#       7
#     2   2   2   2   2   2   2
#     4   9  19  34  53  82 110 138 182 232 268 316
#     4   9  19  35  56  77 114 145 178 226 272 322
#     4   9  18  35  57  79 109 142 183 229 260 319
#     4  11  21  36  56  82 115 146 175 228 287 318
#     4   9  18  33  56  79 108 145 180 223 276 321
#     4   9  18  36  57  78 107 149 184 216 275 330
#     4  10  18  36  56  82 110 137 186 233 259 316
#
# _framework density 17.405785000000002
#
# number of rings (size 3 to 8) (size 9 to 14) (size 15 to 20)
#    0.857    1.714    1.429    1.714    0.000    0.571 
#    2.571    9.286    0.000    0.000    0.000    0.000 
#    0.000    0.000    0.000    0.000    0.000    0.000 
#
# Total GULP energy -77950.892373 kJ/mol
# GULP energy per Si atom -5567.920884 kJ/mol
# Density = 1.736617 g / cm^3
# Si number density = 17.405785 Si / 1000 Ang^3
#
#
#
# Elastic Constant Matrix: (Units=GPa)
#
#
# Indices 1 2 3 4 5 6 
#
# 1 38.0151 38.0431 13.5507 -4.0672 15.3839 -5.7396
# 2 38.0431 154.2135 64.9831 -0.7479 7.6608 -19.4261
# 3 13.5507 64.9831 51.8429 -1.6602 6.9092 -11.6134
# 4 -4.0672 -0.7479 -1.6602 36.3832 -6.0720 1.8090
# 5 15.3839 7.6608 6.9092 -6.0720 19.6923 8.6647
# 6 -5.7396 -19.4261 -11.6134 1.8090 8.6647 33.0880
#
#
#
# Elastic Compliance Matrix: (Units=1/GPa)
#
#
# Indices 1 2 3 4 5 6 
#
# 1 0.067217 -0.018611 0.019734 -0.003923 -0.064274 0.024705
# 2 -0.018611 0.019070 -0.022242 0.000332 0.016913 -0.004286
# 3 0.019734 -0.022242 0.049907 -0.002159 -0.032165 0.016422
# 4 -0.003923 0.000332 -0.002159 0.029987 0.016058 -0.007087
# 5 -0.064274 0.016913 -0.032165 0.016058 0.131717 -0.047880
# 6 0.024705 -0.004286 0.016422 -0.007087 -0.047880 0.050681
#
#
# Mechanical properties :
#
#
# Convention : Reuss Voigt Hill
#
# Bulk Modulus (GPa) = 10.64345 53.02504 31.83424
# Shear Modulus (GPa) = 11.84453 26.33236 19.08845
#
# Velocity S-wave (km/s) = 2.61146 3.89376 3.31520
# Velocity P-wave (km/s) = 3.90142 7.12357 5.74310
#
# Compressibility (1/GPa) = 0.09395449
#
# Stress axis : x y z
#
# Youngs Moduli (GPa) = 14.87724 52.43911 20.03731
#
# Poissons Ratio (x) = 0.97597 -0.39542
# Poissons Ratio (y) = 0.27689 0.44567
# Poissons Ratio (z) = -0.29359 1.16635
#
# Static dielectric constant tensor:
#      x y z
#    x 1.602540 -0.003050 -0.001950 
#    y -0.003050 1.587800 0.017710 
#    z -0.001950 0.017710 1.592310 
# 
# From -- ./inp_files/312055.got.cif
#   From: 2010.05.17/outbox.cif.g08.bks.cpg/sg2_157_cif.got.tgz:312055.got - 2010.06.03 11:33:40.
