data_PCOD9078744
_publ_section_title
;
Structure prediction by ZEFSAII (Michael W. Deem and Ramdas Pophale) SiO2 
 PCOD9078744
Probable space group: P -1
;
_chemical_formula_sum "Si O2"
_cell_formula_units_Z 14
_cell_length_a 10.383435
_cell_length_b 18.573951
_cell_length_c 9.202897
_cell_angle_alpha 151.689447
_cell_angle_beta 105.485883
_cell_angle_gamma 58.927876
_cell_volume 639.671115
_symmetry_space_group_name_H-M "P -1"
_symmetry_group_IT_number 2
_symmetry_cell_setting 'triclinic'
loop_
_space_group_symop_operation_xyz
x,y,z
-x,-y,-z
loop_
_atom_site_type_symbol
_atom_site_label
_atom_site_fract_x
_atom_site_fract_y
_atom_site_fract_z
Si Si1 0.969584 0.981730 0.211347
Si Si2 0.039859 0.169102 0.347206
Si Si3 0.423475 0.879888 0.957382
Si Si4 0.615273 0.546623 0.197373
Si Si5 0.441285 0.215933 0.866589
Si Si6 0.256199 0.815692 0.241439
Si Si7 0.237600 0.314443 0.719753
O O1 0.819207 0.049651 0.398737
O O2 0.929562 0.155575 0.406565
O O3 0.123521 0.914413 0.245190
O O4 0.005852 0.829055 0.830239
O O5 0.076618 0.317871 0.654516
O O6 0.228191 0.962765 0.061462
O O7 0.500015 0.748382 0.606412
O O8 0.539164 0.753518 0.905269
O O9 0.389409 0.085646 0.315259
O O10 0.731786 0.563920 0.156574
O O11 0.500000 0.500000 0.000000
O O12 0.719014 0.374771 0.039723
O O13 0.571808 0.228052 0.837304
O O14 0.269987 0.336381 0.936099
O O15 0.500000 0.000000 0.500000
#
# Coordination Sequence:
#
# PCOD9078744 Si02
#       7
#     2   2   2   2   2   2   2
#     4  10  20  39  56  81 112 160 194 230 263 350
#     4   9  19  36  63  81 105 154 203 222 276 337
#     4   9  20  35  60  83 115 146 188 233 289 337
#     4  12  22  35  55  93 121 143 181 243 298 335
#     4  10  18  36  57  88 114 145 189 233 292 339
#     4  11  22  35  56  84 120 149 190 231 287 333
#     4   9  20  37  59  86 118 145 188 234 291 346
#
# _framework density 21.886247999999998
#
# number of rings (size 3 to 8) (size 9 to 14) (size 15 to 20)
#    0.857    1.143    2.857    1.286    0.000    1.714 
#    0.000    1.429    0.000    0.000    0.000    0.000 
#    0.000    0.000    0.000    0.000    0.000    0.000 
#
# Total GULP energy -78056.055372 kJ/mol
# GULP energy per Si atom -5575.432527 kJ/mol
# Density = 2.183643 g / cm^3
# Si number density = 21.886248 Si / 1000 Ang^3
#
#
#
# Elastic Constant Matrix: (Units=GPa)
#
#
# Indices 1 2 3 4 5 6 
#
# 1 68.9297 32.4300 12.4214 -10.6518 32.0451 12.2110
# 2 32.4300 105.5792 41.0508 -24.5348 12.7629 13.4653
# 3 12.4214 41.0508 83.5486 -16.3166 11.9638 1.8566
# 4 -10.6518 -24.5348 -16.3166 38.9296 -2.0997 9.1766
# 5 32.0451 12.7629 11.9638 -2.0997 28.9198 4.8705
# 6 12.2110 13.4653 1.8566 9.1766 4.8705 33.3794
#
#
#
# Elastic Compliance Matrix: (Units=1/GPa)
#
#
# Indices 1 2 3 4 5 6 
#
# 1 0.036776 -0.005413 0.004493 0.008419 -0.038218 -0.008258
# 2 -0.005413 0.015574 -0.005649 0.007680 0.003124 -0.006555
# 3 0.004493 -0.005649 0.016120 0.003961 -0.008856 -0.000058
# 4 0.008419 0.007680 0.003961 0.037642 -0.009025 -0.015430
# 5 -0.038218 0.003124 -0.008856 -0.009025 0.077826 0.004339
# 6 -0.008258 -0.006555 -0.000058 -0.015430 0.004339 0.039236
#
#
# Mechanical properties :
#
#
# Convention : Reuss Voigt Hill
#
# Bulk Modulus (GPa) = 18.07338 47.76243 32.91790
# Shear Modulus (GPa) = 19.62658 31.72278 25.67468
#
# Velocity S-wave (km/s) = 2.99783 3.81128 3.42877
# Velocity P-wave (km/s) = 4.50094 6.42170 5.54512
#
# Compressibility (1/GPa) = 0.05532999
#
# Stress axis : x y z
#
# Youngs Moduli (GPa) = 27.19160 64.20982 62.03524
#
# Poissons Ratio (x) = 0.34760 -0.27870
# Poissons Ratio (y) = 0.14720 0.35044
# Poissons Ratio (z) = -0.12216 0.36273
#
# Static dielectric constant tensor:
#      x y z
#    x 1.820380 -0.047820 -0.062790 
#    y -0.047820 1.839250 0.027420 
#    z -0.062790 0.027420 1.852160 
# 
# From -- ./inp_files/277196.got.cif
#   From: 2010.05.17/outbox.cif.g08.bks.cpg/sg2_139_cif.got.tgz:277196.got - 2010.06.03 11:33:40.
