data_PCOD9078654
_publ_section_title
;
Structure prediction by ZEFSAII (Michael W. Deem and Ramdas Pophale) SiO2 
 PCOD9078654
Probable space group: P -1
;
_chemical_formula_sum "Si O2"
_cell_formula_units_Z 14
_cell_length_a 12.351165
_cell_length_b 9.056960
_cell_length_c 16.579059
_cell_angle_alpha 59.556971
_cell_angle_beta 27.213840
_cell_angle_gamma 47.691094
_cell_volume 603.596821
_symmetry_space_group_name_H-M "P -1"
_symmetry_group_IT_number 2
_symmetry_cell_setting 'triclinic'
loop_
_space_group_symop_operation_xyz
x,y,z
-x,-y,-z
loop_
_atom_site_type_symbol
_atom_site_label
_atom_site_fract_x
_atom_site_fract_y
_atom_site_fract_z
Si Si1 0.858080 0.338018 0.162092
Si Si2 0.586610 0.204427 0.617048
Si Si3 0.212778 0.679634 0.972382
Si Si4 0.585082 0.054249 0.286771
Si Si5 0.857812 0.998847 0.335419
Si Si6 0.525776 0.081083 0.845847
Si Si7 0.500477 0.261511 0.986502
O O1 0.649086 0.550203 0.290599
O O2 0.829801 0.382005 0.072606
O O3 0.767670 0.177912 0.280827
O O4 0.183326 0.219632 0.012226
O O5 0.455883 0.069630 0.722421
O O6 0.803602 0.127467 0.420322
O O7 0.684731 0.137782 0.661451
O O8 0.317238 0.500148 0.017571
O O9 0.426741 0.751260 0.794881
O O10 0.910839 0.881988 0.144800
O O11 0.342008 0.086171 0.500067
O O12 0.190378 0.818285 0.159863
O O13 0.556299 0.149948 0.894018
O O14 0.627624 0.841715 0.847370
#
# Coordination Sequence:
#
# PCOD9078654 Si02
#       7
#     2   2   2   2   2   2   2
#     4  11  18  34  63  81 106 146 188 215 274 323
#     4  10  18  36  54  82 107 145 176 229 259 321
#     4  11  20  38  60  81 104 150 185 222 263 333
#     4   9  22  37  57  79 115 137 187 225 270 314
#     4   9  22  36  53  83 118 139 175 233 272 317
#     4  10  19  34  57  82 109 142 182 226 266 327
#     4  10  21  35  55  85 110 141 183 224 275 321
#
# _framework density 23.194288
#
# number of rings (size 3 to 8) (size 9 to 14) (size 15 to 20)
#    0.857    1.143    2.857    1.714    0.000    1.714 
#    0.000    0.714    0.000    0.000    0.000    0.000 
#    0.000    0.000    0.000    0.000    0.000    0.000 
#
# Total GULP energy -78093.710194 kJ/mol
# GULP energy per Si atom -5578.122157 kJ/mol
# Density = 2.314150 g / cm^3
# Si number density = 23.194288 Si / 1000 Ang^3
#
#
#
# Elastic Constant Matrix: (Units=GPa)
#
#
# Indices 1 2 3 4 5 6 
#
# 1 51.6262 15.2197 -3.0927 6.3980 5.8095 -0.7617
# 2 15.2197 133.1845 8.7473 -12.8428 -1.3782 -21.0050
# 3 -3.0927 8.7473 39.4466 -5.8845 -5.9268 -6.4511
# 4 6.3980 -12.8428 -5.8845 29.1206 2.7158 4.1967
# 5 5.8095 -1.3782 -5.9268 2.7158 30.9314 -7.0750
# 6 -0.7617 -21.0050 -6.4511 4.1967 -7.0750 41.2811
#
#
#
# Elastic Compliance Matrix: (Units=1/GPa)
#
#
# Indices 1 2 3 4 5 6 
#
# 1 0.021471 -0.003269 0.000816 -0.005458 -0.003826 -0.001240
# 2 -0.003269 0.008984 -0.000761 0.003770 0.001514 0.004268
# 3 0.000816 -0.000761 0.027791 0.003897 0.005842 0.004576
# 4 -0.005458 0.003770 0.003897 0.038420 -0.001844 -0.001795
# 5 -0.003826 0.001514 0.005842 -0.001844 0.036229 0.008009
# 6 -0.001240 0.004268 0.004576 -0.001795 0.008009 0.028644
#
#
# Mechanical properties :
#
#
# Convention : Reuss Voigt Hill
#
# Bulk Modulus (GPa) = 19.29752 29.55620 24.42686
# Shear Modulus (GPa) = 26.99215 33.82549 30.40882
#
# Velocity S-wave (km/s) = 3.41507 3.82298 3.62477
# Velocity P-wave (km/s) = 4.88756 5.67957 5.29838
#
# Compressibility (1/GPa) = 0.05182013
#
# Stress axis : x y z
#
# Youngs Moduli (GPa) = 46.57374 111.30508 35.98306
#
# Poissons Ratio (x) = 0.36384 -0.02937
# Poissons Ratio (y) = 0.15224 0.02737
# Poissons Ratio (z) = -0.03802 0.08466
#
# Static dielectric constant tensor:
#      x y z
#    x 1.972610 0.010900 0.026030 
#    y 0.010900 1.873410 -0.042050 
#    z 0.026030 -0.042050 1.895780 
# 
# From -- ./inp_files/173152.got.cif
#   From: 2010.05.17/outbox.cif.g08.bks.cpg/sg2_87_cif.got.tgz:173152.got - 2010.06.03 11:33:40.
