data_PCOD9078220
_publ_section_title
;
Structure prediction by ZEFSAII (Michael W. Deem and Ramdas Pophale) SiO2 
 PCOD9078220
Probable space group: P -1
;
_chemical_formula_sum "Si O2"
_cell_formula_units_Z 16
_cell_length_a 20.807237
_cell_length_b 8.728284
_cell_length_c 6.151471
_cell_angle_alpha 54.518451
_cell_angle_beta 94.847382
_cell_angle_gamma 126.563774
_cell_volume 669.847400
_symmetry_space_group_name_H-M "P -1"
_symmetry_group_IT_number 2
_symmetry_cell_setting 'triclinic'
loop_
_space_group_symop_operation_xyz
x,y,z
-x,-y,-z
loop_
_atom_site_type_symbol
_atom_site_label
_atom_site_fract_x
_atom_site_fract_y
_atom_site_fract_z
Si Si1 0.696323 0.777061 0.335964
Si Si2 0.580607 0.031378 0.919962
Si Si3 0.640175 0.384311 0.268880
Si Si4 0.747078 0.509746 0.823167
Si Si5 0.453976 0.521856 0.156407
Si Si6 0.130761 0.848296 0.131771
Si Si7 0.984417 0.270383 0.439938
Si Si8 0.918773 0.890543 0.342927
O O1 0.651320 0.563606 0.310086
O O2 0.740291 0.708138 0.563228
O O3 0.624824 0.720800 0.527054
O O4 0.774095 0.033747 0.018228
O O5 0.600903 0.132226 0.595003
O O6 0.668038 0.238241 0.911903
O O7 0.534902 0.741245 0.148734
O O8 0.500000 0.000000 0.000000
O O9 0.728160 0.487608 0.091109
O O10 0.586071 0.374246 0.067488
O O11 0.842162 0.637448 0.668771
O O12 0.500000 0.500000 0.000000
O O13 0.101116 0.803923 0.412084
O O14 0.058120 0.575294 0.220909
O O15 0.123124 0.051514 0.890410
O O16 0.022002 0.165372 0.673502
O O17 0.965723 0.129428 0.324297
#
# Coordination Sequence:
#
# PCOD9078220 Si02
#       8
#     2   2   2   2   2   2   2   2
#     4   9  19  36  56  81 113 148 190 229 282 344
#     4  11  19  37  58  81 107 149 201 224 274 350
#     4  10  18  35  60  78 106 158 183 233 278 332
#     4   9  19  33  59  83 111 145 191 235 275 337
#     4  11  23  37  53  83 116 147 187 238 288 328
#     4  10  20  38  61  84 119 152 188 237 290 334
#     4  10  21  36  61  90 111 154 195 227 289 363
#     4  10  20  38  59  87 121 146 190 239 288 334
#
# _framework density 23.886040000000001
#
# number of rings (size 3 to 8) (size 9 to 14) (size 15 to 20)
#    0.000    2.000    3.750    1.875    0.000    0.500 
#    4.500    0.000    0.000    0.000    0.000    0.000 
#    0.000    0.000    0.000    0.000    0.000    0.000 
#
# Total GULP energy -89201.707022 kJ/mol
# GULP energy per Si atom -5575.106689 kJ/mol
# Density = 2.383167 g / cm^3
# Si number density = 23.886040 Si / 1000 Ang^3
#
#
#
# Elastic Constant Matrix: (Units=GPa)
#
#
# Indices 1 2 3 4 5 6 
#
# 1 75.9680 23.5903 44.9110 -0.6209 -32.4787 -12.5611
# 2 23.5903 68.6572 14.3666 -21.7038 -29.4377 -0.2333
# 3 44.9110 14.3666 106.6656 -7.2713 -37.3242 -1.9749
# 4 -0.6209 -21.7038 -7.2713 29.7538 4.6878 -1.9768
# 5 -32.4787 -29.4377 -37.3242 4.6878 56.0781 9.6096
# 6 -12.5611 -0.2333 -1.9749 -1.9768 9.6096 24.3011
#
#
#
# Elastic Compliance Matrix: (Units=1/GPa)
#
#
# Indices 1 2 3 4 5 6 
#
# 1 0.022743 -0.006618 -0.007706 -0.006180 0.003513 0.009174
# 2 -0.006618 0.027371 0.004924 0.018486 0.013390 -0.006549
# 3 -0.007706 0.004924 0.015314 0.005397 0.008849 -0.005752
# 4 -0.006180 0.018486 0.005397 0.047274 0.005952 -0.001086
# 5 0.003513 0.013390 0.008849 0.005952 0.034056 -0.010319
# 6 0.009174 -0.006549 -0.005752 -0.001086 -0.010319 0.049354
#
#
# Mechanical properties :
#
#
# Convention : Reuss Voigt Hill
#
# Bulk Modulus (GPa) = 21.44637 46.33629 33.89133
# Shear Modulus (GPa) = 21.69608 33.25478 27.47543
#
# Velocity S-wave (km/s) = 3.01710 3.73530 3.39524
# Velocity P-wave (km/s) = 4.59731 6.16801 5.43965
#
# Compressibility (1/GPa) = 0.04662793
#
# Stress axis : x y z
#
# Youngs Moduli (GPa) = 43.96997 36.53473 65.29779
#
# Poissons Ratio (x) = 0.24178 0.50322
# Poissons Ratio (y) = 0.29099 -0.32153
# Poissons Ratio (z) = 0.33885 -0.17990
#
# Static dielectric constant tensor:
#      x y z
#    x 2.044340 -0.010070 -0.048420 
#    y -0.010070 1.880170 0.002480 
#    z -0.048420 0.002480 2.006850 
# 
# From -- ./inp_files/51200.got.cif
#   From: 2010.05.17/outbox.cif.g08.bks.cpg/sg2_26_cif.got.tgz:51200.got - 2010.06.03 11:33:40.
