data_PCOD9078896
_publ_section_title
;
Structure prediction by ZEFSAII (Michael W. Deem and Ramdas Pophale) SiO2 
 PCOD9078896
Probable space group: P -1
;
_chemical_formula_sum "Si O2"
_cell_formula_units_Z 16
_cell_length_a 12.869971
_cell_length_b 8.678567
_cell_length_c 12.182154
_cell_angle_alpha 131.423985
_cell_angle_beta 103.094669
_cell_angle_gamma 58.594370
_cell_volume 855.816594
_symmetry_space_group_name_H-M "P -1"
_symmetry_group_IT_number 2
_symmetry_cell_setting 'triclinic'
loop_
_space_group_symop_operation_xyz
x,y,z
-x,-y,-z
loop_
_atom_site_type_symbol
_atom_site_label
_atom_site_fract_x
_atom_site_fract_y
_atom_site_fract_z
Si Si1 0.255627 0.167127 0.125693
Si Si2 0.123503 0.333503 0.381021
Si Si3 0.508414 0.244422 0.884072
Si Si4 0.426034 0.807096 0.371537
Si Si5 0.104390 0.890914 0.142888
Si Si6 0.321988 0.331584 0.569219
Si Si7 0.167721 0.840924 0.876640
Si Si8 0.690181 0.520892 0.873502
O O1 0.133951 0.329570 0.249013
O O2 0.296807 0.328857 0.149017
O O3 0.366212 0.969129 0.134547
O O4 0.227316 0.007616 0.961356
O O5 0.232221 0.376561 0.466875
O O6 0.000000 0.500000 0.500000
O O7 0.148690 0.068104 0.282213
O O8 0.513205 0.188328 0.730152
O O9 0.500000 0.500000 0.000000
O O10 0.397204 0.301668 0.967238
O O11 0.541581 0.708574 0.435551
O O12 0.367841 0.638800 0.260544
O O13 0.336351 0.086951 0.507109
O O14 0.177302 0.656719 0.122715
O O15 0.141843 0.838669 0.999303
O O16 0.956355 0.037848 0.168826
O O17 0.253066 0.568483 0.736194
#
# Coordination Sequence:
#
# PCOD9078896 Si02
#       8
#     2   2   2   2   2   2   2   2
#     4  11  23  38  58  89 119 152 191 236 296 355
#     4  11  20  39  63  83 110 156 199 240 284 336
#     4  10  18  36  60  84 111 151 197 234 279 341
#     4  10  20  34  61  88 113 149 192 243 284 343
#     4  10  20  36  59  84 111 152 202 239 277 343
#     4  11  19  34  63  87 112 141 204 244 277 331
#     4  10  20  35  60  85 109 152 203 242 277 331
#     4  11  21  37  59  85 125 153 184 235 304 349
#
# _framework density 18.695594
#
# number of rings (size 3 to 8) (size 9 to 14) (size 15 to 20)
#    0.000    1.500    3.750    4.875    0.000    0.500 
#    0.000    1.250    8.250    0.000    0.000    0.000 
#    0.000    0.000    0.000    0.000    0.000    0.000 
#
# Total GULP energy -89085.112611 kJ/mol
# GULP energy per Si atom -5567.819538 kJ/mol
# Density = 1.865304 g / cm^3
# Si number density = 18.695594 Si / 1000 Ang^3
#
#
#
# Elastic Constant Matrix: (Units=GPa)
#
#
# Indices 1 2 3 4 5 6 
#
# 1 71.7277 46.7029 40.2713 8.5519 8.3018 3.3806
# 2 46.7029 86.5962 29.6900 11.5296 0.7495 -4.3182
# 3 40.2713 29.6900 106.5110 25.3906 6.3543 2.2389
# 4 8.5519 11.5296 25.3906 25.3033 -7.5103 0.7770
# 5 8.3018 0.7495 6.3543 -7.5103 36.6317 -3.1704
# 6 3.3806 -4.3182 2.2389 0.7770 -3.1704 30.8890
#
#
#
# Elastic Compliance Matrix: (Units=1/GPa)
#
#
# Indices 1 2 3 4 5 6 
#
# 1 0.026151 -0.012323 -0.006623 0.002238 -0.004467 -0.004620
# 2 -0.012323 0.018884 0.000197 -0.004211 0.001879 0.004273
# 3 -0.006623 0.000197 0.015629 -0.014793 -0.004286 -0.000448
# 4 0.002238 -0.004211 -0.014793 0.059802 0.014424 0.000215
# 5 -0.004467 0.001879 -0.004286 0.014424 0.032321 0.004017
# 6 -0.004620 0.004273 -0.000448 0.000215 0.004017 0.033916
#
#
# Mechanical properties :
#
#
# Convention : Reuss Voigt Hill
#
# Bulk Modulus (GPa) = 43.16293 55.35148 49.25720
# Shear Modulus (GPa) = 21.55891 28.44283 25.00087
#
# Velocity S-wave (km/s) = 3.39950 3.90470 3.66082
# Velocity P-wave (km/s) = 6.20855 7.07106 6.65380
#
# Compressibility (1/GPa) = 0.02316803
#
# Stress axis : x y z
#
# Youngs Moduli (GPa) = 38.23883 52.95574 63.98280
#
# Poissons Ratio (x) = 0.65257 0.42373
# Poissons Ratio (y) = 0.47122 -0.01263
# Poissons Ratio (z) = 0.25324 -0.01046
#
# Static dielectric constant tensor:
#      x y z
#    x 1.691900 -0.047450 -0.007260 
#    y -0.047450 1.661260 -0.014290 
#    z -0.007260 -0.014290 1.693500 
# 
# From -- ./inp_files/239008.got.cif
#   From: 2010.05.17/outbox.cif.g08.bks.cpg/sg2_120_cif.got.tgz:239008.got - 2010.06.03 11:33:40.
