data_PCOD9078901
_publ_section_title
;
Structure prediction by ZEFSAII (Michael W. Deem and Ramdas Pophale) SiO2 
 PCOD9078901
Probable space group: P -1
;
_chemical_formula_sum "Si O2"
_cell_formula_units_Z 12
_cell_length_a 9.544586
_cell_length_b 11.867428
_cell_length_c 12.096317
_cell_angle_alpha 49.003823
_cell_angle_beta 142.089499
_cell_angle_gamma 110.821732
_cell_volume 595.308633
_symmetry_space_group_name_H-M "P -1"
_symmetry_group_IT_number 2
_symmetry_cell_setting 'triclinic'
loop_
_space_group_symop_operation_xyz
x,y,z
-x,-y,-z
loop_
_atom_site_type_symbol
_atom_site_label
_atom_site_fract_x
_atom_site_fract_y
_atom_site_fract_z
Si Si1 0.969759 0.179035 0.606034
Si Si2 0.912513 0.121399 0.267988
Si Si3 0.168533 0.378288 0.271241
Si Si4 0.177549 0.511973 0.833152
Si Si5 0.351651 0.326611 0.836041
Si Si6 0.566196 0.378556 0.362712
O O1 0.192962 0.226081 0.759179
O O2 0.851520 0.314942 0.349578
O O3 0.761325 0.216820 0.544101
O O4 0.056241 0.997495 0.738663
O O5 0.087856 0.224689 0.307914
O O6 0.080621 0.453459 0.288211
O O7 0.000000 0.000000 0.500000
O O8 0.434874 0.356316 0.406540
O O9 0.000000 0.500000 0.000000
O O10 0.629070 0.548553 0.906483
O O11 0.272698 0.384981 0.875220
O O12 0.366168 0.770727 0.951559
O O13 0.299500 0.492499 0.630901
#
# Coordination Sequence:
#
# PCOD9078901 Si02
#       6
#     2   2   2   2   2   2
#     4  11  22  35  56  89 118 152 185 235 294 336
#     4  12  21  38  63  85 113 150 197 239 277 339
#     4  10  20  36  63  87 110 146 201 239 278 321
#     4  10  18  36  60  85 108 154 199 228 270 343
#     4  11  21  36  58  85 120 151 187 234 286 349
#     4  10  19  37  61  84 113 151 198 234 276 339
#
# _framework density 20.157610999999999
#
# number of rings (size 3 to 8) (size 9 to 14) (size 15 to 20)
#    0.000    1.333    5.000    5.500    0.000    0.667 
#    0.000    3.333    0.000    5.000    0.000    0.000 
#    0.000    0.000    0.000    0.000    0.000    0.000 
#
# Total GULP energy -66900.693548 kJ/mol
# GULP energy per Si atom -5575.057796 kJ/mol
# Density = 2.011173 g / cm^3
# Si number density = 20.157611 Si / 1000 Ang^3
#
#
#
# Elastic Constant Matrix: (Units=GPa)
#
#
# Indices 1 2 3 4 5 6 
#
# 1 159.9783 32.7525 7.0648 -7.2177 33.2204 -13.4758
# 2 32.7525 101.5847 5.6441 -10.7467 4.8702 -18.0180
# 3 7.0648 5.6441 27.0286 -6.3800 12.0477 -11.1990
# 4 -7.2177 -10.7467 -6.3800 31.0177 -3.6637 6.8364
# 5 33.2204 4.8702 12.0477 -3.6637 32.6655 -14.8115
# 6 -13.4758 -18.0180 -11.1990 6.8364 -14.8115 37.5300
#
#
#
# Elastic Compliance Matrix: (Units=1/GPa)
#
#
# Indices 1 2 3 4 5 6 
#
# 1 0.008633 -0.002626 0.002210 0.000727 -0.009803 -0.001502
# 2 -0.002626 0.011808 -0.000606 0.002581 0.003983 0.005647
# 3 0.002210 -0.000606 0.048273 0.006725 -0.015838 0.007432
# 4 0.000727 0.002581 0.006725 0.035294 -0.001183 -0.003389
# 5 -0.009803 0.003983 -0.015838 -0.001183 0.052279 0.014514
# 6 -0.001502 0.005647 0.007432 -0.003389 0.014514 0.037380
#
#
# Mechanical properties :
#
#
# Convention : Reuss Voigt Hill
#
# Bulk Modulus (GPa) = 14.99893 42.16826 28.58359
# Shear Modulus (GPa) = 22.94295 36.45132 29.69713
#
# Velocity S-wave (km/s) = 3.37735 4.25704 3.84245
# Velocity P-wave (km/s) = 4.76084 6.71773 5.82209
#
# Compressibility (1/GPa) = 0.06667143
#
# Stress axis : x y z
#
# Youngs Moduli (GPa) = 115.83927 84.68841 20.71558
#
# Poissons Ratio (x) = 0.22237 -0.04579
# Poissons Ratio (y) = 0.30416 0.01255
# Poissons Ratio (z) = -0.25606 0.05130
#
# Static dielectric constant tensor:
#      x y z
#    x 1.780680 -0.052060 0.033770 
#    y -0.052060 1.752890 0.018910 
#    z 0.033770 0.018910 1.741870 
# 
# From -- ./inp_files/516751.got.cif
#   From: 2010.05.17/outbox.cif.g08.bks.cpg/sg2_259_cif.got.tgz:516751.got - 2010.06.03 11:33:40.
