data_PCOD9078888
_publ_section_title
;
Structure prediction by ZEFSAII (Michael W. Deem and Ramdas Pophale) SiO2 
 PCOD9078888
Probable space group: P -1
;
_chemical_formula_sum "Si O2"
_cell_formula_units_Z 14
_cell_length_a 8.810972
_cell_length_b 12.624938
_cell_length_c 18.299274
_cell_angle_alpha 151.309356
_cell_angle_beta 131.200102
_cell_angle_gamma 39.749822
_cell_volume 624.058575
_symmetry_space_group_name_H-M "P -1"
_symmetry_group_IT_number 2
_symmetry_cell_setting 'triclinic'
loop_
_space_group_symop_operation_xyz
x,y,z
-x,-y,-z
loop_
_atom_site_type_symbol
_atom_site_label
_atom_site_fract_x
_atom_site_fract_y
_atom_site_fract_z
Si Si1 0.189796 0.490010 0.418420
Si Si2 0.267385 0.592727 0.932952
Si Si3 0.615768 0.544813 0.804156
Si Si4 0.612904 0.061659 0.910418
Si Si5 0.327593 0.738042 0.491914
Si Si6 0.872510 0.698620 0.191146
Si Si7 0.331881 0.302636 0.629759
O O1 0.220623 0.695848 0.506660
O O2 0.395035 0.369871 0.471268
O O3 0.922413 0.610844 0.431876
O O4 0.250882 0.245441 0.238637
O O5 0.097455 0.552640 0.909002
O O6 0.305866 0.399123 0.762768
O O7 0.500000 0.500000 0.000000
O O8 0.236874 0.840867 0.029137
O O9 0.673326 0.458631 0.686066
O O10 0.467423 0.416816 0.701096
O O11 0.882798 0.397689 0.831857
O O12 0.457563 0.826272 0.961908
O O13 0.360007 0.184970 0.863060
O O14 0.191521 0.049520 0.625633
O O15 0.500000 0.000000 0.500000
#
# Coordination Sequence:
#
# PCOD9078888 Si02
#       7
#     2   2   2   2   2   2   2
#     4  10  22  41  56  76 115 152 183 223 279 339
#     4   9  19  36  58  82 110 147 184 221 273 330
#     4  11  21  33  56  88 111 141 189 232 270 319
#     4   9  21  37  56  82 114 150 182 224 279 326
#     4  10  21  37  59  82 109 151 188 226 276 321
#     4  10  18  36  60  83 114 146 186 228 269 326
#     4  11  22  37  58  83 111 144 186 233 277 327
#
# _framework density 22.433792
#
# number of rings (size 3 to 8) (size 9 to 14) (size 15 to 20)
#    0.000    2.000    0.000    3.429    0.000    3.429 
#    0.000    2.857    0.000    0.000    0.000    0.000 
#    0.000    0.000    0.000    0.000    0.000    0.000 
#
# Total GULP energy -78073.164498 kJ/mol
# GULP energy per Si atom -5576.654607 kJ/mol
# Density = 2.238273 g / cm^3
# Si number density = 22.433792 Si / 1000 Ang^3
#
#
#
# Elastic Constant Matrix: (Units=GPa)
#
#
# Indices 1 2 3 4 5 6 
#
# 1 95.7432 37.8028 -2.4962 7.0047 23.9215 -28.2202
# 2 37.8028 61.5010 19.9187 5.6448 7.0013 -23.3776
# 3 -2.4962 19.9187 84.5149 5.4700 10.2166 -5.6879
# 4 7.0047 5.6448 5.4700 26.6703 -0.4038 -3.5554
# 5 23.9215 7.0013 10.2166 -0.4038 27.2835 -11.8076
# 6 -28.2202 -23.3776 -5.6879 -3.5554 -11.8076 33.7204
#
#
#
# Elastic Compliance Matrix: (Units=1/GPa)
#
#
# Indices 1 2 3 4 5 6 
#
# 1 0.020055 -0.010087 0.005352 -0.003776 -0.014850 0.005096
# 2 -0.010087 0.029027 -0.007438 0.000056 0.010250 0.014023
# 3 0.005352 -0.007438 0.014948 -0.003264 -0.009170 -0.001711
# 4 -0.003776 0.000056 -0.003264 0.039599 0.006273 0.002700
# 5 -0.014850 0.010250 -0.009170 0.006273 0.056435 0.013554
# 6 0.005096 0.014023 -0.001711 0.002700 0.013554 0.048384
#
#
# Mechanical properties :
#
#
# Convention : Reuss Voigt Hill
#
# Bulk Modulus (GPa) = 25.19823 39.13442 32.16633
# Shear Modulus (GPa) = 20.32336 29.97042 25.14689
#
# Velocity S-wave (km/s) = 3.01313 3.65903 3.35167
# Velocity P-wave (km/s) = 4.83341 5.94421 5.41736
#
# Compressibility (1/GPa) = 0.03968532
#
# Stress axis : x y z
#
# Youngs Moduli (GPa) = 49.86211 34.45038 66.89875
#
# Poissons Ratio (x) = 0.34749 -0.35805
# Poissons Ratio (y) = 0.50294 0.49760
# Poissons Ratio (z) = -0.26687 0.25624
#
# Static dielectric constant tensor:
#      x y z
#    x 1.872820 0.011200 0.011780 
#    y 0.011200 1.864200 -0.061130 
#    z 0.011780 -0.061130 1.821990 
# 
# From -- ./inp_files/153729.got.cif
#   From: 2010.05.17/outbox.cif.g08.bks.cpg/sg2_77_cif.got.tgz:153729.got - 2010.06.03 11:33:40.
