data_PCOD9078977
_publ_section_title
;
Structure prediction by ZEFSAII (Michael W. Deem and Ramdas Pophale) SiO2 
 PCOD9078977
Probable space group: P -1
;
_chemical_formula_sum "Si O2"
_cell_formula_units_Z 16
_cell_length_a 17.531036
_cell_length_b 17.835275
_cell_length_c 9.042289
_cell_angle_alpha 155.024888
_cell_angle_beta 34.028216
_cell_angle_gamma 148.335689
_cell_volume 605.406298
_symmetry_space_group_name_H-M "P -1"
_symmetry_group_IT_number 2
_symmetry_cell_setting 'triclinic'
loop_
_space_group_symop_operation_xyz
x,y,z
-x,-y,-z
loop_
_atom_site_type_symbol
_atom_site_label
_atom_site_fract_x
_atom_site_fract_y
_atom_site_fract_z
Si Si1 0.484371 0.204109 0.520913
Si Si2 0.371827 0.483612 0.901395
Si Si3 0.625851 0.379101 0.295718
Si Si4 0.920097 0.721599 0.483050
Si Si5 0.176990 0.099753 0.660692
Si Si6 0.068003 0.494824 0.638392
Si Si7 0.290121 0.900538 0.883967
Si Si8 0.251122 0.738939 0.368562
O O1 0.588201 0.305880 0.393941
O O2 0.311954 0.117183 0.588074
O O3 0.552960 0.060096 0.218996
O O4 0.521010 0.369606 0.883493
O O5 0.468190 0.373169 0.483636
O O6 0.224495 0.321289 0.927339
O O7 0.327069 0.602610 0.066887
O O8 0.750791 0.604397 0.488486
O O9 0.701902 0.256459 0.868525
O O10 0.908071 0.653196 0.549938
O O11 0.014225 0.952373 0.718074
O O12 0.013153 0.623608 0.068093
O O13 0.203303 0.002930 0.293780
O O14 0.196414 0.667157 0.649131
O O15 0.927701 0.368079 0.535022
O O16 0.303997 0.921316 0.721959
#
# Coordination Sequence:
#
# PCOD9078977 Si02
#       8
#     2   2   2   2   2   2   2   2
#     4  10  20  38  62  81 114 151 196 232 283 341
#     4  10  22  40  59  83 117 154 191 224 292 352
#     4  10  18  36  61  84 110 153 191 234 276 339
#     4   9  18  32  59  90 109 141 196 243 279 323
#     4  10  20  35  60  88 116 145 188 245 285 326
#     4   9  17  34  57  84 117 149 188 230 288 337
#     4  10  19  35  58  88 114 147 195 232 284 336
#     4  10  21  34  61  83 115 158 189 224 280 357
#
# _framework density 26.428532000000001
#
# number of rings (size 3 to 8) (size 9 to 14) (size 15 to 20)
#    0.000    2.250    1.250    2.625    1.750    0.000 
#    0.000   10.625   11.000    0.000    0.000    0.000 
#    0.000    0.000    0.000    0.000    0.000    0.000 
#
# Total GULP energy -89516.943465 kJ/mol
# GULP energy per Si atom -5594.808967 kJ/mol
# Density = 2.636838 g / cm^3
# Si number density = 26.428532 Si / 1000 Ang^3
#
#
#
# Elastic Constant Matrix: (Units=GPa)
#
#
# Indices 1 2 3 4 5 6 
#
# 1 62.0152 -2.3360 -4.5116 -1.4007 24.9994 15.2871
# 2 -2.3360 161.2542 3.8204 3.5784 15.5010 24.4769
# 3 -4.5116 3.8204 61.3699 1.1593 14.7958 -11.8450
# 4 -1.4007 3.5784 1.1593 38.9540 -0.4447 -0.1510
# 5 24.9994 15.5010 14.7958 -0.4447 21.3592 -1.6961
# 6 15.2871 24.4769 -11.8450 -0.1510 -1.6961 19.1028
#
#
#
# Elastic Compliance Matrix: (Units=1/GPa)
#
#
# Indices 1 2 3 4 5 6 
#
# 1 -0.608943 -0.224405 -0.126482 0.017251 1.026105 0.787662
# 2 -0.224405 -0.073886 -0.048057 0.005468 0.371711 0.277502
# 3 -0.126482 -0.048057 -0.003846 0.002953 0.199788 0.178171
# 4 0.017251 0.005468 0.002953 0.025307 -0.027363 -0.021211
# 5 1.026105 0.371711 0.199788 -0.027363 -1.667860 -1.321851
# 6 0.787662 0.277502 0.178171 -0.021211 -1.321851 -0.940609
#
#
# Mechanical properties :
#
#
# Convention : Reuss Voigt Hill
#
# Bulk Modulus (GPa) = -0.67360 30.95389 15.14014
# Shear Modulus (GPa) = -1.68531 35.06097 16.68783
#
# Velocity S-wave (km/s) = -0.79942 3.64625 2.51556
# Velocity P-wave (km/s) = 1.05239 5.42813 3.76544
#
# Compressibility (1/GPa) = -1.48456118
#
# Stress axis : x y z
#
# Youngs Moduli (GPa) = -1.64219 -13.53432 -259.99004
#
# Poissons Ratio (x) = -3.03716 -32.88393
# Poissons Ratio (y) = -0.36851 -12.49423
# Poissons Ratio (z) = -0.20771 -0.65041
#
# Static dielectric constant tensor:
#      x y z
#    x 2.060300 -0.011700 0.019400 
#    y -0.011700 2.088460 0.022370 
#    z 0.019400 0.022370 2.162230 
# 
# From -- ./inp_files/336836.got.cif
#   From: 2010.05.17/outbox.cif.g08.bks.cpg/sg2_169_cif.got.tgz:336836.got - 2010.06.03 11:33:40.
