data_PCOD9078240
_publ_section_title
;
Structure prediction by ZEFSAII (Michael W. Deem and Ramdas Pophale) SiO2 
 PCOD9078240
Probable space group: P -1
;
_chemical_formula_sum "Si O2"
_cell_formula_units_Z 16
_cell_length_a 9.497141
_cell_length_b 14.324809
_cell_length_c 10.064993
_cell_angle_alpha 118.448192
_cell_angle_beta 132.522747
_cell_angle_gamma 93.578027
_cell_volume 714.368401
_symmetry_space_group_name_H-M "P -1"
_symmetry_group_IT_number 2
_symmetry_cell_setting 'triclinic'
loop_
_space_group_symop_operation_xyz
x,y,z
-x,-y,-z
loop_
_atom_site_type_symbol
_atom_site_label
_atom_site_fract_x
_atom_site_fract_y
_atom_site_fract_z
Si Si1 0.910115 0.763901 0.830586
Si Si2 0.951067 0.899715 0.705234
Si Si3 0.250984 0.935414 0.366936
Si Si4 0.107352 0.917389 0.544387
Si Si5 0.017096 0.445671 0.331084
Si Si6 0.674432 0.624420 0.016525
Si Si7 0.559788 0.371305 0.871377
Si Si8 0.520487 0.383516 0.390871
O O1 0.031561 0.884950 0.888771
O O2 0.893977 0.646558 0.662235
O O3 0.655600 0.726883 0.690182
O O4 0.061748 0.793431 0.081526
O O5 0.694041 0.757620 0.421129
O O6 0.143000 0.935241 0.737403
O O7 0.877563 0.996867 0.708190
O O8 0.281937 0.950382 0.556183
O O9 0.500000 0.000000 0.500000
O O10 0.919332 0.759636 0.303550
O O11 0.000000 0.000000 0.500000
O O12 0.211371 0.561724 0.433083
O O13 0.000000 0.500000 0.500000
O O14 0.767190 0.359828 0.036954
O O15 0.490112 0.592236 0.992535
O O16 0.663167 0.493324 0.918899
O O17 0.597364 0.656914 0.856194
O O18 0.500000 0.500000 0.500000
#
# Coordination Sequence:
#
# PCOD9078240 Si02
#       8
#     2   2   2   2   2   2   2   2
#     4  11  23  41  61  88 125 164 201 249 315 369
#     4  10  22  41  65  89 120 165 208 239 305 378
#     4  11  22  42  66  91 122 156 204 262 306 353
#     4   9  20  38  63  87 114 163 207 240 296 370
#     4  11  22  36  57  91 127 160 206 257 300 355
#     4  10  18  35  60  84 119 160 198 243 303 366
#     4  10  20  34  60  91 118 154 205 251 294 354
#     4  10  20  36  56  83 120 163 194 243 310 365
#
# _framework density 22.397409
#
# number of rings (size 3 to 8) (size 9 to 14) (size 15 to 20)
#    0.000    1.750    2.500    2.625    3.500    0.000 
#    2.250    3.750    0.000    0.000    0.000    0.000 
#    0.000    0.000    0.000    0.000    0.000    0.000 
#
# Total GULP energy -89100.284943 kJ/mol
# GULP energy per Si atom -5568.767809 kJ/mol
# Density = 2.234643 g / cm^3
# Si number density = 22.397409 Si / 1000 Ang^3
#
#
#
# Elastic Constant Matrix: (Units=GPa)
#
#
# Indices 1 2 3 4 5 6 
#
# 1 150.4127 22.2690 20.7260 -6.0419 -8.7754 32.8587
# 2 22.2690 57.8709 -8.5713 0.7843 -13.9777 17.0963
# 3 20.7260 -8.5713 43.0283 -2.6144 -11.7694 -0.1604
# 4 -6.0419 0.7843 -2.6144 31.0950 1.7749 -10.2073
# 5 -8.7754 -13.9777 -11.7694 1.7749 30.9714 -2.9777
# 6 32.8587 17.0963 -0.1604 -10.2073 -2.9777 37.8875
#
#
#
# Elastic Compliance Matrix: (Units=1/GPa)
#
#
# Indices 1 2 3 4 5 6 
#
# 1 0.009229 -0.002473 -0.005342 -0.000905 -0.001176 -0.007247
# 2 -0.002473 0.026008 0.009945 -0.004253 0.014139 -0.009583
# 3 -0.005342 0.009945 0.032043 0.001119 0.015259 0.001781
# 4 -0.000905 -0.004253 0.001119 0.036374 -0.002653 0.012300
# 5 -0.001176 0.014139 0.015259 -0.002653 0.044041 -0.002549
# 6 -0.007247 -0.009583 0.001781 0.012300 -0.002549 0.040124
#
#
# Mechanical properties :
#
#
# Convention : Reuss Voigt Hill
#
# Bulk Modulus (GPa) = 13.97804 35.57326 24.77565
# Shear Modulus (GPa) = 24.10733 34.45000 29.27866
#
# Velocity S-wave (km/s) = 3.28433 3.92615 3.61949
# Velocity P-wave (km/s) = 4.54278 6.03905 5.34355
#
# Compressibility (1/GPa) = 0.07154081
#
# Stress axis : x y z
#
# Youngs Moduli (GPa) = 108.35722 38.44903 31.20809
#
# Poissons Ratio (x) = 0.09510 0.16671
# Poissons Ratio (y) = 0.26801 -0.31038
# Poissons Ratio (z) = 0.57882 -0.38239
#
# Static dielectric constant tensor:
#      x y z
#    x 1.872960 0.009290 -0.007670 
#    y 0.009290 1.882000 0.034890 
#    z -0.007670 0.034890 1.913820 
# 
# From -- ./inp_files/207667.got.cif
#   From: 2010.05.17/outbox.cif.g08.bks.cpg/sg2_104_cif.got.tgz:207667.got - 2010.06.03 11:33:40.
