data_PCOD9078614
_publ_section_title
;
Structure prediction by ZEFSAII (Michael W. Deem and Ramdas Pophale) SiO2 
 PCOD9078614
Probable space group: P -1
;
_chemical_formula_sum "Si O2"
_cell_formula_units_Z 12
_cell_length_a 13.068311
_cell_length_b 7.016593
_cell_length_c 8.647785
_cell_angle_alpha 97.611752
_cell_angle_beta 49.573878
_cell_angle_gamma 67.073216
_cell_volume 464.588641
_symmetry_space_group_name_H-M "P -1"
_symmetry_group_IT_number 2
_symmetry_cell_setting 'triclinic'
loop_
_space_group_symop_operation_xyz
x,y,z
-x,-y,-z
loop_
_atom_site_type_symbol
_atom_site_label
_atom_site_fract_x
_atom_site_fract_y
_atom_site_fract_z
Si Si1 0.806340 0.097575 0.238452
Si Si2 0.413336 0.887396 0.151605
Si Si3 0.255907 0.920961 0.028430
Si Si4 0.132837 0.677943 0.551171
Si Si5 0.906047 0.691740 0.302450
Si Si6 0.744728 0.613351 0.925842
O O1 0.756111 0.268079 0.455930
O O2 0.831770 0.852963 0.238293
O O3 0.700062 0.202251 0.195665
O O4 0.000000 0.000000 0.000000
O O5 0.381737 0.765668 0.031442
O O6 0.222179 0.108959 0.420231
O O7 0.545585 0.730564 0.145087
O O8 0.500000 0.000000 0.000000
O O9 0.253683 0.156146 0.045778
O O10 0.054097 0.060236 0.273785
O O11 0.109729 0.520445 0.675917
O O12 0.200678 0.525456 0.309242
O O13 0.103308 0.578399 0.126037
#
# Coordination Sequence:
#
# PCOD9078614 Si02
#       6
#     2   2   2   2   2   2
#     4  10  24  38  62  93 128 159 204 252 305 365
#     4  10  18  35  68  92 118 159 207 256 294 361
#     4   9  17  36  58  88 126 157 192 261 299 345
#     4  10  18  37  63  93 118 158 208 246 301 369
#     4  11  20  40  70  86 121 170 196 251 314 351
#     4  10  19  35  67  95 115 158 215 244 301 368
#
# _framework density 25.8293
#
# number of rings (size 3 to 8) (size 9 to 14) (size 15 to 20)
#    0.000    2.000    5.000    1.000    0.000    6.667 
#    0.000    5.000    7.333    0.000    0.000    0.000 
#    0.000    0.000    0.000    0.000    0.000    0.000 
#
# Total GULP energy -66999.626846 kJ/mol
# GULP energy per Si atom -5583.302237 kJ/mol
# Density = 2.577051 g / cm^3
# Si number density = 25.829300 Si / 1000 Ang^3
#
#
#
# Elastic Constant Matrix: (Units=GPa)
#
#
# Indices 1 2 3 4 5 6 
#
# 1 150.4912 10.2771 36.4699 16.3792 8.3110 -14.7010
# 2 10.2771 84.5268 -4.0425 -4.8698 -12.8124 22.8680
# 3 36.4699 -4.0425 42.1816 8.3569 7.2767 -1.0408
# 4 16.3792 -4.8698 8.3569 25.3997 -2.1082 -0.6191
# 5 8.3110 -12.8124 7.2767 -2.1082 46.3305 12.0402
# 6 -14.7010 22.8680 -1.0408 -0.6191 12.0402 40.9977
#
#
#
# Elastic Compliance Matrix: (Units=1/GPa)
#
#
# Indices 1 2 3 4 5 6 
#
# 1 0.010184 -0.004369 -0.007355 -0.005141 -0.003927 0.006978
# 2 -0.004369 0.018104 0.002361 0.005944 0.009400 -0.014276
# 3 -0.007355 0.002361 0.031784 -0.005540 -0.002633 -0.002458
# 4 -0.005141 0.005944 -0.005540 0.046088 0.007286 -0.006743
# 5 -0.003927 0.009400 -0.002633 0.007286 0.029610 -0.015304
# 6 0.006978 -0.014276 -0.002458 -0.006743 -0.015304 0.039187
#
#
# Mechanical properties :
#
#
# Convention : Reuss Voigt Hill
#
# Bulk Modulus (GPa) = 24.18681 40.28986 32.23833
# Shear Modulus (GPa) = 24.10035 38.17858 31.13946
#
# Velocity S-wave (km/s) = 3.05792 3.84879 3.47592
# Velocity P-wave (km/s) = 4.67464 5.94839 5.34956
#
# Compressibility (1/GPa) = 0.04134486
#
# Stress axis : x y z
#
# Youngs Moduli (GPa) = 98.19508 55.23585 31.46245
#
# Poissons Ratio (x) = 0.24133 0.23142
# Poissons Ratio (y) = 0.42903 -0.07429
# Poissons Ratio (z) = 0.72227 -0.13042
#
# Static dielectric constant tensor:
#      x y z
#    x 2.033670 -0.004560 0.007850 
#    y -0.004560 2.114090 0.001300 
#    z 0.007850 0.001300 2.084100 
# 
# From -- ./inp_files/150919.got.cif
#   From: 2010.05.17/outbox.cif.g08.bks.cpg/sg2_76_cif.got.tgz:150919.got - 2010.06.03 11:33:40.
