data_PCOD9078602
_publ_section_title
;
Structure prediction by ZEFSAII (Michael W. Deem and Ramdas Pophale) SiO2 
 PCOD9078602
Probable space group: P -1
;
_chemical_formula_sum "Si O2"
_cell_formula_units_Z 12
_cell_length_a 9.589341
_cell_length_b 9.307427
_cell_length_c 10.321455
_cell_angle_alpha 137.768290
_cell_angle_beta 105.613400
_cell_angle_gamma 97.626327
_cell_volume 511.926110
_symmetry_space_group_name_H-M "P -1"
_symmetry_group_IT_number 2
_symmetry_cell_setting 'triclinic'
loop_
_space_group_symop_operation_xyz
x,y,z
-x,-y,-z
loop_
_atom_site_type_symbol
_atom_site_label
_atom_site_fract_x
_atom_site_fract_y
_atom_site_fract_z
Si Si1 0.265031 0.228683 0.817479
Si Si2 0.983731 0.708400 0.061740
Si Si3 0.476123 0.235513 0.657344
Si Si4 0.675735 0.109940 0.191162
Si Si5 0.330820 0.508683 0.361041
Si Si6 0.165688 0.982573 0.055434
O O1 0.077951 0.156900 0.763814
O O2 0.306219 0.167106 0.645496
O O3 0.320134 0.089961 0.843476
O O4 0.379932 0.529355 0.066143
O O5 0.827438 0.577033 0.833786
O O6 0.143931 0.878111 0.124416
O O7 0.000000 0.500000 0.000000
O O8 0.508915 0.343457 0.593253
O O9 0.500000 0.000000 0.500000
O O10 0.693430 0.332482 0.430661
O O11 0.500000 0.000000 0.000000
O O12 0.814158 0.178777 0.159105
O O13 0.315910 0.261574 0.250635
O O14 0.000000 0.000000 0.000000
#
# Coordination Sequence:
#
# PCOD9078602 Si02
#       6
#     2   2   2   2   2   2
#     4  10  21  39  61  93 134 165 213 277 316 377
#     4  10  22  45  71  93 130 175 223 271 329 395
#     4  10  18  35  67  88 127 172 202 262 338 370
#     4  12  24  40  66  98 132 175 221 263 329 396
#     4  10  22  42  68  95 131 174 213 271 333 378
#     4  10  21  44  67  91 137 171 213 281 318 384
#
# _framework density 23.440885000000002
#
# number of rings (size 3 to 8) (size 9 to 14) (size 15 to 20)
#    0.000    1.667    6.667    0.000    0.000    7.333 
#    0.000    0.833    3.667    0.000    0.000    0.000 
#    0.000    0.000    0.000    0.000    0.000    0.000 
#
# Total GULP energy -67088.559388 kJ/mol
# GULP energy per Si atom -5590.713282 kJ/mol
# Density = 2.338753 g / cm^3
# Si number density = 23.440885 Si / 1000 Ang^3
#
#
#
# Elastic Constant Matrix: (Units=GPa)
#
#
# Indices 1 2 3 4 5 6 
#
# 1 109.8702 63.6746 47.1006 -24.0359 -38.4567 30.7161
# 2 63.6746 189.5947 48.5900 7.4155 -24.2044 38.6789
# 3 47.1006 48.5900 137.7196 -11.2848 -49.5048 24.9753
# 4 -24.0359 7.4155 -11.2848 37.3784 9.7202 -9.5880
# 5 -38.4567 -24.2044 -49.5048 9.7202 52.2164 -18.2407
# 6 30.7161 38.6789 24.9753 -9.5880 -18.2407 54.3565
#
#
#
# Elastic Compliance Matrix: (Units=1/GPa)
#
#
# Indices 1 2 3 4 5 6 
#
# 1 0.017321 -0.004695 -0.000319 0.009423 0.007820 -0.002014
# 2 -0.004695 0.008072 -0.001531 -0.005698 -0.001463 -0.003884
# 3 -0.000319 -0.001531 0.011561 0.000921 0.009617 -0.000653
# 4 0.009423 -0.005698 0.000921 0.035351 0.000201 0.004610
# 5 0.007820 -0.001463 0.009617 0.000201 0.034665 0.003872
# 6 -0.002014 -0.003884 -0.000653 0.004610 0.003872 0.024711
#
#
# Mechanical properties :
#
#
# Convention : Reuss Voigt Hill
#
# Bulk Modulus (GPa) = 41.90298 83.99052 62.94675
# Shear Modulus (GPa) = 32.73868 47.31156 40.02512
#
# Velocity S-wave (km/s) = 3.74123 4.49746 4.13666
# Velocity P-wave (km/s) = 6.04791 7.92957 7.05179
#
# Compressibility (1/GPa) = 0.02386465
#
# Stress axis : x y z
#
# Youngs Moduli (GPa) = 57.73362 123.88857 86.49785
#
# Poissons Ratio (x) = 0.58162 0.02759
# Poissons Ratio (y) = 0.27104 0.13242
# Poissons Ratio (z) = 0.01841 0.18966
#
# Static dielectric constant tensor:
#      x y z
#    x 1.995690 0.058590 0.052770 
#    y 0.058590 1.870930 -0.014950 
#    z 0.052770 -0.014950 1.904180 
# 
# From -- ./inp_files/415932.got.cif
#   From: 2010.05.17/outbox.cif.g08.bks.cpg/sg2_208_cif.got.tgz:415932.got - 2010.06.03 11:33:40.
