data_PCOD9078526
_publ_section_title
;
Structure prediction by ZEFSAII (Michael W. Deem and Ramdas Pophale) SiO2 
 PCOD9078526
Probable space group: P -1
;
_chemical_formula_sum "Si O2"
_cell_formula_units_Z 16
_cell_length_a 7.980057
_cell_length_b 16.140367
_cell_length_c 8.910178
_cell_angle_alpha 76.024461
_cell_angle_beta 58.467869
_cell_angle_gamma 44.331407
_cell_volume 666.415188
_symmetry_space_group_name_H-M "P -1"
_symmetry_group_IT_number 2
_symmetry_cell_setting 'triclinic'
loop_
_space_group_symop_operation_xyz
x,y,z
-x,-y,-z
loop_
_atom_site_type_symbol
_atom_site_label
_atom_site_fract_x
_atom_site_fract_y
_atom_site_fract_z
Si Si1 0.254398 0.720243 0.921689
Si Si2 0.135409 0.909339 0.116135
Si Si3 0.565320 0.080601 0.436960
Si Si4 0.447464 0.576565 0.279000
Si Si5 0.824910 0.539338 0.872207
Si Si6 0.921433 0.695547 0.251716
Si Si7 0.262144 0.687968 0.624210
Si Si8 0.696312 0.774496 0.816797
O O1 0.563645 0.592327 0.866901
O O2 0.274525 0.749884 0.730735
O O3 0.186800 0.802727 0.056930
O O4 0.033715 0.712580 0.046869
O O5 0.444771 0.850187 0.022245
O O6 0.902586 0.982709 0.320666
O O7 0.000000 0.000000 0.000000
O O8 0.446665 0.160396 0.304528
O O9 0.378890 0.179780 0.610173
O O10 0.500000 0.000000 0.500000
O O11 0.162446 0.644054 0.287422
O O12 0.363373 0.664371 0.417338
O O13 0.570866 0.448338 0.336125
O O14 0.700334 0.545580 0.085794
O O15 0.072863 0.405597 0.750266
O O16 0.837407 0.636914 0.808683
O O17 0.935274 0.768038 0.732088
#
# Coordination Sequence:
#
# PCOD9078526 Si02
#       8
#     2   2   2   2   2   2   2   2
#     4  10  18  35  64  89 117 160 206 249 282 377
#     4   9  20  39  59  86 114 158 204 256 295 340
#     4  11  21  38  64  88 113 160 222 248 291 349
#     4  10  20  35  60  87 134 158 199 239 301 388
#     4  10  20  38  61  92 126 161 198 250 311 353
#     4  11  18  36  63  93 116 159 215 244 284 371
#     4  11  20  36  59  96 126 161 197 239 321 366
#     4  10  23  37  61  92 127 156 193 261 315 364
#
# _framework density 24.009056999999999
#
# number of rings (size 3 to 8) (size 9 to 14) (size 15 to 20)
#    0.000    1.750    5.000    0.750    0.000    1.000 
#    0.000    3.750    0.000    0.750    0.000    0.000 
#    0.000    0.000    0.000    0.000    0.000    0.000 
#
# Total GULP energy -89312.757884 kJ/mol
# GULP energy per Si atom -5582.047368 kJ/mol
# Density = 2.395441 g / cm^3
# Si number density = 24.009057 Si / 1000 Ang^3
#
#
#
# Elastic Constant Matrix: (Units=GPa)
#
#
# Indices 1 2 3 4 5 6 
#
# 1 39.3096 12.1698 38.4223 11.2436 -4.3030 -14.2239
# 2 12.1698 74.8222 25.0839 25.3187 0.2439 14.6401
# 3 38.4223 25.0839 115.2978 36.5532 12.3850 -3.2885
# 4 11.2436 25.3187 36.5532 48.2837 -7.5028 -4.9557
# 5 -4.3030 0.2439 12.3850 -7.5028 27.2109 -4.8553
# 6 -14.2239 14.6401 -3.2885 -4.9557 -4.8553 16.0408
#
#
#
# Elastic Compliance Matrix: (Units=1/GPa)
#
#
# Indices 1 2 3 4 5 6 
#
# 1 -0.093620 0.062321 0.047605 -0.079894 -0.091633 -0.182554
# 2 0.062321 -0.015033 -0.030789 0.033271 0.048831 0.087729
# 3 0.047605 -0.030789 -0.010620 0.027660 0.035885 0.087543
# 4 -0.079894 0.033271 0.027660 -0.019121 -0.051687 -0.117092
# 5 -0.091633 0.048831 0.035885 -0.051687 -0.034620 -0.144912
# 6 -0.182554 0.087729 0.087543 -0.117092 -0.144912 -0.241695
#
#
# Mechanical properties :
#
#
# Convention : Reuss Voigt Hill
#
# Bulk Modulus (GPa) = 25.63967 42.30907 33.97437
# Shear Modulus (GPa) = -8.92887 28.55733 9.81423
#
# Velocity S-wave (km/s) = -1.93055 3.45257 2.02400
# Velocity P-wave (km/s) = 2.39436 5.79258 4.43210
#
# Compressibility (1/GPa) = 0.03900206
#
# Stress axis : x y z
#
# Youngs Moduli (GPa) = -10.68150 -66.52086 -94.16554
#
# Poissons Ratio (x) = 4.14563 4.48277
# Poissons Ratio (y) = 0.66568 -2.89924
# Poissons Ratio (z) = 0.50849 -2.04809
#
# Static dielectric constant tensor:
#      x y z
#    x 2.328700 0.519220 0.075620 
#    y 0.519220 2.604890 0.073710 
#    z 0.075620 0.073710 1.977900 
# 
# From -- ./inp_files/216009.got.cif
#   From: 2010.05.17/outbox.cif.g08.bks.cpg/sg2_109_cif.got.tgz:216009.got - 2010.06.03 11:33:40.
