data_PCOD9078139
_publ_section_title
;
Structure prediction by ZEFSAII (Michael W. Deem and Ramdas Pophale) SiO2 
 PCOD9078139
Probable space group: P -1
;
_chemical_formula_sum "Si O2"
_cell_formula_units_Z 12
_cell_length_a 7.594046
_cell_length_b 19.216929
_cell_length_c 13.804027
_cell_angle_alpha 23.155386
_cell_angle_beta 37.219530
_cell_angle_gamma 52.816212
_cell_volume 404.104403
_symmetry_space_group_name_H-M "P -1"
_symmetry_group_IT_number 2
_symmetry_cell_setting 'triclinic'
loop_
_space_group_symop_operation_xyz
x,y,z
-x,-y,-z
loop_
_atom_site_type_symbol
_atom_site_label
_atom_site_fract_x
_atom_site_fract_y
_atom_site_fract_z
Si Si1 0.311972 0.195671 0.260215
Si Si2 0.746433 0.002798 0.249710
Si Si3 0.137335 0.367172 0.970159
Si Si4 0.270287 0.605557 0.433806
Si Si5 0.461113 0.193181 0.753134
Si Si6 0.357728 0.374789 0.324677
O O1 0.232446 0.085989 0.540147
O O2 0.541832 0.117349 0.209148
O O3 0.018574 0.175861 0.340152
O O4 0.489194 0.438651 0.903173
O O5 0.593574 0.818665 0.471818
O O6 0.160833 0.153088 0.863639
O O7 0.033566 0.387101 0.879095
O O8 0.528147 0.414632 0.716552
O O9 0.191325 0.582994 0.712590
O O10 0.564463 0.750021 0.197310
O O11 0.047360 0.706408 0.388208
O O12 0.500000 0.000000 0.000000
O O13 0.500000 0.500000 0.000000
#
# Coordination Sequence:
#
# PCOD9078139 Si02
#       6
#     2   2   2   2   2   2
#     4  10  22  38  59  85 116 149 190 232 282 335
#     4  10  20  38  60  82 116 152 187 232 284 334
#     4   9  20  38  58  85 111 151 186 236 279 334
#     4   9  19  37  59  78 113 148 188 229 283 331
#     4  10  18  35  59  81 113 149 186 232 280 333
#     4  10  20  37  58  82 113 150 185 232 284 333
#
# _framework density 29.695295000000002
#
# number of rings (size 3 to 8) (size 9 to 14) (size 15 to 20)
#    1.000    1.333    1.667    1.000    0.000    2.667 
#    3.000   10.000    0.000    0.000    0.000    0.000 
#    0.000    0.000    0.000    0.000    0.000    0.000 
#
# Total GULP energy -66919.816638 kJ/mol
# GULP energy per Si atom -5576.651386 kJ/mol
# Density = 2.962771 g / cm^3
# Si number density = 29.695295 Si / 1000 Ang^3
#
#
#
# Elastic Constant Matrix: (Units=GPa)
#
#
# Indices 1 2 3 4 5 6 
#
# 1 134.1216 51.2690 22.5373 -30.5445 23.2458 -3.2891
# 2 51.2690 225.7159 33.4340 -31.7970 0.5236 11.4287
# 3 22.5373 33.4340 87.0020 -25.9634 27.3181 14.4583
# 4 -30.5445 -31.7970 -25.9634 53.2383 1.2761 8.7810
# 5 23.2458 0.5236 27.3181 1.2761 60.9106 -15.6272
# 6 -3.2891 11.4287 14.4583 8.7810 -15.6272 58.1713
#
#
#
# Elastic Compliance Matrix: (Units=1/GPa)
#
#
# Indices 1 2 3 4 5 6 
#
# 1 0.010006 -0.001568 0.001791 0.006116 -0.005224 -0.001898
# 2 -0.001568 0.005257 -0.001200 0.001778 0.000832 -0.000868
# 3 0.001791 -0.001200 0.021041 0.012581 -0.013013 -0.010288
# 4 0.006116 0.001778 0.012581 0.031575 -0.011470 -0.010978
# 5 -0.005224 0.000832 -0.013013 -0.011470 0.027535 0.011904
# 6 -0.001898 -0.000868 -0.010288 -0.010978 0.011904 0.024666
#
#
# Mechanical properties :
#
#
# Convention : Reuss Voigt Hill
#
# Bulk Modulus (GPa) = 29.11202 73.48002 51.29602
# Shear Modulus (GPa) = 37.45750 57.10401 47.28076
#
# Velocity S-wave (km/s) = 3.55547 4.38996 3.99456
# Velocity P-wave (km/s) = 5.16527 7.10591 6.21184
#
# Compressibility (1/GPa) = 0.03435008
#
# Stress axis : x y z
#
# Youngs Moduli (GPa) = 99.93938 190.22878 47.52529
#
# Poissons Ratio (x) = 0.29834 -0.08514
# Poissons Ratio (y) = 0.15674 0.05704
# Poissons Ratio (z) = -0.17904 0.22832
#
# Static dielectric constant tensor:
#      x y z
#    x 2.427200 0.057550 0.023060 
#    y 0.057550 2.265550 0.130060 
#    z 0.023060 0.130060 2.629610 
# 
# From -- ./inp_files/184519.got.cif
#   From: 2010.05.17/outbox.cif.g08.bks.cpg/sg2_93_cif.got.tgz:184519.got - 2010.06.03 11:33:40.
