data_PCOD9078613
_publ_section_title
;
Structure prediction by ZEFSAII (Michael W. Deem and Ramdas Pophale) SiO2 
 PCOD9078613
Probable space group: P -1
;
_chemical_formula_sum "Si O2"
_cell_formula_units_Z 16
_cell_length_a 11.264855
_cell_length_b 7.898449
_cell_length_c 11.101856
_cell_angle_alpha 64.443047
_cell_angle_beta 110.451276
_cell_angle_gamma 66.737013
_cell_volume 637.671748
_symmetry_space_group_name_H-M "P -1"
_symmetry_group_IT_number 2
_symmetry_cell_setting 'triclinic'
loop_
_space_group_symop_operation_xyz
x,y,z
-x,-y,-z
loop_
_atom_site_type_symbol
_atom_site_label
_atom_site_fract_x
_atom_site_fract_y
_atom_site_fract_z
Si Si1 0.338274 0.150638 0.211437
Si Si2 0.989020 0.194493 0.520182
Si Si3 0.353820 0.724056 0.303467
Si Si4 0.045667 0.866480 0.832306
Si Si5 0.371875 0.897587 0.750407
Si Si6 0.580914 0.338769 0.927354
Si Si7 0.876742 0.386341 0.827864
Si Si8 0.115569 0.461260 0.814083
O O1 0.527622 0.039771 0.304159
O O2 0.240695 0.365421 0.210136
O O3 0.312352 0.957044 0.284396
O O4 0.262487 0.267859 0.016145
O O5 0.863345 0.461878 0.332135
O O6 0.959604 0.127414 0.659822
O O7 0.174392 0.104288 0.611309
O O8 0.000000 0.000000 0.500000
O O9 0.500000 0.500000 0.500000
O O10 0.408418 0.727792 0.186311
O O11 0.231862 0.666600 0.256743
O O12 0.026090 0.709270 0.785108
O O13 0.242802 0.731958 0.951414
O O14 0.012127 0.826232 0.966757
O O15 0.437663 0.632035 0.804431
O O16 0.428450 0.822832 0.932901
O O17 0.997019 0.395138 0.786467
#
# Coordination Sequence:
#
# PCOD9078613 Si02
#       8
#     2   2   2   2   2   2   2   2
#     4  11  22  39  67  88 119 169 206 247 314 374
#     4   9  19  30  55  95 122 151 202 255 302 357
#     4  11  25  40  58  91 130 156 208 265 305 361
#     4   8  14  33  55  84 117 153 198 242 301 354
#     4  10  18  35  68  89 119 165 205 247 311 370
#     4   9  18  36  60  92 121 157 206 257 299 368
#     4  10  21  40  63  88 125 166 210 251 306 376
#     4  10  19  35  59  91 124 161 208 252 307 373
#
# _framework density 25.091280999999999
#
# number of rings (size 3 to 8) (size 9 to 14) (size 15 to 20)
#    0.000    2.250    3.750    1.500    3.500    2.500 
#    0.000    0.000    0.000    8.250    0.000    0.000 
#    0.000    0.000    0.000    0.000    0.000    0.000 
#
# Total GULP energy -89473.655154 kJ/mol
# GULP energy per Si atom -5592.103447 kJ/mol
# Density = 2.503417 g / cm^3
# Si number density = 25.091281 Si / 1000 Ang^3
#
#
#
# Elastic Constant Matrix: (Units=GPa)
#
#
# Indices 1 2 3 4 5 6 
#
# 1 85.5406 31.8504 16.9603 -1.4459 -7.2467 32.6094
# 2 31.8504 117.6379 36.3604 7.8310 -1.0577 16.4062
# 3 16.9603 36.3604 86.4323 -7.3788 -14.6532 20.1385
# 4 -1.4459 7.8310 -7.3788 22.9963 4.2127 -3.2759
# 5 -7.2467 -1.0577 -14.6532 4.2127 30.2386 1.1227
# 6 32.6094 16.4062 20.1385 -3.2759 1.1227 35.8282
#
#
#
# Elastic Compliance Matrix: (Units=1/GPa)
#
#
# Indices 1 2 3 4 5 6 
#
# 1 0.020145 -0.003725 0.003097 -0.000396 0.006945 -0.018624
# 2 -0.003725 0.011287 -0.004978 -0.005182 -0.002211 0.000616
# 3 0.003097 -0.004978 0.017262 0.004395 0.008696 -0.010113
# 4 -0.000396 -0.005182 0.004395 0.048249 -0.005048 0.004833
# 5 0.006945 -0.002211 0.008696 -0.005048 0.040017 -0.011912
# 6 -0.018624 0.000616 -0.010113 0.004833 -0.011912 0.051079
#
#
# Mechanical properties :
#
#
# Convention : Reuss Voigt Hill
#
# Bulk Modulus (GPa) = 26.67999 51.10589 38.89294
# Shear Modulus (GPa) = 23.61341 31.44194 27.52767
#
# Velocity S-wave (km/s) = 3.07106 3.54376 3.31585
# Velocity P-wave (km/s) = 4.81991 6.09561 5.49491
#
# Compressibility (1/GPa) = 0.03748127
#
# Stress axis : x y z
#
# Youngs Moduli (GPa) = 49.64099 88.59606 57.93105
#
# Poissons Ratio (x) = 0.33005 -0.17942
# Poissons Ratio (y) = 0.18493 0.28838
# Poissons Ratio (z) = -0.15374 0.44103
#
# Static dielectric constant tensor:
#      x y z
#    x 2.043220 -0.049030 0.004290 
#    y -0.049030 1.981580 -0.013890 
#    z 0.004290 -0.013890 1.991820 
# 
# From -- ./inp_files/416601.got.cif
#   From: 2010.05.17/outbox.cif.g08.bks.cpg/sg2_209_cif.got.tgz:416601.got - 2010.06.03 11:33:40.
