data_PCOD9078197
_publ_section_title
;
Structure prediction by ZEFSAII (Michael W. Deem and Ramdas Pophale) SiO2 
 PCOD9078197
Probable space group: P -1
;
_chemical_formula_sum "Si O2"
_cell_formula_units_Z 16
_cell_length_a 29.562759
_cell_length_b 22.615123
_cell_length_c 8.549635
_cell_angle_alpha 154.352500
_cell_angle_beta 33.678071
_cell_angle_gamma 162.250993
_cell_volume 738.966545
_symmetry_space_group_name_H-M "P -1"
_symmetry_group_IT_number 2
_symmetry_cell_setting 'triclinic'
loop_
_space_group_symop_operation_xyz
x,y,z
-x,-y,-z
loop_
_atom_site_type_symbol
_atom_site_label
_atom_site_fract_x
_atom_site_fract_y
_atom_site_fract_z
Si Si1 0.174183 0.087164 0.777878
Si Si2 0.878530 0.695658 0.515330
Si Si3 0.328070 0.923134 0.756182
Si Si4 0.659320 0.183910 0.054438
Si Si5 0.675259 0.351944 0.749025
Si Si6 0.827563 0.196426 0.763809
Si Si7 0.327739 0.202504 0.286249
Si Si8 0.889533 0.909719 0.477780
O O1 0.257861 0.159161 0.549580
O O2 0.181877 0.981122 0.633323
O O3 0.222201 0.309274 0.207365
O O4 0.994467 0.850784 0.697697
O O5 0.778567 0.422335 0.164560
O O6 0.991338 0.865074 0.452086
O O7 0.275445 0.690089 0.361252
O O8 0.509357 0.168739 0.840060
O O9 0.245509 0.868882 0.014672
O O10 0.309849 0.012563 0.888369
O O11 0.662892 0.258923 0.395438
O O12 0.722660 0.122175 0.760125
O O13 0.500000 0.000000 0.000000
O O14 0.783506 0.631940 0.077729
O O15 0.000000 0.500000 0.000000
O O16 0.500000 0.500000 0.500000
O O17 0.230725 0.136753 0.271333
O O18 0.000000 0.000000 0.500000
#
# Coordination Sequence:
#
# PCOD9078197 Si02
#       8
#     2   2   2   2   2   2   2   2
#     4   9  18  34  62  86 111 159 192 236 289 346
#     4  10  20  36  58  86 115 151 202 237 286 349
#     4   9  20  33  62  88 114 159 196 233 291 352
#     4  11  23  39  62  87 118 156 194 241 291 346
#     4  10  20  40  61  85 119 157 195 236 292 347
#     4  10  19  35  60  88 119 152 195 239 293 342
#     4  10  18  35  59  89 118 151 194 239 291 345
#     4  11  24  39  62  86 118 156 195 242 291 346
#
# _framework density 21.651859999999999
#
# number of rings (size 3 to 8) (size 9 to 14) (size 15 to 20)
#    0.000    2.000    2.500    2.250    1.750    3.000 
#    0.000    2.500    0.000    0.000    0.000    0.000 
#    0.000    0.000    0.000    0.000    0.000    0.000 
#
# Total GULP energy -89112.247079 kJ/mol
# GULP energy per Si atom -5569.515442 kJ/mol
# Density = 2.160258 g / cm^3
# Si number density = 21.651860 Si / 1000 Ang^3
#
#
#
# Elastic Constant Matrix: (Units=GPa)
#
#
# Indices 1 2 3 4 5 6 
#
# 1 155.8193 40.6268 49.6839 9.5208 -55.2531 27.6766
# 2 40.6268 109.0889 13.6886 6.9052 -15.7842 -6.4712
# 3 49.6839 13.6886 40.2812 2.9646 -40.6689 6.9999
# 4 9.5208 6.9052 2.9646 23.4288 -0.0438 -13.1215
# 5 -55.2531 -15.7842 -40.6689 -0.0438 46.0536 -6.8061
# 6 27.6766 -6.4712 6.9999 -13.1215 -6.8061 34.7839
#
#
#
# Elastic Compliance Matrix: (Units=1/GPa)
#
#
# Indices 1 2 3 4 5 6 
#
# 1 0.018163 -0.004168 0.012715 -0.018407 0.028750 -0.019104
# 2 -0.004168 0.010894 -0.001274 0.002046 -0.001491 0.006080
# 3 0.012715 -0.001274 0.276520 -0.061540 0.253082 -0.039696
# 4 -0.018407 0.002046 -0.061540 0.082421 -0.068998 0.045002
# 5 0.028750 -0.001491 0.253082 -0.068998 0.272198 -0.046851
# 6 -0.019104 0.006080 -0.039696 0.045002 -0.046851 0.060877
#
#
# Mechanical properties :
#
#
# Convention : Reuss Voigt Hill
#
# Bulk Modulus (GPa) = 3.12379 57.02091 30.07235
# Shear Modulus (GPa) = 6.14828 34.26592 20.20710
#
# Velocity S-wave (km/s) = 1.68694 3.98249 3.05827
# Velocity P-wave (km/s) = 2.28916 6.89489 5.13710
#
# Compressibility (1/GPa) = 0.32012403
#
# Stress axis : x y z
#
# Youngs Moduli (GPa) = 55.05802 91.79149 3.61637
#
# Poissons Ratio (x) = 0.38258 -0.04598
# Poissons Ratio (y) = 0.22948 0.00461
# Poissons Ratio (z) = -0.70008 0.11695
#
# Static dielectric constant tensor:
#      x y z
#    x 2.547830 0.149820 -0.201270 
#    y 0.149820 1.822340 -0.000620 
#    z -0.201270 -0.000620 2.038100 
# 
# From -- ./inp_files/357764.got.cif
#   From: 2010.05.17/outbox.cif.g08.bks.cpg/sg2_179_cif.got.tgz:357764.got - 2010.06.03 11:33:40.
