data_PCOD9078515
_publ_section_title
;
Structure prediction by ZEFSAII (Michael W. Deem and Ramdas Pophale) SiO2 
 PCOD9078515
Probable space group: P -1
;
_chemical_formula_sum "Si O2"
_cell_formula_units_Z 16
_cell_length_a 6.943152
_cell_length_b 13.185986
_cell_length_c 10.572818
_cell_angle_alpha 42.763606
_cell_angle_beta 97.556099
_cell_angle_gamma 107.694182
_cell_volume 619.817534
_symmetry_space_group_name_H-M "P -1"
_symmetry_group_IT_number 2
_symmetry_cell_setting 'triclinic'
loop_
_space_group_symop_operation_xyz
x,y,z
-x,-y,-z
loop_
_atom_site_type_symbol
_atom_site_label
_atom_site_fract_x
_atom_site_fract_y
_atom_site_fract_z
Si Si1 0.783405 0.045377 0.461500
Si Si2 0.726252 0.601828 0.017491
Si Si3 0.686690 0.835306 0.310558
Si Si4 0.813449 0.197154 0.071577
Si Si5 0.699170 0.764038 0.101743
Si Si6 0.897201 0.332376 0.708055
Si Si7 0.836515 0.114820 0.686934
Si Si8 0.518840 0.708464 0.678435
O O1 0.738301 0.153898 0.247514
O O2 0.781529 0.115500 0.535563
O O3 0.608483 0.880337 0.587410
O O4 0.000000 0.000000 0.500000
O O5 0.604141 0.650392 0.080171
O O6 0.702491 0.420064 0.206329
O O7 0.652663 0.622341 0.851826
O O8 0.948070 0.724972 0.942483
O O9 0.605920 0.765256 0.231394
O O10 0.574019 0.738671 0.509096
O O11 0.919442 0.832651 0.341094
O O12 0.725126 0.023486 0.158054
O O13 0.786247 0.314692 0.851536
O O14 0.913759 0.732493 0.180884
O O15 0.748576 0.938526 0.891527
O O16 0.773813 0.221506 0.687371
O O17 0.000000 0.500000 0.500000
#
# Coordination Sequence:
#
# PCOD9078515 Si02
#       8
#     2   2   2   2   2   2   2   2
#     4  11  15  27  47  70  88 122 154 184 222 276
#     4  10  17  26  38  65 101 123 136 185 235 270
#     4  10  15  26  45  66  87 118 152 182 218 271
#     4  10  16  29  46  65  93 121 149 183 232 267
#     4  10  17  29  48  66  92 122 150 183 232 271
#     4  10  19  29  44  71  94 117 152 194 230 263
#     4  11  15  28  49  71  88 121 148 188 229 272
#     4  10  18  24  39  68 101 117 144 182 232 270
#
# _framework density 25.814046000000001
#
# number of rings (size 3 to 8) (size 9 to 14) (size 15 to 20)
#    0.000    1.750    8.750    0.750    0.000    0.500 
#    0.000    0.625    0.000    0.000    0.000   17.500 
#    0.000    0.000    0.000    0.000    0.000    0.000 
#
# Total GULP energy -89306.749007 kJ/mol
# GULP energy per Si atom -5581.671813 kJ/mol
# Density = 2.575529 g / cm^3
# Si number density = 25.814046 Si / 1000 Ang^3
#
#
#
# Elastic Constant Matrix: (Units=GPa)
#
#
# Indices 1 2 3 4 5 6 
#
# 1 78.2715 23.0085 22.4051 14.7114 0.7155 3.4945
# 2 23.0085 171.5055 97.6479 34.8926 2.6611 -3.2950
# 3 22.4051 97.6479 224.8004 20.6033 -18.2696 -5.9695
# 4 14.7114 34.8926 20.6033 59.9439 0.8461 1.0798
# 5 0.7155 2.6611 -18.2696 0.8461 20.4840 12.9790
# 6 3.4945 -3.2950 -5.9695 1.0798 12.9790 25.9985
#
#
#
# Elastic Compliance Matrix: (Units=1/GPa)
#
#
# Indices 1 2 3 4 5 6 
#
# 1 0.013851 -0.000972 -0.000741 -0.002545 0.000563 -0.002331
# 2 -0.000972 0.009207 -0.004041 -0.003704 -0.007233 0.004134
# 3 -0.000741 -0.004041 0.006892 0.000100 0.008710 -0.003182
# 4 -0.002545 -0.003704 0.000100 0.019442 0.000635 -0.001229
# 5 0.000563 -0.007233 0.008710 0.000635 0.083166 -0.040537
# 6 -0.002331 0.004134 -0.003182 -0.001229 -0.040537 0.058858
#
#
# Mechanical properties :
#
#
# Convention : Reuss Voigt Hill
#
# Bulk Modulus (GPa) = 54.22491 84.52226 69.37359
# Shear Modulus (GPa) = 23.91524 43.38634 33.65079
#
# Velocity S-wave (km/s) = 3.04705 4.10411 3.61444
# Velocity P-wave (km/s) = 5.78195 7.43452 6.65970
#
# Compressibility (1/GPa) = 0.01844171
#
# Stress axis : x y z
#
# Youngs Moduli (GPa) = 72.19627 108.61063 145.09989
#
# Poissons Ratio (x) = 0.10557 0.10754
# Poissons Ratio (y) = 0.07018 0.58635
# Poissons Ratio (z) = 0.05351 0.43890
#
# Static dielectric constant tensor:
#      x y z
#    x 1.997770 0.057280 -0.097610 
#    y 0.057280 2.000750 0.084940 
#    z -0.097610 0.084940 1.930890 
# 
# From -- ./inp_files/430937.got.cif
#   From: 2010.05.17/outbox.cif.g08.bks.cpg/sg2_216_cif.got.tgz:430937.got - 2010.06.03 11:33:40.
