data_PCOD9078639
_publ_section_title
;
Structure prediction by ZEFSAII (Michael W. Deem and Ramdas Pophale) SiO2 
 PCOD9078639
Probable space group: P -1
;
_chemical_formula_sum "Si O2"
_cell_formula_units_Z 14
_cell_length_a 5.526480
_cell_length_b 7.521781
_cell_length_c 23.174295
_cell_angle_alpha 137.821645
_cell_angle_beta 71.202760
_cell_angle_gamma 114.466245
_cell_volume 588.554456
_symmetry_space_group_name_H-M "P -1"
_symmetry_group_IT_number 2
_symmetry_cell_setting 'triclinic'
loop_
_space_group_symop_operation_xyz
x,y,z
-x,-y,-z
loop_
_atom_site_type_symbol
_atom_site_label
_atom_site_fract_x
_atom_site_fract_y
_atom_site_fract_z
Si Si1 0.383755 0.725366 0.530641
Si Si2 0.664426 0.833551 0.799398
Si Si3 0.903774 0.657878 0.634759
Si Si4 0.370638 0.763657 0.001713
Si Si5 0.096790 0.335698 0.064681
Si Si6 0.897292 0.183131 0.596779
Si Si7 0.960043 0.475942 0.233259
O O1 0.500000 0.500000 0.500000
O O2 0.315376 0.584640 0.439630
O O3 0.128140 0.750205 0.591737
O O4 0.587086 0.025299 0.584937
O O5 0.792065 0.861377 0.731937
O O6 0.836012 0.676345 0.788260
O O7 0.354537 0.672157 0.775222
O O8 0.659802 0.091329 0.901154
O O9 0.006888 0.483290 0.632954
O O10 0.587780 0.595780 0.951230
O O11 0.087561 0.610945 0.959496
O O12 0.500000 0.000000 0.000000
O O13 0.032350 0.477530 0.161255
O O14 0.000000 0.000000 0.000000
O O15 0.986840 0.234025 0.668036
O O16 0.000000 0.000000 0.500000
#
# Coordination Sequence:
#
# PCOD9078639 Si02
#       7
#     2   2   2   2   2   2   2
#     4  11  22  43  60  84 121 159 200 254 304 352
#     4  11  19  32  52  84 117 152 196 245 291 361
#     4  10  24  38  63  86 118 160 205 246 303 361
#     4  10  15  26  46  74 117 146 183 242 294 338
#     4  10  15  27  45  74 116 147 183 240 292 344
#     4  11  22  39  62  89 120 159 202 251 301 359
#     4  11  20  31  52  83 118 152 196 244 293 353
#
# _framework density 23.787096999999999
#
# number of rings (size 3 to 8) (size 9 to 14) (size 15 to 20)
#    0.000    1.429    7.143    1.286    2.000    1.143 
#    0.000    0.000    0.000    0.000    0.000    2.000 
#    0.000    0.000    0.000    0.000    0.000    0.000 
#
# Total GULP energy -78140.517878 kJ/mol
# GULP energy per Si atom -5581.465563 kJ/mol
# Density = 2.373296 g / cm^3
# Si number density = 23.787097 Si / 1000 Ang^3
#
#
#
# Elastic Constant Matrix: (Units=GPa)
#
#
# Indices 1 2 3 4 5 6 
#
# 1 177.1468 25.9481 59.8782 -8.8158 7.0426 19.6305
# 2 25.9481 67.7499 39.5694 -4.5346 -2.2780 6.0622
# 3 59.8782 39.5694 243.8671 -51.6892 21.1635 17.4590
# 4 -8.8158 -4.5346 -51.6892 24.8526 -1.6678 0.8823
# 5 7.0426 -2.2780 21.1635 -1.6678 41.9971 6.4303
# 6 19.6305 6.0622 17.4590 0.8823 6.4303 26.1423
#
#
#
# Elastic Compliance Matrix: (Units=1/GPa)
#
#
# Indices 1 2 3 4 5 6 
#
# 1 0.006682 -0.001559 -0.001136 -0.000142 -0.000044 -0.003882
# 2 -0.001559 0.017342 -0.003601 -0.004641 0.002989 -0.001024
# 3 -0.001136 -0.003601 0.009550 0.018734 -0.003386 -0.004489
# 4 -0.000142 -0.004641 0.018734 0.078453 -0.004586 -0.012848
# 5 -0.000044 0.002989 -0.003386 -0.004586 0.026224 -0.004694
# 6 -0.003882 -0.001024 -0.004489 -0.012848 -0.004694 0.045991
#
#
# Mechanical properties :
#
#
# Convention : Reuss Voigt Hill
#
# Bulk Modulus (GPa) = 47.66080 82.17279 64.91680
# Shear Modulus (GPa) = 24.53049 42.82295 33.67672
#
# Velocity S-wave (km/s) = 3.21479 4.24755 3.76673
# Velocity P-wave (km/s) = 5.81892 7.66000 6.80204
#
# Compressibility (1/GPa) = 0.02098160
#
# Stress axis : x y z
#
# Youngs Moduli (GPa) = 149.64852 57.66351 104.71295
#
# Poissons Ratio (x) = 0.08992 0.11897
# Poissons Ratio (y) = 0.23336 0.37704
# Poissons Ratio (z) = 0.17003 0.20763
#
# Static dielectric constant tensor:
#      x y z
#    x 2.218330 -0.050770 0.054580 
#    y -0.050770 2.015560 0.032260 
#    z 0.054580 0.032260 1.974680 
# 
# From -- ./inp_files/39322.got.cif
#   From: 2010.05.17/outbox.cif.g08.bks.cpg/sg2_20_cif.got.tgz:39322.got - 2010.06.03 11:33:40.
