data_PCOD9078297
_publ_section_title
;
Structure prediction by ZEFSAII (Michael W. Deem and Ramdas Pophale) SiO2 
 PCOD9078297
Probable space group: P -1
;
_chemical_formula_sum "Si O2"
_cell_formula_units_Z 16
_cell_length_a 6.521114
_cell_length_b 26.119486
_cell_length_c 11.669461
_cell_angle_alpha 28.466802
_cell_angle_beta 126.411391
_cell_angle_gamma 115.229180
_cell_volume 738.406725
_symmetry_space_group_name_H-M "P -1"
_symmetry_group_IT_number 2
_symmetry_cell_setting 'triclinic'
loop_
_space_group_symop_operation_xyz
x,y,z
-x,-y,-z
loop_
_atom_site_type_symbol
_atom_site_label
_atom_site_fract_x
_atom_site_fract_y
_atom_site_fract_z
Si Si1 0.919160 0.974938 0.894827
Si Si2 0.577826 0.797970 0.128061
Si Si3 0.451658 0.479119 0.684615
Si Si4 0.042454 0.442760 0.251289
Si Si5 0.599632 0.366083 0.181665
Si Si6 0.539564 0.184232 0.693723
Si Si7 0.047430 0.797856 0.571473
Si Si8 0.306460 0.685644 0.087002
O O1 0.194316 0.904700 0.073348
O O2 0.824526 0.098808 0.570545
O O3 0.705888 0.902283 0.959877
O O4 0.000000 0.000000 0.000000
O O5 0.807735 0.685321 0.431693
O O6 0.430707 0.790968 0.212208
O O7 0.395942 0.781704 0.995005
O O8 0.751314 0.497216 0.741659
O O9 0.273044 0.593512 0.350361
O O10 0.462326 0.380567 0.792319
O O11 0.416198 0.443769 0.872926
O O12 0.746161 0.433453 0.183622
O O13 0.000000 0.500000 0.000000
O O14 0.497668 0.286311 0.390489
O O15 0.806365 0.282209 0.326034
O O16 0.259007 0.153719 0.654225
O O17 0.074519 0.734142 0.826498
#
# Coordination Sequence:
#
# PCOD9078297 Si02
#       8
#     2   2   2   2   2   2   2   2
#     4  12  22  39  63  92 114 153 204 245 301 345
#     4  11  22  38  60  89 124 155 192 248 293 351
#     4   8  17  34  66  82 114 166 195 236 293 353
#     4   9  15  32  59  84 115 148 195 241 285 337
#     4  10  18  35  60  95 116 152 201 242 299 343
#     4  12  21  36  63  90 121 150 197 254 293 343
#     4  11  22  38  63  87 120 158 197 246 293 356
#     4   9  20  40  59  86 122 160 196 237 299 354
#
# _framework density 21.668275999999999
#
# number of rings (size 3 to 8) (size 9 to 14) (size 15 to 20)
#    0.000    1.750    5.000    0.375    0.000    0.500 
#    0.000    9.375    0.000    0.000    0.000    0.000 
#    0.000    0.000    0.000    0.000    0.000    0.000 
#
# Total GULP energy -89068.372938 kJ/mol
# GULP energy per Si atom -5566.773309 kJ/mol
# Density = 2.161896 g / cm^3
# Si number density = 21.668276 Si / 1000 Ang^3
#
#
#
# Elastic Constant Matrix: (Units=GPa)
#
#
# Indices 1 2 3 4 5 6 
#
# 1 65.3254 28.7921 9.6928 -2.6742 -8.6571 -4.6057
# 2 28.7921 117.2591 16.2298 5.1380 -12.8233 -5.3763
# 3 9.6928 16.2298 68.3714 1.7685 -20.8789 -0.9226
# 4 -2.6742 5.1380 1.7685 34.1806 8.2454 -13.3930
# 5 -8.6571 -12.8233 -20.8789 8.2454 31.7890 -2.7875
# 6 -4.6057 -5.3763 -0.9226 -13.3930 -2.7875 19.5778
#
#
#
# Elastic Compliance Matrix: (Units=1/GPa)
#
#
# Indices 1 2 3 4 5 6 
#
# 1 0.018080 -0.003955 -0.000968 0.003924 0.002212 0.006121
# 2 -0.003955 0.010082 -0.000818 -0.002257 0.003099 0.000697
# 3 -0.000968 -0.000818 0.019018 -0.004326 0.012961 -0.000670
# 4 0.003924 -0.002257 -0.004326 0.044157 -0.011624 0.028652
# 5 0.002212 0.003099 0.012961 -0.011624 0.044874 0.000419
# 6 0.006121 0.000697 -0.000670 0.028652 0.000419 0.072338
#
#
# Mechanical properties :
#
#
# Convention : Reuss Voigt Hill
#
# Bulk Modulus (GPa) = 28.01281 40.04283 34.02782
# Shear Modulus (GPa) = 21.55805 30.19221 25.87513
#
# Velocity S-wave (km/s) = 3.15765 3.73685 3.45939
# Velocity P-wave (km/s) = 5.12351 6.09416 5.62980
#
# Compressibility (1/GPa) = 0.03569796
#
# Stress axis : x y z
#
# Youngs Moduli (GPa) = 55.30985 99.18417 52.58131
#
# Poissons Ratio (x) = 0.39226 0.05089
# Poissons Ratio (y) = 0.21874 0.04304
# Poissons Ratio (z) = 0.05353 0.08118
#
# Static dielectric constant tensor:
#      x y z
#    x 1.831640 0.024160 -0.031950 
#    y 0.024160 1.841870 0.002060 
#    z -0.031950 0.002060 1.824610 
# 
# From -- ./inp_files/371325.got.cif
#   From: 2010.05.17/outbox.cif.g08.bks.cpg/sg2_186_cif.got.tgz:371325.got - 2010.06.03 11:33:40.
