data_PCOD9078686
_publ_section_title
;
Structure prediction by ZEFSAII (Michael W. Deem and Ramdas Pophale) SiO2 
 PCOD9078686
Probable space group: P -1
;
_chemical_formula_sum "Si O2"
_cell_formula_units_Z 16
_cell_length_a 24.748696
_cell_length_b 9.193729
_cell_length_c 5.549953
_cell_angle_alpha 122.064274
_cell_angle_beta 55.050060
_cell_angle_gamma 140.765871
_cell_volume 645.345804
_symmetry_space_group_name_H-M "P -1"
_symmetry_group_IT_number 2
_symmetry_cell_setting 'triclinic'
loop_
_space_group_symop_operation_xyz
x,y,z
-x,-y,-z
loop_
_atom_site_type_symbol
_atom_site_label
_atom_site_fract_x
_atom_site_fract_y
_atom_site_fract_z
Si Si1 0.266296 0.419873 0.304576
Si Si2 0.411014 0.720723 0.851266
Si Si3 0.372068 0.370950 0.290691
Si Si4 0.881444 0.681187 0.660963
Si Si5 0.881458 0.316101 0.385730
Si Si6 0.544877 0.832354 0.977472
Si Si7 0.906781 0.210443 0.724262
Si Si8 0.100833 0.197148 0.760137
O O1 0.297743 0.292496 0.214622
O O2 0.191244 0.300223 0.183002
O O3 0.209162 0.419530 0.654867
O O4 0.353054 0.663281 0.186566
O O5 0.357962 0.475468 0.640006
O O6 0.501187 0.788626 0.784551
O O7 0.424500 0.916795 0.832720
O O8 0.383852 0.196370 0.194861
O O9 0.463964 0.613360 0.154537
O O10 0.834553 0.415917 0.560313
O O11 0.937536 0.769743 0.344782
O O12 0.927098 0.799308 0.901120
O O13 0.859995 0.216247 0.620011
O O14 0.989024 0.545499 0.320403
O O15 0.868320 0.181996 0.061750
O O16 0.905834 0.012404 0.472545
#
# Coordination Sequence:
#
# PCOD9078686 Si02
#       8
#     2   2   2   2   2   2   2   2
#     4   9  22  36  53  78 115 156 188 248 287 350
#     4  10  18  36  56  78 117 147 193 245 292 353
#     4  10  18  36  56  78 117 147 193 245 292 353
#     4  10  21  38  59  83 115 157 199 240 295 351
#     4  10  21  38  60  88 120 152 193 250 302 349
#     4   9  20  32  56  88 103 150 194 240 303 344
#     4  10  21  38  60  88 120 152 193 250 302 349
#     4  10  21  38  59  83 115 157 199 240 295 351
#
# _framework density 24.792908000000001
#
# number of rings (size 3 to 8) (size 9 to 14) (size 15 to 20)
#    0.750    1.500    0.000    3.000    0.000    1.000 
#    2.250    0.000    0.000    0.000    0.000    0.000 
#    0.000    0.000    0.000    0.000    0.000    0.000 
#
# Total GULP energy -89133.217902 kJ/mol
# GULP energy per Si atom -5570.826119 kJ/mol
# Density = 2.473648 g / cm^3
# Si number density = 24.792908 Si / 1000 Ang^3
#
#
#
# Elastic Constant Matrix: (Units=GPa)
#
#
# Indices 1 2 3 4 5 6 
#
# 1 139.6322 45.7577 59.8998 -0.3934 -4.3268 -38.0746
# 2 45.7577 92.1159 35.3853 0.1707 -7.1300 -39.0231
# 3 59.8998 35.3853 124.7891 3.7512 12.5877 -21.2779
# 4 -0.3934 0.1707 3.7512 25.1018 -10.2747 -5.8280
# 5 -4.3268 -7.1300 12.5877 -10.2747 32.7458 2.7014
# 6 -38.0746 -39.0231 -21.2779 -5.8280 2.7014 43.8320
#
#
#
# Elastic Compliance Matrix: (Units=1/GPa)
#
#
# Indices 1 2 3 4 5 6 
#
# 1 0.011515 -0.000356 -0.004627 0.004285 0.003926 0.007767
# 2 -0.000356 0.019620 -0.003516 0.006693 0.006361 0.015949
# 3 -0.004627 -0.003516 0.011863 -0.005249 -0.007449 -0.001629
# 4 0.004285 0.006693 -0.005249 0.051443 0.019127 0.012793
# 5 0.003926 0.006361 -0.007449 0.019127 0.040855 0.005482
# 6 0.007767 0.015949 -0.001629 0.012793 0.005482 0.044332
#
#
# Mechanical properties :
#
#
# Convention : Reuss Voigt Hill
#
# Bulk Modulus (GPa) = 38.46178 70.95808 54.70993
# Shear Modulus (GPa) = 24.35560 34.70222 29.52891
#
# Velocity S-wave (km/s) = 3.13767 3.74529 3.45486
# Velocity P-wave (km/s) = 5.35476 6.88371 6.16680
#
# Compressibility (1/GPa) = 0.02599984
#
# Stress axis : x y z
#
# Youngs Moduli (GPa) = 86.84514 50.96896 84.29788
#
# Poissons Ratio (x) = 0.01817 0.39001
# Poissons Ratio (y) = 0.03095 0.29636
# Poissons Ratio (z) = 0.40180 0.17919
#
# Static dielectric constant tensor:
#      x y z
#    x 2.022200 0.016690 0.049330 
#    y 0.016690 2.217330 -0.080080 
#    z 0.049330 -0.080080 2.014760 
# 
# From -- ./inp_files/128134.got.cif
#   From: 2010.05.17/outbox.cif.g08.bks.cpg/sg2_65_cif.got.tgz:128134.got - 2010.06.03 11:33:40.
