data_PCOD9078579
_publ_section_title
;
Structure prediction by ZEFSAII (Michael W. Deem and Ramdas Pophale) SiO2 
 PCOD9078579
Probable space group: P -1
;
_chemical_formula_sum "Si O2"
_cell_formula_units_Z 15
_cell_length_a 5.076956
_cell_length_b 6.490192
_cell_length_c 19.655878
_cell_angle_alpha 69.427960
_cell_angle_beta 72.026106
_cell_angle_gamma 95.534194
_cell_volume 561.305603
_symmetry_space_group_name_H-M "P -1"
_symmetry_group_IT_number 2
_symmetry_cell_setting 'triclinic'
loop_
_space_group_symop_operation_xyz
x,y,z
-x,-y,-z
loop_
_atom_site_type_symbol
_atom_site_label
_atom_site_fract_x
_atom_site_fract_y
_atom_site_fract_z
Si Si1 0.179221 0.902260 0.555667
Si Si2 0.286608 0.188420 0.949346
Si Si3 0.506356 0.070244 0.812615
Si Si4 0.071970 0.611366 0.853443
Si Si5 0.160599 0.018905 0.313666
Si Si6 0.597432 0.455794 0.287982
Si Si7 0.500000 0.500000 0.000000
Si Si8 0.817676 0.466835 0.587870
O O1 0.134639 0.982846 0.626355
O O2 0.043843 0.635175 0.597807
O O3 0.500000 0.000000 0.500000
O O4 0.000000 0.000000 0.500000
O O5 0.494041 0.123247 0.885746
O O6 0.197712 0.421206 0.906145
O O7 0.424884 0.250164 0.003329
O O8 0.000000 0.000000 0.000000
O O9 0.443579 0.299566 0.759832
O O10 0.264035 0.851935 0.835211
O O11 0.796835 0.022168 0.764138
O O12 0.116778 0.571438 0.773073
O O13 0.756338 0.575448 0.911484
O O14 0.375814 0.245545 0.295068
O O15 0.241313 0.798801 0.364904
O O16 0.471427 0.455736 0.375988
O O17 0.000000 0.500000 0.500000
#
# Coordination Sequence:
#
# PCOD9078579 Si02
#       8
#     2   2   2   2   2   2   1   2
#     4  11  23  40  64  98 135 172 223 282 339 407
#     4  11  23  41  63  91 127 164 209 272 329 395
#     4   9  18  39  65  85 127 173 208 275 332 383
#     4  10  21  41  61  91 129 162 215 275 317 399
#     4   9  18  37  66  90 127 172 218 268 330 403
#     4   8  18  34  63  88 128 169 211 272 325 389
#     4  12  24  38  66  98 122 166 218 262 342 402
#     4  10  18  35  65  96 126 171 217 271 336 398
#
# _framework density 26.723409
#
# number of rings (size 3 to 8) (size 9 to 14) (size 15 to 20)
#    0.000    2.133    2.667    0.400    0.000    1.067 
#    0.000    1.333   49.867    0.000    0.000    0.000 
#    0.000    0.000    0.000    0.000    0.000    0.000 
#
# Total GULP energy -83513.667234 kJ/mol
# GULP energy per Si atom -5567.577816 kJ/mol
# Density = 2.666259 g / cm^3
# Si number density = 26.723409 Si / 1000 Ang^3
#
#
#
# Elastic Constant Matrix: (Units=GPa)
#
#
# Indices 1 2 3 4 5 6 
#
# 1 85.0175 28.5446 51.3939 -5.8359 -21.7315 -7.9224
# 2 28.5446 203.4166 83.6225 5.0787 -14.7028 1.4987
# 3 51.3939 83.6225 204.0602 47.7845 -60.1567 -34.1847
# 4 -5.8359 5.0787 47.7845 99.0597 -30.8683 -17.5878
# 5 -21.7315 -14.7028 -60.1567 -30.8683 47.0333 -10.0956
# 6 -7.9224 1.4987 -34.1847 -17.5878 -10.0956 -1.4852
#
#
#
# Elastic Compliance Matrix: (Units=1/GPa)
#
#
# Indices 1 2 3 4 5 6 
#
# 1 0.014682 -0.000005 -0.004861 0.002625 0.001147 -0.005309
# 2 -0.000005 0.005566 -0.001414 0.001746 0.001966 0.004150
# 3 -0.004861 -0.001414 0.005247 -0.005703 -0.002394 -0.012458
# 4 0.002625 0.001746 -0.005703 0.011075 -0.000354 -0.009722
# 5 0.001147 0.001966 -0.002394 -0.000354 0.012586 -0.030401
# 6 -0.005309 0.004150 -0.012458 -0.009722 -0.030401 -0.032288
#
#
# Mechanical properties :
#
#
# Convention : Reuss Voigt Hill
#
# Bulk Modulus (GPa) = 77.31773 91.06848 84.19310
# Shear Modulus (GPa) = 148.19487 50.85046 99.52267
#
# Velocity S-wave (km/s) = 7.45490 4.36689 6.10922
# Velocity P-wave (km/s) = 10.15362 7.71871 9.01872
#
# Compressibility (1/GPa) = 0.01293364
#
# Stress axis : x y z
#
# Youngs Moduli (GPa) = 68.11288 179.66839 190.58784
#
# Poissons Ratio (x) = 0.00094 0.92653
# Poissons Ratio (y) = 0.00035 0.26942
# Poissons Ratio (z) = 0.33113 0.25399
#
# Static dielectric constant tensor:
#      x y z
#    x 2.457030 0.076430 0.311420 
#    y 0.076430 2.123430 0.146200 
#    z 0.311420 0.146200 2.400000 
# 
# From -- ./inp_files/602886.got.cif
#   From: 2010.05.17/outbox.cif.g08.bks.cpg/sg2_302_cif.got.tgz:602886.got - 2010.06.03 11:33:40.
