data_PCOD9078767
_publ_section_title
;
Structure prediction by ZEFSAII (Michael W. Deem and Ramdas Pophale) SiO2 
 PCOD9078767
Probable space group: P -1
;
_chemical_formula_sum "Si O2"
_cell_formula_units_Z 16
_cell_length_a 9.999798
_cell_length_b 9.665609
_cell_length_c 16.911739
_cell_angle_alpha 62.410578
_cell_angle_beta 137.160408
_cell_angle_gamma 87.003173
_cell_volume 748.342044
_symmetry_space_group_name_H-M "P -1"
_symmetry_group_IT_number 2
_symmetry_cell_setting 'triclinic'
loop_
_space_group_symop_operation_xyz
x,y,z
-x,-y,-z
loop_
_atom_site_type_symbol
_atom_site_label
_atom_site_fract_x
_atom_site_fract_y
_atom_site_fract_z
Si Si1 0.509639 0.004014 0.870149
Si Si2 0.721156 0.201427 0.855014
Si Si3 0.493930 0.916261 0.603491
Si Si4 0.840036 0.646192 0.617290
Si Si5 0.066228 0.671862 0.986235
Si Si6 0.192347 0.393806 0.981446
Si Si7 0.929801 0.753263 0.257686
Si Si8 0.451405 0.644561 0.552487
O O1 0.537788 0.147801 0.795500
O O2 0.252292 0.134221 0.775197
O O3 0.564626 0.828272 0.884738
O O4 0.752213 0.876767 0.070894
O O5 0.584444 0.410199 0.692350
O O6 0.796186 0.237094 0.962826
O O7 0.000000 0.000000 0.000000
O O8 0.282819 0.119602 0.509667
O O9 0.500000 0.000000 0.500000
O O10 0.776782 0.808620 0.789835
O O11 0.441241 0.765172 0.593317
O O12 0.615078 0.651435 0.555227
O O13 0.966951 0.477633 0.648023
O O14 0.051492 0.546966 0.806086
O O15 0.012795 0.620134 0.062634
O O16 0.238936 0.487245 0.048395
O O17 0.168060 0.748365 0.370213
#
# Coordination Sequence:
#
# PCOD9078767 Si02
#       8
#     2   2   2   2   2   2   2   2
#     4  10  23  41  56  89 117 161 200 236 291 347
#     4  12  23  36  60  91 117 149 197 241 293 354
#     4  10  21  34  56  90 121 145 187 242 297 347
#     4  10  19  37  58  91 116 150 195 242 288 343
#     4  11  19  34  57  87 117 151 177 251 296 337
#     4  10  18  36  58  82 121 146 193 234 289 348
#     4  10  23  39  62  80 125 160 194 243 290 339
#     4  11  21  38  56  92 117 152 195 247 287 347
#
# _framework density 21.380597000000002
#
# number of rings (size 3 to 8) (size 9 to 14) (size 15 to 20)
#    0.000    1.500    5.000    1.875    5.250    0.500 
#    0.000    1.250    0.000    6.750    0.000    0.000 
#    0.000    0.000    0.000    0.000    0.000    0.000 
#
# Total GULP energy -89303.522384 kJ/mol
# GULP energy per Si atom -5581.470149 kJ/mol
# Density = 2.133193 g / cm^3
# Si number density = 21.380597 Si / 1000 Ang^3
#
#
#
# Elastic Constant Matrix: (Units=GPa)
#
#
# Indices 1 2 3 4 5 6 
#
# 1 32.8541 20.2478 11.7606 -18.7964 7.8883 -16.1745
# 2 20.2478 140.0528 33.5717 -34.4741 16.8215 -30.7398
# 3 11.7606 33.5717 72.6556 -11.7579 3.9704 -4.9465
# 4 -18.7964 -34.4741 -11.7579 42.2797 -2.4889 4.5734
# 5 7.8883 16.8215 3.9704 -2.4889 20.4366 -9.1765
# 6 -16.1745 -30.7398 -4.9465 4.5734 -9.1765 31.2092
#
#
#
# Elastic Compliance Matrix: (Units=1/GPa)
#
#
# Indices 1 2 3 4 5 6 
#
# 1 0.062258 0.007713 -0.006319 0.028136 -0.011667 0.031307
# 2 0.007713 0.013503 -0.004416 0.011436 -0.005923 0.013180
# 3 -0.006319 -0.004416 0.016256 -0.001347 0.000661 -0.004656
# 4 0.028136 0.011436 -0.001347 0.042827 -0.007033 0.017289
# 5 -0.011667 -0.005923 0.000661 -0.007033 0.060487 0.007040
# 6 0.031307 0.013180 -0.004656 0.017289 0.007040 0.060047
#
#
# Mechanical properties :
#
#
# Convention : Reuss Voigt Hill
#
# Bulk Modulus (GPa) = 11.63173 41.85806 26.74489
# Shear Modulus (GPa) = 17.23670 30.78393 24.01031
#
# Velocity S-wave (km/s) = 2.84242 3.79860 3.35475
# Velocity P-wave (km/s) = 4.02798 6.23371 5.24804
#
# Compressibility (1/GPa) = 0.08597176
#
# Stress axis : x y z
#
# Youngs Moduli (GPa) = 16.06227 74.05825 61.51653
#
# Poissons Ratio (x) = -0.57117 0.38872
# Poissons Ratio (y) = -0.12388 0.27165
# Poissons Ratio (z) = 0.10150 0.32704
#
# Static dielectric constant tensor:
#      x y z
#    x 1.745080 -0.014030 -0.054590 
#    y -0.014030 1.855830 -0.033250 
#    z -0.054590 -0.033250 1.857580 
# 
# From -- ./inp_files/565889.got.cif
#   From: 2010.05.17/outbox.cif.g08.bks.cpg/sg2_283_cif.got.tgz:565889.got - 2010.06.03 11:33:40.
