data_PCOD9078119
_publ_section_title
;
Structure prediction by ZEFSAII (Michael W. Deem and Ramdas Pophale) SiO2 
 PCOD9078119
Probable space group: P -1
;
_chemical_formula_sum "Si O2"
_cell_formula_units_Z 14
_cell_length_a 9.044732
_cell_length_b 12.206222
_cell_length_c 14.086179
_cell_angle_alpha 150.758045
_cell_angle_beta 44.654415
_cell_angle_gamma 125.451006
_cell_volume 530.163823
_symmetry_space_group_name_H-M "P -1"
_symmetry_group_IT_number 2
_symmetry_cell_setting 'triclinic'
loop_
_space_group_symop_operation_xyz
x,y,z
-x,-y,-z
loop_
_atom_site_type_symbol
_atom_site_label
_atom_site_fract_x
_atom_site_fract_y
_atom_site_fract_z
Si Si1 0.791547 0.534252 0.346140
Si Si2 0.186821 0.957920 0.082534
Si Si3 0.200393 0.986682 0.324378
Si Si4 0.772340 0.564057 0.601650
Si Si5 0.165535 0.513995 0.019329
Si Si6 0.513057 0.260702 0.762310
Si Si7 0.282876 0.872451 0.610093
O O1 0.693482 0.781773 0.541673
O O2 0.799186 0.532220 0.453487
O O3 0.025337 0.523921 0.185940
O O4 0.709751 0.298390 0.176009
O O5 0.152733 0.978809 0.227327
O O6 0.303632 0.167954 0.150026
O O7 0.956525 0.006777 0.173528
O O8 0.291851 0.729516 0.110444
O O9 0.000000 0.000000 0.500000
O O10 0.653628 0.363642 0.544515
O O11 0.000000 0.500000 0.500000
O O12 0.329438 0.295588 0.791609
O O13 0.000000 0.500000 0.000000
O O14 0.712821 0.194621 0.554965
O O15 0.441124 0.056217 0.699772
O O16 0.500000 0.500000 0.000000
#
# Coordination Sequence:
#
# PCOD9078119 Si02
#       7
#     2   2   2   2   2   2   2
#     4  10  19  33  56  91 116 149 201 252 293 345
#     4  10  18  35  58  90 117 151 203 248 295 352
#     4   9  19  29  53  85 114 145 192 246 291 338
#     4   9  21  33  58  86 121 158 199 247 296 351
#     4  11  20  39  61  89 118 158 203 251 296 348
#     4  11  25  38  61  87 125 162 194 242 307 366
#     4  10  22  40  53  85 127 156 196 245 300 361
#
# _framework density 26.406932000000001
#
# number of rings (size 3 to 8) (size 9 to 14) (size 15 to 20)
#    0.000    2.000    2.857    0.000    8.000    3.429 
#    2.571    0.000    0.000    4.286    0.000    0.000 
#    0.000    0.000    0.000    0.000    0.000    0.000 
#
# Total GULP energy -78205.239654 kJ/mol
# GULP energy per Si atom -5586.088547 kJ/mol
# Density = 2.634683 g / cm^3
# Si number density = 26.406932 Si / 1000 Ang^3
#
#
#
# Elastic Constant Matrix: (Units=GPa)
#
#
# Indices 1 2 3 4 5 6 
#
# 1 81.4384 38.2208 35.0612 13.0539 12.5545 -2.4382
# 2 38.2208 224.2643 66.8443 64.6082 21.3065 -8.8287
# 3 35.0612 66.8443 113.0240 54.1095 26.9019 1.1999
# 4 13.0539 64.6082 54.1095 73.0181 4.7365 -0.5385
# 5 12.5545 21.3065 26.9019 4.7365 39.7290 12.4135
# 6 -2.4382 -8.8287 1.1999 -0.5385 12.4135 30.1030
#
#
#
# Elastic Compliance Matrix: (Units=1/GPa)
#
#
# Indices 1 2 3 4 5 6 
#
# 1 0.014852 -0.001634 -0.004235 0.002051 -0.001704 0.001632
# 2 -0.001634 0.006765 -0.000192 -0.005312 -0.003329 0.003137
# 3 -0.004235 -0.000192 0.018584 -0.012132 -0.010644 0.003032
# 4 0.002051 -0.005312 -0.012132 0.026440 0.008494 -0.003938
# 5 -0.001704 -0.003329 -0.010644 0.008494 0.038865 -0.016565
# 6 0.001632 0.003137 0.003032 -0.003938 -0.016565 0.040911
#
#
# Mechanical properties :
#
#
# Convention : Reuss Voigt Hill
#
# Bulk Modulus (GPa) = 35.61158 77.66436 56.63797
# Shear Modulus (GPa) = 29.78029 47.14339 38.46184
#
# Velocity S-wave (km/s) = 3.36184 4.22982 3.82056
# Velocity P-wave (km/s) = 5.34642 7.30272 6.39976
#
# Compressibility (1/GPa) = 0.02808075
#
# Stress axis : x y z
#
# Youngs Moduli (GPa) = 67.33165 147.82416 53.80916
#
# Poissons Ratio (x) = 0.24150 0.22786
# Poissons Ratio (y) = 0.11000 0.01032
# Poissons Ratio (z) = 0.28512 0.02835
#
# Static dielectric constant tensor:
#      x y z
#    x 2.109000 0.048460 0.052330 
#    y 0.048460 2.145740 0.015180 
#    z 0.052330 0.015180 2.074140 
# 
# From -- ./inp_files/519314.got.cif
#   From: 2010.05.17/outbox.cif.g08.bks.cpg/sg2_260_cif.got.tgz:519314.got - 2010.06.03 11:33:40.
