data_PCOD9078615
_publ_section_title
;
Structure prediction by ZEFSAII (Michael W. Deem and Ramdas Pophale) SiO2 
 PCOD9078615
Probable space group: P -1
;
_chemical_formula_sum "Si O2"
_cell_formula_units_Z 16
_cell_length_a 9.239042
_cell_length_b 22.095420
_cell_length_c 17.430832
_cell_angle_alpha 153.339166
_cell_angle_beta 148.060937
_cell_angle_gamma 28.429142
_cell_volume 726.637235
_symmetry_space_group_name_H-M "P -1"
_symmetry_group_IT_number 2
_symmetry_cell_setting 'triclinic'
loop_
_space_group_symop_operation_xyz
x,y,z
-x,-y,-z
loop_
_atom_site_type_symbol
_atom_site_label
_atom_site_fract_x
_atom_site_fract_y
_atom_site_fract_z
Si Si1 0.856449 0.857434 0.979989
Si Si2 0.186561 0.090613 0.158308
Si Si3 0.847632 0.346784 0.978363
Si Si4 0.895139 0.814998 0.396241
Si Si5 0.100181 0.027734 0.658981
Si Si6 0.224364 0.021057 0.318638
Si Si7 0.896719 0.311567 0.409863
Si Si8 0.174377 0.515669 0.271466
O O1 0.900714 0.837452 0.885475
O O2 0.967068 0.712099 0.922844
O O3 0.106193 0.911361 0.173826
O O4 0.500000 0.000000 0.000000
O O5 0.126240 0.229103 0.347681
O O6 0.565459 0.978933 0.198555
O O7 0.000000 0.000000 0.000000
O O8 0.850001 0.197978 0.772913
O O9 0.500000 0.500000 0.000000
O O10 0.048935 0.397004 0.072863
O O11 0.567429 0.911056 0.309561
O O12 0.070294 0.631375 0.282583
O O13 0.760587 0.875327 0.489380
O O14 0.116359 0.884908 0.553426
O O15 0.000000 0.000000 0.500000
O O16 0.940348 0.153645 0.290363
O O17 0.551154 0.425387 0.349824
O O18 0.952748 0.399661 0.605592
#
# Coordination Sequence:
#
# PCOD9078615 Si02
#       8
#     2   2   2   2   2   2   2   2
#     4  12  22  42  70 102 141 188 241 300 352 429
#     4  12  24  42  74 108 144 188 250 302 355 433
#     4  12  26  45  70 105 145 187 240 301 366 429
#     4  10  21  40  68  96 134 189 238 284 349 443
#     4  12  27  46  72 104 148 190 245 300 359 435
#     4  10  18  35  68  93 127 180 243 272 348 427
#     4  10  21  39  67  97 136 179 231 288 361 414
#     4  10  23  43  68 100 142 182 231 299 366 425
#
# _framework density 22.019241999999998
#
# number of rings (size 3 to 8) (size 9 to 14) (size 15 to 20)
#    0.000    1.000    3.750    3.000    5.250    2.000 
#    2.250    1.875    0.000    0.000    0.000    0.000 
#    0.000    0.000    0.000    0.000    0.000    0.000 
#
# Total GULP energy -89101.034926 kJ/mol
# GULP energy per Si atom -5568.814683 kJ/mol
# Density = 2.196912 g / cm^3
# Si number density = 22.019242 Si / 1000 Ang^3
#
#
#
# Elastic Constant Matrix: (Units=GPa)
#
#
# Indices 1 2 3 4 5 6 
#
# 1 74.0323 43.6952 12.8348 13.1141 1.1478 8.1581
# 2 43.6952 127.4169 22.3386 9.6632 9.9936 13.2969
# 3 12.8348 22.3386 55.2831 9.1024 16.1057 4.7342
# 4 13.1141 9.6632 9.1024 31.1130 -1.7688 10.0828
# 5 1.1478 9.9936 16.1057 -1.7688 47.6513 2.7138
# 6 8.1581 13.2969 4.7342 10.0828 2.7138 35.1755
#
#
#
# Elastic Compliance Matrix: (Units=1/GPa)
#
#
# Indices 1 2 3 4 5 6 
#
# 1 0.017991 -0.005571 -0.001314 -0.005262 0.001010 -0.000459
# 2 -0.005571 0.010494 -0.002523 0.000548 -0.001056 -0.002411
# 3 -0.001314 -0.002523 0.022444 -0.005790 -0.007266 0.000458
# 4 -0.005262 0.000548 -0.005790 0.039276 0.003983 -0.009773
# 5 0.001010 -0.001056 -0.007266 0.003983 0.023892 -0.001842
# 6 -0.000459 -0.002411 0.000458 -0.009773 -0.001842 0.032329
#
#
# Mechanical properties :
#
#
# Convention : Reuss Voigt Hill
#
# Bulk Modulus (GPa) = 31.14096 46.05217 38.59656
# Shear Modulus (GPa) = 28.41764 34.64553 31.53159
#
# Velocity S-wave (km/s) = 3.59636 3.97094 3.78828
# Velocity P-wave (km/s) = 5.60521 6.47954 6.05817
#
# Compressibility (1/GPa) = 0.03211205
#
# Stress axis : x y z
#
# Youngs Moduli (GPa) = 55.58368 95.29204 44.55469
#
# Poissons Ratio (x) = 0.53092 0.05855
# Poissons Ratio (y) = 0.30968 0.11241
# Poissons Ratio (z) = 0.07304 0.24042
#
# Static dielectric constant tensor:
#      x y z
#    x 1.860790 0.009940 -0.026170 
#    y 0.009940 1.893920 -0.008990 
#    z -0.026170 -0.008990 1.810280 
# 
# From -- ./inp_files/562951.got.cif
#   From: 2010.05.17/outbox.cif.g08.bks.cpg/sg2_282_cif.got.tgz:562951.got - 2010.06.03 11:33:40.
