data_PCOD9078944
_publ_section_title
;
Structure prediction by ZEFSAII (Michael W. Deem and Ramdas Pophale) SiO2 
 PCOD9078944
Probable space group: P -1
;
_chemical_formula_sum "Si O2"
_cell_formula_units_Z 16
_cell_length_a 15.866412
_cell_length_b 9.299685
_cell_length_c 13.600526
_cell_angle_alpha 113.636247
_cell_angle_beta 31.575234
_cell_angle_gamma 90.746106
_cell_volume 701.395982
_symmetry_space_group_name_H-M "P -1"
_symmetry_group_IT_number 2
_symmetry_cell_setting 'triclinic'
loop_
_space_group_symop_operation_xyz
x,y,z
-x,-y,-z
loop_
_atom_site_type_symbol
_atom_site_label
_atom_site_fract_x
_atom_site_fract_y
_atom_site_fract_z
Si Si1 0.457128 0.568921 0.837502
Si Si2 0.979941 0.907228 0.337409
Si Si3 0.115682 0.962301 0.020688
Si Si4 0.392170 0.265112 0.882193
Si Si5 0.065911 0.497539 0.090065
Si Si6 0.802666 0.363752 0.293702
Si Si7 0.452764 0.124863 0.479351
Si Si8 0.506431 0.676865 0.007755
O O1 0.497057 0.360483 0.769203
O O2 0.550015 0.527400 0.624678
O O3 0.194346 0.769881 0.156775
O O4 0.568589 0.616619 0.815266
O O5 0.984790 0.727795 0.241896
O O6 0.029312 0.997560 0.226120
O O7 0.743138 0.094698 0.671228
O O8 0.147886 0.769008 0.888169
O O9 0.346318 0.898841 0.758673
O O10 0.939338 0.177431 0.190640
O O11 0.351623 0.319461 0.053276
O O12 0.552974 0.011777 0.631352
O O13 0.186684 0.381028 0.043737
O O14 0.887030 0.483753 0.245505
O O15 0.241898 0.362617 0.789553
O O16 0.500000 0.000000 0.500000
O O17 0.500000 0.500000 0.000000
#
# Coordination Sequence:
#
# PCOD9078944 Si02
#       8
#     2   2   2   2   2   2   2   2
#     4  10  22  40  64  86 128 163 208 259 306 358
#     4  11  24  41  63  94 125 160 203 259 321 363
#     4  11  22  36  65  93 126 164 211 249 298 373
#     4   9  18  37  64  89 117 166 209 248 298 366
#     4  10  22  38  61  93 135 161 194 256 319 361
#     4  11  22  38  62  94 124 166 210 246 300 373
#     4  10  18  36  60  90 128 165 197 245 303 366
#     4  10  21  41  69  89 114 162 220 256 300 370
#
# _framework density 22.811651999999999
#
# number of rings (size 3 to 8) (size 9 to 14) (size 15 to 20)
#    0.000    1.750    2.500    4.125    3.500    2.500 
#    2.250    1.250    5.500    0.000    0.000    0.000 
#    0.000    0.000    0.000    0.000    0.000    0.000 
#
# Total GULP energy -89401.275904 kJ/mol
# GULP energy per Si atom -5587.579744 kJ/mol
# Density = 2.275973 g / cm^3
# Si number density = 22.811652 Si / 1000 Ang^3
#
#
#
# Elastic Constant Matrix: (Units=GPa)
#
#
# Indices 1 2 3 4 5 6 
#
# 1 98.8559 26.2452 -4.6652 9.1796 13.7218 18.0195
# 2 26.2452 77.9531 19.5869 12.1778 2.4383 14.3974
# 3 -4.6652 19.5869 61.5966 18.6088 -1.6762 10.5787
# 4 9.1796 12.1778 18.6088 37.5845 5.7153 2.4248
# 5 13.7218 2.4383 -1.6762 5.7153 31.0679 6.0747
# 6 18.0195 14.3974 10.5787 2.4248 6.0747 26.7486
#
#
#
# Elastic Compliance Matrix: (Units=1/GPa)
#
#
# Indices 1 2 3 4 5 6 
#
# 1 0.013467 -0.003574 0.004415 -0.003311 -0.003286 -0.007848
# 2 -0.003574 0.016232 -0.003814 -0.002408 0.001509 -0.004945
# 3 0.004415 -0.003814 0.022909 -0.011092 0.003538 -0.009779
# 4 -0.003311 -0.002408 -0.011092 0.034268 -0.006479 0.006279
# 5 -0.003286 0.001509 0.003538 -0.006479 0.036404 -0.007678
# 6 -0.007848 -0.004945 -0.009779 0.006279 -0.007678 0.050376
#
#
# Mechanical properties :
#
#
# Convention : Reuss Voigt Hill
#
# Bulk Modulus (GPa) = 21.43059 35.63771 28.53415
# Shear Modulus (GPa) = 25.62046 32.22947 28.92496
#
# Velocity S-wave (km/s) = 3.35495 3.76287 3.56475
# Velocity P-wave (km/s) = 4.94192 5.87668 5.42946
#
# Compressibility (1/GPa) = 0.04666228
#
# Stress axis : x y z
#
# Youngs Moduli (GPa) = 74.25515 61.60564 43.65128
#
# Poissons Ratio (x) = 0.22017 -0.19273
# Poissons Ratio (y) = 0.26538 0.16650
# Poissons Ratio (z) = -0.32786 0.23499
#
# Static dielectric constant tensor:
#      x y z
#    x 1.930230 -0.054420 -0.029510 
#    y -0.054420 1.840260 0.012730 
#    z -0.029510 0.012730 1.858580 
# 
# From -- ./inp_files/351847.got.cif
#   From: 2010.05.17/outbox.cif.g08.bks.cpg/sg2_176_cif.got.tgz:351847.got - 2010.06.03 11:33:40.
