data_PCOD9078422
_publ_section_title
;
Structure prediction by ZEFSAII (Michael W. Deem and Ramdas Pophale) SiO2 
 PCOD9078422
Probable space group: P -1
;
_chemical_formula_sum "Si O2"
_cell_formula_units_Z 14
_cell_length_a 9.946719
_cell_length_b 9.355087
_cell_length_c 7.243032
_cell_angle_alpha 108.337731
_cell_angle_beta 85.542305
_cell_angle_gamma 119.313133
_cell_volume 555.463769
_symmetry_space_group_name_H-M "P -1"
_symmetry_group_IT_number 2
_symmetry_cell_setting 'triclinic'
loop_
_space_group_symop_operation_xyz
x,y,z
-x,-y,-z
loop_
_atom_site_type_symbol
_atom_site_label
_atom_site_fract_x
_atom_site_fract_y
_atom_site_fract_z
Si Si1 0.496521 0.099707 0.821146
Si Si2 0.889148 0.274590 0.482570
Si Si3 0.773559 0.167352 0.045384
Si Si4 0.821091 0.909959 0.435248
Si Si5 0.210562 0.459821 0.382627
Si Si6 0.081636 0.187983 0.969763
Si Si7 0.483763 0.229558 0.475393
O O1 0.490378 0.201050 0.684541
O O2 0.347560 0.026794 0.943358
O O3 0.495327 0.922665 0.682191
O O4 0.656998 0.206682 0.958378
O O5 0.846161 0.270793 0.268640
O O6 0.835791 0.398103 0.630096
O O7 0.072833 0.349737 0.497684
O O8 0.800070 0.077948 0.473415
O O9 0.926309 0.196684 0.932529
O O10 0.816350 0.809476 0.210364
O O11 0.688008 0.799835 0.550430
O O12 0.000000 0.000000 0.500000
O O13 0.377380 0.580662 0.501235
O O14 0.184199 0.331523 0.166352
O O15 0.000000 0.000000 0.000000
#
# Coordination Sequence:
#
# PCOD9078422 Si02
#       7
#     2   2   2   2   2   2   2
#     4  10  19  33  63  93 122 155 201 260 299 358
#     4  10  19  41  62  93 121 162 206 248 303 363
#     4  10  18  35  62  91 115 163 210 240 293 369
#     4  12  24  41  64  88 127 171 202 240 307 383
#     4  10  21  36  68  88 123 158 202 264 307 343
#     4  11  21  40  62  86 121 170 202 238 309 380
#     4  11  20  38  58  95 127 155 201 256 313 344
#
# _framework density 25.204163000000001
#
# number of rings (size 3 to 8) (size 9 to 14) (size 15 to 20)
#    0.000    1.429    5.714    1.714    0.000    0.571 
#    0.000    8.571    0.000    0.000    0.000    0.000 
#    0.000    0.000    0.000    0.000    0.000    0.000 
#
# Total GULP energy -78274.843112 kJ/mol
# GULP energy per Si atom -5591.060222 kJ/mol
# Density = 2.514680 g / cm^3
# Si number density = 25.204163 Si / 1000 Ang^3
#
#
#
# Elastic Constant Matrix: (Units=GPa)
#
#
# Indices 1 2 3 4 5 6 
#
# 1 106.6554 26.2597 19.1312 13.3631 0.3758 42.0730
# 2 26.2597 81.0001 20.7031 18.3699 -7.4744 29.4267
# 3 19.1312 20.7031 90.3085 20.2475 -11.2532 -0.0321
# 4 13.3631 18.3699 20.2475 39.2738 0.0620 3.7104
# 5 0.3758 -7.4744 -11.2532 0.0620 45.6831 -1.8845
# 6 42.0730 29.4267 -0.0321 3.7104 -1.8845 54.8431
#
#
#
# Elastic Compliance Matrix: (Units=1/GPa)
#
#
# Indices 1 2 3 4 5 6 
#
# 1 0.014540 0.000629 -0.002757 -0.002746 -0.001160 -0.011348
# 2 0.000629 0.017904 -0.002579 -0.006355 0.001902 -0.009595
# 3 -0.002757 -0.002579 0.013853 -0.005378 0.003185 0.003981
# 4 -0.002746 -0.006355 -0.005378 0.031835 -0.002250 0.003282
# 5 -0.001160 0.001902 0.003185 -0.002250 0.023032 0.000815
# 6 -0.011348 -0.009595 0.003981 0.003282 0.000815 0.031896
#
#
# Mechanical properties :
#
#
# Convention : Reuss Voigt Hill
#
# Bulk Modulus (GPa) = 27.11382 45.57246 36.34314
# Shear Modulus (GPa) = 32.30630 42.08466 37.19548
#
# Velocity S-wave (km/s) = 3.58409 4.09069 3.84574
# Velocity P-wave (km/s) = 5.28286 6.35864 5.84555
#
# Compressibility (1/GPa) = 0.03688156
#
# Stress axis : x y z
#
# Youngs Moduli (GPa) = 68.77416 55.85490 72.18854
#
# Poissons Ratio (x) = -0.03515 0.19905
# Poissons Ratio (y) = -0.04328 0.18620
# Poissons Ratio (z) = 0.18964 0.14407
#
# Static dielectric constant tensor:
#      x y z
#    x 2.158150 0.001430 0.047110 
#    y 0.001430 1.980090 -0.025300 
#    z 0.047110 -0.025300 2.010320 
# 
# From -- ./inp_files/254928.got.cif
#   From: 2010.05.17/outbox.cif.g08.bks.cpg/sg2_128_cif.got.tgz:254928.got - 2010.06.03 11:33:40.
