data_PCOD9078709
_publ_section_title
;
Structure prediction by ZEFSAII (Michael W. Deem and Ramdas Pophale) SiO2 
 PCOD9078709
Probable space group: P -1
;
_chemical_formula_sum "Si O2"
_cell_formula_units_Z 16
_cell_length_a 19.417080
_cell_length_b 10.937552
_cell_length_c 8.558729
_cell_angle_alpha 99.989795
_cell_angle_beta 37.097602
_cell_angle_gamma 126.203298
_cell_volume 699.991931
_symmetry_space_group_name_H-M "P -1"
_symmetry_group_IT_number 2
_symmetry_cell_setting 'triclinic'
loop_
_space_group_symop_operation_xyz
x,y,z
-x,-y,-z
loop_
_atom_site_type_symbol
_atom_site_label
_atom_site_fract_x
_atom_site_fract_y
_atom_site_fract_z
Si Si1 0.591884 0.476605 0.523040
Si Si2 0.231079 0.623458 0.950647
Si Si3 0.979950 0.792464 0.421904
Si Si4 0.796853 0.296618 0.302163
Si Si5 0.646972 0.422616 0.752096
Si Si6 0.615086 0.968586 0.765348
Si Si7 0.782549 0.799975 0.022065
Si Si8 0.152676 0.757296 0.333923
O O1 0.662691 0.412791 0.287927
O O2 0.599760 0.461799 0.691535
O O3 0.717632 0.690006 0.278725
O O4 0.393389 0.334728 0.794505
O O5 0.266249 0.743197 0.769453
O O6 0.257756 0.719755 0.085221
O O7 0.021537 0.420044 0.291439
O O8 0.808861 0.613665 0.594472
O O9 0.079588 0.758980 0.309954
O O10 0.912045 0.812696 0.700218
O O11 0.112461 0.984678 0.123269
O O12 0.705737 0.337597 0.560876
O O13 0.747324 0.123270 0.425490
O O14 0.000000 0.500000 0.000000
O O15 0.488080 0.245768 0.112247
O O16 0.724465 0.051803 0.747156
O O17 0.500000 0.000000 0.000000
#
# Coordination Sequence:
#
# PCOD9078709 Si02
#       8
#     2   2   2   2   2   2   2   2
#     4  10  21  44  65  94 126 164 211 266 313 362
#     4  10  21  35  67  92 126 164 203 259 315 376
#     4  11  23  42  65  95 121 172 214 253 318 375
#     4  10  18  36  56  89 126 165 199 248 305 373
#     4  10  23  39  60  88 129 161 210 259 309 371
#     4  10  22  37  58  89 132 170 200 247 316 379
#     4  10  23  42  69  88 126 167 214 264 308 372
#     4  11  21  38  65  94 126 166 205 255 317 384
#
# _framework density 22.857408
#
# number of rings (size 3 to 8) (size 9 to 14) (size 15 to 20)
#    0.000    1.750    2.500    1.500    5.250    1.000 
#    0.000   18.750    0.000    0.000    0.000    0.000 
#    0.000    0.000    0.000    0.000    0.000    0.000 
#
# Total GULP energy -89385.078495 kJ/mol
# GULP energy per Si atom -5586.567406 kJ/mol
# Density = 2.280538 g / cm^3
# Si number density = 22.857408 Si / 1000 Ang^3
#
#
#
# Elastic Constant Matrix: (Units=GPa)
#
#
# Indices 1 2 3 4 5 6 
#
# 1 96.7239 22.7680 19.8885 -34.1064 22.0822 -15.9600
# 2 22.7680 52.6399 28.9469 -27.6929 16.6262 -3.8671
# 3 19.8885 28.9469 74.6142 -28.0419 19.0029 -20.9246
# 4 -34.1064 -27.6929 -28.0419 61.6924 -20.0722 0.7487
# 5 22.0822 16.6262 19.0029 -20.0722 30.7894 -10.3805
# 6 -15.9600 -3.8671 -20.9246 0.7487 -10.3805 18.7399
#
#
#
# Elastic Compliance Matrix: (Units=1/GPa)
#
#
# Indices 1 2 3 4 5 6 
#
# 1 0.017016 -0.003982 0.006751 0.010223 -0.000668 0.020429
# 2 -0.003982 0.030707 -0.011359 0.003496 -0.009549 -0.015167
# 3 0.006751 -0.011359 0.031425 0.013934 0.004637 0.040505
# 4 0.010223 0.003496 0.013934 0.034402 0.015454 0.032173
# 5 -0.000668 -0.009549 0.004637 0.015454 0.056574 0.033359
# 6 0.020429 -0.015167 0.040505 0.032173 0.033359 0.130052
#
#
# Mechanical properties :
#
#
# Convention : Reuss Voigt Hill
#
# Bulk Modulus (GPa) = 16.13765 40.79833 28.46799
# Shear Modulus (GPa) = 14.79238 32.40263 23.59751
#
# Velocity S-wave (km/s) = 2.54669 3.76919 3.21655
# Velocity P-wave (km/s) = 3.96522 6.06879 5.12607
#
# Compressibility (1/GPa) = 0.06196688
#
# Stress axis : x y z
#
# Youngs Moduli (GPa) = 58.76726 32.56592 31.82216
#
# Poissons Ratio (x) = 0.12968 -0.21482
# Poissons Ratio (y) = 0.23402 0.36146
# Poissons Ratio (z) = -0.39671 0.36991
#
# Static dielectric constant tensor:
#      x y z
#    x 1.822020 0.025660 -0.012680 
#    y 0.025660 1.793490 0.080720 
#    z -0.012680 0.080720 1.853660 
# 
# From -- ./inp_files/329313.got.cif
#   From: 2010.05.17/outbox.cif.g08.bks.cpg/sg2_165_cif.got.tgz:329313.got - 2010.06.03 11:33:40.
