data_PCOD9078048
_publ_section_title
;
Structure prediction by ZEFSAII (Michael W. Deem and Ramdas Pophale) SiO2 
 PCOD9078048
Probable space group: P -1
;
_chemical_formula_sum "Si O2"
_cell_formula_units_Z 12
_cell_length_a 9.408614
_cell_length_b 13.851434
_cell_length_c 7.768828
_cell_angle_alpha 130.921888
_cell_angle_beta 53.823190
_cell_angle_gamma 140.370035
_cell_volume 480.154155
_symmetry_space_group_name_H-M "P -1"
_symmetry_group_IT_number 2
_symmetry_cell_setting 'triclinic'
loop_
_space_group_symop_operation_xyz
x,y,z
-x,-y,-z
loop_
_atom_site_type_symbol
_atom_site_label
_atom_site_fract_x
_atom_site_fract_y
_atom_site_fract_z
Si Si1 0.539499 0.386096 0.009662
Si Si2 0.336564 0.041880 0.713522
Si Si3 0.078259 0.278215 0.841663
Si Si4 0.865133 0.700734 0.565693
Si Si5 0.344529 0.051745 0.129627
Si Si6 0.241470 0.619295 0.807329
O O1 0.707413 0.570529 0.027339
O O2 0.335510 0.350515 0.226119
O O3 0.698896 0.390783 0.049391
O O4 0.436035 0.221343 0.782373
O O5 0.087876 0.884380 0.654988
O O6 0.500000 0.000000 0.500000
O O7 0.327985 0.052974 0.937750
O O8 0.176507 0.298589 0.606122
O O9 0.911159 0.086344 0.786137
O O10 0.902907 0.317780 0.015414
O O11 0.886359 0.556732 0.395649
O O12 0.513031 0.241010 0.289927
O O13 0.500000 0.000000 0.000000
#
# Coordination Sequence:
#
# PCOD9078048 Si02
#       6
#     2   2   2   2   2   2
#     4  10  20  34  53  80 109 141 175 212 262 319
#     4  11  21  37  57  78 104 139 178 220 262 311
#     4  10  18  35  58  80 104 140 180 216 254 310
#     4  11  20  34  55  81 107 139 176 217 260 311
#     4   9  19  35  55  81 105 133 177 222 260 306
#     4   9  17  33  55  78 104 140 178 211 253 313
#
# _framework density 24.991972000000001
#
# number of rings (size 3 to 8) (size 9 to 14) (size 15 to 20)
#    0.000    2.000    0.000    8.500    0.000    0.000 
#    0.000   17.500    0.000    2.000    0.000    0.000 
#    0.000    0.000    0.000    0.000    0.000    0.000 
#
# Total GULP energy -67031.373758 kJ/mol
# GULP energy per Si atom -5585.947813 kJ/mol
# Density = 2.493509 g / cm^3
# Si number density = 24.991972 Si / 1000 Ang^3
#
#
#
# Elastic Constant Matrix: (Units=GPa)
#
#
# Indices 1 2 3 4 5 6 
#
# 1 39.2291 11.6222 19.3887 4.3650 -6.8188 12.1428
# 2 11.6222 262.2821 49.2968 14.5849 -2.5880 23.9855
# 3 19.3887 49.2968 95.7611 -2.3344 -20.4733 3.8208
# 4 4.3650 14.5849 -2.3344 44.9292 9.7844 4.3227
# 5 -6.8188 -2.5880 -20.4733 9.7844 32.6679 -0.9273
# 6 12.1428 23.9855 3.8208 4.3227 -0.9273 41.5312
#
#
#
# Elastic Compliance Matrix: (Units=1/GPa)
#
#
# Indices 1 2 3 4 5 6 
#
# 1 0.031910 0.000701 -0.005710 -0.003651 0.003983 -0.008740
# 2 0.000701 0.004559 -0.002593 -0.001267 -0.000809 -0.002485
# 3 -0.005710 -0.002593 0.014500 0.000292 0.007658 0.001974
# 4 -0.003651 -0.001267 0.000292 0.024914 -0.008170 -0.001003
# 5 0.003983 -0.000809 0.007658 -0.008170 0.038633 0.000311
# 6 -0.008740 -0.002485 0.001974 -0.001003 0.000311 0.027999
#
#
# Mechanical properties :
#
#
# Convention : Reuss Voigt Hill
#
# Bulk Modulus (GPa) = 27.96228 61.98751 44.97490
# Shear Modulus (GPa) = 29.47396 44.95664 37.21530
#
# Velocity S-wave (km/s) = 3.43787 4.24588 3.86306
# Velocity P-wave (km/s) = 5.19340 6.99239 6.15893
#
# Compressibility (1/GPa) = 0.03576246
#
# Stress axis : x y z
#
# Youngs Moduli (GPa) = 31.33829 219.35328 68.96780
#
# Poissons Ratio (x) = -0.15374 0.39383
# Poissons Ratio (y) = -0.02196 0.17886
# Poissons Ratio (z) = 0.17895 0.56887
#
# Static dielectric constant tensor:
#      x y z
#    x 1.986090 -0.077090 -0.025950 
#    y -0.077090 2.116680 0.067030 
#    z -0.025950 0.067030 1.942050 
# 
# From -- ./inp_files/146409.got.cif
#   From: 2010.05.17/outbox.cif.g08.bks.cpg/sg2_74_cif.got.tgz:146409.got - 2010.06.03 11:33:40.
