data_PCOD9078459
_publ_section_title
;
Structure prediction by ZEFSAII (Michael W. Deem and Ramdas Pophale) SiO2 
 PCOD9078459
Probable space group: P -1
;
_chemical_formula_sum "Si O2"
_cell_formula_units_Z 14
_cell_length_a 14.306491
_cell_length_b 10.784101
_cell_length_c 9.251407
_cell_angle_alpha 121.764376
_cell_angle_beta 155.370279
_cell_angle_gamma 64.701482
_cell_volume 500.440784
_symmetry_space_group_name_H-M "P -1"
_symmetry_group_IT_number 2
_symmetry_cell_setting 'triclinic'
loop_
_space_group_symop_operation_xyz
x,y,z
-x,-y,-z
loop_
_atom_site_type_symbol
_atom_site_label
_atom_site_fract_x
_atom_site_fract_y
_atom_site_fract_z
Si Si1 0.991096 0.062646 0.188463
Si Si2 0.527880 0.280331 0.407135
Si Si3 0.814214 0.555524 0.495574
Si Si4 0.155122 0.683859 0.375248
Si Si5 0.239187 0.982325 0.750390
Si Si6 0.190887 0.393857 0.774492
Si Si7 0.292325 0.216510 0.300068
O O1 0.039230 0.237128 0.408229
O O2 0.188073 0.004895 0.523806
O O3 0.000000 0.000000 0.000000
O O4 0.762447 0.960781 0.865855
O O5 0.760848 0.318390 0.672528
O O6 0.512448 0.287144 0.562774
O O7 0.360703 0.360680 0.120417
O O8 0.427991 0.109286 0.143597
O O9 0.816045 0.458136 0.582360
O O10 0.672470 0.544319 0.139205
O O11 0.755125 0.708889 0.570031
O O12 0.034492 0.502195 0.693613
O O13 0.296834 0.819082 0.744648
O O14 0.906530 0.730931 0.048318
O O15 0.000000 0.000000 0.500000
#
# Coordination Sequence:
#
# PCOD9078459 Si02
#       7
#     2   2   2   2   2   2   2
#     4  10  18  35  63  86 111 155 200 242 297 350
#     4  11  22  38  63  89 120 157 204 247 293 355
#     4  11  22  39  60  89 125 159 198 244 303 357
#     4  11  22  36  63  90 121 159 200 244 299 353
#     4  10  18  37  62  88 119 153 196 249 297 346
#     4  10  22  38  62  88 119 163 197 243 304 354
#     4  11  22  40  63  88 121 156 202 250 293 353
#
# _framework density 27.975335999999999
#
# number of rings (size 3 to 8) (size 9 to 14) (size 15 to 20)
#    0.000    1.429    5.714    1.714    0.000    1.143 
#    0.000    0.000    0.000    3.429    0.000    0.000 
#    0.000    0.000    0.000    0.000    0.000    0.000 
#
# Total GULP energy -78152.501943 kJ/mol
# GULP energy per Si atom -5582.321567 kJ/mol
# Density = 2.791166 g / cm^3
# Si number density = 27.975336 Si / 1000 Ang^3
#
#
#
# Elastic Constant Matrix: (Units=GPa)
#
#
# Indices 1 2 3 4 5 6 
#
# 1 192.8692 11.8826 40.3971 16.7655 -8.6148 1.5877
# 2 11.8826 98.1231 27.7639 37.8639 -1.4275 -5.3428
# 3 40.3971 27.7639 73.6336 23.6912 -9.2604 -12.9896
# 4 16.7655 37.8639 23.6912 39.4370 -10.5938 1.9089
# 5 -8.6148 -1.4275 -9.2604 -10.5938 54.4025 7.6970
# 6 1.5877 -5.3428 -12.9896 1.9089 7.6970 40.6400
#
#
#
# Elastic Compliance Matrix: (Units=1/GPa)
#
#
# Indices 1 2 3 4 5 6 
#
# 1 0.005959 0.000472 -0.003369 -0.000790 0.000411 -0.001288
# 2 0.000472 0.017190 -0.001062 -0.017164 -0.003473 0.003366
# 3 -0.003369 -0.001062 0.020299 -0.010095 -0.000057 0.006965
# 4 -0.000790 -0.017164 -0.010095 0.051121 0.009013 -0.009561
# 5 0.000411 -0.003473 -0.000057 0.009013 0.020787 -0.004851
# 6 -0.001288 0.003366 0.006965 -0.009561 -0.004851 0.028693
#
#
# Mechanical properties :
#
#
# Convention : Reuss Voigt Hill
#
# Bulk Modulus (GPa) = 28.14315 58.30148 43.22231
# Shear Modulus (GPa) = 30.52337 45.86806 38.19572
#
# Velocity S-wave (km/s) = 3.30674 4.05358 3.69905
# Velocity P-wave (km/s) = 4.96600 6.54173 5.80755
#
# Compressibility (1/GPa) = 0.03553263
#
# Stress axis : x y z
#
# Youngs Moduli (GPa) = 167.81378 58.17208 49.26425
#
# Poissons Ratio (x) = -0.02748 0.16595
# Poissons Ratio (y) = -0.07927 0.05230
# Poissons Ratio (z) = 0.56529 0.06175
#
# Static dielectric constant tensor:
#      x y z
#    x 2.224840 0.037200 0.040730 
#    y 0.037200 2.168040 0.079600 
#    z 0.040730 0.079600 2.390410 
# 
# From -- ./inp_files/260461.got.cif
#   From: 2010.05.17/outbox.cif.g08.bks.cpg/sg2_131_cif.got.tgz:260461.got - 2010.06.03 11:33:40.
