data_PCOD9078248
_publ_section_title
;
Structure prediction by ZEFSAII (Michael W. Deem and Ramdas Pophale) SiO2 
 PCOD9078248
Probable space group: P -1
;
_chemical_formula_sum "Si O2"
_cell_formula_units_Z 16
_cell_length_a 16.403383
_cell_length_b 26.851130
_cell_length_c 15.167522
_cell_angle_alpha 26.225694
_cell_angle_beta 26.915110
_cell_angle_gamma 15.464477
_cell_volume 766.077427
_symmetry_space_group_name_H-M "P -1"
_symmetry_group_IT_number 2
_symmetry_cell_setting 'triclinic'
loop_
_space_group_symop_operation_xyz
x,y,z
-x,-y,-z
loop_
_atom_site_type_symbol
_atom_site_label
_atom_site_fract_x
_atom_site_fract_y
_atom_site_fract_z
Si Si1 0.233170 0.733021 0.886424
Si Si2 0.153892 0.352183 0.992311
Si Si3 0.514150 0.825575 0.681679
Si Si4 0.593211 0.982907 0.036211
Si Si5 0.374876 0.146393 0.296070
Si Si6 0.450226 0.393952 0.734613
Si Si7 0.665644 0.721480 0.497614
Si Si8 0.978547 0.943885 0.980809
O O1 0.401589 0.765756 0.655885
O O2 0.500000 0.500000 0.000000
O O3 0.079128 0.824947 0.985665
O O4 0.945057 0.853088 0.909203
O O5 0.280432 0.234834 0.149758
O O6 0.787315 0.507693 0.110299
O O7 0.336906 0.200146 0.978477
O O8 0.273351 0.419392 0.784386
O O9 0.735018 0.735596 0.695680
O O10 0.661061 0.736308 0.584767
O O11 0.323835 0.040386 0.517124
O O12 0.288619 0.834632 0.899920
O O13 0.602302 0.869784 0.271910
O O14 0.500000 0.000000 0.000000
O O15 0.748976 0.982867 0.195488
O O16 0.500000 0.500000 0.500000
O O17 0.770008 0.160349 0.811513
O O18 0.000000 0.500000 0.500000
#
# Coordination Sequence:
#
# PCOD9078248 Si02
#       8
#     2   2   2   2   2   2   2   2
#     4  11  22  42  71  97 132 178 226 279 342 401
#     4  10  21  40  61  87 130 169 212 268 330 397
#     4  10  20  33  61  91 116 160 207 253 323 388
#     4  12  25  46  70  95 133 183 232 284 338 399
#     4  10  18  35  60  85 121 155 203 254 320 380
#     4  10  20  35  62  89 122 171 207 252 332 398
#     4  11  23  42  68  97 134 176 224 280 337 397
#     4  10  20  37  59  91 128 161 206 267 326 387
#
# _framework density 20.885618999999998
#
# number of rings (size 3 to 8) (size 9 to 14) (size 15 to 20)
#    0.000    1.500    5.000    1.125    1.750    0.500 
#    6.750    1.250    0.000    0.000    0.000    0.000 
#    0.000    0.000    0.000    0.000    0.000    0.000 
#
# Total GULP energy -89263.718415 kJ/mol
# GULP energy per Si atom -5578.982401 kJ/mol
# Density = 2.083808 g / cm^3
# Si number density = 20.885619 Si / 1000 Ang^3
#
#
#
# Elastic Constant Matrix: (Units=GPa)
#
#
# Indices 1 2 3 4 5 6 
#
# 1 147.2930 58.7073 22.8289 12.4292 -16.6548 11.2195
# 2 58.7073 121.7581 21.1438 5.0117 -11.9216 27.8955
# 3 22.8289 21.1438 106.2083 5.1447 -18.4037 9.6228
# 4 12.4292 5.0117 5.1447 25.7061 2.6065 -3.8479
# 5 -16.6548 -11.9216 -18.4037 2.6065 26.5177 -3.8632
# 6 11.2195 27.8955 9.6228 -3.8479 -3.8632 31.0409
#
#
#
# Elastic Compliance Matrix: (Units=1/GPa)
#
#
# Indices 1 2 3 4 5 6 
#
# 1 0.009169 -0.003849 -0.000297 -0.004015 0.004256 0.000269
# 2 -0.003849 0.012676 -0.000380 -0.002202 0.001787 -0.009933
# 3 -0.000297 -0.000380 0.011211 -0.003147 0.007368 -0.002500
# 4 -0.004015 -0.002202 -0.003147 0.044104 -0.008751 0.008784
# 5 0.004256 0.001787 0.007368 -0.008751 0.047066 -0.000656
# 6 0.000269 -0.009933 -0.002500 0.008784 -0.000656 0.042827
#
#
# Mechanical properties :
#
#
# Convention : Reuss Voigt Hill
#
# Bulk Modulus (GPa) = 41.65969 64.51324 53.08647
# Shear Modulus (GPa) = 27.15833 34.82490 30.99161
#
# Velocity S-wave (km/s) = 3.60993 4.08782 3.85629
# Velocity P-wave (km/s) = 6.11272 7.29632 6.73059
#
# Compressibility (1/GPa) = 0.02400402
#
# Stress axis : x y z
#
# Youngs Moduli (GPa) = 109.06504 78.88765 89.20108
#
# Poissons Ratio (x) = 0.30364 0.02649
# Poissons Ratio (y) = 0.41979 0.03389
# Poissons Ratio (z) = 0.03239 0.02997
#
# Static dielectric constant tensor:
#      x y z
#    x 1.847910 -0.103230 -0.007830 
#    y -0.103230 1.895270 -0.023340 
#    z -0.007830 -0.023340 1.763900 
# 
# From -- ./inp_files/524635.got.cif
#   From: 2010.05.17/outbox.cif.g08.bks.cpg/sg2_263_cif.got.tgz:524635.got - 2010.06.03 11:33:40.
