data_PCOD9078358
_publ_section_title
;
Structure prediction by ZEFSAII (Michael W. Deem and Ramdas Pophale) SiO2 
 PCOD9078358
Probable space group: P -1
;
_chemical_formula_sum "Si O2"
_cell_formula_units_Z 16
_cell_length_a 17.560347
_cell_length_b 8.633431
_cell_length_c 12.496643
_cell_angle_alpha 61.832191
_cell_angle_beta 152.624995
_cell_angle_gamma 124.742319
_cell_volume 712.934096
_symmetry_space_group_name_H-M "P -1"
_symmetry_group_IT_number 2
_symmetry_cell_setting 'triclinic'
loop_
_space_group_symop_operation_xyz
x,y,z
-x,-y,-z
loop_
_atom_site_type_symbol
_atom_site_label
_atom_site_fract_x
_atom_site_fract_y
_atom_site_fract_z
Si Si1 0.513333 0.698851 0.000143
Si Si2 0.279707 0.627693 0.101621
Si Si3 0.805817 0.513948 0.737352
Si Si4 0.830313 0.394587 0.248137
Si Si5 0.170528 0.995219 0.588532
Si Si6 0.692959 0.108793 0.655123
Si Si7 0.612229 0.998281 0.356730
Si Si8 0.061099 0.861546 0.855374
O O1 0.352572 0.646145 0.902920
O O2 0.479929 0.847296 0.827703
O O3 0.500000 0.500000 0.000000
O O4 0.701198 0.819053 0.250906
O O5 0.183031 0.514570 0.912768
O O6 0.168894 0.751747 0.966083
O O7 0.282750 0.505431 0.250172
O O8 0.468941 0.784373 0.254063
O O9 0.710480 0.328007 0.609475
O O10 0.861931 0.712834 0.684583
O O11 0.000000 0.500000 0.000000
O O12 0.000000 0.500000 0.500000
O O13 0.839199 0.190724 0.299598
O O14 0.976642 0.991842 0.316831
O O15 0.263668 0.978345 0.598238
O O16 0.708417 0.046014 0.575259
O O17 0.500000 0.000000 0.500000
O O18 0.834237 0.075322 0.923310
#
# Coordination Sequence:
#
# PCOD9078358 Si02
#       8
#     2   2   2   2   2   2   2   2
#     4  11  25  42  64  94 125 168 209 253 317 381
#     4  10  18  39  64  85 125 166 204 253 312 362
#     4   8  18  34  57  87 119 156 204 248 299 363
#     4  11  24  42  65  95 123 166 211 258 318 366
#     4  11  24  43  61  92 134 162 203 262 316 372
#     4  10  18  35  61  91 115 159 212 248 304 364
#     4  11  20  40  68  84 127 168 200 261 314 366
#     4  10  23  37  61  94 124 165 208 252 309 372
#
# _framework density 22.442467000000001
#
# number of rings (size 3 to 8) (size 9 to 14) (size 15 to 20)
#    0.000    2.000    5.000    0.750    3.500    7.000 
#    0.000    0.625    0.000    0.000    0.000    0.000 
#    0.000    0.000    0.000    0.000    0.000    0.000 
#
# Total GULP energy -89328.123805 kJ/mol
# GULP energy per Si atom -5583.007738 kJ/mol
# Density = 2.239139 g / cm^3
# Si number density = 22.442467 Si / 1000 Ang^3
#
#
#
# Elastic Constant Matrix: (Units=GPa)
#
#
# Indices 1 2 3 4 5 6 
#
# 1 56.3939 -10.7276 9.2827 9.3190 -19.0409 4.7622
# 2 -10.7276 48.7728 17.1251 11.0476 -2.3679 -10.0983
# 3 9.2827 17.1251 96.7893 14.8692 -22.6872 -16.4575
# 4 9.3190 11.0476 14.8692 40.5772 -10.5682 1.8815
# 5 -19.0409 -2.3679 -22.6872 -10.5682 34.5778 10.2538
# 6 4.7622 -10.0983 -16.4575 1.8815 10.2538 25.2258
#
#
#
# Elastic Compliance Matrix: (Units=1/GPa)
#
#
# Indices 1 2 3 4 5 6 
#
# 1 0.025444 0.005235 -0.000909 -0.002350 0.015898 -0.009588
# 2 0.005235 0.026391 -0.002883 -0.008431 -0.002555 0.009363
# 3 -0.000909 -0.002883 0.013689 -0.002811 0.005691 0.005844
# 4 -0.002350 -0.008431 -0.002811 0.031373 0.009073 -0.010793
# 5 0.015898 -0.002555 0.005691 0.009073 0.050372 -0.021463
# 6 -0.009588 0.009363 0.005844 -0.010793 -0.021463 0.058542
#
#
# Mechanical properties :
#
#
# Convention : Reuss Voigt Hill
#
# Bulk Modulus (GPa) = 14.61821 25.92405 20.27113
# Shear Modulus (GPa) = 22.15050 32.49455 27.32253
#
# Velocity S-wave (km/s) = 3.14505 3.80926 3.49298
# Velocity P-wave (km/s) = 4.44030 5.56091 5.03190
#
# Compressibility (1/GPa) = 0.06840782
#
# Stress axis : x y z
#
# Youngs Moduli (GPa) = 39.30256 37.89165 73.05350
#
# Poissons Ratio (x) = -0.19835 0.06642
# Poissons Ratio (y) = -0.20573 0.21063
# Poissons Ratio (z) = 0.03573 0.10925
#
# Static dielectric constant tensor:
#      x y z
#    x 1.825350 0.067670 -0.017000 
#    y 0.067670 1.844080 -0.025530 
#    z -0.017000 -0.025530 1.855420 
# 
# From -- ./inp_files/297590.got.cif
#   From: 2010.05.17/outbox.cif.g08.bks.cpg/sg2_149_cif.got.tgz:297590.got - 2010.06.03 11:33:40.
