data_PCOD9078547
_publ_section_title
;
Structure prediction by ZEFSAII (Michael W. Deem and Ramdas Pophale) SiO2 
 PCOD9078547
Probable space group: P -1
;
_chemical_formula_sum "Si O2"
_cell_formula_units_Z 15
_cell_length_a 14.021049
_cell_length_b 11.430024
_cell_length_c 10.019817
_cell_angle_alpha 41.498061
_cell_angle_beta 118.005726
_cell_angle_gamma 145.001314
_cell_volume 564.766702
_symmetry_space_group_name_H-M "P -1"
_symmetry_group_IT_number 2
_symmetry_cell_setting 'triclinic'
loop_
_space_group_symop_operation_xyz
x,y,z
-x,-y,-z
loop_
_atom_site_type_symbol
_atom_site_label
_atom_site_fract_x
_atom_site_fract_y
_atom_site_fract_z
Si Si1 0.843042 0.914772 0.906978
Si Si2 0.794658 0.667720 0.626217
Si Si3 0.941214 0.362568 0.883023
Si Si4 0.843463 0.513354 0.519698
Si Si5 0.500000 0.500000 0.000000
Si Si6 0.263065 0.533710 0.950276
Si Si7 0.511384 0.843664 0.519578
Si Si8 0.261800 0.007478 0.681017
O O1 0.669270 0.750343 0.011108
O O2 0.715272 0.632808 0.957817
O O3 0.959798 0.193567 0.656306
O O4 0.000000 0.000000 0.000000
O O5 0.800168 0.563397 0.584253
O O6 0.705958 0.742876 0.499862
O O7 0.724245 0.468726 0.879505
O O8 0.000000 0.000000 0.500000
O O9 0.849730 0.318732 0.729939
O O10 0.060689 0.343791 0.957690
O O11 0.087295 0.700412 0.744827
O O12 0.789968 0.132802 0.089099
O O13 0.698866 0.388206 0.425875
O O14 0.432538 0.228392 0.274514
O O15 0.389417 0.836477 0.699349
O O16 0.570501 0.848921 0.408895
#
# Coordination Sequence:
#
# PCOD9078547 Si02
#       8
#     2   2   2   2   1   2   2   2
#     4  12  25  49  74  99 133 184 237 292 338 418
#     4  12  19  36  70 101 136 185 220 284 346 422
#     4  10  18  35  64  95 135 176 218 277 335 419
#     4  12  23  42  67 101 141 177 236 282 349 413
#     4  12  26  50  74  90 138 186 232 290 354 386
#     4  11  23  43  71 102 137 180 232 280 358 409
#     4  11  26  43  65 101 139 184 230 296 337 412
#     4  10  19  36  61  97 134 177 222 267 352 400
#
# _framework density 26.559638
#
# number of rings (size 3 to 8) (size 9 to 14) (size 15 to 20)
#    0.000    0.800    5.333    4.000    0.000    3.200 
#    2.400    1.333    0.000    0.000    0.000    0.000 
#    0.000    0.000    0.000    0.000    0.000    0.000 
#
# Total GULP energy -83715.827531 kJ/mol
# GULP energy per Si atom -5581.055169 kJ/mol
# Density = 2.649919 g / cm^3
# Si number density = 26.559638 Si / 1000 Ang^3
#
#
#
# Elastic Constant Matrix: (Units=GPa)
#
#
# Indices 1 2 3 4 5 6 
#
# 1 70.2902 21.0922 31.1929 -10.6673 -3.7086 -6.7970
# 2 21.0922 86.0395 43.4769 5.5624 -13.5085 29.5121
# 3 31.1929 43.4769 171.2783 10.2953 -2.7156 18.8434
# 4 -10.6673 5.5624 10.2953 30.9104 12.2232 -1.2047
# 5 -3.7086 -13.5085 -2.7156 12.2232 40.3721 -3.9886
# 6 -6.7970 29.5121 18.8434 -1.2047 -3.9886 50.2046
#
#
#
# Elastic Compliance Matrix: (Units=1/GPa)
#
#
# Indices 1 2 3 4 5 6 
#
# 1 0.020293 -0.007336 -0.003477 0.011140 -0.003371 0.008364
# 2 -0.007336 0.020134 -0.001822 -0.008970 0.007494 -0.011764
# 3 -0.003477 -0.001822 0.007403 -0.003597 0.000438 -0.002229
# 4 0.011140 -0.008970 -0.003597 0.045310 -0.015146 0.008015
# 5 -0.003371 0.007494 0.000438 -0.015146 0.031296 -0.002903
# 6 0.008364 -0.011764 -0.002229 0.008015 -0.002903 0.028765
#
#
# Mechanical properties :
#
#
# Convention : Reuss Voigt Hill
#
# Bulk Modulus (GPa) = 44.32990 57.68133 51.00561
# Shear Modulus (GPa) = 26.88316 39.75381 33.31849
#
# Velocity S-wave (km/s) = 3.18493 3.87302 3.54570
# Velocity P-wave (km/s) = 5.50018 6.46260 6.00071
#
# Compressibility (1/GPa) = 0.02255814
#
# Stress axis : x y z
#
# Youngs Moduli (GPa) = 49.27891 49.66834 135.08649
#
# Poissons Ratio (x) = 0.36438 0.46966
# Poissons Ratio (y) = 0.36153 0.24617
# Poissons Ratio (z) = 0.17133 0.09051
#
# Static dielectric constant tensor:
#      x y z
#    x 1.040160 -0.636040 0.328530 
#    y -0.636040 1.777210 0.126170 
#    z 0.328530 0.126170 2.081420 
# 
# From -- ./inp_files/465748.got.cif
#   From: 2010.05.17/outbox.cif.g08.bks.cpg/sg2_233_cif.got.tgz:465748.got - 2010.06.03 11:33:40.
