data_PCOD9078126
_publ_section_title
;
Structure prediction by ZEFSAII (Michael W. Deem and Ramdas Pophale) SiO2 
 PCOD9078126
Probable space group: P -1
;
_chemical_formula_sum "Si O2"
_cell_formula_units_Z 15
_cell_length_a 10.568128
_cell_length_b 19.314498
_cell_length_c 15.600208
_cell_angle_alpha 161.076563
_cell_angle_beta 34.103207
_cell_angle_gamma 145.154666
_cell_volume 566.612993
_symmetry_space_group_name_H-M "P -1"
_symmetry_group_IT_number 2
_symmetry_cell_setting 'triclinic'
loop_
_space_group_symop_operation_xyz
x,y,z
-x,-y,-z
loop_
_atom_site_type_symbol
_atom_site_label
_atom_site_fract_x
_atom_site_fract_y
_atom_site_fract_z
Si Si1 0.296103 0.241862 0.722464
Si Si2 0.072240 0.878529 0.537711
Si Si3 0.410997 0.339770 0.465481
Si Si4 0.231745 0.670246 0.349045
Si Si5 0.086827 0.840491 0.896978
Si Si6 0.000000 0.000000 0.500000
Si Si7 0.189430 0.371386 0.343504
Si Si8 0.432600 0.911748 0.066309
O O1 0.561256 0.260143 0.618419
O O2 0.211455 0.232165 0.662593
O O3 0.144844 0.999286 0.548554
O O4 0.225077 0.423925 0.035012
O O5 0.269319 0.805630 0.398002
O O6 0.859985 0.677536 0.414005
O O7 0.986045 0.054426 0.852584
O O8 0.550153 0.554248 0.684525
O O9 0.418281 0.118703 0.255609
O O10 0.537124 0.286177 0.244710
O O11 0.994573 0.695207 0.554822
O O12 0.137904 0.604889 0.614615
O O13 0.882533 0.794206 0.888002
O O14 0.322915 0.997526 0.916888
O O15 0.801592 0.129780 0.799155
#
# Coordination Sequence:
#
# PCOD9078126 Si02
#       8
#     2   2   2   2   2   1   2   2
#     4  11  24  43  60  91 122 165 206 257 309 372
#     4  11  21  42  63  88 123 169 201 257 308 372
#     4   9  18  35  61  86 125 157 205 247 312 357
#     4  11  24  40  65  88 124 164 212 247 310 378
#     4   9  19  34  61  87 125 157 205 257 310 352
#     4  12  20  36  68  90 122 162 214 252 308 364
#     4  10  18  35  58  93 119 158 202 258 301 366
#     4   9  17  31  57  90 115 167 199 248 303 371
#
# _framework density 26.473096999999999
#
# number of rings (size 3 to 8) (size 9 to 14) (size 15 to 20)
#    0.000    1.867    2.667    2.800    0.000    1.067 
#    0.000    2.000    0.000    0.000    0.000    0.000 
#    0.000    0.000    0.000    0.000    0.000    0.000 
#
# Total GULP energy -83772.862321 kJ/mol
# GULP energy per Si atom -5584.857488 kJ/mol
# Density = 2.641284 g / cm^3
# Si number density = 26.473097 Si / 1000 Ang^3
#
#
#
# Elastic Constant Matrix: (Units=GPa)
#
#
# Indices 1 2 3 4 5 6 
#
# 1 77.5757 35.4178 25.6408 3.1047 12.8723 37.0942
# 2 35.4178 103.1609 50.5027 7.3468 4.4470 18.9534
# 3 25.6408 50.5027 77.4902 0.2921 13.6592 7.4816
# 4 3.1047 7.3468 0.2921 39.2038 1.1602 9.7664
# 5 12.8723 4.4470 13.6592 1.1602 35.1776 9.3526
# 6 37.0942 18.9534 7.4816 9.7664 9.3526 52.7685
#
#
#
# Elastic Compliance Matrix: (Units=1/GPa)
#
#
# Indices 1 2 3 4 5 6 
#
# 1 0.022836 -0.003675 -0.003283 0.002533 -0.002920 -0.014218
# 2 -0.003675 0.016091 -0.009717 -0.002249 0.003705 -0.002059
# 3 -0.003283 -0.009717 0.021158 0.001181 -0.006832 0.003790
# 4 0.002533 -0.002249 0.001181 0.027255 -0.000373 -0.006119
# 5 -0.002920 0.003705 -0.006832 -0.000373 0.032769 -0.004048
# 6 -0.014218 -0.002059 0.003790 -0.006119 -0.004048 0.030998
#
#
# Mechanical properties :
#
#
# Convention : Reuss Voigt Hill
#
# Bulk Modulus (GPa) = 37.40464 53.48326 45.44395
# Shear Modulus (GPa) = 25.85756 35.20767 30.53262
#
# Velocity S-wave (km/s) = 3.12869 3.65079 3.39978
# Velocity P-wave (km/s) = 5.21647 6.16586 5.71093
#
# Compressibility (1/GPa) = 0.02673465
#
# Stress axis : x y z
#
# Youngs Moduli (GPa) = 43.79142 62.14688 47.26388
#
# Poissons Ratio (x) = 0.22840 0.15517
# Poissons Ratio (y) = 0.16094 0.45925
# Poissons Ratio (z) = 0.14377 0.60386
#
# Static dielectric constant tensor:
#      x y z
#    x 1.387620 0.048430 -0.272520 
#    y 0.048430 2.053560 0.040920 
#    z -0.272520 0.040920 1.971170 
# 
# From -- ./inp_files/223452.got.cif
#   From: 2010.05.17/outbox.cif.g08.bks.cpg/sg2_112_cif.got.tgz:223452.got - 2010.06.03 11:33:40.
