data_PCOD9078458
_publ_section_title
;
Structure prediction by ZEFSAII (Michael W. Deem and Ramdas Pophale) SiO2 
 PCOD9078458
Probable space group: P -1
;
_chemical_formula_sum "Si O2"
_cell_formula_units_Z 16
_cell_length_a 9.319717
_cell_length_b 15.001157
_cell_length_c 9.319966
_cell_angle_alpha 112.970789
_cell_angle_beta 132.829376
_cell_angle_gamma 70.064853
_cell_volume 874.276546
_symmetry_space_group_name_H-M "P -1"
_symmetry_group_IT_number 2
_symmetry_cell_setting 'triclinic'
loop_
_space_group_symop_operation_xyz
x,y,z
-x,-y,-z
loop_
_atom_site_type_symbol
_atom_site_label
_atom_site_fract_x
_atom_site_fract_y
_atom_site_fract_z
Si Si1 0.664019 0.790676 0.631043
Si Si2 0.235230 0.339856 0.880388
Si Si3 0.873149 0.473497 0.260932
Si Si4 0.733768 0.975477 0.669968
Si Si5 0.741395 0.192931 0.794550
Si Si6 0.328868 0.708653 0.890417
Si Si7 0.075339 0.334462 0.070793
Si Si8 0.919700 0.792061 0.538612
O O1 0.734355 0.899401 0.755046
O O2 0.437436 0.797301 0.434831
O O3 0.729122 0.725813 0.769223
O O4 0.795967 0.748079 0.557202
O O5 0.230263 0.429333 0.822234
O O6 0.138654 0.254799 0.677852
O O7 0.460293 0.303123 0.046855
O O8 0.116781 0.369560 0.962537
O O9 0.730404 0.397158 0.172746
O O10 0.000000 0.500000 0.500000
O O11 0.003174 0.417773 0.188120
O O12 0.843768 0.906379 0.578841
O O13 0.500000 0.000000 0.500000
O O14 0.813820 0.078995 0.797242
O O15 0.656238 0.232892 0.914295
O O16 0.910663 0.258883 0.910057
O O17 0.147783 0.763398 0.712354
#
# Coordination Sequence:
#
# PCOD9078458 Si02
#       8
#     2   2   2   2   2   2   2   2
#     4   9  17  35  57  85 114 144 193 235 266 336
#     4  12  23  39  56  84 124 146 184 241 286 345
#     4  11  21  42  64  79 110 147 197 241 276 337
#     4   8  15  31  61  90 108 147 200 240 268 317
#     4  10  18  35  63  86 111 148 197 234 279 330
#     4  11  21  36  62  86 105 159 192 229 287 334
#     4  11  24  37  56  89 117 150 182 235 300 332
#     4  10  19  36  60  85 116 149 195 236 273 333
#
# _framework density 18.300846
#
# number of rings (size 3 to 8) (size 9 to 14) (size 15 to 20)
#    0.750    1.000    5.000    0.750    0.000    3.000 
#    0.000    1.250    0.000    9.000    0.000    0.000 
#    0.000    0.000    0.000    0.000    0.000    0.000 
#
# Total GULP energy -89118.790056 kJ/mol
# GULP energy per Si atom -5569.924378 kJ/mol
# Density = 1.825919 g / cm^3
# Si number density = 18.300846 Si / 1000 Ang^3
#
#
#
# Elastic Constant Matrix: (Units=GPa)
#
#
# Indices 1 2 3 4 5 6 
#
# 1 71.1235 15.0056 36.0365 2.7923 2.0962 -7.5107
# 2 15.0056 71.1335 39.3682 9.7810 10.5737 -19.7037
# 3 36.0365 39.3682 88.6021 1.9238 11.8591 -6.4165
# 4 2.7923 9.7810 1.9238 23.6554 -2.5345 -4.0908
# 5 2.0962 10.5737 11.8591 -2.5345 14.3963 -6.1262
# 6 -7.5107 -19.7037 -6.4165 -4.0908 -6.1262 12.2003
#
#
#
# Elastic Compliance Matrix: (Units=1/GPa)
#
#
# Indices 1 2 3 4 5 6 
#
# 1 0.020337 0.006314 -0.010962 0.001094 0.011437 0.023062
# 2 0.006314 0.036805 -0.015864 -0.003549 0.009390 0.058510
# 3 -0.010962 -0.015864 0.023166 -0.001251 -0.018852 -0.030071
# 4 0.001094 -0.003549 -0.001251 0.049784 0.021510 0.021778
# 5 0.011437 0.009390 -0.018852 0.021510 0.112571 0.076029
# 6 0.023062 0.058510 -0.030071 0.021778 0.076029 0.220321
#
#
# Mechanical properties :
#
#
# Convention : Reuss Voigt Hill
#
# Bulk Modulus (GPa) = 25.45469 45.74220 35.59844
# Shear Modulus (GPa) = 9.66924 19.41364 14.54144
#
# Velocity S-wave (km/s) = 2.30108 3.26053 2.82188
# Velocity P-wave (km/s) = 4.58248 6.26288 5.48738
#
# Compressibility (1/GPa) = 0.03928550
#
# Stress axis : x y z
#
# Youngs Moduli (GPa) = 49.17095 27.17011 43.16606
#
# Poissons Ratio (x) = -0.17155 0.47317
# Poissons Ratio (y) = -0.31047 0.68479
# Poissons Ratio (z) = 0.53899 0.43103
#
# Static dielectric constant tensor:
#      x y z
#    x 1.610130 -0.014510 0.006710 
#    y -0.014510 1.666120 -0.000960 
#    z 0.006710 -0.000960 1.640460 
# 
# From -- ./inp_files/208522.got.cif
#   From: 2010.05.17/outbox.cif.g08.bks.cpg/sg2_105_cif.got.tgz:208522.got - 2010.06.03 11:33:40.
