data_PCOD9078273
_publ_section_title
;
Structure prediction by ZEFSAII (Michael W. Deem and Ramdas Pophale) SiO2 
 PCOD9078273
Probable space group: P -1
;
_chemical_formula_sum "Si O2"
_cell_formula_units_Z 14
_cell_length_a 14.446059
_cell_length_b 4.959854
_cell_length_c 9.327686
_cell_angle_alpha 105.686390
_cell_angle_beta 62.442491
_cell_angle_gamma 106.204969
_cell_volume 561.079567
_symmetry_space_group_name_H-M "P -1"
_symmetry_group_IT_number 2
_symmetry_cell_setting 'triclinic'
loop_
_space_group_symop_operation_xyz
x,y,z
-x,-y,-z
loop_
_atom_site_type_symbol
_atom_site_label
_atom_site_fract_x
_atom_site_fract_y
_atom_site_fract_z
Si Si1 0.213725 0.054236 0.772906
Si Si2 0.306781 0.619463 0.256589
Si Si3 0.072652 0.486530 0.309074
Si Si4 0.675554 0.362629 0.067250
Si Si5 0.684500 0.792729 0.552102
Si Si6 0.418003 0.760753 0.604318
Si Si7 0.115354 0.883715 0.089106
O O1 0.212668 0.140077 0.618511
O O2 0.302583 0.855496 0.678674
O O3 0.260631 0.343524 0.867791
O O4 0.115240 0.901938 0.917716
O O5 0.187234 0.644985 0.303983
O O6 0.359746 0.587515 0.060968
O O7 0.299438 0.359356 0.332699
O O8 0.352420 0.912734 0.344115
O O9 0.087885 0.170880 0.213304
O O10 0.000000 0.500000 0.500000
O O11 0.048850 0.635880 0.198448
O O12 0.761616 0.152497 0.977539
O O13 0.580007 0.253400 0.226913
O O14 0.600675 0.557756 0.492746
O O15 0.500000 0.000000 0.500000
#
# Coordination Sequence:
#
# PCOD9078273 Si02
#       7
#     2   2   2   2   2   2   2
#     4  10  19  40  62  89 112 170 206 239 291 369
#     4  11  21  39  60  92 121 153 205 249 298 365
#     4  11  22  36  62  95 125 154 195 256 305 349
#     4   9  20  35  65  87 115 166 207 241 293 362
#     4  11  23  37  62  90 124 158 201 247 307 347
#     4  10  22  41  63  91 121 160 209 251 295 361
#     4  10  18  35  60  89 114 155 211 238 276 370
#
# _framework density 24.951896999999999
#
# number of rings (size 3 to 8) (size 9 to 14) (size 15 to 20)
#    0.000    1.714    4.286    2.143    2.000    2.286 
#    0.000    1.429    0.000    5.143    0.000    0.000 
#    0.000    0.000    0.000    0.000    0.000    0.000 
#
# Total GULP energy -78240.978096 kJ/mol
# GULP energy per Si atom -5588.641293 kJ/mol
# Density = 2.489511 g / cm^3
# Si number density = 24.951897 Si / 1000 Ang^3
#
#
#
# Elastic Constant Matrix: (Units=GPa)
#
#
# Indices 1 2 3 4 5 6 
#
# 1 30.7740 10.5122 27.7188 -8.6307 4.9122 6.5546
# 2 10.5122 150.2445 70.6006 -7.0280 8.8251 -24.9809
# 3 27.7188 70.6006 239.0630 -48.8936 18.2586 -24.2289
# 4 -8.6307 -7.0280 -48.8936 63.6567 -8.2254 6.3487
# 5 4.9122 8.8251 18.2586 -8.2254 39.2760 -4.4353
# 6 6.5546 -24.9809 -24.2289 6.3487 -4.4353 24.1052
#
#
#
# Elastic Compliance Matrix: (Units=1/GPa)
#
#
# Indices 1 2 3 4 5 6 
#
# 1 0.045532 -0.004186 -0.005453 0.003359 -0.004210 -0.023859
# 2 -0.004186 0.009215 -0.001626 -0.001758 -0.000086 0.009501
# 3 -0.005453 -0.001626 0.006617 0.003538 -0.000679 0.005392
# 4 0.003359 -0.001758 0.003538 0.019329 0.001936 -0.003913
# 5 -0.004210 -0.000086 -0.000679 0.001936 0.027279 0.004882
# 6 -0.023859 0.009501 0.005392 -0.003913 0.004882 0.065167
#
#
# Mechanical properties :
#
#
# Convention : Reuss Voigt Hill
#
# Bulk Modulus (GPa) = 25.74995 70.86051 48.30523
# Shear Modulus (GPa) = 23.96760 46.15760 35.06260
#
# Velocity S-wave (km/s) = 3.10264 4.30567 3.75268
# Velocity P-wave (km/s) = 4.81429 7.29239 6.17885
#
# Compressibility (1/GPa) = 0.03883503
#
# Stress axis : x y z
#
# Youngs Moduli (GPa) = 21.96256 108.51392 151.11452
#
# Poissons Ratio (x) = 0.45425 0.82399
# Poissons Ratio (y) = 0.09194 0.24574
# Poissons Ratio (z) = 0.11976 0.17646
#
# Static dielectric constant tensor:
#      x y z
#    x 2.136240 -0.019100 0.024860 
#    y -0.019100 2.007230 -0.046390 
#    z 0.024860 -0.046390 2.046160 
# 
# From -- ./inp_files/52154.got.cif
#   From: 2010.05.17/outbox.cif.g08.bks.cpg/sg2_27_cif.got.tgz:52154.got - 2010.06.03 11:33:40.
