data_PCOD9078186
_publ_section_title
;
Structure prediction by ZEFSAII (Michael W. Deem and Ramdas Pophale) SiO2 
 PCOD9078186
Probable space group: P -1
;
_chemical_formula_sum "Si O2"
_cell_formula_units_Z 16
_cell_length_a 14.051160
_cell_length_b 12.140668
_cell_length_c 13.931200
_cell_angle_alpha 110.021498
_cell_angle_beta 32.833632
_cell_angle_gamma 131.723866
_cell_volume 812.000043
_symmetry_space_group_name_H-M "P -1"
_symmetry_group_IT_number 2
_symmetry_cell_setting 'triclinic'
loop_
_space_group_symop_operation_xyz
x,y,z
-x,-y,-z
loop_
_atom_site_type_symbol
_atom_site_label
_atom_site_fract_x
_atom_site_fract_y
_atom_site_fract_z
Si Si1 0.780219 0.454617 0.105921
Si Si2 0.254829 0.711217 0.109736
Si Si3 0.761276 0.856975 0.428742
Si Si4 0.271949 0.967290 0.088617
Si Si5 0.726670 0.892103 0.247088
Si Si6 0.793818 0.342950 0.463061
Si Si7 0.370616 0.953357 0.362899
Si Si8 0.817621 0.198257 0.212932
O O1 0.501819 0.324658 0.354571
O O2 0.746838 0.359345 0.010329
O O3 0.000000 0.500000 0.000000
O O4 0.903381 0.640605 0.025646
O O5 0.044377 0.550236 0.312778
O O6 0.182377 0.810069 0.178564
O O7 0.545506 0.858054 0.950396
O O8 0.711679 0.837664 0.350856
O O9 0.788730 0.003715 0.492279
O O10 0.021893 0.910826 0.242624
O O11 0.474035 0.013996 0.852452
O O12 0.491920 0.739371 0.328554
O O13 0.750044 0.044517 0.276053
O O14 0.000000 0.000000 0.000000
O O15 0.783124 0.233564 0.517165
O O16 0.802162 0.288100 0.334113
O O17 0.602872 0.101866 0.283975
#
# Coordination Sequence:
#
# PCOD9078186 Si02
#       8
#     2   2   2   2   2   2   2   2
#     4  11  20  37  66  90 118 154 200 246 300 359
#     4  10  23  44  59  84 124 156 205 251 299 355
#     4  12  21  37  64  90 118 160 204 242 300 357
#     4  11  25  41  60  87 121 162 205 252 291 356
#     4  11  21  34  57  94 125 150 194 251 301 366
#     4  10  19  37  65  81 119 164 192 244 314 343
#     4  11  19  39  62  89 121 158 198 245 301 360
#     4  10  18  35  59  87 121 156 194 239 309 353
#
# _framework density 19.704433000000002
#
# number of rings (size 3 to 8) (size 9 to 14) (size 15 to 20)
#    0.000    1.250    5.000    3.000    0.000    2.000 
#    0.000    4.375    0.000    0.000    0.000    0.000 
#    0.000    0.000    0.000    0.000    0.000    0.000 
#
# Total GULP energy -89249.603076 kJ/mol
# GULP energy per Si atom -5578.100192 kJ/mol
# Density = 1.965959 g / cm^3
# Si number density = 19.704433 Si / 1000 Ang^3
#
#
#
# Elastic Constant Matrix: (Units=GPa)
#
#
# Indices 1 2 3 4 5 6 
#
# 1 42.3983 10.8996 11.0070 -9.6158 -2.5616 -14.6474
# 2 10.8996 61.9536 25.5682 -30.0788 3.9876 -9.7406
# 3 11.0070 25.5682 88.5637 -17.1782 15.2008 -18.1803
# 4 -9.6158 -30.0788 -17.1782 41.0399 -8.9287 13.6499
# 5 -2.5616 3.9876 15.2008 -8.9287 30.4354 -1.4385
# 6 -14.6474 -9.7406 -18.1803 13.6499 -1.4385 25.8781
#
#
#
# Elastic Compliance Matrix: (Units=1/GPa)
#
#
# Indices 1 2 3 4 5 6 
#
# 1 0.030172 -0.002662 -0.000309 0.000611 0.003967 0.015757
# 2 -0.002662 0.027472 -0.005623 0.019944 0.004582 -0.005382
# 3 -0.000309 -0.005623 0.015729 -0.002421 -0.007401 0.009625
# 4 0.000611 0.019944 -0.002421 0.046506 0.011452 -0.017742
# 5 0.003967 0.004582 -0.007401 0.011452 0.039406 -0.005080
# 6 0.015757 -0.005382 0.009625 -0.017742 -0.005080 0.061373
#
#
# Mechanical properties :
#
#
# Convention : Reuss Voigt Hill
#
# Bulk Modulus (GPa) = 17.79804 31.98501 24.89152
# Shear Modulus (GPa) = 19.48744 29.16672 24.32708
#
# Velocity S-wave (km/s) = 3.14823 3.85153 3.51750
# Velocity P-wave (km/s) = 4.71882 6.00388 5.39972
#
# Compressibility (1/GPa) = 0.05618597
#
# Stress axis : x y z
#
# Youngs Moduli (GPa) = 33.14302 36.40083 63.57501
#
# Poissons Ratio (x) = 0.09689 0.01965
# Poissons Ratio (y) = 0.08822 0.35748
# Poissons Ratio (z) = 0.01025 0.20468
#
# Static dielectric constant tensor:
#      x y z
#    x 1.711770 -0.043130 -0.039770 
#    y -0.043130 1.785700 0.160570 
#    z -0.039770 0.160570 2.168860 
# 
# From -- ./inp_files/455691.got.cif
#   From: 2010.05.17/outbox.cif.g08.bks.cpg/sg2_228_cif.got.tgz:455691.got - 2010.06.03 11:33:40.
