data_PCOD9078827
_publ_section_title
;
Structure prediction by ZEFSAII (Michael W. Deem and Ramdas Pophale) SiO2 
 PCOD9078827
Probable space group: P -1
;
_chemical_formula_sum "Si O2"
_cell_formula_units_Z 12
_cell_length_a 9.079592
_cell_length_b 12.997306
_cell_length_c 7.402275
_cell_angle_alpha 131.093598
_cell_angle_beta 62.304176
_cell_angle_gamma 129.318114
_cell_volume 507.563605
_symmetry_space_group_name_H-M "P -1"
_symmetry_group_IT_number 2
_symmetry_cell_setting 'triclinic'
loop_
_space_group_symop_operation_xyz
x,y,z
-x,-y,-z
loop_
_atom_site_type_symbol
_atom_site_label
_atom_site_fract_x
_atom_site_fract_y
_atom_site_fract_z
Si Si1 0.617808 0.177983 0.195066
Si Si2 0.763284 0.874306 0.133424
Si Si3 0.402043 0.360309 0.532401
Si Si4 0.044366 0.208172 0.368781
Si Si5 0.051350 0.323351 0.112374
Si Si6 0.392575 0.653606 0.266906
O O1 0.486378 0.249742 0.293736
O O2 0.835420 0.257432 0.095774
O O3 0.634926 0.222813 0.450328
O O4 0.500000 0.000000 0.000000
O O5 0.836754 0.866742 0.883622
O O6 0.871541 0.800140 0.103977
O O7 0.539865 0.757546 0.149714
O O8 0.842444 0.055550 0.347333
O O9 0.500000 0.500000 0.500000
O O10 0.176199 0.293430 0.562550
O O11 0.804963 0.502502 0.837524
O O12 0.492046 0.403828 0.730538
O O13 0.049781 0.322433 0.336503
#
# Coordination Sequence:
#
# PCOD9078827 Si02
#       6
#     2   2   2   2   2   2
#     4  10  22  36  58  85 123 151 187 238 301 337
#     4   9  19  34  58  88 110 155 194 238 278 349
#     4  10  19  35  58  86 111 153 194 234 280 343
#     4   9  18  33  60  80 117 148 192 230 295 335
#     4  10  18  36  59  84 112 156 188 236 292 342
#     4  10  21  33  62  85 115 149 203 230 279 351
#
# _framework density 23.642358999999999
#
# number of rings (size 3 to 8) (size 9 to 14) (size 15 to 20)
#    2.000    0.333    1.667    2.000    0.000    0.667 
#    0.000    0.833    0.000    4.000    0.000    0.000 
#    0.000    0.000    0.000    0.000    0.000    0.000 
#
# Total GULP energy -66810.912217 kJ/mol
# GULP energy per Si atom -5567.576018 kJ/mol
# Density = 2.358855 g / cm^3
# Si number density = 23.642359 Si / 1000 Ang^3
#
#
#
# Elastic Constant Matrix: (Units=GPa)
#
#
# Indices 1 2 3 4 5 6 
#
# 1 71.3431 27.2193 1.2472 3.0658 0.4078 22.4047
# 2 27.2193 173.4368 34.9449 5.9280 -3.6370 35.6857
# 3 1.2472 34.9449 43.5878 8.8580 -3.2889 0.8194
# 4 3.0658 5.9280 8.8580 29.6905 -0.6491 -3.5134
# 5 0.4078 -3.6370 -3.2889 -0.6491 26.4188 3.1397
# 6 22.4047 35.6857 0.8194 -3.5134 3.1397 40.4711
#
#
#
# Elastic Compliance Matrix: (Units=1/GPa)
#
#
# Indices 1 2 3 4 5 6 
#
# 1 0.017343 -0.000954 0.001104 -0.002990 0.000746 -0.009100
# 2 -0.000954 0.008795 -0.006695 -0.000488 0.001239 -0.007230
# 3 0.001104 -0.006695 0.029822 -0.007166 0.002134 0.003901
# 4 -0.002990 -0.000488 -0.007166 0.036859 -0.000659 0.005482
# 5 0.000746 0.001239 0.002134 -0.000659 0.038809 -0.004617
# 6 -0.009100 -0.007230 0.003901 0.005482 -0.004617 0.036876
#
#
# Mechanical properties :
#
#
# Convention : Reuss Voigt Hill
#
# Bulk Modulus (GPa) = 23.32649 46.13227 34.72938
# Shear Modulus (GPa) = 25.52514 34.31316 29.91915
#
# Velocity S-wave (km/s) = 3.28935 3.81378 3.56123
# Velocity P-wave (km/s) = 4.93094 6.24085 5.62416
#
# Compressibility (1/GPa) = 0.04286972
#
# Stress axis : x y z
#
# Youngs Moduli (GPa) = 57.65865 113.70578 33.53236
#
# Poissons Ratio (x) = 0.10848 -0.03701
# Poissons Ratio (y) = 0.05501 0.22449
# Poissons Ratio (z) = -0.06364 0.76123
#
# Static dielectric constant tensor:
#      x y z
#    x 1.910770 0.039410 0.033480 
#    y 0.039410 1.890420 0.009920 
#    z 0.033480 0.009920 1.991420 
# 
# From -- ./inp_files/193927.got.cif
#   From: 2010.05.17/outbox.cif.g08.bks.cpg/sg2_97_cif.got.tgz:193927.got - 2010.06.03 11:33:40.
