data_PCOD9078328
_publ_section_title
;
Structure prediction by ZEFSAII (Michael W. Deem and Ramdas Pophale) SiO2 
 PCOD9078328
Probable space group: P -1
;
_chemical_formula_sum "Si O2"
_cell_formula_units_Z 16
_cell_length_a 20.708970
_cell_length_b 15.210584
_cell_length_c 7.469249
_cell_angle_alpha 85.484984
_cell_angle_beta 75.548620
_cell_angle_gamma 19.191370
_cell_volume 651.556821
_symmetry_space_group_name_H-M "P -1"
_symmetry_group_IT_number 2
_symmetry_cell_setting 'triclinic'
loop_
_space_group_symop_operation_xyz
x,y,z
-x,-y,-z
loop_
_atom_site_type_symbol
_atom_site_label
_atom_site_fract_x
_atom_site_fract_y
_atom_site_fract_z
Si Si1 0.986801 0.621729 0.952996
Si Si2 0.481015 0.680559 0.273545
Si Si3 0.507986 0.015904 0.750001
Si Si4 0.652257 0.672629 0.510781
Si Si5 0.825570 0.991123 0.896752
Si Si6 0.782505 0.816083 0.700633
Si Si7 0.179239 0.806263 0.144243
Si Si8 0.345804 0.535428 0.445050
O O1 0.237784 0.335565 0.890410
O O2 0.899499 0.721557 0.794318
O O3 0.821208 0.917362 0.058776
O O4 0.000000 0.500000 0.000000
O O5 0.324310 0.829823 0.210560
O O6 0.508498 0.610356 0.466129
O O7 0.369916 0.917664 0.334953
O O8 0.726477 0.377631 0.045946
O O9 0.524799 0.056212 0.550761
O O10 0.645663 0.750901 0.664889
O O11 0.614638 0.945428 0.835387
O O12 0.600308 0.637357 0.596057
O O13 0.905663 0.350826 0.300051
O O14 0.787432 0.138211 0.966364
O O15 0.000000 0.500000 0.500000
O O16 0.334379 0.596074 0.250472
O O17 0.917921 0.125963 0.344534
#
# Coordination Sequence:
#
# PCOD9078328 Si02
#       8
#     2   2   2   2   2   2   2   2
#     4  10  23  39  60  91 127 166 216 270 324 391
#     4  11  21  38  63  92 124 168 211 266 320 388
#     4  10  18  35  61  86 124 171 205 260 334 385
#     4   9  17  34  59  87 115 162 205 253 324 389
#     4   9  20  38  59  84 126 160 203 267 326 376
#     4  11  22  39  64  96 128 167 219 265 327 407
#     4  10  22  40  63  89 125 165 213 267 322 384
#     4  10  21  38  63  93 121 163 217 263 317 390
#
# _framework density 24.556569
#
# number of rings (size 3 to 8) (size 9 to 14) (size 15 to 20)
#    0.000    2.000    1.250    3.750    0.000    3.000 
#    0.000    0.000    8.250    0.000    0.000    0.000 
#    0.000    0.000    0.000    0.000    0.000    0.000 
#
# Total GULP energy -89190.057893 kJ/mol
# GULP energy per Si atom -5574.378618 kJ/mol
# Density = 2.450068 g / cm^3
# Si number density = 24.556569 Si / 1000 Ang^3
#
#
#
# Elastic Constant Matrix: (Units=GPa)
#
#
# Indices 1 2 3 4 5 6 
#
# 1 89.0099 39.9478 16.0839 9.8022 -15.9691 -1.0764
# 2 39.9478 118.4164 33.4648 -0.5610 2.9846 24.5457
# 3 16.0839 33.4648 64.4867 -8.9154 4.8446 5.7777
# 4 9.8022 -0.5610 -8.9154 35.7997 1.3398 3.3735
# 5 -15.9691 2.9846 4.8446 1.3398 30.6048 3.1232
# 6 -1.0764 24.5457 5.7777 3.3735 3.1232 47.5409
#
#
#
# Elastic Compliance Matrix: (Units=1/GPa)
#
#
# Indices 1 2 3 4 5 6 
#
# 1 0.016895 -0.005842 -0.003093 -0.006190 0.009781 0.003571
# 2 -0.005842 0.013007 -0.004307 0.001432 -0.003062 -0.006225
# 3 -0.003093 -0.004307 0.019701 0.005889 -0.004533 -0.000361
# 4 -0.006190 0.001432 0.005889 0.031646 -0.005331 -0.003490
# 5 0.009781 -0.003062 -0.004533 -0.005331 0.039011 0.000169
# 6 0.003571 -0.006225 -0.000361 -0.003490 0.000169 0.024610
#
#
# Mechanical properties :
#
#
# Convention : Reuss Voigt Hill
#
# Bulk Modulus (GPa) = 43.25411 50.10068 46.67739
# Shear Modulus (GPa) = 27.92378 34.95018 31.43698
#
# Velocity S-wave (km/s) = 3.37578 3.77669 3.58185
# Velocity P-wave (km/s) = 5.73122 6.28206 6.01295
#
# Compressibility (1/GPa) = 0.02311919
#
# Stress axis : x y z
#
# Youngs Moduli (GPa) = 59.18873 76.88240 50.75950
#
# Poissons Ratio (x) = 0.44911 0.15700
# Poissons Ratio (y) = 0.34575 0.21863
# Poissons Ratio (z) = 0.18308 0.33114
#
# Static dielectric constant tensor:
#      x y z
#    x 2.043990 0.072610 -0.055320 
#    y 0.072610 2.084150 0.006310 
#    z -0.055320 0.006310 2.007940 
# 
# From -- ./inp_files/347252.got.cif
#   From: 2010.05.17/outbox.cif.g08.bks.cpg/sg2_174_cif.got.tgz:347252.got - 2010.06.03 11:33:40.
