data_PCOD9078620
_publ_section_title
;
Structure prediction by ZEFSAII (Michael W. Deem and Ramdas Pophale) SiO2 
 PCOD9078620
Probable space group: P -1
;
_chemical_formula_sum "Si O2"
_cell_formula_units_Z 14
_cell_length_a 11.952118
_cell_length_b 7.317261
_cell_length_c 17.507714
_cell_angle_alpha 51.758654
_cell_angle_beta 133.757832
_cell_angle_gamma 88.657545
_cell_volume 525.828800
_symmetry_space_group_name_H-M "P -1"
_symmetry_group_IT_number 2
_symmetry_cell_setting 'triclinic'
loop_
_space_group_symop_operation_xyz
x,y,z
-x,-y,-z
loop_
_atom_site_type_symbol
_atom_site_label
_atom_site_fract_x
_atom_site_fract_y
_atom_site_fract_z
Si Si1 0.880898 0.611218 0.332370
Si Si2 0.454710 0.353528 0.172902
Si Si3 0.740616 0.560525 0.698205
Si Si4 0.680285 0.489123 0.164511
Si Si5 0.234324 0.276206 0.986968
Si Si6 0.886087 0.256395 0.678347
Si Si7 0.484036 0.504459 0.685309
O O1 0.836324 0.408972 0.329975
O O2 0.000000 0.500000 0.500000
O O3 0.052078 0.558499 0.369925
O O4 0.602412 0.061001 0.084421
O O5 0.613141 0.300917 0.195741
O O6 0.391849 0.172596 0.161694
O O7 0.595803 0.239601 0.347890
O O8 0.167064 0.801505 0.933528
O O9 0.747833 0.451378 0.643768
O O10 0.717053 0.363356 0.792027
O O11 0.500000 0.000000 0.500000
O O12 0.978182 0.452144 0.843903
O O13 0.798846 0.459315 0.151597
O O14 0.409441 0.868512 0.136207
O O15 0.722964 0.309509 0.524943
#
# Coordination Sequence:
#
# PCOD9078620 Si02
#       7
#     2   2   2   2   2   2   2
#     4  10  18  35  70 101 135 182 219 279 351 412
#     4  11  25  44  73 107 140 183 229 285 353 420
#     4  12  27  48  72 101 140 189 238 290 348 406
#     4  10  20  40  64 104 143 173 227 282 344 419
#     4  12  24  46  73 102 144 185 231 290 346 414
#     4  11  23  46  69 101 145 180 227 292 350 408
#     4  12  26  46  72 103 140 182 240 284 344 411
#
# _framework density 26.624635999999999
#
# number of rings (size 3 to 8) (size 9 to 14) (size 15 to 20)
#    0.000    0.857    2.857    5.571    2.000    0.571 
#    0.000    0.000    0.000    6.857    0.000    0.000 
#    0.000    0.000    0.000    0.000    0.000    0.000 
#
# Total GULP energy -78506.786529 kJ/mol
# GULP energy per Si atom -5607.627609 kJ/mol
# Density = 2.656404 g / cm^3
# Si number density = 26.624636 Si / 1000 Ang^3
#
#
#
# Elastic Constant Matrix: (Units=GPa)
#
#
# Indices 1 2 3 4 5 6 
#
# 1 177.2041 45.4620 35.0366 18.7507 4.1610 0.7090
# 2 45.4620 157.4962 54.7140 41.4048 13.2807 -4.1496
# 3 35.0366 54.7140 130.6795 30.3042 29.4261 -3.6732
# 4 18.7507 41.4048 30.3042 55.5422 0.0871 14.1979
# 5 4.1610 13.2807 29.4261 0.0871 43.4520 5.1661
# 6 0.7090 -4.1496 -3.6732 14.1979 5.1661 44.2829
#
#
#
# Elastic Compliance Matrix: (Units=1/GPa)
#
#
# Indices 1 2 3 4 5 6 
#
# 1 0.006250 -0.001356 -0.001169 -0.000393 0.000641 -0.000273
# 2 -0.001356 0.009169 -0.001459 -0.006354 -0.002033 0.003034
# 3 -0.001169 -0.001459 0.011818 -0.005891 -0.007870 0.003669
# 4 -0.000393 -0.006354 -0.005891 0.028940 0.007243 -0.011201
# 5 0.000641 -0.002033 -0.007870 0.007243 0.029678 -0.006638
# 6 -0.000273 0.003034 0.003669 -0.011201 -0.006638 0.027541
#
#
# Mechanical properties :
#
#
# Convention : Reuss Voigt Hill
#
# Bulk Modulus (GPa) = 51.89586 81.75613 66.82600
# Shear Modulus (GPa) = 39.12760 50.66655 44.89708
#
# Velocity S-wave (km/s) = 3.83770 4.36707 4.11091
# Velocity P-wave (km/s) = 6.25869 7.49680 6.90555
#
# Compressibility (1/GPa) = 0.01926936
#
# Stress axis : x y z
#
# Youngs Moduli (GPa) = 160.00572 109.05765 84.61679
#
# Poissons Ratio (x) = 0.14788 0.09890
# Poissons Ratio (y) = 0.21697 0.12346
# Poissons Ratio (z) = 0.18702 0.15913
#
# Static dielectric constant tensor:
#      x y z
#    x 2.046670 -0.006040 -0.042210 
#    y -0.006040 2.038470 -0.048640 
#    z -0.042210 -0.048640 2.130500 
# 
# From -- ./inp_files/565197.got.cif
#   From: 2010.05.17/outbox.cif.g08.bks.cpg/sg2_283_cif.got.tgz:565197.got - 2010.06.03 11:33:40.
