data_PCOD9078072
_publ_section_title
;
Structure prediction by ZEFSAII (Michael W. Deem and Ramdas Pophale) SiO2 
 PCOD9078072
Probable space group: P -1
;
_chemical_formula_sum "Si O2"
_cell_formula_units_Z 16
_cell_length_a 11.201920
_cell_length_b 18.742116
_cell_length_c 9.238116
_cell_angle_alpha 25.186458
_cell_angle_beta 51.932732
_cell_angle_gamma 56.190483
_cell_volume 649.814785
_symmetry_space_group_name_H-M "P -1"
_symmetry_group_IT_number 2
_symmetry_cell_setting 'triclinic'
loop_
_space_group_symop_operation_xyz
x,y,z
-x,-y,-z
loop_
_atom_site_type_symbol
_atom_site_label
_atom_site_fract_x
_atom_site_fract_y
_atom_site_fract_z
Si Si1 0.605037 0.855891 0.754464
Si Si2 0.026437 0.617186 0.053498
Si Si3 0.296130 0.431281 0.170456
Si Si4 0.604171 0.009243 0.766778
Si Si5 0.137871 0.165625 0.984353
Si Si6 0.098624 0.253137 0.390403
Si Si7 0.561132 0.322025 0.018325
Si Si8 0.902340 0.249819 0.803610
O O1 0.596627 0.861309 0.922999
O O2 0.776805 0.875595 0.530910
O O3 0.536019 0.693036 0.028903
O O4 0.500000 0.000000 0.500000
O O5 0.938712 0.737331 0.005076
O O6 0.975744 0.427307 0.472731
O O7 0.208443 0.602153 0.962669
O O8 0.967675 0.652574 0.871258
O O9 0.258409 0.289230 0.582066
O O10 0.201198 0.359994 0.231989
O O11 0.468649 0.454882 0.942269
O O12 0.553162 0.165946 0.422249
O O13 0.773195 0.994204 0.730201
O O14 0.500000 0.000000 0.000000
O O15 0.999978 0.120876 0.062616
O O16 0.952570 0.207246 0.681095
O O17 0.730546 0.293279 0.887072
#
# Coordination Sequence:
#
# PCOD9078072 Si02
#       8
#     2   2   2   2   2   2   2   2
#     4   9  19  35  59  80 106 146 187 222 263 332
#     4  10  18  35  58  83 105 147 193 217 260 329
#     4   9  17  32  54  78 108 145 180 215 266 332
#     4  11  20  36  63  80 106 143 192 224 261 334
#     4  10  19  35  59  81 107 149 188 220 264 332
#     4   9  17  34  57  79 104 144 191 215 259 326
#     4  10  21  37  54  85 113 143 177 228 285 310
#     4  10  21  35  55  83 117 142 174 230 281 318
#
# _framework density 24.622402000000001
#
# number of rings (size 3 to 8) (size 9 to 14) (size 15 to 20)
#    0.000    2.500    2.500    3.000    1.750    0.500 
#    0.000   11.875    0.000    0.000    0.000    0.000 
#    0.000    0.000    0.000    0.000    0.000    0.000 
#
# Total GULP energy -89179.509524 kJ/mol
# GULP energy per Si atom -5573.719345 kJ/mol
# Density = 2.456636 g / cm^3
# Si number density = 24.622402 Si / 1000 Ang^3
#
#
#
# Elastic Constant Matrix: (Units=GPa)
#
#
# Indices 1 2 3 4 5 6 
#
# 1 73.4794 42.8502 32.5990 24.1819 13.4800 -6.0491
# 2 42.8502 191.9601 35.0324 46.9570 -3.6174 -34.1841
# 3 32.5990 35.0324 48.5446 23.1152 11.7806 1.4359
# 4 24.1819 46.9570 23.1152 44.9245 -5.7147 1.5899
# 5 13.4800 -3.6174 11.7806 -5.7147 29.3024 9.5467
# 6 -6.0491 -34.1841 1.4359 1.5899 9.5467 46.4005
#
#
#
# Elastic Compliance Matrix: (Units=1/GPa)
#
#
# Indices 1 2 3 4 5 6 
#
# 1 0.023060 -0.000707 -0.008188 -0.009033 -0.010888 0.005288
# 2 -0.000707 0.009093 -0.001621 -0.008807 -0.002021 0.007374
# 3 -0.008188 -0.001621 0.038239 -0.015470 -0.014871 0.000145
# 4 -0.009033 -0.008807 -0.015470 0.047694 0.023005 -0.013555
# 5 -0.010888 -0.002021 -0.014871 0.023005 0.054028 -0.014352
# 6 0.005288 0.007374 0.000145 -0.013555 -0.014352 0.031087
#
#
# Mechanical properties :
#
#
# Convention : Reuss Voigt Hill
#
# Bulk Modulus (GPa) = 20.25967 59.43859 39.84913
# Shear Modulus (GPa) = 20.77413 37.69229 29.23321
#
# Velocity S-wave (km/s) = 2.90782 3.91680 3.44940
# Velocity P-wave (km/s) = 4.41813 6.68189 5.66425
#
# Compressibility (1/GPa) = 0.04935915
#
# Stress axis : x y z
#
# Youngs Moduli (GPa) = 43.36584 109.97904 26.15145
#
# Poissons Ratio (x) = 0.07776 0.21413
# Poissons Ratio (y) = 0.03066 0.04239
# Poissons Ratio (z) = 0.35508 0.17826
#
# Static dielectric constant tensor:
#      x y z
#    x 2.057820 -0.016480 -0.084570 
#    y -0.016480 2.071940 -0.009200 
#    z -0.084570 -0.009200 2.003420 
# 
# From -- ./inp_files/187664.got.cif
#   From: 2010.05.17/outbox.cif.g08.bks.cpg/sg2_94_cif.got.tgz:187664.got - 2010.06.03 11:33:40.
