data_PCOD9078694
_publ_section_title
;
Structure prediction by ZEFSAII (Michael W. Deem and Ramdas Pophale) SiO2 
 PCOD9078694
Probable space group: P -1
;
_chemical_formula_sum "Si O2"
_cell_formula_units_Z 16
_cell_length_a 8.324165
_cell_length_b 16.218393
_cell_length_c 28.788284
_cell_angle_alpha 17.262906
_cell_angle_beta 132.804766
_cell_angle_gamma 123.130359
_cell_volume 746.866552
_symmetry_space_group_name_H-M "P -1"
_symmetry_group_IT_number 2
_symmetry_cell_setting 'triclinic'
loop_
_space_group_symop_operation_xyz
x,y,z
-x,-y,-z
loop_
_atom_site_type_symbol
_atom_site_label
_atom_site_fract_x
_atom_site_fract_y
_atom_site_fract_z
Si Si1 0.633889 0.856500 0.442602
Si Si2 0.254219 0.913111 0.746296
Si Si3 0.271641 0.558041 0.632446
Si Si4 0.931874 0.659702 0.763434
Si Si5 0.577003 0.235952 0.779316
Si Si6 0.467887 0.078581 0.387620
Si Si7 0.390379 0.251419 0.015825
Si Si8 0.200768 0.424071 0.792279
O O1 0.579867 0.016021 0.296035
O O2 0.602717 0.543459 0.607848
O O3 0.492028 0.088975 0.331632
O O4 0.929331 0.717111 0.582651
O O5 0.022985 0.238879 0.541266
O O6 0.420062 0.732402 0.919484
O O7 0.117480 0.748498 0.780443
O O8 0.386682 0.332787 0.732654
O O9 0.389634 0.796647 0.528566
O O10 0.311168 0.406728 0.772579
O O11 0.734127 0.934830 0.542976
O O12 0.747334 0.639077 0.777155
O O13 0.119244 0.381022 0.916830
O O14 0.508580 0.106353 0.789319
O O15 0.802068 0.905930 0.019971
O O16 0.354037 0.436783 0.860331
#
# Coordination Sequence:
#
# PCOD9078694 Si02
#       8
#     2   2   2   2   2   2   2   2
#     4  10  18  36  56  81 104 140 184 220 266 313
#     4  10  22  35  56  76 111 149 178 213 260 327
#     4   9  18  35  56  82 107 136 180 220 270 314
#     4  10  19  37  56  77 109 143 177 224 265 311
#     4   9  19  32  60  78 111 136 176 227 266 310
#     4   9  18  34  58  80 104 136 181 229 266 301
#     4  10  21  35  54  81 110 145 176 214 270 318
#     4   9  18  32  55  84 106 138 174 220 268 316
#
# _framework density 21.422836
#
# number of rings (size 3 to 8) (size 9 to 14) (size 15 to 20)
#    0.750    1.750    1.250    1.125    0.000    1.500 
#    4.500    0.625    8.250    0.000    0.000    0.000 
#    0.000    0.000    0.000    0.000    0.000    0.000 
#
# Total GULP energy -89127.447037 kJ/mol
# GULP energy per Si atom -5570.465440 kJ/mol
# Density = 2.137408 g / cm^3
# Si number density = 21.422836 Si / 1000 Ang^3
#
#
#
# Elastic Constant Matrix: (Units=GPa)
#
#
# Indices 1 2 3 4 5 6 
#
# 1 104.7849 57.4195 29.8196 2.5734 3.8454 -27.1994
# 2 57.4195 93.8318 37.9349 6.1843 6.9680 -20.4489
# 3 29.8196 37.9349 57.4755 9.4963 -0.6690 -11.0015
# 4 2.5734 6.1843 9.4963 34.7600 -7.2945 1.0918
# 5 3.8454 6.9680 -0.6690 -7.2945 30.0201 -9.3420
# 6 -27.1994 -20.4489 -11.0015 1.0918 -9.3420 33.1952
#
#
#
# Elastic Compliance Matrix: (Units=1/GPa)
#
#
# Indices 1 2 3 4 5 6 
#
# 1 0.016439 -0.007601 -0.001943 0.000933 0.002594 0.008842
# 2 -0.007601 0.019474 -0.008315 -0.001415 -0.003423 0.002096
# 3 -0.001943 -0.008315 0.025192 -0.004848 0.002324 0.002448
# 4 0.000933 -0.001415 -0.004848 0.031903 0.007664 -0.000606
# 5 0.002594 -0.003423 0.002324 0.007664 0.039295 0.011593
# 6 0.008842 0.002096 0.002448 -0.000606 0.011593 0.042755
#
#
# Mechanical properties :
#
#
# Convention : Reuss Voigt Hill
#
# Bulk Modulus (GPa) = 39.39118 56.27116 47.83117
# Shear Modulus (GPa) = 22.80618 28.32294 25.56456
#
# Velocity S-wave (km/s) = 3.26632 3.64000 3.45821
# Velocity P-wave (km/s) = 5.71424 6.63250 6.19042
#
# Compressibility (1/GPa) = 0.02538640
#
# Stress axis : x y z
#
# Youngs Moduli (GPa) = 60.83236 51.34924 39.69564
#
# Poissons Ratio (x) = 0.39029 0.07715
# Poissons Ratio (y) = 0.46237 0.33007
# Poissons Ratio (z) = 0.11823 0.42697
#
# Static dielectric constant tensor:
#      x y z
#    x 1.823360 0.007790 -0.010700 
#    y 0.007790 1.809120 -0.042810 
#    z -0.010700 -0.042810 1.796270 
# 
# From -- ./inp_files/617296.got.cif
#   From: 2010.05.17/outbox.cif.g08.bks.cpg/sg2_309_cif.got.tgz:617296.got - 2010.06.03 11:33:40.
