data_PCOD9078942
_publ_section_title
;
Structure prediction by ZEFSAII (Michael W. Deem and Ramdas Pophale) SiO2 
 PCOD9078942
Probable space group: P -1
;
_chemical_formula_sum "Si O2"
_cell_formula_units_Z 16
_cell_length_a 9.382110
_cell_length_b 7.735668
_cell_length_c 12.368308
_cell_angle_alpha 85.398800
_cell_angle_beta 137.654448
_cell_angle_gamma 103.367183
_cell_volume 582.623121
_symmetry_space_group_name_H-M "P -1"
_symmetry_group_IT_number 2
_symmetry_cell_setting 'triclinic'
loop_
_space_group_symop_operation_xyz
x,y,z
-x,-y,-z
loop_
_atom_site_type_symbol
_atom_site_label
_atom_site_fract_x
_atom_site_fract_y
_atom_site_fract_z
Si Si1 0.238751 0.081494 0.788361
Si Si2 0.841675 0.877718 0.031744
Si Si3 0.272882 0.548828 0.355499
Si Si4 0.746643 0.416871 0.336296
Si Si5 0.817797 0.324210 0.155482
Si Si6 0.792828 0.083817 0.608214
Si Si7 0.527463 0.995881 0.277030
Si Si8 0.687446 0.497212 0.862752
O O1 0.249429 0.884534 0.844439
O O2 0.368394 0.109173 0.748233
O O3 0.989352 0.089959 0.631816
O O4 0.291828 0.187728 0.926658
O O5 0.718829 0.007792 0.895964
O O6 0.814466 0.703355 0.951662
O O7 0.082795 0.965071 0.212501
O O8 0.500000 0.500000 0.500000
O O9 0.244015 0.722915 0.393948
O O10 0.244989 0.566902 0.210421
O O11 0.080044 0.384692 0.296731
O O12 0.740246 0.431001 0.202945
O O13 0.656496 0.206435 0.324473
O O14 0.568740 0.505140 0.284291
O O15 0.000000 0.500000 0.500000
O O16 0.739001 0.383490 0.996246
O O17 0.581548 0.961722 0.434114
#
# Coordination Sequence:
#
# PCOD9078942 Si02
#       8
#     2   2   2   2   2   2   2   2
#     4   9  21  37  57  89 127 157 201 256 309 363
#     4   9  20  36  60  87 122 158 213 241 303 372
#     4  12  24  42  66  88 120 166 214 253 304 376
#     4  10  21  36  59  94 127 152 202 264 317 353
#     4  11  21  39  61  92 124 156 201 262 310 364
#     4  10  21  38  61  88 120 163 208 250 306 364
#     4  10  18  36  60  90 123 166 204 248 307 377
#     4  11  22  40  64  89 121 167 208 249 307 376
#
# _framework density 27.462005999999999
#
# number of rings (size 3 to 8) (size 9 to 14) (size 15 to 20)
#    0.750    1.000    1.250    4.500    0.000    0.000 
#    0.000    5.625    0.000    0.000    0.000    0.000 
#    0.000    0.000    0.000    0.000    0.000    0.000 
#
# Total GULP energy -89627.607366 kJ/mol
# GULP energy per Si atom -5601.725460 kJ/mol
# Density = 2.739950 g / cm^3
# Si number density = 27.462006 Si / 1000 Ang^3
#
#
#
# Elastic Constant Matrix: (Units=GPa)
#
#
# Indices 1 2 3 4 5 6 
#
# 1 106.1232 33.9523 46.4720 5.0693 -13.3563 -17.4244
# 2 33.9523 67.8416 2.4980 -1.5754 -4.8052 -9.9917
# 3 46.4720 2.4980 172.4923 3.4385 -1.1673 -3.6695
# 4 5.0693 -1.5754 3.4385 36.6976 -9.6068 4.3354
# 5 -13.3563 -4.8052 -1.1673 -9.6068 69.2893 9.8613
# 6 -17.4244 -9.9917 -3.6695 4.3354 9.8613 44.2003
#
#
#
# Elastic Compliance Matrix: (Units=1/GPa)
#
#
# Indices 1 2 3 4 5 6 
#
# 1 0.013799 -0.006188 -0.003503 -0.001908 0.001391 0.003627
# 2 -0.006188 0.018057 0.001414 0.001315 0.000034 0.001623
# 3 -0.003503 0.001414 0.006712 -0.000150 -0.000429 -0.000394
# 4 -0.001908 0.001315 -0.000150 0.029243 0.004389 -0.004315
# 5 0.001391 0.000034 -0.000429 0.004389 0.015793 -0.003433
# 6 0.003627 0.001623 -0.000394 -0.004315 -0.003433 0.025577
#
#
# Mechanical properties :
#
#
# Convention : Reuss Voigt Hill
#
# Bulk Modulus (GPa) = 45.42674 56.92241 51.17458
# Shear Modulus (GPa) = 37.57310 47.60643 42.58976
#
# Velocity S-wave (km/s) = 3.70291 4.16809 3.94237
# Velocity P-wave (km/s) = 5.90421 6.62848 6.27680
#
# Compressibility (1/GPa) = 0.02201347
#
# Stress axis : x y z
#
# Youngs Moduli (GPa) = 72.47062 55.37948 148.97691
#
# Poissons Ratio (x) = 0.34271 0.52192
# Poissons Ratio (y) = 0.44848 -0.21070
# Poissons Ratio (z) = 0.25389 -0.07832
#
# Static dielectric constant tensor:
#      x y z
#    x 2.121420 0.021490 0.009760 
#    y 0.021490 2.068980 0.033130 
#    z 0.009760 0.033130 2.188450 
# 
# From -- ./inp_files/382441.got.cif
#   From: 2010.05.17/outbox.cif.g08.bks.cpg/sg2_192_cif.got.tgz:382441.got - 2010.06.03 11:33:40.
