data_PCOD9078819
_publ_section_title
;
Structure prediction by ZEFSAII (Michael W. Deem and Ramdas Pophale) SiO2 
 PCOD9078819
Probable space group: P -1
;
_chemical_formula_sum "Si O2"
_cell_formula_units_Z 16
_cell_length_a 12.845543
_cell_length_b 7.168929
_cell_length_c 7.861045
_cell_angle_alpha 68.954633
_cell_angle_beta 89.823057
_cell_angle_gamma 87.752976
_cell_volume 675.059996
_symmetry_space_group_name_H-M "P -1"
_symmetry_group_IT_number 2
_symmetry_cell_setting 'triclinic'
loop_
_space_group_symop_operation_xyz
x,y,z
-x,-y,-z
loop_
_atom_site_type_symbol
_atom_site_label
_atom_site_fract_x
_atom_site_fract_y
_atom_site_fract_z
Si Si1 0.238206 0.149245 0.286725
Si Si2 0.390676 0.947931 0.587852
Si Si3 0.035858 0.443718 0.819458
Si Si4 0.734373 0.670924 0.104370
Si Si5 0.623413 0.475853 0.456258
Si Si6 0.103227 0.865684 0.558103
Si Si7 0.814669 0.412394 0.740035
Si Si8 0.258635 0.786564 0.879338
O O1 0.177644 0.360819 0.253452
O O2 0.318684 0.120893 0.448682
O O3 0.170682 0.953796 0.375006
O O4 0.293020 0.175949 0.096787
O O5 0.368368 0.735862 0.571394
O O6 0.362404 0.901268 0.797636
O O7 0.500000 0.000000 0.500000
O O8 0.142275 0.305332 0.866682
O O9 0.073212 0.637575 0.653089
O O10 0.938690 0.360713 0.744105
O O11 0.000000 0.500000 0.000000
O O12 0.658775 0.651159 0.271437
O O13 0.730429 0.446758 0.099057
O O14 0.500000 0.500000 0.500000
O O15 0.719620 0.448896 0.597197
O O16 0.171187 0.889761 0.722714
O O17 0.000000 0.000000 0.500000
O O18 0.775959 0.240400 0.921416
#
# Coordination Sequence:
#
# PCOD9078819 Si02
#       8
#     2   2   2   2   2   2   2   2
#     4  10  19  34  61  89 116 151 203 247 287 349
#     4  10  21  40  61  83 114 152 202 255 299 346
#     4  11  17  33  63  92 123 157 201 239 284 368
#     4   9  19  37  58  85 120 160 200 238 288 365
#     4  11  25  43  60  83 122 159 204 251 303 355
#     4  10  15  26  52  90 117 144 187 238 277 331
#     4  11  20  36  62  92 118 159 200 242 301 354
#     4   8  18  32  55  86 112 150 197 234 281 363
#
# _framework density 23.701597
#
# number of rings (size 3 to 8) (size 9 to 14) (size 15 to 20)
#    0.000    2.000    5.000    1.500    0.000    1.500 
#    0.000    8.750    0.000    1.500    0.000    0.000 
#    0.000    0.000    0.000    0.000    0.000    0.000 
#
# Total GULP energy -89112.635064 kJ/mol
# GULP energy per Si atom -5569.539691 kJ/mol
# Density = 2.364765 g / cm^3
# Si number density = 23.701597 Si / 1000 Ang^3
#
#
#
# Elastic Constant Matrix: (Units=GPa)
#
#
# Indices 1 2 3 4 5 6 
#
# 1 102.3622 -4.9428 47.5134 -4.1299 -39.5022 23.2028
# 2 -4.9428 60.6916 14.2167 -8.9144 -1.9368 9.8444
# 3 47.5134 14.2167 184.5201 -24.3598 -39.2137 21.4834
# 4 -4.1299 -8.9144 -24.3598 29.2689 4.5960 0.5690
# 5 -39.5022 -1.9368 -39.2137 4.5960 35.7984 -8.7993
# 6 23.2028 9.8444 21.4834 0.5690 -8.7993 34.0318
#
#
#
# Elastic Compliance Matrix: (Units=1/GPa)
#
#
# Indices 1 2 3 4 5 6 
#
# 1 0.019660 0.003930 0.000028 0.001126 0.019446 -0.009550
# 2 0.003930 0.019015 -0.000322 0.005841 0.002432 -0.007445
# 3 0.000028 -0.000322 0.008121 0.005565 0.007400 -0.003232
# 4 0.001126 0.005841 0.005565 0.040728 0.000845 -0.006433
# 5 0.019446 0.002432 0.007400 0.000845 0.056530 -0.004031
# 6 -0.009550 -0.007445 -0.003232 -0.006433 -0.004031 0.039155
#
#
# Mechanical properties :
#
#
# Convention : Reuss Voigt Hill
#
# Bulk Modulus (GPa) = 18.49554 51.23872 34.86713
# Shear Modulus (GPa) = 25.77842 39.20561 32.49202
#
# Velocity S-wave (km/s) = 3.30149 4.07152 3.70655
# Velocity P-wave (km/s) = 4.72796 6.61575 5.74986
#
# Compressibility (1/GPa) = 0.05406709
#
# Stress axis : x y z
#
# Youngs Moduli (GPa) = 50.86379 52.58895 123.14177
#
# Poissons Ratio (x) = -0.20666 -0.00343
# Poissons Ratio (y) = -0.19988 0.03967
# Poissons Ratio (z) = -0.00142 0.01694
#
# Static dielectric constant tensor:
#      x y z
#    x 2.048450 -0.002430 -0.094390 
#    y -0.002430 2.043900 0.104590 
#    z -0.094390 0.104590 1.976510 
# 
# From -- ./inp_files/237169.got.cif
#   From: 2010.05.17/outbox.cif.g08.bks.cpg/sg2_119_cif.got.tgz:237169.got - 2010.06.03 11:33:40.
