data_PCOD9078929
_publ_section_title
;
Structure prediction by ZEFSAII (Michael W. Deem and Ramdas Pophale) SiO2 
 PCOD9078929
Probable space group: P -1
;
_chemical_formula_sum "Si O2"
_cell_formula_units_Z 16
_cell_length_a 9.697880
_cell_length_b 9.738971
_cell_length_c 11.627723
_cell_angle_alpha 96.828711
_cell_angle_beta 123.819755
_cell_angle_gamma 108.472729
_cell_volume 802.327177
_symmetry_space_group_name_H-M "P -1"
_symmetry_group_IT_number 2
_symmetry_cell_setting 'triclinic'
loop_
_space_group_symop_operation_xyz
x,y,z
-x,-y,-z
loop_
_atom_site_type_symbol
_atom_site_label
_atom_site_fract_x
_atom_site_fract_y
_atom_site_fract_z
Si Si1 0.337491 0.240781 0.337592
Si Si2 0.514012 0.413003 0.637114
Si Si3 0.404346 0.135802 0.109789
Si Si4 0.042672 0.816130 0.875583
Si Si5 0.695909 0.656454 0.092342
Si Si6 0.161413 0.371551 0.613065
Si Si7 0.859888 0.568545 0.959709
Si Si8 0.171886 0.700900 0.710446
O O1 0.461511 0.268167 0.512227
O O2 0.371890 0.419275 0.355447
O O3 0.401680 0.196154 0.244552
O O4 0.114962 0.138580 0.241550
O O5 0.323156 0.402420 0.598256
O O6 0.656351 0.437922 0.808898
O O7 0.613981 0.165803 0.184282
O O8 0.350839 0.231597 0.999710
O O9 0.240272 0.961236 0.008091
O O10 0.079676 0.710897 0.788908
O O11 0.946512 0.724289 0.937880
O O12 0.791324 0.710006 0.266138
O O13 0.500000 0.500000 0.000000
O O14 0.834427 0.613358 0.079590
O O15 0.179838 0.537994 0.680875
O O16 0.960666 0.287334 0.449575
O O17 0.000000 0.500000 0.000000
#
# Coordination Sequence:
#
# PCOD9078929 Si02
#       8
#     2   2   2   2   2   2   2   2
#     4  10  19  35  61  85 112 152 202 242 293 347
#     4  10  18  36  60  89 117 149 200 251 294 346
#     4  12  23  40  63  87 123 164 197 248 292 361
#     4  11  23  39  61  89 120 158 206 237 295 364
#     4  12  21  39  59  89 123 158 196 244 307 349
#     4  11  21  36  63  88 122 153 201 252 295 351
#     4  11  23  37  62  92 119 152 198 254 300 346
#     4  11  22  38  61  91 118 160 203 248 295 345
#
# _framework density 19.941991000000002
#
# number of rings (size 3 to 8) (size 9 to 14) (size 15 to 20)
#    0.000    1.000    7.500    1.500    0.000    1.000 
#    0.000    0.625    2.750    1.500    0.000    0.000 
#    0.000    0.000    0.000    0.000    0.000    0.000 
#
# Total GULP energy -89227.811167 kJ/mol
# GULP energy per Si atom -5576.738198 kJ/mol
# Density = 1.989660 g / cm^3
# Si number density = 19.941991 Si / 1000 Ang^3
#
#
#
# Elastic Constant Matrix: (Units=GPa)
#
#
# Indices 1 2 3 4 5 6 
#
# 1 106.2997 12.4124 27.1074 -3.2915 1.3951 20.9711
# 2 12.4124 30.2017 23.3943 2.2652 -1.0882 10.8035
# 3 27.1074 23.3943 101.5651 2.4875 2.6359 12.3794
# 4 -3.2915 2.2652 2.4875 17.5503 4.4136 5.0680
# 5 1.3951 -1.0882 2.6359 4.4136 45.8669 -0.2695
# 6 20.9711 10.8035 12.3794 5.0680 -0.2695 20.2394
#
#
#
# Elastic Compliance Matrix: (Units=1/GPa)
#
#
# Indices 1 2 3 4 5 6 
#
# 1 0.012881 0.000840 -0.002031 0.006983 -0.001011 -0.014314
# 2 0.000840 0.046807 -0.008521 0.001012 0.001354 -0.020879
# 3 -0.002031 -0.008521 0.012489 -0.000605 -0.000805 -0.000845
# 4 0.006983 0.001012 -0.000605 0.066943 -0.006738 -0.024258
# 5 -0.001011 0.001354 -0.000805 -0.006738 0.022576 0.002805
# 6 -0.014314 -0.020879 -0.000845 -0.024258 0.002805 0.082014
#
#
# Mechanical properties :
#
#
# Convention : Reuss Voigt Hill
#
# Bulk Modulus (GPa) = 18.95619 40.43273 29.69446
# Shear Modulus (GPa) = 17.81135 28.40814 23.10975
#
# Velocity S-wave (km/s) = 2.99182 3.77840 3.40788
# Velocity P-wave (km/s) = 4.63259 6.27330 5.51431
#
# Compressibility (1/GPa) = 0.05275323
#
# Stress axis : x y z
#
# Youngs Moduli (GPa) = 77.63516 21.36415 80.06743
#
# Poissons Ratio (x) = -0.01795 0.16265
# Poissons Ratio (y) = -0.06521 0.68224
# Poissons Ratio (z) = 0.15771 0.18204
#
# Static dielectric constant tensor:
#      x y z
#    x 1.684490 -0.007100 0.004340 
#    y -0.007100 1.736040 -0.054530 
#    z 0.004340 -0.054530 1.840500 
# 
# From -- ./inp_files/390499.got.cif
#   From: 2010.05.17/outbox.cif.g08.bks.cpg/sg2_196_cif.got.tgz:390499.got - 2010.06.03 11:33:40.
