data_PCOD9078375
_publ_section_title
;
Structure prediction by ZEFSAII (Michael W. Deem and Ramdas Pophale) SiO2 
 PCOD9078375
Probable space group: P -1
;
_chemical_formula_sum "Si O2"
_cell_formula_units_Z 16
_cell_length_a 12.652269
_cell_length_b 19.112606
_cell_length_c 8.329278
_cell_angle_alpha 31.428886
_cell_angle_beta 57.892720
_cell_angle_gamma 45.650232
_cell_volume 739.541672
_symmetry_space_group_name_H-M "P -1"
_symmetry_group_IT_number 2
_symmetry_cell_setting 'triclinic'
loop_
_space_group_symop_operation_xyz
x,y,z
-x,-y,-z
loop_
_atom_site_type_symbol
_atom_site_label
_atom_site_fract_x
_atom_site_fract_y
_atom_site_fract_z
Si Si1 0.473058 0.861687 0.244309
Si Si2 0.679479 0.949380 0.288626
Si Si3 0.568301 0.754142 0.875930
Si Si4 0.656116 0.231890 0.184261
Si Si5 0.081823 0.146664 0.295081
Si Si6 0.890938 0.302997 0.833175
Si Si7 0.768947 0.648943 0.218210
Si Si8 0.994125 0.163101 0.669683
O O1 0.424091 0.786760 0.563175
O O2 0.624815 0.729594 0.291591
O O3 0.500000 0.000000 0.000000
O O4 0.335583 0.958943 0.040905
O O5 0.631654 0.822740 0.560691
O O6 0.842964 0.866668 0.387376
O O7 0.558434 0.089270 0.229388
O O8 0.473635 0.692470 0.994093
O O9 0.702851 0.649224 0.095683
O O10 0.794799 0.045135 0.401744
O O11 0.732418 0.329179 0.953530
O O12 0.960691 0.213255 0.409639
O O13 0.166072 0.239923 0.051226
O O14 0.007849 0.178205 0.116190
O O15 0.885884 0.466181 0.532719
O O16 0.914265 0.257032 0.715055
O O17 0.000000 0.000000 0.000000
#
# Coordination Sequence:
#
# PCOD9078375 Si02
#       8
#     2   2   2   2   2   2   2   2
#     4  11  21  36  70  96 122 168 220 278 332 384
#     4  10  18  35  61  97 120 156 223 277 315 379
#     4  10  18  38  66  90 131 162 213 283 323 382
#     4  12  22  42  68 101 125 169 231 278 330 385
#     4  12  23  46  71  96 136 175 230 273 321 410
#     4  12  29  44  63 100 145 179 215 275 335 399
#     4  11  25  46  63  98 137 175 220 276 341 395
#     4  12  24  41  69  99 130 180 223 270 334 390
#
# _framework density 21.635020999999998
#
# number of rings (size 3 to 8) (size 9 to 14) (size 15 to 20)
#    0.000    0.750    6.250    2.250    1.750    1.500 
#    2.250    0.000    0.000    0.000    0.000    0.000 
#    0.000    0.000    0.000    0.000    0.000    0.000 
#
# Total GULP energy -89265.306113 kJ/mol
# GULP energy per Si atom -5579.081632 kJ/mol
# Density = 2.158578 g / cm^3
# Si number density = 21.635021 Si / 1000 Ang^3
#
#
#
# Elastic Constant Matrix: (Units=GPa)
#
#
# Indices 1 2 3 4 5 6 
#
# 1 70.5600 -2.3979 4.2807 13.1908 -11.5567 -4.1150
# 2 -2.3979 59.1963 32.1252 26.9823 3.9861 13.5308
# 3 4.2807 32.1252 53.3696 18.3131 -11.7544 1.8738
# 4 13.1908 26.9823 18.3131 36.3986 4.0370 -2.0463
# 5 -11.5567 3.9861 -11.7544 4.0370 31.9841 6.6110
# 6 -4.1150 13.5308 1.8738 -2.0463 6.6110 22.0982
#
#
#
# Elastic Compliance Matrix: (Units=1/GPa)
#
#
# Indices 1 2 3 4 5 6 
#
# 1 0.017952 0.006531 0.001248 -0.013204 0.008749 -0.004602
# 2 0.006531 0.046852 -0.017515 -0.029875 -0.000215 -0.028688
# 3 0.001248 -0.017515 0.034792 -0.006561 0.015689 0.002706
# 4 -0.013204 -0.029875 -0.006561 0.061087 -0.016763 0.027062
# 5 0.008749 -0.000215 0.015689 -0.016763 0.045373 -0.014695
# 6 -0.004602 -0.028688 0.002706 0.027062 -0.014695 0.068635
#
#
# Mechanical properties :
#
#
# Convention : Reuss Voigt Hill
#
# Bulk Modulus (GPa) = 12.48055 27.90467 20.19261
# Shear Modulus (GPa) = 15.58269 28.03736 21.81003
#
# Velocity S-wave (km/s) = 2.68666 3.60380 3.17849
# Velocity P-wave (km/s) = 3.92497 5.49931 4.77744
#
# Compressibility (1/GPa) = 0.08012470
#
# Stress axis : x y z
#
# Youngs Moduli (GPa) = 55.70532 21.34376 28.74244
#
# Poissons Ratio (x) = -0.13941 -0.03587
# Poissons Ratio (y) = -0.36384 0.50342
# Poissons Ratio (z) = -0.06952 0.37383
#
# Static dielectric constant tensor:
#      x y z
#    x 1.835940 0.057620 0.068640 
#    y 0.057620 1.815810 0.031150 
#    z 0.068640 0.031150 1.796920 
# 
# From -- ./inp_files/262981.got.cif
#   From: 2010.05.17/outbox.cif.g08.bks.cpg/sg2_132_cif.got.tgz:262981.got - 2010.06.03 11:33:40.
