data_PCOD9078391
_publ_section_title
;
Structure prediction by ZEFSAII (Michael W. Deem and Ramdas Pophale) SiO2 
 PCOD9078391
Probable space group: P -1
;
_chemical_formula_sum "Si O2"
_cell_formula_units_Z 16
_cell_length_a 8.402612
_cell_length_b 19.731270
_cell_length_c 13.773945
_cell_angle_alpha 161.394881
_cell_angle_beta 80.246762
_cell_angle_gamma 93.111515
_cell_volume 675.795675
_symmetry_space_group_name_H-M "P -1"
_symmetry_group_IT_number 2
_symmetry_cell_setting 'triclinic'
loop_
_space_group_symop_operation_xyz
x,y,z
-x,-y,-z
loop_
_atom_site_type_symbol
_atom_site_label
_atom_site_fract_x
_atom_site_fract_y
_atom_site_fract_z
Si Si1 0.491992 0.719714 0.169509
Si Si2 0.063129 0.504685 0.863367
Si Si3 0.609867 0.108690 0.231331
Si Si4 0.205177 0.178787 0.796424
Si Si5 0.370116 0.305369 0.673257
Si Si6 0.661804 0.618342 0.494978
Si Si7 0.957884 0.088090 0.234431
Si Si8 0.938596 0.331180 0.210127
O O1 0.646689 0.704614 0.059737
O O2 0.563119 0.786025 0.353001
O O3 0.316966 0.915993 0.426892
O O4 0.451685 0.496472 0.895497
O O5 0.167024 0.426008 0.845493
O O6 0.217553 0.499405 0.766809
O O7 0.996603 0.309218 0.563245
O O8 0.913833 0.737358 0.172231
O O9 0.449130 0.116829 0.327554
O O10 0.532694 0.296595 0.410722
O O11 0.754032 0.141441 0.329734
O O12 0.683442 0.860177 0.841925
O O13 0.077324 0.251385 0.999656
O O14 0.748850 0.460039 0.361086
O O15 0.000000 0.000000 0.000000
O O16 0.050860 0.885559 0.022083
O O17 0.000000 0.500000 0.500000
#
# Coordination Sequence:
#
# PCOD9078391 Si02
#       8
#     2   2   2   2   2   2   2   2
#     4  10  22  42  63  90 121 165 209 252 311 357
#     4  10  21  39  60  92 125 159 207 252 306 371
#     4  10  18  35  62  83 124 161 200 245 309 365
#     4  10  22  41  63  89 125 158 206 259 306 370
#     4  10  22  39  64  90 120 165 210 254 304 364
#     4   9  19  36  58  88 122 162 199 248 312 371
#     4  12  21  36  60  90 127 166 201 248 312 376
#     4  11  21  38  62  95 124 162 205 255 316 373
#
# _framework density 23.675796999999999
#
# number of rings (size 3 to 8) (size 9 to 14) (size 15 to 20)
#    0.000    1.750    2.500    2.250    0.000    2.000 
#    0.000    9.375    0.000    0.000    0.000    0.875 
#    0.000    0.000    0.000    0.000    0.000    0.000 
#
# Total GULP energy -89351.226815 kJ/mol
# GULP energy per Si atom -5584.451676 kJ/mol
# Density = 2.362191 g / cm^3
# Si number density = 23.675797 Si / 1000 Ang^3
#
#
#
# Elastic Constant Matrix: (Units=GPa)
#
#
# Indices 1 2 3 4 5 6 
#
# 1 55.2803 19.1918 26.6032 9.6391 -26.1614 -26.5279
# 2 19.1918 115.6317 35.6626 26.6817 -20.0316 -28.6699
# 3 26.6032 35.6626 82.3152 26.1344 -34.0752 -13.4128
# 4 9.6391 26.6817 26.1344 39.4575 -13.8791 -17.3935
# 5 -26.1614 -20.0316 -34.0752 -13.8791 46.0780 9.2199
# 6 -26.5279 -28.6699 -13.4128 -17.3935 9.2199 47.4253
#
#
#
# Elastic Compliance Matrix: (Units=1/GPa)
#
#
# Indices 1 2 3 4 5 6 
#
# 1 0.034849 0.001255 -0.004792 0.007407 0.015289 0.018641
# 2 0.001255 0.011727 -0.002873 -0.003384 0.001580 0.005431
# 3 -0.004792 -0.002873 0.021293 -0.009173 0.009745 -0.003654
# 4 0.007407 -0.003384 -0.009173 0.039452 0.005242 0.012953
# 5 0.015289 0.001580 0.009745 0.005242 0.038515 0.006699
# 6 0.018641 0.005431 -0.003654 0.012953 0.006699 0.037211
#
#
# Mechanical properties :
#
#
# Convention : Reuss Voigt Hill
#
# Bulk Modulus (GPa) = 18.16514 46.23804 32.20159
# Shear Modulus (GPa) = 23.34095 38.04346 30.69220
#
# Velocity S-wave (km/s) = 3.14324 4.01290 3.60440
# Velocity P-wave (km/s) = 4.56754 6.40650 5.56353
#
# Compressibility (1/GPa) = 0.05505048
#
# Stress axis : x y z
#
# Youngs Moduli (GPa) = 28.69483 85.27396 46.96481
#
# Poissons Ratio (x) = -0.10704 0.22504
# Poissons Ratio (y) = -0.03602 0.13492
# Poissons Ratio (z) = 0.13749 0.24498
#
# Static dielectric constant tensor:
#      x y z
#    x 2.002800 0.013640 -0.019080 
#    y 0.013640 1.962380 -0.022070 
#    z -0.019080 -0.022070 1.907270 
# 
# From -- ./inp_files/347663.got.cif
#   From: 2010.05.17/outbox.cif.g08.bks.cpg/sg2_174_cif.got.tgz:347663.got - 2010.06.03 11:33:40.
