data_PCOD9078993
_publ_section_title
;
Structure prediction by ZEFSAII (Michael W. Deem and Ramdas Pophale) SiO2 
 PCOD9078993
Probable space group: P -1
;
_chemical_formula_sum "Si O2"
_cell_formula_units_Z 16
_cell_length_a 18.961456
_cell_length_b 19.379683
_cell_length_c 8.929152
_cell_angle_alpha 137.156684
_cell_angle_beta 49.192699
_cell_angle_gamma 159.313537
_cell_volume 780.958782
_symmetry_space_group_name_H-M "P -1"
_symmetry_group_IT_number 2
_symmetry_cell_setting 'triclinic'
loop_
_space_group_symop_operation_xyz
x,y,z
-x,-y,-z
loop_
_atom_site_type_symbol
_atom_site_label
_atom_site_fract_x
_atom_site_fract_y
_atom_site_fract_z
Si Si1 0.869167 0.389720 0.656929
Si Si2 0.477977 0.583573 0.569464
Si Si3 0.961957 0.228074 0.608186
Si Si4 0.222852 0.651582 0.783305
Si Si5 0.629429 0.055497 0.693651
Si Si6 0.877540 0.835060 0.771304
Si Si7 0.091421 0.993238 0.273286
Si Si8 0.824612 0.567357 0.065287
O O1 0.037769 0.533568 0.780330
O O2 0.000000 0.500000 0.500000
O O3 0.692144 0.146272 0.581759
O O4 0.776391 0.412731 0.817418
O O5 0.500000 0.500000 0.500000
O O6 0.350065 0.432013 0.356624
O O7 0.705802 0.842615 0.659562
O O8 0.348913 0.539573 0.775205
O O9 0.135522 0.457811 0.643095
O O10 0.988890 0.134050 0.407594
O O11 0.006565 0.293000 0.822087
O O12 0.755451 0.077620 0.600196
O O13 0.398600 0.816389 0.678497
O O14 0.300550 0.785803 0.037152
O O15 0.865277 0.916721 0.803379
O O16 0.000000 0.000000 0.000000
O O17 0.000000 0.000000 0.500000
O O18 0.930239 0.748409 0.096413
#
# Coordination Sequence:
#
# PCOD9078993 Si02
#       8
#     2   2   2   2   2   2   2   2
#     4  11  23  39  57  88 129 162 198 257 306 363
#     4   9  19  37  62  86 117 156 208 251 297 371
#     4  10  18  36  61  86 117 152 207 247 303 362
#     4  10  20  37  61  89 115 156 200 258 295 367
#     4  10  20  37  64  86 119 151 208 250 305 358
#     4  10  22  39  59  87 128 157 197 259 313 359
#     4  11  20  37  64  89 120 164 210 251 303 375
#     4  11  20  36  62  89 117 163 210 246 307 369
#
# _framework density 20.487636999999999
#
# number of rings (size 3 to 8) (size 9 to 14) (size 15 to 20)
#    0.000    1.750    6.250    0.750    0.000    5.500 
#    0.000    3.125    0.000    0.000    0.000    0.000 
#    0.000    0.000    0.000    0.000    0.000    0.000 
#
# Total GULP energy -89080.276348 kJ/mol
# GULP energy per Si atom -5567.517272 kJ/mol
# Density = 2.044101 g / cm^3
# Si number density = 20.487637 Si / 1000 Ang^3
#
#
#
# Elastic Constant Matrix: (Units=GPa)
#
#
# Indices 1 2 3 4 5 6 
#
# 1 72.7096 27.0781 20.9317 0.9196 -13.0983 1.8521
# 2 27.0781 107.6416 8.6125 -13.6078 -1.6143 4.1780
# 3 20.9317 8.6125 52.7546 -1.9481 -0.9934 2.6687
# 4 0.9196 -13.6078 -1.9481 17.1106 1.4800 5.4211
# 5 -13.0983 -1.6143 -0.9934 1.4800 36.9035 1.3950
# 6 1.8521 4.1780 2.6687 5.4211 1.3950 34.2259
#
#
#
# Elastic Compliance Matrix: (Units=1/GPa)
#
#
# Indices 1 2 3 4 5 6 
#
# 1 0.018788 -0.004949 -0.006812 -0.006566 0.006498 0.000894
# 2 -0.004949 0.011958 0.000531 0.010887 -0.001546 -0.002895
# 3 -0.006812 0.000531 0.021785 0.004053 -0.001897 -0.001960
# 4 -0.006566 0.010887 0.004053 0.072258 -0.004168 -0.012565
# 5 0.006498 -0.001546 -0.001897 -0.004168 0.029474 -0.000556
# 6 0.000894 -0.002895 -0.001960 -0.012565 -0.000556 0.031688
#
#
# Mechanical properties :
#
#
# Convention : Reuss Voigt Hill
#
# Bulk Modulus (GPa) = 33.25451 38.48336 35.86894
# Shear Modulus (GPa) = 22.89010 29.41355 26.15183
#
# Velocity S-wave (km/s) = 3.34618 3.79314 3.57665
# Velocity P-wave (km/s) = 5.58533 6.16509 5.88236
#
# Compressibility (1/GPa) = 0.03007111
#
# Stress axis : x y z
#
# Youngs Moduli (GPa) = 53.22463 83.62600 45.90304
#
# Poissons Ratio (x) = 0.41383 0.31270
# Poissons Ratio (y) = 0.26339 -0.02436
# Poissons Ratio (z) = 0.36257 -0.04438
#
# Static dielectric constant tensor:
#      x y z
#    x 1.750960 -0.024580 0.029390 
#    y -0.024580 1.812860 0.017840 
#    z 0.029390 0.017840 1.764770 
# 
# From -- ./inp_files/349721.got.cif
#   From: 2010.05.17/outbox.cif.g08.bks.cpg/sg2_175_cif.got.tgz:349721.got - 2010.06.03 11:33:40.
