data_PCOD9078002
_publ_section_title
;
Structure prediction by ZEFSAII (Michael W. Deem and Ramdas Pophale) SiO2 
 PCOD9078002
Probable space group: P -1
;
_chemical_formula_sum "Si O2"
_cell_formula_units_Z 16
_cell_length_a 8.631819
_cell_length_b 13.601341
_cell_length_c 13.095110
_cell_angle_alpha 150.016609
_cell_angle_beta 118.922881
_cell_angle_gamma 52.858256
_cell_volume 609.470485
_symmetry_space_group_name_H-M "P -1"
_symmetry_group_IT_number 2
_symmetry_cell_setting 'triclinic'
loop_
_space_group_symop_operation_xyz
x,y,z
-x,-y,-z
loop_
_atom_site_type_symbol
_atom_site_label
_atom_site_fract_x
_atom_site_fract_y
_atom_site_fract_z
Si Si1 0.119660 0.052187 0.826474
Si Si2 0.090367 0.076827 0.505295
Si Si3 0.701943 0.173071 0.836825
Si Si4 0.457974 0.504160 0.209098
Si Si5 0.885525 0.534798 0.620297
Si Si6 0.691567 0.760446 0.570240
Si Si7 0.634795 0.303499 0.291663
Si Si8 0.095483 0.473510 0.143567
O O1 0.917585 0.156554 0.919048
O O2 0.306980 0.924090 0.838668
O O3 0.109397 0.237531 0.911367
O O4 0.083556 0.871256 0.587095
O O5 0.103845 0.305976 0.726592
O O6 0.268693 0.892843 0.333928
O O7 0.000000 0.000000 0.500000
O O8 0.666252 0.982418 0.709989
O O9 0.549532 0.397916 0.035496
O O10 0.509252 0.702145 0.438197
O O11 0.556203 0.331319 0.177633
O O12 0.237878 0.534212 0.173954
O O13 0.757035 0.735913 0.687692
O O14 0.829821 0.345671 0.388341
O O15 0.839497 0.575100 0.760712
O O16 0.118077 0.435721 0.594031
O O17 0.500000 0.500000 0.500000
#
# Coordination Sequence:
#
# PCOD9078002 Si02
#       8
#     2   2   2   2   2   2   2   2
#     4  10  23  38  66  89 124 162 218 251 303 379
#     4  10  23  46  70  88 116 162 213 268 321 371
#     4  10  22  41  58  96 118 159 212 253 309 373
#     4  11  25  34  61  94 135 165 199 255 301 365
#     4  10  18  35  57  83 120 175 205 237 288 368
#     4  10  20  36  58  83 130 171 203 239 303 358
#     4  11  19  37  58  89 132 173 206 241 301 362
#     4  12  22  41  62  94 129 162 211 257 305 372
#
# _framework density 26.252298
#
# number of rings (size 3 to 8) (size 9 to 14) (size 15 to 20)
#    0.750    0.750    5.000    0.750    1.750    4.500 
#    0.000    0.625    0.000    1.500    0.000    0.000 
#    0.000    0.000    0.000    0.000    0.000    0.000 
#
# Total GULP energy -89338.260376 kJ/mol
# GULP energy per Si atom -5583.641274 kJ/mol
# Density = 2.619255 g / cm^3
# Si number density = 26.252298 Si / 1000 Ang^3
#
#
#
# Elastic Constant Matrix: (Units=GPa)
#
#
# Indices 1 2 3 4 5 6 
#
# 1 100.1406 1.3562 25.9462 7.5704 -7.1862 13.7985
# 2 1.3562 89.6995 28.0024 1.2024 -7.6087 27.8776
# 3 25.9462 28.0024 91.9386 14.7098 -6.0813 6.0071
# 4 7.5704 1.2024 14.7098 38.8373 12.5622 0.9478
# 5 -7.1862 -7.6087 -6.0813 12.5622 42.5506 -3.3613
# 6 13.7985 27.8776 6.0071 0.9478 -3.3613 32.6350
#
#
#
# Elastic Compliance Matrix: (Units=1/GPa)
#
#
# Indices 1 2 3 4 5 6 
#
# 1 0.012104 0.003314 -0.003575 -0.001597 0.002041 -0.007033
# 2 0.003314 0.017655 -0.005319 0.000700 0.001536 -0.015365
# 3 -0.003575 -0.005319 0.014279 -0.005412 0.002386 0.003830
# 4 -0.001597 0.000700 -0.005412 0.031431 -0.010268 -0.000897
# 5 0.002041 0.001536 0.002386 -0.010268 0.027534 0.000520
# 6 -0.007033 -0.015365 0.003830 -0.000897 0.000520 0.046116
#
#
# Mechanical properties :
#
#
# Convention : Reuss Voigt Hill
#
# Bulk Modulus (GPa) = 30.41632 43.59870 37.00751
# Shear Modulus (GPa) = 29.19893 37.90286 33.55089
#
# Velocity S-wave (km/s) = 3.33865 3.80385 3.57882
# Velocity P-wave (km/s) = 5.14523 5.99466 5.58612
#
# Compressibility (1/GPa) = 0.03287709
#
# Stress axis : x y z
#
# Youngs Moduli (GPa) = 82.61943 56.64133 70.03149
#
# Poissons Ratio (x) = -0.18768 0.25036
# Poissons Ratio (y) = -0.27376 0.37249
# Poissons Ratio (z) = 0.29537 0.30127
#
# Static dielectric constant tensor:
#      x y z
#    x 2.105500 0.001270 0.010370 
#    y 0.001270 2.066440 -0.004180 
#    z 0.010370 -0.004180 2.081270 
# 
# From -- ./inp_files/505901.got.cif
#   From: 2010.05.17/outbox.cif.g08.bks.cpg/sg2_253_cif.got.tgz:505901.got - 2010.06.03 11:33:40.
