data_PCOD9078862
_publ_section_title
;
Structure prediction by ZEFSAII (Michael W. Deem and Ramdas Pophale) SiO2 
 PCOD9078862
Probable space group: P -1
;
_chemical_formula_sum "Si O2"
_cell_formula_units_Z 14
_cell_length_a 13.843264
_cell_length_b 9.526559
_cell_length_c 12.050858
_cell_angle_alpha 52.449277
_cell_angle_beta 31.752232
_cell_angle_gamma 56.342120
_cell_volume 660.590032
_symmetry_space_group_name_H-M "P -1"
_symmetry_group_IT_number 2
_symmetry_cell_setting 'triclinic'
loop_
_space_group_symop_operation_xyz
x,y,z
-x,-y,-z
loop_
_atom_site_type_symbol
_atom_site_label
_atom_site_fract_x
_atom_site_fract_y
_atom_site_fract_z
Si Si1 0.065462 0.946218 0.110707
Si Si2 0.350595 0.069868 0.447333
Si Si3 0.446187 0.526469 0.411147
Si Si4 0.621630 0.231958 0.256440
Si Si5 0.164924 0.072781 0.166432
Si Si6 0.867506 0.661117 0.102231
Si Si7 0.274424 0.919111 0.361546
O O1 0.190648 0.852218 0.940236
O O2 0.045476 0.163640 0.019464
O O3 0.864264 0.882436 0.341550
O O4 0.170009 0.921365 0.139262
O O5 0.472974 0.210388 0.315144
O O6 0.413380 0.891219 0.542774
O O7 0.356344 0.024396 0.333471
O O8 0.500000 0.500000 0.500000
O O9 0.600965 0.429735 0.228102
O O10 0.265505 0.413053 0.641703
O O11 0.378479 0.725130 0.350212
O O12 0.943568 0.105105 0.389640
O O13 0.270287 0.019597 0.200398
O O14 0.230111 0.243762 0.956924
O O15 0.000000 0.500000 0.000000
#
# Coordination Sequence:
#
# PCOD9078862 Si02
#       7
#     2   2   2   2   2   2   2
#     4   9  20  37  59  88 119 156 199 243 302 353
#     4  10  19  36  59  85 118 157 199 244 298 354
#     4  12  23  36  56  89 123 149 198 256 295 344
#     4  11  22  35  56  90 120 158 198 245 300 359
#     4   8  19  35  63  87 114 158 201 241 298 362
#     4  10  18  36  59  91 114 142 203 250 283 345
#     4  10  18  38  61  87 118 160 195 246 303 350
#
# _framework density 21.193173999999999
#
# number of rings (size 3 to 8) (size 9 to 14) (size 15 to 20)
#    0.857    1.143    2.857    2.143    0.000    0.000 
#    0.000    3.571    0.000    7.714    0.000    0.000 
#    0.000    0.000    0.000    0.000    0.000    0.000 
#
# Total GULP energy -78102.327242 kJ/mol
# GULP energy per Si atom -5578.737660 kJ/mol
# Density = 2.114494 g / cm^3
# Si number density = 21.193174 Si / 1000 Ang^3
#
#
#
# Elastic Constant Matrix: (Units=GPa)
#
#
# Indices 1 2 3 4 5 6 
#
# 1 172.6446 54.6416 25.5592 8.5253 16.4368 2.6879
# 2 54.6416 105.0140 38.0284 34.6025 14.8162 3.2513
# 3 25.5592 38.0284 50.2998 15.3104 6.8394 8.3854
# 4 8.5253 34.6025 15.3104 35.8484 5.1543 10.3509
# 5 16.4368 14.8162 6.8394 5.1543 32.7632 -4.4024
# 6 2.6879 3.2513 8.3854 10.3509 -4.4024 28.6252
#
#
#
# Elastic Compliance Matrix: (Units=1/GPa)
#
#
# Indices 1 2 3 4 5 6 
#
# 1 0.007363 -0.004263 -0.001035 0.003591 -0.002324 -0.001560
# 2 -0.004263 0.020560 -0.009185 -0.016518 -0.001776 0.006455
# 3 -0.001035 -0.009185 0.029165 -0.000869 -0.002278 -0.007440
# 4 0.003591 -0.016518 -0.000869 0.048676 -0.004015 -0.016425
# 5 -0.002324 -0.001776 -0.002278 -0.004015 0.034656 0.007869
# 6 -0.001560 0.006455 -0.007440 -0.016425 0.007869 0.043677
#
#
# Mechanical properties :
#
#
# Convention : Reuss Voigt Hill
#
# Bulk Modulus (GPa) = 35.55948 62.71298 49.13623
# Shear Modulus (GPa) = 22.47825 33.42931 27.95378
#
# Velocity S-wave (km/s) = 3.26027 3.97591 3.63574
# Velocity P-wave (km/s) = 5.56666 7.12268 6.39219
#
# Compressibility (1/GPa) = 0.02812189
#
# Stress axis : x y z
#
# Youngs Moduli (GPa) = 135.81281 48.63768 34.28723
#
# Poissons Ratio (x) = 0.20736 0.03549
# Poissons Ratio (y) = 0.57901 0.31493
# Poissons Ratio (z) = 0.14059 0.44674
#
# Static dielectric constant tensor:
#      x y z
#    x 1.816380 0.016550 -0.031660 
#    y 0.016550 1.739680 -0.000410 
#    z -0.031660 -0.000410 1.853090 
# 
# From -- ./inp_files/416758.got.cif
#   From: 2010.05.17/outbox.cif.g08.bks.cpg/sg2_209_cif.got.tgz:416758.got - 2010.06.03 11:33:40.
