data_PCOD9078592
_publ_section_title
;
Structure prediction by ZEFSAII (Michael W. Deem and Ramdas Pophale) SiO2 
 PCOD9078592
Probable space group: P -1
;
_chemical_formula_sum "Si O2"
_cell_formula_units_Z 16
_cell_length_a 14.352967
_cell_length_b 10.993534
_cell_length_c 15.014626
_cell_angle_alpha 127.963965
_cell_angle_beta 33.026593
_cell_angle_gamma 150.341959
_cell_volume 579.698339
_symmetry_space_group_name_H-M "P -1"
_symmetry_group_IT_number 2
_symmetry_cell_setting 'triclinic'
loop_
_space_group_symop_operation_xyz
x,y,z
-x,-y,-z
loop_
_atom_site_type_symbol
_atom_site_label
_atom_site_fract_x
_atom_site_fract_y
_atom_site_fract_z
Si Si1 0.507398 0.139141 0.198439
Si Si2 0.161175 0.436784 0.243758
Si Si3 0.149550 0.110016 0.695096
Si Si4 0.342307 0.718208 0.054415
Si Si5 0.564094 0.174248 0.646630
Si Si6 0.929668 0.873808 0.593255
Si Si7 0.294735 0.244488 0.816050
Si Si8 0.739452 0.368245 0.296646
O O1 0.739709 0.372885 0.191034
O O2 0.528175 0.974863 0.082173
O O3 0.527877 0.227616 0.122435
O O4 0.190011 0.934278 0.411727
O O5 0.263556 0.523639 0.098320
O O6 0.396759 0.677411 0.235618
O O7 0.883313 0.347906 0.436918
O O8 0.051985 0.187398 0.248415
O O9 0.168470 0.227080 0.818991
O O10 0.493539 0.311526 0.496287
O O11 0.013076 0.055546 0.686472
O O12 0.048912 0.600295 0.206565
O O13 0.411278 0.152332 0.678419
O O14 0.384133 0.893443 0.697744
O O15 0.607214 0.561592 0.726649
O O16 0.000000 0.000000 0.500000
O O17 0.000000 0.000000 0.000000
#
# Coordination Sequence:
#
# PCOD9078592 Si02
#       8
#     2   2   2   2   2   2   2   2
#     4  10  22  38  56  88 126 164 206 256 313 385
#     4  10  18  35  66  94 122 158 200 260 320 377
#     4  10  22  41  67  91 121 167 211 259 328 375
#     4  11  20  33  58  94 127 158 199 253 330 373
#     4  10  19  36  62  93 125 157 200 259 316 373
#     4  11  25  46  65  85 124 176 218 260 309 380
#     4  12  26  44  65  96 129 165 218 270 308 374
#     4  10  19  35  63  92 123 159 201 262 315 380
#
# _framework density 27.600563000000001
#
# number of rings (size 3 to 8) (size 9 to 14) (size 15 to 20)
#    0.000    1.500    2.500    3.375    0.000    5.000 
#    2.250    0.000    0.000    0.000    0.000    0.000 
#    0.000    0.000    0.000    0.000    0.000    0.000 
#
# Total GULP energy -89590.221078 kJ/mol
# GULP energy per Si atom -5599.388817 kJ/mol
# Density = 2.753774 g / cm^3
# Si number density = 27.600563 Si / 1000 Ang^3
#
#
#
# Elastic Constant Matrix: (Units=GPa)
#
#
# Indices 1 2 3 4 5 6 
#
# 1 136.4036 14.5967 26.6062 -4.2140 40.0750 21.1644
# 2 14.5967 57.9282 18.9291 -13.3684 6.8115 14.0421
# 3 26.6062 18.9291 128.7812 -16.2296 27.5974 12.5505
# 4 -4.2140 -13.3684 -16.2296 30.2150 1.6719 4.4928
# 5 40.0750 6.8115 27.5974 1.6719 44.1939 10.9124
# 6 21.1644 14.0421 12.5505 4.4928 10.9124 54.8085
#
#
#
# Elastic Compliance Matrix: (Units=1/GPa)
#
#
# Indices 1 2 3 4 5 6 
#
# 1 0.010430 -0.000600 0.000400 0.002256 -0.009125 -0.002334
# 2 -0.000600 0.021497 -0.001016 0.009780 -0.001117 -0.005623
# 3 0.000400 -0.001016 0.010023 0.005546 -0.006334 -0.001383
# 4 0.002256 0.009780 0.005546 0.042100 -0.006952 -0.006714
# 5 -0.009125 -0.001117 -0.006334 -0.006952 0.035603 -0.001259
# 6 -0.002334 -0.005623 -0.001383 -0.006714 -0.001259 0.021705
#
#
# Mechanical properties :
#
#
# Convention : Reuss Voigt Hill
#
# Bulk Modulus (GPa) = 25.30424 49.26411 37.28418
# Shear Modulus (GPa) = 31.85517 43.37555 37.61536
#
# Velocity S-wave (km/s) = 3.40096 3.96857 3.69568
# Velocity P-wave (km/s) = 4.96085 6.23595 5.63459
#
# Compressibility (1/GPa) = 0.03951907
#
# Stress axis : x y z
#
# Youngs Moduli (GPa) = 95.87890 46.51791 99.77339
#
# Poissons Ratio (x) = 0.02789 -0.03996
# Poissons Ratio (y) = 0.05749 0.10139
# Poissons Ratio (z) = -0.03840 0.04727
#
# Static dielectric constant tensor:
#      x y z
#    x 2.227360 0.041950 0.009780 
#    y 0.041950 2.175850 0.033860 
#    z 0.009780 0.033860 2.182300 
# 
# From -- ./inp_files/532601.got.cif
#   From: 2010.05.17/outbox.cif.g08.bks.cpg/sg2_267_cif.got.tgz:532601.got - 2010.06.03 11:33:40.
