data_PCOD9078681
_publ_section_title
;
Structure prediction by ZEFSAII (Michael W. Deem and Ramdas Pophale) SiO2 
 PCOD9078681
Probable space group: P -1
;
_chemical_formula_sum "Si O2"
_cell_formula_units_Z 16
_cell_length_a 12.661025
_cell_length_b 8.858671
_cell_length_c 19.000350
_cell_angle_alpha 44.588154
_cell_angle_beta 57.425325
_cell_angle_gamma 34.622544
_cell_volume 843.905555
_symmetry_space_group_name_H-M "P -1"
_symmetry_group_IT_number 2
_symmetry_cell_setting 'triclinic'
loop_
_space_group_symop_operation_xyz
x,y,z
-x,-y,-z
loop_
_atom_site_type_symbol
_atom_site_label
_atom_site_fract_x
_atom_site_fract_y
_atom_site_fract_z
Si Si1 0.959137 0.606363 0.216339
Si Si2 0.034005 0.484299 0.392942
Si Si3 0.320480 0.235722 0.828393
Si Si4 0.680784 0.917061 0.460473
Si Si5 0.202211 0.824848 0.733566
Si Si6 0.727623 0.806730 0.867275
Si Si7 0.902151 0.158433 0.085083
Si Si8 0.187760 0.121787 0.043558
O O1 0.022521 0.479009 0.315282
O O2 0.760304 0.760699 0.214907
O O3 0.107312 0.330975 0.197895
O O4 0.940021 0.888800 0.121141
O O5 0.851580 0.606191 0.453948
O O6 0.221771 0.178134 0.466674
O O7 0.989525 0.791615 0.326052
O O8 0.206211 0.597361 0.767418
O O9 0.535575 0.026897 0.821770
O O10 0.288412 0.106533 0.946676
O O11 0.500000 0.000000 0.500000
O O12 0.651463 0.189896 0.345751
O O13 0.223647 0.742762 0.834982
O O14 0.704992 0.984232 0.885988
O O15 0.793210 0.486734 0.976019
O O16 0.100363 0.004785 0.092101
O O17 0.000000 0.500000 0.000000
#
# Coordination Sequence:
#
# PCOD9078681 Si02
#       8
#     2   2   2   2   2   2   2   2
#     4  11  22  39  55  82 124 152 190 232 284 346
#     4   8  20  39  63  86 110 140 186 243 285 342
#     4  12  22  36  54  85 121 156 193 233 274 333
#     4   9  18  40  66  88 106 136 188 248 289 333
#     4   9  18  37  58  86 111 141 197 231 277 342
#     4  11  22  35  55  82 123 158 193 232 276 325
#     4  10  19  38  56  82 114 159 195 230 277 328
#     4  10  18  36  56  74 114 161 195 234 265 319
#
# _framework density 18.959467
#
# number of rings (size 3 to 8) (size 9 to 14) (size 15 to 20)
#    0.750    1.250    5.000    0.750    0.000    1.500 
#    6.750    0.625    0.000    1.500    0.000    0.000 
#    0.000    0.000    0.000    0.000    0.000    0.000 
#
# Total GULP energy -89075.120954 kJ/mol
# GULP energy per Si atom -5567.195060 kJ/mol
# Density = 1.891631 g / cm^3
# Si number density = 18.959467 Si / 1000 Ang^3
#
#
#
# Elastic Constant Matrix: (Units=GPa)
#
#
# Indices 1 2 3 4 5 6 
#
# 1 123.2475 29.3039 37.1987 -0.7154 -3.6387 -11.2198
# 2 29.3039 26.3764 15.0418 0.4011 0.8433 -5.7340
# 3 37.1987 15.0418 87.8308 9.6857 9.2014 -5.0792
# 4 -0.7154 0.4011 9.6857 4.5222 -0.2476 -0.1027
# 5 -3.6387 0.8433 9.2014 -0.2476 26.9762 -1.0527
# 6 -11.2198 -5.7340 -5.0792 -0.1027 -1.0527 30.5905
#
#
#
# Elastic Compliance Matrix: (Units=1/GPa)
#
#
# Indices 1 2 3 4 5 6 
#
# 1 0.012778 -0.010998 -0.005518 0.015086 0.004162 0.001903
# 2 -0.010998 0.053809 -0.004438 0.003036 -0.001418 0.005277
# 3 -0.005518 -0.004438 0.020180 -0.044133 -0.007891 0.000075
# 4 0.015086 0.003036 -0.044133 0.318877 0.019941 0.000531
# 5 0.004162 -0.001418 -0.007891 0.019941 0.040605 0.001415
# 6 0.001903 0.005277 0.000075 0.000531 0.001415 0.034440
#
#
# Mechanical properties :
#
#
# Convention : Reuss Voigt Hill
#
# Bulk Modulus (GPa) = 22.29238 44.50486 33.39862
# Shear Modulus (GPa) = 9.30145 22.81179 16.05662
#
# Velocity S-wave (km/s) = 2.21734 3.47246 2.91330
# Velocity P-wave (km/s) = 4.28240 6.29301 5.38242
#
# Compressibility (1/GPa) = 0.04485837
#
# Stress axis : x y z
#
# Youngs Moduli (GPa) = 78.26077 18.58433 49.55281
#
# Poissons Ratio (x) = 0.20439 0.27343
# Poissons Ratio (y) = 0.86072 0.21993
# Poissons Ratio (z) = 0.43184 0.08248
#
# Static dielectric constant tensor:
#      x y z
#    x 1.687140 0.002420 0.004530 
#    y 0.002420 1.680110 0.009540 
#    z 0.004530 0.009540 1.698390 
# 
# From -- ./inp_files/565184.got.cif
#   From: 2010.05.17/outbox.cif.g08.bks.cpg/sg2_283_cif.got.tgz:565184.got - 2010.06.03 11:33:40.
