data_PCOD9078507
_publ_section_title
;
Structure prediction by ZEFSAII (Michael W. Deem and Ramdas Pophale) SiO2 
 PCOD9078507
Probable space group: P -1
;
_chemical_formula_sum "Si O2"
_cell_formula_units_Z 16
_cell_length_a 10.542183
_cell_length_b 10.304069
_cell_length_c 9.155644
_cell_angle_alpha 137.251213
_cell_angle_beta 84.416410
_cell_angle_gamma 111.670917
_cell_volume 603.069761
_symmetry_space_group_name_H-M "P -1"
_symmetry_group_IT_number 2
_symmetry_cell_setting 'triclinic'
loop_
_space_group_symop_operation_xyz
x,y,z
-x,-y,-z
loop_
_atom_site_type_symbol
_atom_site_label
_atom_site_fract_x
_atom_site_fract_y
_atom_site_fract_z
Si Si1 0.487359 0.202832 0.096147
Si Si2 0.202961 0.539032 0.661156
Si Si3 0.028265 0.906703 0.675612
Si Si4 0.761936 0.418508 0.642246
Si Si5 0.483461 0.034839 0.362605
Si Si6 0.812275 0.246302 0.785142
Si Si7 0.124454 0.313175 0.882538
Si Si8 0.817243 0.031346 0.990920
O O1 0.633015 0.407523 0.282584
O O2 0.336855 0.171878 0.147899
O O3 0.500000 0.000000 0.000000
O O4 0.477372 0.128639 0.868405
O O5 0.081752 0.323678 0.560491
O O6 0.174042 0.518760 0.472454
O O7 0.189442 0.752575 0.881837
O O8 0.921395 0.980984 0.835996
O O9 0.111213 0.076880 0.679091
O O10 0.129065 0.911536 0.800743
O O11 0.594452 0.275517 0.515721
O O12 0.804256 0.273302 0.630454
O O13 0.814767 0.626533 0.908129
O O14 0.500000 0.000000 0.500000
O O15 0.316094 0.963215 0.310652
O O16 0.964846 0.281186 0.848423
O O17 0.786377 0.454066 0.007398
#
# Coordination Sequence:
#
# PCOD9078507 Si02
#       8
#     2   2   2   2   2   2   2   2
#     4  10  21  38  61  96 133 164 214 279 316 384
#     4  11  22  39  63  99 133 167 207 269 335 381
#     4  11  23  38  63  97 131 177 208 264 333 390
#     4   9  16  33  59  91 120 161 212 254 320 377
#     4  10  18  35  63  96 117 169 226 252 322 396
#     4   8  19  34  60  90 120 167 220 261 304 386
#     4   9  19  36  56  90 124 161 224 260 298 386
#     4  10  22  40  59  93 136 166 214 262 326 393
#
# _framework density 26.530926000000001
#
# number of rings (size 3 to 8) (size 9 to 14) (size 15 to 20)
#    0.750    1.500    2.500    1.875    3.500    0.500 
#    0.000    1.250    0.000    3.750    0.000    0.000 
#    0.000    0.000    0.000    0.000    0.000    0.000 
#
# Total GULP energy -89372.176785 kJ/mol
# GULP energy per Si atom -5585.761049 kJ/mol
# Density = 2.647054 g / cm^3
# Si number density = 26.530926 Si / 1000 Ang^3
#
#
#
# Elastic Constant Matrix: (Units=GPa)
#
#
# Indices 1 2 3 4 5 6 
#
# 1 56.8212 16.2996 25.2445 37.0465 34.7187 14.1036
# 2 16.2996 92.3477 31.8125 12.6400 7.0734 6.6726
# 3 25.2445 31.8125 128.3872 5.1836 29.2526 1.9138
# 4 37.0465 12.6400 5.1836 51.2707 12.6406 7.0653
# 5 34.7187 7.0734 29.2526 12.6406 43.3619 8.1161
# 6 14.1036 6.6726 1.9138 7.0653 8.1161 39.3493
#
#
#
# Elastic Compliance Matrix: (Units=1/GPa)
#
#
# Indices 1 2 3 4 5 6 
#
# 1 0.077743 -0.002881 -0.002228 -0.042503 -0.045983 -0.010152
# 2 -0.002881 0.012450 -0.003131 -0.001227 0.002994 -0.001323
# 3 -0.002228 -0.003131 0.010148 0.002518 -0.005572 0.001533
# 4 -0.042503 -0.001227 0.002518 0.045184 0.018735 0.003342
# 5 -0.045983 0.002994 -0.005572 0.018735 0.057497 0.001022
# 6 -0.010152 -0.001323 0.001533 0.003342 0.001022 0.028391
#
#
# Mechanical properties :
#
#
# Convention : Reuss Voigt Hill
#
# Bulk Modulus (GPa) = 11.92465 47.14103 29.53284
# Shear Modulus (GPa) = 18.12602 40.40969 29.26785
#
# Velocity S-wave (km/s) = 2.61665 3.90695 3.32499
# Velocity P-wave (km/s) = 3.69236 6.17731 5.08885
#
# Compressibility (1/GPa) = 0.08385988
#
# Stress axis : x y z
#
# Youngs Moduli (GPa) = 12.86298 80.32089 98.54134
#
# Poissons Ratio (x) = 0.23141 0.21955
# Poissons Ratio (y) = 0.03706 0.30856
# Poissons Ratio (z) = 0.02866 0.25151
#
# Static dielectric constant tensor:
#      x y z
#    x 2.099570 -0.019170 -0.011580 
#    y -0.019170 2.312650 -0.284190 
#    z -0.011580 -0.284190 2.438870 
# 
# From -- ./inp_files/424537.got.cif
#   From: 2010.05.17/outbox.cif.g08.bks.cpg/sg2_213_cif.got.tgz:424537.got - 2010.06.03 11:33:40.
