data_PCOD9078388
_publ_section_title
;
Structure prediction by ZEFSAII (Michael W. Deem and Ramdas Pophale) SiO2 
 PCOD9078388
Probable space group: P -1
;
_chemical_formula_sum "Si O2"
_cell_formula_units_Z 14
_cell_length_a 11.709705
_cell_length_b 9.411938
_cell_length_c 16.368646
_cell_angle_alpha 115.996381
_cell_angle_beta 27.633249
_cell_angle_gamma 125.497353
_cell_volume 667.222558
_symmetry_space_group_name_H-M "P -1"
_symmetry_group_IT_number 2
_symmetry_cell_setting 'triclinic'
loop_
_space_group_symop_operation_xyz
x,y,z
-x,-y,-z
loop_
_atom_site_type_symbol
_atom_site_label
_atom_site_fract_x
_atom_site_fract_y
_atom_site_fract_z
Si Si1 0.335006 0.817683 0.939623
Si Si2 0.121842 0.874312 0.928871
Si Si3 0.314150 0.986919 0.495571
Si Si4 0.938015 0.065282 0.642375
Si Si5 0.527834 0.596296 0.639620
Si Si6 0.027305 0.521671 0.821675
Si Si7 0.345419 0.707151 0.514789
O O1 0.148932 0.867456 0.008173
O O2 0.610391 0.992660 0.834860
O O3 0.431377 0.697452 0.791595
O O4 0.178808 0.681756 0.077286
O O5 0.436969 0.951606 0.713005
O O6 0.965182 0.670625 0.944207
O O7 0.000000 0.000000 0.000000
O O8 0.043679 0.980144 0.624642
O O9 0.434050 0.135383 0.528022
O O10 0.265231 0.801734 0.518191
O O11 0.161383 0.271450 0.553187
O O12 0.000000 0.000000 0.500000
O O13 0.316817 0.551554 0.687057
O O14 0.527953 0.419196 0.627357
O O15 0.090199 0.589252 0.706459
#
# Coordination Sequence:
#
# PCOD9078388 Si02
#       7
#     2   2   2   2   2   2   2
#     4  10  21  36  58  85 117 144 184 241 281 328
#     4  10  19  33  56  85 114 141 188 237 282 317
#     4  10  20  36  57  85 116 146 188 237 278 331
#     4  10  18  38  57  82 116 147 186 234 280 333
#     4  10  18  35  62  82 108 148 200 227 269 335
#     4  10  20  36  52  88 112 145 190 234 278 325
#     4  10  21  35  57  87 111 149 190 234 276 331
#
# _framework density 20.982503000000001
#
# number of rings (size 3 to 8) (size 9 to 14) (size 15 to 20)
#    0.000    2.000    5.714    2.143    4.000    0.000 
#    0.000    5.714    0.000    0.000    0.000    0.000 
#    0.000    0.000    0.000    0.000    0.000    0.000 
#
# Total GULP energy -78173.515744 kJ/mol
# GULP energy per Si atom -5583.822553 kJ/mol
# Density = 2.093475 g / cm^3
# Si number density = 20.982503 Si / 1000 Ang^3
#
#
#
# Elastic Constant Matrix: (Units=GPa)
#
#
# Indices 1 2 3 4 5 6 
#
# 1 71.0607 34.0425 10.3114 -3.7367 -3.6377 -27.0800
# 2 34.0425 111.7419 21.2924 -5.9448 -12.1793 -30.3578
# 3 10.3114 21.2924 65.2482 -19.9578 4.2554 4.3016
# 4 -3.7367 -5.9448 -19.9578 39.7413 -5.5386 -0.6751
# 5 -3.6377 -12.1793 4.2554 -5.5386 30.3433 -2.1306
# 6 -27.0800 -30.3578 4.3016 -0.6751 -2.1306 32.2023
#
#
#
# Elastic Compliance Matrix: (Units=1/GPa)
#
#
# Indices 1 2 3 4 5 6 
#
# 1 0.022786 0.000140 -0.005120 0.000641 0.005050 0.020325
# 2 0.000140 0.015475 -0.006533 0.000488 0.008367 0.016143
# 3 -0.005120 -0.006533 0.022186 0.008654 -0.005724 -0.013625
# 4 0.000641 0.000488 0.008654 0.030303 0.004645 0.000786
# 5 0.005050 0.008367 -0.005724 0.004645 0.039668 0.015621
# 6 0.020325 0.016143 -0.013625 0.000786 0.015621 0.066234
#
#
# Mechanical properties :
#
#
# Convention : Reuss Voigt Hill
#
# Bulk Modulus (GPa) = 26.72259 42.14926 34.43593
# Shear Modulus (GPa) = 21.53786 32.61768 27.07777
#
# Velocity S-wave (km/s) = 3.20733 3.94702 3.59624
# Velocity P-wave (km/s) = 5.14580 6.39557 5.80442
#
# Compressibility (1/GPa) = 0.03742152
#
# Stress axis : x y z
#
# Youngs Moduli (GPa) = 43.88641 64.62112 45.07435
#
# Poissons Ratio (x) = -0.00906 0.23078
# Poissons Ratio (y) = -0.00616 0.29446
# Poissons Ratio (z) = 0.22469 0.42216
#
# Static dielectric constant tensor:
#      x y z
#    x 1.749600 0.018020 0.040270 
#    y 0.018020 1.772600 0.009670 
#    z 0.040270 0.009670 1.817040 
# 
# From -- ./inp_files/277866.got.cif
#   From: 2010.05.17/outbox.cif.g08.bks.cpg/sg2_139_cif.got.tgz:277866.got - 2010.06.03 11:33:40.
