data_PCOD9078969
_publ_section_title
;
Structure prediction by ZEFSAII (Michael W. Deem and Ramdas Pophale) SiO2 
 PCOD9078969
Probable space group: P -1
;
_chemical_formula_sum "Si O2"
_cell_formula_units_Z 12
_cell_length_a 7.638671
_cell_length_b 15.376320
_cell_length_c 10.088388
_cell_angle_alpha 144.265932
_cell_angle_beta 118.296252
_cell_angle_gamma 78.096465
_cell_volume 571.437786
_symmetry_space_group_name_H-M "P -1"
_symmetry_group_IT_number 2
_symmetry_cell_setting 'triclinic'
loop_
_space_group_symop_operation_xyz
x,y,z
-x,-y,-z
loop_
_atom_site_type_symbol
_atom_site_label
_atom_site_fract_x
_atom_site_fract_y
_atom_site_fract_z
Si Si1 0.178780 0.120581 0.383877
Si Si2 0.170642 0.218310 0.217369
Si Si3 0.751769 0.554944 0.691529
Si Si4 0.517694 0.000286 0.236327
Si Si5 0.191044 0.162130 0.737092
Si Si6 0.649283 0.221632 0.336848
O O1 0.150835 0.220584 0.371292
O O2 0.390771 0.080973 0.381417
O O3 0.192780 0.197875 0.626922
O O4 0.990817 0.949781 0.099370
O O5 0.137497 0.360555 0.299240
O O6 0.408555 0.220905 0.273913
O O7 0.500000 0.500000 0.500000
O O8 0.788175 0.400010 0.569909
O O9 0.809429 0.693071 0.992552
O O10 0.690373 0.136631 0.379019
O O11 0.608310 0.886359 0.208883
O O12 0.364769 0.890851 0.933198
O O13 0.000000 0.000000 0.500000
#
# Coordination Sequence:
#
# PCOD9078969 Si02
#       6
#     2   2   2   2   2   2
#     4  10  20  32  56  86 113 140 184 231 272 323
#     4   9  17  35  56  80 109 148 182 218 269 334
#     4  10  18  36  61  80 107 148 191 218 265 337
#     4  10  19  34  56  84 111 143 183 228 276 324
#     4  12  21  36  60  82 110 146 191 224 271 330
#     4   9  18  35  60  79 107 151 187 217 269 335
#
# _framework density 20.999661
#
# number of rings (size 3 to 8) (size 9 to 14) (size 15 to 20)
#    0.000    2.000    5.000    0.500    0.000    0.000 
#    0.000    9.167    0.000    0.000    0.000    0.000 
#    0.000    0.000    0.000    0.000    0.000    0.000 
#
# Total GULP energy -66994.953409 kJ/mol
# GULP energy per Si atom -5582.912784 kJ/mol
# Density = 2.095186 g / cm^3
# Si number density = 20.999661 Si / 1000 Ang^3
#
#
#
# Elastic Constant Matrix: (Units=GPa)
#
#
# Indices 1 2 3 4 5 6 
#
# 1 34.7400 14.6158 5.7063 -2.1296 -4.5234 2.3915
# 2 14.6158 162.6916 58.3970 10.5938 -14.8970 27.6310
# 3 5.7063 58.3970 98.1767 4.8222 -16.8028 18.0586
# 4 -2.1296 10.5938 4.8222 38.9181 3.7839 -3.6571
# 5 -4.5234 -14.8970 -16.8028 3.7839 18.6566 -1.6811
# 6 2.3915 27.6310 18.0586 -3.6571 -1.6811 26.8253
#
#
#
# Elastic Compliance Matrix: (Units=1/GPa)
#
#
# Indices 1 2 3 4 5 6 
#
# 1 0.030600 -0.002596 0.000602 0.001780 0.005539 0.000130
# 2 -0.002596 0.009390 -0.003206 -0.003394 0.003994 -0.007495
# 3 0.000602 -0.003206 0.015387 -0.002745 0.011391 -0.006771
# 4 0.001780 -0.003394 -0.002745 0.028810 -0.009828 0.008496
# 5 0.005539 0.003994 0.011391 -0.009828 0.069551 -0.009258
# 6 0.000130 -0.007495 -0.006771 0.008496 -0.009258 0.050123
#
#
# Mechanical properties :
#
#
# Convention : Reuss Voigt Hill
#
# Bulk Modulus (GPa) = 22.23279 50.33851 36.28565
# Shear Modulus (GPa) = 21.80994 31.33928 26.57461
#
# Velocity S-wave (km/s) = 3.22621 3.86731 3.56121
# Velocity P-wave (km/s) = 4.94854 6.63058 5.85033
#
# Compressibility (1/GPa) = 0.04497861
#
# Stress axis : x y z
#
# Youngs Moduli (GPa) = 32.67981 106.49550 64.98881
#
# Poissons Ratio (x) = 0.27647 -0.03914
# Poissons Ratio (y) = 0.08484 0.20832
# Poissons Ratio (z) = -0.01968 0.34137
#
# Static dielectric constant tensor:
#      x y z
#    x 1.805480 -0.013350 0.037820 
#    y -0.013350 1.840310 -0.022470 
#    z 0.037820 -0.022470 1.725840 
# 
# From -- ./inp_files/145468.got.cif
#   From: 2010.05.17/outbox.cif.g08.bks.cpg/sg2_73_cif.got.tgz:145468.got - 2010.06.03 11:33:40.
