data_PCOD9078513
_publ_section_title
;
Structure prediction by ZEFSAII (Michael W. Deem and Ramdas Pophale) SiO2 
 PCOD9078513
Probable space group: P -1
;
_chemical_formula_sum "Si O2"
_cell_formula_units_Z 16
_cell_length_a 10.519954
_cell_length_b 13.962641
_cell_length_c 9.252583
_cell_angle_alpha 85.765853
_cell_angle_beta 45.851480
_cell_angle_gamma 54.867796
_cell_volume 662.242537
_symmetry_space_group_name_H-M "P -1"
_symmetry_group_IT_number 2
_symmetry_cell_setting 'triclinic'
loop_
_space_group_symop_operation_xyz
x,y,z
-x,-y,-z
loop_
_atom_site_type_symbol
_atom_site_label
_atom_site_fract_x
_atom_site_fract_y
_atom_site_fract_z
Si Si1 0.095691 0.373818 0.136280
Si Si2 0.608068 0.568321 0.042150
Si Si3 0.570014 0.084338 0.951991
Si Si4 0.595863 0.557397 0.713100
Si Si5 0.775130 0.813041 0.201128
Si Si6 0.969811 0.139264 0.585985
Si Si7 0.103012 0.870184 0.025180
Si Si8 0.637738 0.876924 0.609738
O O1 0.839140 0.459023 0.424349
O O2 0.900229 0.689960 0.005139
O O3 0.179818 0.451083 0.043471
O O4 0.341022 0.235476 0.047237
O O5 0.568341 0.477083 0.144820
O O6 0.318071 0.729388 0.260497
O O7 0.674933 0.541082 0.820638
O O8 0.838563 0.986471 0.665803
O O9 0.548925 0.106674 0.137466
O O10 0.500000 0.000000 0.000000
O O11 0.401085 0.717840 0.798059
O O12 0.701474 0.801432 0.417611
O O13 0.511969 0.963745 0.325703
O O14 0.947334 0.838338 0.093834
O O15 0.098631 0.193500 0.512084
O O16 0.957037 0.097667 0.759457
O O17 0.000000 0.000000 0.000000
#
# Coordination Sequence:
#
# PCOD9078513 Si02
#       8
#     2   2   2   2   2   2   2   2
#     4  12  23  41  71 107 145 187 233 295 365 428
#     4  10  23  42  71 104 146 186 235 300 355 426
#     4  10  18  35  64 104 136 178 235 293 347 405
#     4  10  23  47  70 102 141 188 243 294 357 427
#     4  10  21  39  63 101 148 184 236 287 358 431
#     4   9  18  38  65 104 135 177 241 289 343 411
#     4  10  23  45  70  97 138 195 237 293 360 425
#     4   9  18  36  62  95 146 190 222 293 354 407
#
# _framework density 24.160332
#
# number of rings (size 3 to 8) (size 9 to 14) (size 15 to 20)
#    0.000    2.000    2.500    1.875    0.000    4.000 
#    2.250    8.125    0.000    0.000    0.000    0.000 
#    0.000    0.000    0.000    0.000    0.000    0.000 
#
# Total GULP energy -89581.358938 kJ/mol
# GULP energy per Si atom -5598.834934 kJ/mol
# Density = 2.410534 g / cm^3
# Si number density = 24.160332 Si / 1000 Ang^3
#
#
#
# Elastic Constant Matrix: (Units=GPa)
#
#
# Indices 1 2 3 4 5 6 
#
# 1 120.0914 50.1209 79.6939 -6.2384 21.2801 26.0415
# 2 50.1209 139.0326 70.8792 4.0365 11.5808 0.7519
# 3 79.6939 70.8792 226.9437 2.5699 43.6024 7.4911
# 4 -6.2384 4.0365 2.5699 36.9575 4.7804 -5.1889
# 5 21.2801 11.5808 43.6024 4.7804 42.1624 -5.0790
# 6 26.0415 0.7519 7.4911 -5.1889 -5.0790 35.6854
#
#
#
# Elastic Compliance Matrix: (Units=1/GPa)
#
#
# Indices 1 2 3 4 5 6 
#
# 1 0.015080 -0.003556 -0.002849 0.002302 -0.005243 -0.010743
# 2 -0.003556 0.009432 -0.002150 -0.001319 0.001930 0.002930
# 3 -0.002849 -0.002150 0.007108 -0.000070 -0.005331 -0.000137
# 4 0.002302 -0.001319 -0.000070 0.028350 -0.003706 0.001958
# 5 -0.005243 0.001930 -0.005331 -0.003706 0.032856 0.009042
# 6 -0.010743 0.002930 -0.000137 0.001958 0.009042 0.037401
#
#
# Mechanical properties :
#
#
# Convention : Reuss Voigt Hill
#
# Bulk Modulus (GPa) = 68.91484 98.60619 83.76051
# Shear Modulus (GPa) = 32.85743 41.98599 37.42171
#
# Velocity S-wave (km/s) = 3.69178 4.17322 3.93986
# Velocity P-wave (km/s) = 6.83800 8.00768 7.44584
#
# Compressibility (1/GPa) = 0.01451066
#
# Stress axis : x y z
#
# Youngs Moduli (GPa) = 66.31306 106.02139 140.69288
#
# Poissons Ratio (x) = 0.37700 0.40084
# Poissons Ratio (y) = 0.23580 0.30244
# Poissons Ratio (z) = 0.18893 0.22791
#
# Static dielectric constant tensor:
#      x y z
#    x 1.990270 0.018110 -0.024870 
#    y 0.018110 1.942260 -0.023170 
#    z -0.024870 -0.023170 1.920030 
# 
# From -- ./inp_files/455601.got.cif
#   From: 2010.05.17/outbox.cif.g08.bks.cpg/sg2_228_cif.got.tgz:455601.got - 2010.06.03 11:33:40.
