data_PCOD9078682
_publ_section_title
;
Structure prediction by ZEFSAII (Michael W. Deem and Ramdas Pophale) SiO2 
 PCOD9078682
Probable space group: P -1
;
_chemical_formula_sum "Si O2"
_cell_formula_units_Z 16
_cell_length_a 11.520819
_cell_length_b 12.990424
_cell_length_c 8.796346
_cell_angle_alpha 98.272219
_cell_angle_beta 141.267082
_cell_angle_gamma 65.809678
_cell_volume 714.850843
_symmetry_space_group_name_H-M "P -1"
_symmetry_group_IT_number 2
_symmetry_cell_setting 'triclinic'
loop_
_space_group_symop_operation_xyz
x,y,z
-x,-y,-z
loop_
_atom_site_type_symbol
_atom_site_label
_atom_site_fract_x
_atom_site_fract_y
_atom_site_fract_z
Si Si1 0.536088 0.641299 0.949657
Si Si2 0.298714 0.224691 0.667325
Si Si3 0.144514 0.327882 0.916984
Si Si4 0.263153 0.943999 0.295329
Si Si5 0.845281 0.403991 0.391481
Si Si6 0.089118 0.943992 0.810156
Si Si7 0.738747 0.816759 0.724876
Si Si8 0.826001 0.896608 0.287490
O O1 0.540419 0.734665 0.094071
O O2 0.648838 0.661871 0.920743
O O3 0.700014 0.514388 0.161415
O O4 0.310323 0.645565 0.716797
O O5 0.293696 0.214658 0.483345
O O6 0.343734 0.101388 0.765797
O O7 0.058797 0.320852 0.495714
O O8 0.150145 0.210620 0.820285
O O9 0.943192 0.431879 0.648131
O O10 0.125325 0.301716 0.065986
O O11 0.124828 0.955759 0.304094
O O12 0.506324 0.880145 0.574938
O O13 0.198723 0.079153 0.206023
O O14 0.222784 0.886517 0.088960
O O15 0.193203 0.003491 0.825119
O O16 0.010697 0.880111 0.594231
#
# Coordination Sequence:
#
# PCOD9078682 Si02
#       8
#     2   2   2   2   2   2   2   2
#     4   9  19  39  63  90 106 140 180 230 286 340
#     4  10  20  36  57  84 116 146 183 231 276 333
#     4  10  20  36  57  84 116 146 183 231 276 333
#     4  10  22  36  54  72 114 159 190 235 271 322
#     4   9  19  39  66  84 112 138 178 232 288 336
#     4  10  18  36  56  76 102 150 198 238 278 310
#     4  11  22  38  49  78 118 153 190 223 279 326
#     4   9  18  32  55  77 104 138 194 233 271 315
#
# _framework density 22.382290999999999
#
# number of rings (size 3 to 8) (size 9 to 14) (size 15 to 20)
#    0.000    2.500    2.500    1.500    0.000    4.000 
#    0.000   10.000    0.000    3.000    0.000    0.000 
#    0.000    0.000    0.000    0.000    0.000    0.000 
#
# Total GULP energy -89085.630460 kJ/mol
# GULP energy per Si atom -5567.851904 kJ/mol
# Density = 2.233135 g / cm^3
# Si number density = 22.382291 Si / 1000 Ang^3
#
#
#
# Elastic Constant Matrix: (Units=GPa)
#
#
# Indices 1 2 3 4 5 6 
#
# 1 111.0814 23.2035 51.1027 -1.5263 3.7209 18.6340
# 2 23.2035 27.2959 2.1259 -0.5145 9.7740 16.6027
# 3 51.1027 2.1259 63.2489 3.0832 10.2065 4.4836
# 4 -1.5263 -0.5145 3.0832 29.5324 5.3250 7.1999
# 5 3.7209 9.7740 10.2065 5.3250 50.2618 4.2950
# 6 18.6340 16.6027 4.4836 7.1999 4.2950 25.6354
#
#
#
# Elastic Compliance Matrix: (Units=1/GPa)
#
#
# Indices 1 2 3 4 5 6 
#
# 1 0.020328 -0.015812 -0.016586 0.002377 0.004954 -0.003132
# 2 -0.015812 0.082345 0.015088 0.012915 -0.015384 -0.045525
# 3 -0.016586 0.015088 0.030097 -0.002109 -0.007498 -0.001131
# 4 0.002377 0.012915 -0.002109 0.040222 -0.004793 -0.020217
# 5 0.004954 -0.015384 -0.007498 -0.004793 0.024126 0.004978
# 6 -0.003132 -0.045525 -0.001131 -0.020217 0.004978 0.075811
#
#
# Mechanical properties :
#
#
# Convention : Reuss Voigt Hill
#
# Bulk Modulus (GPa) = 10.18854 39.38784 24.78819
# Shear Modulus (GPa) = 14.69442 29.43219 22.06331
#
# Velocity S-wave (km/s) = 2.56504 3.63020 3.14307
# Velocity P-wave (km/s) = 3.65165 5.93355 4.92654
#
# Compressibility (1/GPa) = 0.09814953
#
# Stress axis : x y z
#
# Youngs Moduli (GPa) = 49.19373 12.14406 33.22583
#
# Poissons Ratio (x) = 0.19203 0.55108
# Poissons Ratio (y) = 0.77787 -0.50132
# Poissons Ratio (z) = 0.81592 -0.18323
#
# Static dielectric constant tensor:
#      x y z
#    x 1.855590 0.006840 0.002200 
#    y 0.006840 1.917320 -0.051880 
#    z 0.002200 -0.051880 1.899990 
# 
# From -- ./inp_files/268204.got.cif
#   From: 2010.05.17/outbox.cif.g08.bks.cpg/sg2_135_cif.got.tgz:268204.got - 2010.06.03 11:33:40.
