data_PCOD9078560
_publ_section_title
;
Structure prediction by ZEFSAII (Michael W. Deem and Ramdas Pophale) SiO2 
 PCOD9078560
Probable space group: P -1
;
_chemical_formula_sum "Si O2"
_cell_formula_units_Z 16
_cell_length_a 8.946141
_cell_length_b 14.937117
_cell_length_c 15.807003
_cell_angle_alpha 137.344174
_cell_angle_beta 32.398194
_cell_angle_gamma 132.787336
_cell_volume 756.915737
_symmetry_space_group_name_H-M "P -1"
_symmetry_group_IT_number 2
_symmetry_cell_setting 'triclinic'
loop_
_space_group_symop_operation_xyz
x,y,z
-x,-y,-z
loop_
_atom_site_type_symbol
_atom_site_label
_atom_site_fract_x
_atom_site_fract_y
_atom_site_fract_z
Si Si1 0.073114 0.338183 0.436256
Si Si2 0.931989 0.080524 0.885094
Si Si3 0.405540 0.500429 0.781325
Si Si4 0.933319 0.622017 0.001074
Si Si5 0.796775 0.447701 0.347937
Si Si6 0.589686 0.762314 0.514479
Si Si7 0.364391 0.908439 0.579753
Si Si8 0.328545 0.121042 0.266104
O O1 0.274059 0.429446 0.337522
O O2 0.024046 0.439898 0.603224
O O3 0.272591 0.241748 0.316281
O O4 0.796829 0.239427 0.471311
O O5 0.848921 0.007442 0.784100
O O6 0.101215 0.225016 0.883962
O O7 0.651278 0.099635 0.083643
O O8 0.117143 0.988849 0.783139
O O9 0.196023 0.601144 0.921633
O O10 0.326521 0.365289 0.666486
O O11 0.334553 0.461654 0.884183
O O12 0.028886 0.576261 0.833613
O O13 0.500000 0.500000 0.500000
O O14 0.698913 0.313970 0.356377
O O15 0.560496 0.876714 0.540193
O O16 0.744936 0.834398 0.573429
O O17 0.500000 0.000000 0.500000
#
# Coordination Sequence:
#
# PCOD9078560 Si02
#       8
#     2   2   2   2   2   2   2   2
#     4  10  19  40  65  88 119 157 209 247 310 361
#     4  10  20  36  61  86 123 157 200 254 299 354
#     4  10  20  31  61  90 120 153 193 262 306 358
#     4  11  18  34  57  96 125 148 197 259 317 343
#     4  11  17  34  65  93 120 154 201 262 299 355
#     4  11  20  39  63  88 120 161 211 239 311 362
#     4  11  26  42  59  84 129 171 200 245 302 373
#     4  10  18  35  65  90 109 160 211 254 290 356
#
# _framework density 21.138418000000001
#
# number of rings (size 3 to 8) (size 9 to 14) (size 15 to 20)
#    0.000    1.500    6.250    0.750    0.000    2.500 
#    0.000    8.125    2.750    2.250    0.000    0.000 
#    0.000    0.000    0.000    0.000    0.000    0.000 
#
# Total GULP energy -89252.501063 kJ/mol
# GULP energy per Si atom -5578.281316 kJ/mol
# Density = 2.109031 g / cm^3
# Si number density = 21.138418 Si / 1000 Ang^3
#
#
#
# Elastic Constant Matrix: (Units=GPa)
#
#
# Indices 1 2 3 4 5 6 
#
# 1 41.5186 25.8029 20.7711 -1.2466 3.4235 -11.4697
# 2 25.8029 98.7284 39.3802 -6.4966 27.3880 -2.0121
# 3 20.7711 39.3802 85.2790 -5.9175 25.5030 -1.0300
# 4 -1.2466 -6.4966 -5.9175 36.6703 -5.7193 5.8652
# 5 3.4235 27.3880 25.5030 -5.7193 31.2360 0.5600
# 6 -11.4697 -2.0121 -1.0300 5.8652 0.5600 28.8932
#
#
#
# Elastic Compliance Matrix: (Units=1/GPa)
#
#
# Indices 1 2 3 4 5 6 
#
# 1 0.036411 -0.008984 -0.007508 -0.002324 0.009342 0.013852
# 2 -0.008984 0.016492 -0.001888 0.000871 -0.011731 -0.002435
# 3 -0.007508 -0.001888 0.018067 0.000826 -0.012078 -0.002401
# 4 -0.002324 0.000871 0.000826 0.029244 0.004294 -0.006852
# 5 0.009342 -0.011731 -0.012078 0.004294 0.051913 0.000583
# 6 0.013852 -0.002435 -0.002401 -0.006852 0.000583 0.041233
#
#
# Mechanical properties :
#
#
# Convention : Reuss Voigt Hill
#
# Bulk Modulus (GPa) = 29.23081 44.15938 36.69510
# Shear Modulus (GPa) = 20.70183 28.66469 24.68326
#
# Velocity S-wave (km/s) = 3.13285 3.68645 3.42087
# Velocity P-wave (km/s) = 5.19082 6.24947 5.74458
#
# Compressibility (1/GPa) = 0.03421048
#
# Stress axis : x y z
#
# Youngs Moduli (GPa) = 27.46399 60.63620 55.34873
#
# Poissons Ratio (x) = 0.54474 0.41555
# Poissons Ratio (y) = 0.24673 0.10452
# Poissons Ratio (z) = 0.20620 0.11450
#
# Static dielectric constant tensor:
#      x y z
#    x 1.809390 0.008770 -0.021330 
#    y 0.008770 1.795960 0.005360 
#    z -0.021330 0.005360 1.789210 
# 
# From -- ./inp_files/504241.got.cif
#   From: 2010.05.17/outbox.cif.g08.bks.cpg/sg2_253_cif.got.tgz:504241.got - 2010.06.03 11:33:40.
