data_PCOD9078254
_publ_section_title
;
Structure prediction by ZEFSAII (Michael W. Deem and Ramdas Pophale) SiO2 
 PCOD9078254
Probable space group: P -1
;
_chemical_formula_sum "Si O2"
_cell_formula_units_Z 16
_cell_length_a 11.742609
_cell_length_b 18.067241
_cell_length_c 9.106605
_cell_angle_alpha 33.230852
_cell_angle_beta 59.769411
_cell_angle_gamma 51.175493
_cell_volume 823.869012
_symmetry_space_group_name_H-M "P -1"
_symmetry_group_IT_number 2
_symmetry_cell_setting 'triclinic'
loop_
_space_group_symop_operation_xyz
x,y,z
-x,-y,-z
loop_
_atom_site_type_symbol
_atom_site_label
_atom_site_fract_x
_atom_site_fract_y
_atom_site_fract_z
Si Si1 0.390116 0.743794 0.392271
Si Si2 0.563601 0.615235 0.224614
Si Si3 0.674990 0.474668 0.981846
Si Si4 0.317134 0.735507 0.941758
Si Si5 0.360996 0.080821 0.565428
Si Si6 0.168652 0.898329 0.035176
Si Si7 0.168669 0.432877 0.042475
Si Si8 0.466388 0.831415 0.477230
O O1 0.519984 0.709669 0.245834
O O2 0.383668 0.609528 0.719443
O O3 0.245268 0.805562 0.284747
O O4 0.406763 0.855731 0.312321
O O5 0.500000 0.500000 0.500000
O O6 0.464355 0.690392 0.021420
O O7 0.730905 0.546037 0.185720
O O8 0.696762 0.383530 0.965792
O O9 0.808789 0.486908 0.958568
O O10 0.566893 0.649528 0.731162
O O11 0.194418 0.793460 0.049679
O O12 0.327579 0.861661 0.621543
O O13 0.252273 0.252137 0.308188
O O14 0.437181 0.091682 0.650345
O O15 0.500000 0.000000 0.500000
O O16 0.262028 0.992567 0.787395
O O17 0.000000 0.000000 0.000000
O O18 0.000000 0.500000 0.000000
#
# Coordination Sequence:
#
# PCOD9078254 Si02
#       8
#     2   2   2   2   2   2   2   2
#     4  10  20  34  60  90 117 148 209 255 294 354
#     4  11  17  32  58  90 114 147 193 248 299 348
#     4  10  19  36  61  94 117 151 200 257 306 356
#     4  10  18  35  60  86 113 156 205 245 290 361
#     4  11  21  43  63  81 123 167 209 240 297 378
#     4  11  25  39  57  88 122 167 200 249 310 357
#     4  11  24  37  60  94 124 161 196 253 314 365
#     4  10  18  36  63  93 111 154 204 259 296 354
#
# _framework density 19.420563000000001
#
# number of rings (size 3 to 8) (size 9 to 14) (size 15 to 20)
#    0.000    1.500    5.000    3.000    1.750    0.500 
#    0.000    5.000    0.000    3.750    0.000    0.000 
#    0.000    0.000    0.000    0.000    0.000    0.000 
#
# Total GULP energy -89071.159042 kJ/mol
# GULP energy per Si atom -5566.947440 kJ/mol
# Density = 1.937636 g / cm^3
# Si number density = 19.420563 Si / 1000 Ang^3
#
#
#
# Elastic Constant Matrix: (Units=GPa)
#
#
# Indices 1 2 3 4 5 6 
#
# 1 128.3887 78.7415 28.2926 8.6821 6.3292 4.7169
# 2 78.7415 134.3051 32.9482 19.3917 12.9692 7.0813
# 3 28.2926 32.9482 69.0506 3.9548 -1.2652 8.0644
# 4 8.6821 19.3917 3.9548 27.4612 10.1462 3.5168
# 5 6.3292 12.9692 -1.2652 10.1462 25.4353 4.1957
# 6 4.7169 7.0813 8.0644 3.5168 4.1957 45.9545
#
#
#
# Elastic Compliance Matrix: (Units=1/GPa)
#
#
# Indices 1 2 3 4 5 6 
#
# 1 0.012402 -0.007005 -0.001823 0.001337 -0.000144 0.000037
# 2 -0.007005 0.013475 -0.003279 -0.005711 -0.003001 -0.000071
# 3 -0.001823 -0.003279 0.017200 -0.000600 0.003651 -0.002613
# 4 0.001337 -0.005711 -0.000600 0.046039 -0.015609 -0.001250
# 5 -0.000144 -0.003001 0.003651 -0.015609 0.047840 -0.003337
# 6 0.000037 -0.000071 -0.002613 -0.001250 -0.003337 0.022627
#
#
# Mechanical properties :
#
#
# Convention : Reuss Voigt Hill
#
# Bulk Modulus (GPa) = 53.01209 67.96768 60.48988
# Shear Modulus (GPa) = 26.30402 32.55434 29.42918
#
# Velocity S-wave (km/s) = 3.68427 4.09868 3.89699
# Velocity P-wave (km/s) = 6.74200 7.58108 7.17382
#
# Compressibility (1/GPa) = 0.01886362
#
# Stress axis : x y z
#
# Youngs Moduli (GPa) = 80.63138 74.20981 58.13910
#
# Poissons Ratio (x) = 0.51985 0.10596
# Poissons Ratio (y) = 0.56483 0.19065
# Poissons Ratio (z) = 0.14696 0.24335
#
# Static dielectric constant tensor:
#      x y z
#    x 1.688970 0.068120 0.000280 
#    y 0.068120 1.832280 -0.001810 
#    z 0.000280 -0.001810 1.807730 
# 
# From -- ./inp_files/277320.got.cif
#   From: 2010.05.17/outbox.cif.g08.bks.cpg/sg2_139_cif.got.tgz:277320.got - 2010.06.03 11:33:40.
