data_PCOD9078257
_publ_section_title
;
Structure prediction by ZEFSAII (Michael W. Deem and Ramdas Pophale) SiO2 
 PCOD9078257
Probable space group: P -1
;
_chemical_formula_sum "Si O2"
_cell_formula_units_Z 16
_cell_length_a 11.919181
_cell_length_b 11.448445
_cell_length_c 9.943161
_cell_angle_alpha 71.651965
_cell_angle_beta 92.507143
_cell_angle_gamma 143.562191
_cell_volume 710.125509
_symmetry_space_group_name_H-M "P -1"
_symmetry_group_IT_number 2
_symmetry_cell_setting 'triclinic'
loop_
_space_group_symop_operation_xyz
x,y,z
-x,-y,-z
loop_
_atom_site_type_symbol
_atom_site_label
_atom_site_fract_x
_atom_site_fract_y
_atom_site_fract_z
Si Si1 0.222106 0.578174 0.754994
Si Si2 0.789279 0.108853 0.012347
Si Si3 0.366033 0.684167 0.029738
Si Si4 0.895679 0.997490 0.390039
Si Si5 0.931347 0.309225 0.243982
Si Si6 0.509295 0.377030 0.367908
Si Si7 0.707741 0.673193 0.855604
Si Si8 0.225031 0.188104 0.894828
O O1 0.181574 0.684581 0.687634
O O2 0.371783 0.642102 0.640281
O O3 0.323901 0.658287 0.878450
O O4 0.994740 0.312575 0.860440
O O5 0.576003 0.940896 0.988649
O O6 0.751419 0.930245 0.100595
O O7 0.835541 0.209928 0.124055
O O8 0.353880 0.524613 0.112820
O O9 0.169147 0.558227 0.142291
O O10 0.651423 0.760853 0.470439
O O11 0.920687 0.165893 0.362769
O O12 0.000000 0.000000 0.500000
O O13 0.045625 0.111365 0.231226
O O14 0.370620 0.292628 0.262975
O O15 0.688322 0.640534 0.273194
O O16 0.668820 0.675449 0.006605
O O17 0.000000 0.000000 0.000000
#
# Coordination Sequence:
#
# PCOD9078257 Si02
#       8
#     2   2   2   2   2   2   2   2
#     4  11  22  36  56  88 124 154 197 241 290 356
#     4  11  21  34  61  93 119 155 195 244 296 344
#     4  10  18  35  60  86 122 155 190 245 295 343
#     4   9  21  40  63  82 113 158 203 237 297 351
#     4  10  23  40  56  85 121 156 201 242 285 356
#     4  11  20  35  59  87 115 157 194 237 299 344
#     4  10  19  36  58  87 117 151 193 245 293 346
#     4  12  19  32  58  91 122 141 191 251 297 340
#
# _framework density 22.531227000000001
#
# number of rings (size 3 to 8) (size 9 to 14) (size 15 to 20)
#    0.000    1.500    3.750    4.125    0.000    2.500 
#    0.000    2.500    0.000    0.000    0.000    7.875 
#    0.000    0.000    0.000    0.000    0.000    0.000 
#
# Total GULP energy -89221.890493 kJ/mol
# GULP energy per Si atom -5576.368156 kJ/mol
# Density = 2.247995 g / cm^3
# Si number density = 22.531227 Si / 1000 Ang^3
#
#
#
# Elastic Constant Matrix: (Units=GPa)
#
#
# Indices 1 2 3 4 5 6 
#
# 1 164.3378 32.1076 41.7398 -10.6057 -19.1734 -15.9406
# 2 32.1076 110.8611 12.4172 -16.9569 -8.2051 27.7506
# 3 41.7398 12.4172 67.9133 -13.1711 -15.1228 -5.4924
# 4 -10.6057 -16.9569 -13.1711 30.4125 3.3440 -6.6787
# 5 -19.1734 -8.2051 -15.1228 3.3440 42.1963 -4.9547
# 6 -15.9406 27.7506 -5.4924 -6.6787 -4.9547 35.8694
#
#
#
# Elastic Compliance Matrix: (Units=1/GPa)
#
#
# Indices 1 2 3 4 5 6 
#
# 1 0.008607 -0.003415 -0.003389 0.000749 0.002732 0.006465
# 2 -0.003415 0.013457 -0.000797 0.003533 -0.000852 -0.011511
# 3 -0.003389 -0.000797 0.019918 0.007348 0.005362 0.004269
# 4 0.000749 0.003533 0.007348 0.039530 0.001263 0.006259
# 5 0.002732 -0.000852 0.005362 0.001263 0.027384 0.006712
# 6 0.006465 -0.011511 0.004269 0.006259 0.006712 0.042404
#
#
# Mechanical properties :
#
#
# Convention : Reuss Voigt Hill
#
# Bulk Modulus (GPa) = 37.34145 57.29348 47.31747
# Shear Modulus (GPa) = 28.50154 38.81881 33.66018
#
# Velocity S-wave (km/s) = 3.56051 4.15527 3.86934
# Velocity P-wave (km/s) = 5.78897 6.96458 6.40381
#
# Compressibility (1/GPa) = 0.02677989
#
# Stress axis : x y z
#
# Youngs Moduli (GPa) = 116.18256 74.30943 50.20646
#
# Poissons Ratio (x) = 0.25374 0.17016
# Poissons Ratio (y) = 0.39672 0.04003
# Poissons Ratio (z) = 0.39376 0.05925
#
# Static dielectric constant tensor:
#      x y z
#    x 1.936390 0.095360 0.000190 
#    y 0.095360 1.985830 -0.046540 
#    z 0.000190 -0.046540 1.845140 
# 
# From -- ./inp_files/423468.got.cif
#   From: 2010.05.17/outbox.cif.g08.bks.cpg/sg2_212_cif.got.tgz:423468.got - 2010.06.03 11:33:40.
