data_PCOD9078634
_publ_section_title
;
Structure prediction by ZEFSAII (Michael W. Deem and Ramdas Pophale) SiO2 
 PCOD9078634
Probable space group: P -1
;
_chemical_formula_sum "Si O2"
_cell_formula_units_Z 16
_cell_length_a 18.634250
_cell_length_b 18.105675
_cell_length_c 12.067220
_cell_angle_alpha 134.590822
_cell_angle_beta 36.005149
_cell_angle_gamma 157.877895
_cell_volume 880.414577
_symmetry_space_group_name_H-M "P -1"
_symmetry_group_IT_number 2
_symmetry_cell_setting 'triclinic'
loop_
_space_group_symop_operation_xyz
x,y,z
-x,-y,-z
loop_
_atom_site_type_symbol
_atom_site_label
_atom_site_fract_x
_atom_site_fract_y
_atom_site_fract_z
Si Si1 0.208655 0.478279 0.028762
Si Si2 0.068792 0.694820 0.017492
Si Si3 0.460799 0.541675 0.954575
Si Si4 0.311065 0.602399 0.369796
Si Si5 0.008008 0.605928 0.246536
Si Si6 0.391273 0.845294 0.188606
Si Si7 0.254660 0.186875 0.931687
Si Si8 0.755018 0.220269 0.457087
O O1 0.385046 0.523129 0.908921
O O2 0.340602 0.685322 0.086738
O O3 0.115152 0.390132 0.928911
O O4 0.968251 0.316621 0.231503
O O5 0.060296 0.564901 0.865981
O O6 0.333044 0.927990 0.912910
O O7 0.004429 0.658874 0.188922
O O8 0.298163 0.496699 0.190329
O O9 0.715298 0.755573 0.916150
O O10 0.399430 0.379288 0.885433
O O11 0.593818 0.808692 0.259334
O O12 0.228592 0.647211 0.461187
O O13 0.170799 0.483111 0.531619
O O14 0.264811 0.794549 0.182324
O O15 0.262109 0.798525 0.408790
O O16 0.000000 0.000000 0.000000
O O17 0.500000 0.000000 0.500000
#
# Coordination Sequence:
#
# PCOD9078634 Si02
#       8
#     2   2   2   2   2   2   2   2
#     4  11  20  32  51  75 112 136 166 219 258 321
#     4  10  21  33  48  75 108 149 178 206 248 308
#     4   9  20  34  53  77 101 135 169 214 276 304
#     4  10  18  36  52  78 108 140 170 215 263 314
#     4  10  20  35  49  71 110 145 182 209 244 312
#     4  11  18  32  48  72 107 143 173 206 256 308
#     4   9  20  36  53  77 103 132 175 219 268 316
#     4  12  20  30  50  86 112 137 172 206 271 325
#
# _framework density 18.173257
#
# number of rings (size 3 to 8) (size 9 to 14) (size 15 to 20)
#    0.750    1.000    5.000    1.500    1.750    1.000 
#    2.250    0.000    0.000    0.750    0.000    1.750 
#    0.000    0.000    0.000    0.000    0.000    0.000 
#
# Total GULP energy -89114.374180 kJ/mol
# GULP energy per Si atom -5569.648386 kJ/mol
# Density = 1.813189 g / cm^3
# Si number density = 18.173257 Si / 1000 Ang^3
#
#
#
# Elastic Constant Matrix: (Units=GPa)
#
#
# Indices 1 2 3 4 5 6 
#
# 1 120.9522 30.3481 10.3615 -5.3092 19.5149 33.7704
# 2 30.3481 83.9676 3.6153 -14.3279 8.7715 28.9107
# 3 10.3615 3.6153 25.5958 -2.9987 17.9944 3.0727
# 4 -5.3092 -14.3279 -2.9987 19.1520 3.5843 -2.8442
# 5 19.5149 8.7715 17.9944 3.5843 31.8898 0.3828
# 6 33.7704 28.9107 3.0727 -2.8442 0.3828 31.0571
#
#
#
# Elastic Compliance Matrix: (Units=1/GPa)
#
#
# Indices 1 2 3 4 5 6 
#
# 1 0.014957 0.004105 0.007341 0.008244 -0.015112 -0.019870
# 2 0.004105 0.024687 0.014230 0.021515 -0.019430 -0.026643
# 3 0.007341 0.014230 0.081592 0.032467 -0.057788 -0.025616
# 4 0.008244 0.021515 0.032467 0.079131 -0.037883 -0.024491
# 5 -0.015112 -0.019430 -0.057788 -0.037883 0.082387 0.035752
# 6 -0.019870 -0.026643 -0.025616 -0.024491 0.035752 0.078457
#
#
# Mechanical properties :
#
#
# Convention : Reuss Voigt Hill
#
# Bulk Modulus (GPa) = 5.79415 35.46282 20.62849
# Shear Modulus (GPa) = 13.60957 28.83249 21.22103
#
# Velocity S-wave (km/s) = 2.73953 3.98745 3.42088
# Velocity P-wave (km/s) = 3.63345 6.38403 5.19412
#
# Compressibility (1/GPa) = 0.17258777
#
# Stress axis : x y z
#
# Youngs Moduli (GPa) = 66.85965 40.50663 12.25606
#
# Poissons Ratio (x) = -0.16627 -0.08997
# Poissons Ratio (y) = -0.27444 -0.17441
# Poissons Ratio (z) = -0.49079 -0.57642
#
# Static dielectric constant tensor:
#      x y z
#    x 1.682840 0.038700 0.004640 
#    y 0.038700 1.661440 0.000280 
#    z 0.004640 0.000280 1.612410 
# 
# From -- ./inp_files/472590.got.cif
#   From: 2010.05.17/outbox.cif.g08.bks.cpg/sg2_237_cif.got.tgz:472590.got - 2010.06.03 11:33:40.
