data_PCOD9078582
_publ_section_title
;
Structure prediction by ZEFSAII (Michael W. Deem and Ramdas Pophale) SiO2 
 PCOD9078582
Probable space group: P -1
;
_chemical_formula_sum "Si O2"
_cell_formula_units_Z 14
_cell_length_a 7.683316
_cell_length_b 19.456824
_cell_length_c 11.747911
_cell_angle_alpha 136.043210
_cell_angle_beta 54.185196
_cell_angle_gamma 151.655639
_cell_volume 572.482983
_symmetry_space_group_name_H-M "P -1"
_symmetry_group_IT_number 2
_symmetry_cell_setting 'triclinic'
loop_
_space_group_symop_operation_xyz
x,y,z
-x,-y,-z
loop_
_atom_site_type_symbol
_atom_site_label
_atom_site_fract_x
_atom_site_fract_y
_atom_site_fract_z
Si Si1 0.260211 0.130993 0.819333
Si Si2 0.708518 0.109668 0.701320
Si Si3 0.906409 0.178839 0.115711
Si Si4 0.767737 0.849953 0.504886
Si Si5 0.866250 0.269720 0.478982
Si Si6 0.906520 0.643819 0.960919
Si Si7 0.062887 0.547379 0.166889
O O1 0.526269 0.141674 0.766730
O O2 0.489759 0.270699 0.797061
O O3 0.888012 0.944101 0.689267
O O4 0.147997 0.169575 0.000151
O O5 0.081706 0.204822 0.617959
O O6 0.409467 0.910190 0.565827
O O7 0.827548 0.176614 0.864450
O O8 0.954003 0.237453 0.295393
O O9 0.080530 0.325603 0.138977
O O10 0.500000 0.000000 0.000000
O O11 0.349280 0.717961 0.480469
O O12 0.000000 0.000000 0.500000
O O13 0.089294 0.410754 0.662132
O O14 0.042467 0.587130 0.879673
O O15 0.500000 0.500000 0.000000
O O16 0.000000 0.500000 0.000000
#
# Coordination Sequence:
#
# PCOD9078582 Si02
#       7
#     2   2   2   2   2   2   2
#     4  12  22  39  68 103 142 178 234 293 347 415
#     4  11  22  38  70 107 135 184 239 292 347 411
#     4  12  24  45  71 106 143 187 234 293 353 422
#     4  10  18  35  66 100 131 171 238 294 326 406
#     4  11  24  44  69 103 143 183 242 291 345 427
#     4  12  24  42  73 102 139 190 239 285 352 424
#     4  12  25  44  68 100 142 187 233 294 354 418
#
# _framework density 24.454877
#
# number of rings (size 3 to 8) (size 9 to 14) (size 15 to 20)
#    0.000    0.571    8.571    2.143    0.000    1.143 
#    0.000    0.714    0.000    0.000    0.000    0.000 
#    0.000    0.000    0.000    0.000    0.000    0.000 
#
# Total GULP energy -78110.514145 kJ/mol
# GULP energy per Si atom -5579.322439 kJ/mol
# Density = 2.439922 g / cm^3
# Si number density = 24.454877 Si / 1000 Ang^3
#
#
#
# Elastic Constant Matrix: (Units=GPa)
#
#
# Indices 1 2 3 4 5 6 
#
# 1 109.5482 13.7700 46.9681 -5.5994 -31.4248 -5.8942
# 2 13.7700 47.9167 24.4704 0.0554 -3.3790 -8.5506
# 3 46.9681 24.4704 231.7908 -17.9187 -7.2423 -6.4882
# 4 -5.5994 0.0554 -17.9187 43.9159 3.5852 -1.7475
# 5 -31.4248 -3.3790 -7.2423 3.5852 46.0793 2.3856
# 6 -5.8942 -8.5506 -6.4882 -1.7475 2.3856 24.0059
#
#
#
# Elastic Compliance Matrix: (Units=1/GPa)
#
#
# Indices 1 2 3 4 5 6 
#
# 1 0.012631 -0.001803 -0.002074 0.000150 0.008087 0.001106
# 2 -0.001803 0.023723 -0.001995 -0.000768 -0.000128 0.007425
# 3 -0.002074 -0.001995 0.005073 0.001899 -0.000931 0.000382
# 4 0.000150 -0.000768 0.001899 0.023784 -0.001618 0.002169
# 5 0.008087 -0.000128 -0.000931 -0.001618 0.027246 -0.001137
# 6 0.001106 0.007425 0.000382 0.002169 -0.001137 0.044947
#
#
# Mechanical properties :
#
#
# Convention : Reuss Voigt Hill
#
# Bulk Modulus (GPa) = 33.68783 62.18586 47.93685
# Shear Modulus (GPa) = 31.43798 43.07003 37.25401
#
# Velocity S-wave (km/s) = 3.58935 4.20122 3.90728
# Velocity P-wave (km/s) = 5.56626 7.00127 6.32460
#
# Compressibility (1/GPa) = 0.02968431
#
# Stress axis : x y z
#
# Youngs Moduli (GPa) = 79.16879 42.15286 197.10296
#
# Poissons Ratio (x) = 0.07602 0.40876
# Poissons Ratio (y) = 0.14277 0.39314
# Poissons Ratio (z) = 0.16418 0.08408
#
# Static dielectric constant tensor:
#      x y z
#    x 2.016690 0.057470 0.036050 
#    y 0.057470 1.990760 0.024000 
#    z 0.036050 0.024000 2.058710 
# 
# From -- ./inp_files/405557.got.cif
#   From: 2010.05.17/outbox.cif.g08.bks.cpg/sg2_203_cif.got.tgz:405557.got - 2010.06.03 11:33:40.
