data_PCOD9078492
_publ_section_title
;
Structure prediction by ZEFSAII (Michael W. Deem and Ramdas Pophale) SiO2 
 PCOD9078492
Probable space group: P -1
;
_chemical_formula_sum "Si O2"
_cell_formula_units_Z 16
_cell_length_a 10.637990
_cell_length_b 16.847855
_cell_length_c 9.491350
_cell_angle_alpha 35.964230
_cell_angle_beta 121.598846
_cell_angle_gamma 101.974698
_cell_volume 766.986505
_symmetry_space_group_name_H-M "P -1"
_symmetry_group_IT_number 2
_symmetry_cell_setting 'triclinic'
loop_
_space_group_symop_operation_xyz
x,y,z
-x,-y,-z
loop_
_atom_site_type_symbol
_atom_site_label
_atom_site_fract_x
_atom_site_fract_y
_atom_site_fract_z
Si Si1 0.605185 0.126697 0.627852
Si Si2 0.367573 0.307468 0.647276
Si Si3 0.122412 0.361843 0.916522
Si Si4 0.723208 0.157839 0.940662
Si Si5 0.407032 0.434981 0.936913
Si Si6 0.662987 0.873221 0.849741
Si Si7 0.723565 0.842458 0.447675
Si Si8 0.773600 0.423199 0.646382
O O1 0.699868 0.171492 0.738698
O O2 0.456007 0.108764 0.651246
O O3 0.719678 0.975133 0.834324
O O4 0.518759 0.257322 0.275454
O O5 0.548185 0.253987 0.771325
O O6 0.282374 0.241632 0.578834
O O7 0.285579 0.484576 0.376539
O O8 0.374850 0.229640 0.913610
O O9 0.229501 0.455464 0.858153
O O10 0.930492 0.448718 0.654566
O O11 0.210419 0.233424 0.035707
O O12 0.147585 0.275286 0.203183
O O13 0.825592 0.245227 0.929604
O O14 0.760087 0.986294 0.241883
O O15 0.368930 0.503493 0.660478
O O16 0.500000 0.500000 0.000000
O O17 0.500000 0.000000 0.500000
#
# Coordination Sequence:
#
# PCOD9078492 Si02
#       8
#     2   2   2   2   2   2   2   2
#     4  10  18  35  63  92 115 155 212 264 296 357
#     4  11  21  37  64  92 123 165 216 251 308 374
#     4  11  25  41  64  89 132 166 203 257 326 363
#     4  11  20  38  63  92 123 160 215 257 305 363
#     4  11  21  38  63  89 120 165 209 249 308 372
#     4  12  18  35  66  93 115 161 218 257 300 372
#     4  10  20  39  65  88 119 169 208 255 306 367
#     4  12  25  39  61  95 135 165 197 265 320 373
#
# _framework density 20.860862999999998
#
# number of rings (size 3 to 8) (size 9 to 14) (size 15 to 20)
#    0.000    1.000    7.500    1.500    0.000    1.000 
#    0.000    0.625    2.750    0.000    0.000    0.000 
#    0.000    0.000    0.000    0.000    0.000    0.000 
#
# Total GULP energy -89262.510848 kJ/mol
# GULP energy per Si atom -5578.906928 kJ/mol
# Density = 2.081338 g / cm^3
# Si number density = 20.860863 Si / 1000 Ang^3
#
#
#
# Elastic Constant Matrix: (Units=GPa)
#
#
# Indices 1 2 3 4 5 6 
#
# 1 37.1371 35.4024 6.5128 4.6453 0.4513 6.1903
# 2 35.4024 147.3578 31.3547 -11.3934 -1.6079 5.2600
# 3 6.5128 31.3547 69.6292 6.5801 -15.6608 1.5899
# 4 4.6453 -11.3934 6.5801 28.8537 2.8593 -11.6196
# 5 0.4513 -1.6079 -15.6608 2.8593 28.5986 -3.3959
# 6 6.1903 5.2600 1.5899 -11.6196 -3.3959 34.6503
#
#
#
# Elastic Compliance Matrix: (Units=1/GPa)
#
#
# Indices 1 2 3 4 5 6 
#
# 1 0.041216 -0.011477 0.003321 -0.016533 0.000842 -0.011235
# 2 -0.011477 0.011293 -0.005582 0.009229 -0.002758 0.003417
# 3 0.003321 -0.005582 0.020058 -0.009540 0.011244 -0.002764
# 4 -0.016533 0.009229 -0.009540 0.051310 -0.007381 0.018473
# 5 0.000842 -0.002758 0.011244 -0.007381 0.041857 0.001379
# 6 -0.011235 0.003417 -0.002764 0.018473 0.001379 0.036805
#
#
# Mechanical properties :
#
#
# Convention : Reuss Voigt Hill
#
# Bulk Modulus (GPa) = 22.17706 44.51821 33.34764
# Shear Modulus (GPa) = 20.40434 30.47747 25.44091
#
# Velocity S-wave (km/s) = 3.13088 3.82643 3.49600
# Velocity P-wave (km/s) = 4.87072 6.39601 5.68476
#
# Compressibility (1/GPa) = 0.04509164
#
# Stress axis : x y z
#
# Youngs Moduli (GPa) = 24.26237 88.55198 49.85432
#
# Poissons Ratio (x) = 1.01630 -0.16558
# Poissons Ratio (y) = 0.27846 0.27830
# Poissons Ratio (z) = -0.08058 0.49432
#
# Static dielectric constant tensor:
#      x y z
#    x 1.743870 0.044250 -0.046100 
#    y 0.044250 1.817290 -0.016980 
#    z -0.046100 -0.016980 1.793970 
# 
# From -- ./inp_files/271619.got.cif
#   From: 2010.05.17/outbox.cif.g08.bks.cpg/sg2_136_cif.got.tgz:271619.got - 2010.06.03 11:33:40.
