data_PCOD9078755
_publ_section_title
;
Structure prediction by ZEFSAII (Michael W. Deem and Ramdas Pophale) SiO2 
 PCOD9078755
Probable space group: P -1
;
_chemical_formula_sum "Si O2"
_cell_formula_units_Z 16
_cell_length_a 13.402288
_cell_length_b 17.336251
_cell_length_c 8.761782
_cell_angle_alpha 68.188562
_cell_angle_beta 70.765539
_cell_angle_gamma 22.405164
_cell_volume 719.819681
_symmetry_space_group_name_H-M "P -1"
_symmetry_group_IT_number 2
_symmetry_cell_setting 'triclinic'
loop_
_space_group_symop_operation_xyz
x,y,z
-x,-y,-z
loop_
_atom_site_type_symbol
_atom_site_label
_atom_site_fract_x
_atom_site_fract_y
_atom_site_fract_z
Si Si1 0.606289 0.118717 0.888067
Si Si2 0.997612 0.911963 0.635857
Si Si3 0.808374 0.988924 0.372562
Si Si4 0.282945 0.264744 0.469740
Si Si5 0.093119 0.743011 0.113660
Si Si6 0.665793 0.278924 0.142873
Si Si7 0.658049 0.838937 0.172902
Si Si8 0.168412 0.415126 0.115136
O O1 0.443222 0.181244 0.804109
O O2 0.422130 0.271207 0.012479
O O3 0.746680 0.088726 0.743923
O O4 0.858633 0.892809 0.003314
O O5 0.255397 0.721597 0.748219
O O6 0.000000 0.000000 0.500000
O O7 0.959766 0.877852 0.539179
O O8 0.520180 0.160048 0.423452
O O9 0.770272 0.111147 0.241968
O O10 0.967055 0.825627 0.283284
O O11 0.368857 0.134490 0.649159
O O12 0.234396 0.294040 0.290301
O O13 0.000000 0.500000 0.500000
O O14 0.353869 0.503853 0.124994
O O15 0.190737 0.769323 0.023161
O O16 0.967553 0.621953 0.144209
O O17 0.500000 0.000000 0.000000
O O18 0.000000 0.500000 0.000000
#
# Coordination Sequence:
#
# PCOD9078755 Si02
#       8
#     2   2   2   2   2   2   2   2
#     4  10  18  36  58  78 115 152 191 247 302 354
#     4   9  19  35  58  82 113 153 197 243 300 355
#     4  11  19  36  62  82 114 161 198 241 306 368
#     4  10  20  36  60  84 115 156 204 242 302 369
#     4  10  20  35  58  85 119 149 198 251 299 362
#     4   9  21  37  55  87 117 152 197 253 302 356
#     4  10  21  37  58  84 118 154 199 255 303 361
#     4   9  19  36  59  82 111 156 197 244 301 360
#
# _framework density 22.227788
#
# number of rings (size 3 to 8) (size 9 to 14) (size 15 to 20)
#    0.000    2.250    2.500    0.375    0.000    2.500 
#    0.000    5.000    0.000    0.000    0.000    0.000 
#    0.000    0.000    0.000    0.000    0.000    0.000 
#
# Total GULP energy -89072.855289 kJ/mol
# GULP energy per Si atom -5567.053456 kJ/mol
# Density = 2.217720 g / cm^3
# Si number density = 22.227788 Si / 1000 Ang^3
#
#
#
# Elastic Constant Matrix: (Units=GPa)
#
#
# Indices 1 2 3 4 5 6 
#
# 1 31.4465 19.1692 14.1633 3.1088 6.9380 -17.6687
# 2 19.1692 106.3607 43.0751 6.1546 -1.6792 -20.2285
# 3 14.1633 43.0751 171.3863 9.8187 9.2869 -2.9827
# 4 3.1088 6.1546 9.8187 36.4709 -9.8472 -1.2704
# 5 6.9380 -1.6792 9.2869 -9.8472 33.1056 -10.1241
# 6 -17.6687 -20.2285 -2.9827 -1.2704 -10.1241 29.7009
#
#
#
# Elastic Compliance Matrix: (Units=1/GPa)
#
#
# Indices 1 2 3 4 5 6 
#
# 1 0.050762 -0.002785 -0.002718 -0.002891 -0.002616 0.027013
# 2 -0.002785 0.012827 -0.003140 0.000522 0.004851 0.008440
# 3 -0.002718 -0.003140 0.007097 -0.002271 -0.003590 -0.004363
# 4 -0.002891 0.000522 -0.002271 0.031505 0.011795 0.003776
# 5 -0.002616 0.004851 -0.003590 0.011795 0.040295 0.015627
# 6 0.027013 0.008440 -0.004363 0.003776 0.015627 0.060537
#
#
# Mechanical properties :
#
#
# Convention : Reuss Voigt Hill
#
# Bulk Modulus (GPa) = 18.72570 51.33431 35.03001
# Shear Modulus (GPa) = 20.99886 35.37453 28.18670
#
# Velocity S-wave (km/s) = 3.07695 3.99363 3.56488
# Velocity P-wave (km/s) = 4.58980 6.66410 5.72174
#
# Compressibility (1/GPa) = 0.05340254
#
# Stress axis : x y z
#
# Youngs Moduli (GPa) = 19.69974 77.96066 140.90186
#
# Poissons Ratio (x) = 0.21709 0.38292
# Poissons Ratio (y) = 0.05486 0.44238
# Poissons Ratio (z) = 0.05354 0.24477
#
# Static dielectric constant tensor:
#      x y z
#    x 1.895800 0.031990 0.032350 
#    y 0.031990 1.836520 -0.009920 
#    z 0.032350 -0.009920 1.931020 
# 
# From -- ./inp_files/296484.got.cif
#   From: 2010.05.17/outbox.cif.g08.bks.cpg/sg2_149_cif.got.tgz:296484.got - 2010.06.03 11:33:40.
