data_PCOD9078199
_publ_section_title
;
Structure prediction by ZEFSAII (Michael W. Deem and Ramdas Pophale) SiO2 
 PCOD9078199
Probable space group: P -1
;
_chemical_formula_sum "Si O2"
_cell_formula_units_Z 16
_cell_length_a 12.879435
_cell_length_b 9.311603
_cell_length_c 13.736745
_cell_angle_alpha 95.965216
_cell_angle_beta 39.270043
_cell_angle_gamma 123.868065
_cell_volume 677.184414
_symmetry_space_group_name_H-M "P -1"
_symmetry_group_IT_number 2
_symmetry_cell_setting 'triclinic'
loop_
_space_group_symop_operation_xyz
x,y,z
-x,-y,-z
loop_
_atom_site_type_symbol
_atom_site_label
_atom_site_fract_x
_atom_site_fract_y
_atom_site_fract_z
Si Si1 0.760270 0.381182 0.856918
Si Si2 0.997587 0.948363 0.610424
Si Si3 0.618907 0.472523 0.797595
Si Si4 0.962097 0.702897 0.370437
Si Si5 0.706501 0.092998 0.499249
Si Si6 0.510409 0.576956 0.394447
Si Si7 0.737880 0.020536 0.250080
Si Si8 0.295468 0.455515 0.917939
O O1 0.616367 0.337998 0.862352
O O2 0.799926 0.238108 0.810971
O O3 0.042100 0.640358 0.663707
O O4 0.659745 0.379605 0.031493
O O5 0.988273 0.097511 0.677655
O O6 0.216668 0.984529 0.488123
O O7 0.000000 0.000000 0.500000
O O8 0.744884 0.686501 0.782637
O O9 0.822842 0.587714 0.568814
O O10 0.361939 0.359952 0.929995
O O11 0.748522 0.510284 0.437244
O O12 0.671683 0.000003 0.410953
O O13 0.456257 0.024706 0.683130
O O14 0.500000 0.500000 0.500000
O O15 0.524802 0.458234 0.296671
O O16 0.719071 0.835712 0.238084
O O17 0.018671 0.269447 0.061038
#
# Coordination Sequence:
#
# PCOD9078199 Si02
#       8
#     2   2   2   2   2   2   2   2
#     4  10  18  35  59  89 119 149 202 254 296 351
#     4   9  18  34  57  85 120 156 203 242 301 359
#     4   9  19  35  60  87 118 159 198 245 301 358
#     4  10  19  34  58  88 116 154 206 240 300 363
#     4   9  18  33  60  88 114 158 202 249 295 354
#     4  11  22  38  60  86 124 162 202 247 305 364
#     4  10  19  36  62  89 120 153 212 246 291 358
#     4  10  22  37  59  91 122 160 200 248 301 360
#
# _framework density 23.627241999999999
#
# number of rings (size 3 to 8) (size 9 to 14) (size 15 to 20)
#    0.000    2.250    1.250    1.875    0.000    0.000 
#    0.000    1.250    5.500    0.000    0.000    0.000 
#    0.000    0.000    0.000    0.000    0.000    0.000 
#
# Total GULP energy -89259.517998 kJ/mol
# GULP energy per Si atom -5578.719875 kJ/mol
# Density = 2.357347 g / cm^3
# Si number density = 23.627242 Si / 1000 Ang^3
#
#
#
# Elastic Constant Matrix: (Units=GPa)
#
#
# Indices 1 2 3 4 5 6 
#
# 1 165.3697 24.5129 48.7475 13.5654 -17.4861 -18.9142
# 2 24.5129 62.6517 14.2045 10.1102 -5.8908 -22.0917
# 3 48.7475 14.2045 70.4805 14.6063 -16.1113 -13.8068
# 4 13.5654 10.1102 14.6063 33.6024 3.9762 -8.2641
# 5 -17.4861 -5.8908 -16.1113 3.9762 33.7370 2.9285
# 6 -18.9142 -22.0917 -13.8068 -8.2641 2.9285 32.0117
#
#
#
# Elastic Compliance Matrix: (Units=1/GPa)
#
#
# Indices 1 2 3 4 5 6 
#
# 1 0.007955 -0.001278 -0.004379 -0.000744 0.001759 0.001576
# 2 -0.001278 0.021875 0.000354 -0.003217 0.002539 0.013431
# 3 -0.004379 0.000354 0.021525 -0.007690 0.008616 0.004167
# 4 -0.000744 -0.003217 -0.007690 0.036530 -0.009299 0.004305
# 5 0.001759 0.002539 0.008616 -0.009299 0.036137 0.000802
# 6 0.001576 0.013431 0.004167 0.004305 0.000802 0.044274
#
#
# Mechanical properties :
#
#
# Convention : Reuss Voigt Hill
#
# Bulk Modulus (GPa) = 24.54153 52.60354 38.57253
# Shear Modulus (GPa) = 25.97590 33.93936 29.95763
#
# Velocity S-wave (km/s) = 3.31932 3.79416 3.56466
# Velocity P-wave (km/s) = 5.01000 6.44256 5.77090
#
# Compressibility (1/GPa) = 0.04074725
#
# Stress axis : x y z
#
# Youngs Moduli (GPa) = 125.71122 45.71466 46.45656
#
# Poissons Ratio (x) = 0.05843 0.20344
# Poissons Ratio (y) = 0.16069 -0.01642
# Poissons Ratio (z) = 0.55051 -0.01616
#
# Static dielectric constant tensor:
#      x y z
#    x 1.958770 0.011840 -0.007690 
#    y 0.011840 1.986080 0.018300 
#    z -0.007690 0.018300 1.964850 
# 
# From -- ./inp_files/515635.got.cif
#   From: 2010.05.17/outbox.cif.g08.bks.cpg/sg2_258_cif.got.tgz:515635.got - 2010.06.03 11:33:40.
