data_PCOD9078327
_publ_section_title
;
Structure prediction by ZEFSAII (Michael W. Deem and Ramdas Pophale) SiO2 
 PCOD9078327
Probable space group: P -1
;
_chemical_formula_sum "Si O2"
_cell_formula_units_Z 16
_cell_length_a 10.016031
_cell_length_b 18.046235
_cell_length_c 16.045141
_cell_angle_alpha 22.427970
_cell_angle_beta 132.711439
_cell_angle_gamma 118.506322
_cell_volume 687.314268
_symmetry_space_group_name_H-M "P -1"
_symmetry_group_IT_number 2
_symmetry_cell_setting 'triclinic'
loop_
_space_group_symop_operation_xyz
x,y,z
-x,-y,-z
loop_
_atom_site_type_symbol
_atom_site_label
_atom_site_fract_x
_atom_site_fract_y
_atom_site_fract_z
Si Si1 0.267076 0.587633 0.897122
Si Si2 0.635863 0.106530 0.477260
Si Si3 0.069380 0.425861 0.352212
Si Si4 0.424832 0.352157 0.374374
Si Si5 0.877191 0.959905 0.895269
Si Si6 0.658306 0.386082 0.764679
Si Si7 0.388272 0.026439 0.801464
Si Si8 0.104799 0.221838 0.743016
O O1 0.479394 0.351927 0.200620
O O2 0.277628 0.543941 0.045352
O O3 0.268717 0.813598 0.638632
O O4 0.085479 0.582636 0.772087
O O5 0.798031 0.948436 0.782705
O O6 0.500000 0.000000 0.500000
O O7 0.127641 0.613771 0.163708
O O8 0.995225 0.417412 0.422892
O O9 0.297236 0.190202 0.673183
O O10 0.663359 0.175363 0.623936
O O11 0.442408 0.462812 0.351868
O O12 0.325384 0.200580 0.516071
O O13 0.050078 0.033401 0.886016
O O14 0.952933 0.754927 0.207262
O O15 0.500000 0.500000 0.500000
O O16 0.699560 0.138867 0.058309
O O17 0.644775 0.870909 0.061940
#
# Coordination Sequence:
#
# PCOD9078327 Si02
#       8
#     2   2   2   2   2   2   2   2
#     4  10  22  41  61  87 124 161 211 241 297 370
#     4  10  21  40  63  88 122 164 201 251 302 355
#     4  11  22  39  62  86 123 168 198 252 300 354
#     4   9  22  40  62  86 122 160 198 255 304 356
#     4   9  19  36  62  91 115 159 200 245 307 361
#     4  11  23  38  61  92 119 157 206 251 305 363
#     4  10  22  38  61  87 122 159 202 251 305 351
#     4  10  18  35  61  86 120 157 201 241 305 362
#
# _framework density 23.279015000000001
#
# number of rings (size 3 to 8) (size 9 to 14) (size 15 to 20)
#    0.000    2.000    2.500    0.375    3.500    6.000 
#    0.000    1.875    0.000    0.000    0.000    0.000 
#    0.000    0.000    0.000    0.000    0.000    0.000 
#
# Total GULP energy -89350.851021 kJ/mol
# GULP energy per Si atom -5584.428189 kJ/mol
# Density = 2.322603 g / cm^3
# Si number density = 23.279015 Si / 1000 Ang^3
#
#
#
# Elastic Constant Matrix: (Units=GPa)
#
#
# Indices 1 2 3 4 5 6 
#
# 1 88.6993 54.7830 52.1041 -8.0462 -39.9295 8.3549
# 2 54.7830 141.2158 68.1267 6.0412 -51.0985 15.0253
# 3 52.1041 68.1267 102.1708 6.3271 -48.6086 2.8806
# 4 -8.0462 6.0412 6.3271 47.3647 -6.4293 -10.1976
# 5 -39.9295 -51.0985 -48.6086 -6.4293 55.4340 -10.7862
# 6 8.3549 15.0253 2.8806 -10.1976 -10.7862 47.3070
#
#
#
# Elastic Compliance Matrix: (Units=1/GPa)
#
#
# Indices 1 2 3 4 5 6 
#
# 1 0.020032 -0.002723 -0.004659 0.005724 0.008657 0.000818
# 2 -0.002723 0.012334 -0.004288 -0.001272 0.005054 -0.002297
# 3 -0.004659 -0.004288 0.020182 -0.000747 0.010942 0.003290
# 4 0.005724 -0.001272 -0.000747 0.024537 0.006343 0.006174
# 5 0.008657 0.005054 0.010942 0.006343 0.040591 0.006822
# 6 0.000818 -0.002297 0.003290 0.006174 0.006822 0.024410
#
#
# Mechanical properties :
#
#
# Convention : Reuss Voigt Hill
#
# Bulk Modulus (GPa) = 34.23710 75.79038 55.01374
# Shear Modulus (GPa) = 28.54533 40.49262 34.51897
#
# Velocity S-wave (km/s) = 3.50555 4.17519 3.85494
# Velocity P-wave (km/s) = 5.57892 7.47469 6.59528
#
# Compressibility (1/GPa) = 0.02920808
#
# Stress axis : x y z
#
# Youngs Moduli (GPa) = 49.92079 81.07966 49.54996
#
# Poissons Ratio (x) = 0.22078 0.23085
# Poissons Ratio (y) = 0.13593 0.21245
# Poissons Ratio (z) = 0.23258 0.34763
#
# Static dielectric constant tensor:
#      x y z
#    x 1.926120 -0.001470 0.000310 
#    y -0.001470 1.849840 0.007650 
#    z 0.000310 0.007650 1.953200 
# 
# From -- ./inp_files/570562.got.cif
#   From: 2010.05.17/outbox.cif.g08.bks.cpg/sg2_286_cif.got.tgz:570562.got - 2010.06.03 11:33:40.
