data_PCOD9078265
_publ_section_title
;
Structure prediction by ZEFSAII (Michael W. Deem and Ramdas Pophale) SiO2 
 PCOD9078265
Probable space group: P -1
;
_chemical_formula_sum "Si O2"
_cell_formula_units_Z 16
_cell_length_a 9.069080
_cell_length_b 12.020840
_cell_length_c 8.647895
_cell_angle_alpha 82.038245
_cell_angle_beta 65.885527
_cell_angle_gamma 117.646451
_cell_volume 696.675802
_symmetry_space_group_name_H-M "P -1"
_symmetry_group_IT_number 2
_symmetry_cell_setting 'triclinic'
loop_
_space_group_symop_operation_xyz
x,y,z
-x,-y,-z
loop_
_atom_site_type_symbol
_atom_site_label
_atom_site_fract_x
_atom_site_fract_y
_atom_site_fract_z
Si Si1 0.719598 0.386181 0.539759
Si Si2 0.558008 0.931031 0.704006
Si Si3 0.081359 0.922382 0.293959
Si Si4 0.570058 0.291306 0.936289
Si Si5 0.857232 0.795067 0.839495
Si Si6 0.792740 0.044987 0.117323
Si Si7 0.334462 0.204806 0.579956
Si Si8 0.900333 0.583003 0.696697
O O1 0.638490 0.279355 0.739742
O O2 0.530916 0.344692 0.528356
O O3 0.833486 0.529504 0.558266
O O4 0.881739 0.379548 0.381814
O O5 0.769216 0.063859 0.644254
O O6 0.392727 0.957731 0.742259
O O7 0.596714 0.859837 0.562848
O O8 0.474757 0.824490 0.903690
O O9 0.086761 0.060959 0.283449
O O10 0.850487 0.800532 0.406789
O O11 0.178653 0.937592 0.081613
O O12 0.745039 0.443795 0.885234
O O13 0.370931 0.283150 0.002065
O O14 0.878450 0.700602 0.733841
O O15 0.008103 0.835335 0.906917
O O16 0.757723 0.903786 0.217293
#
# Coordination Sequence:
#
# PCOD9078265 Si02
#       8
#     2   2   2   2   2   2   2   2
#     4   9  19  36  59  85 109 145 191 231 273 328
#     4  11  22  36  56  86 119 148 181 229 291 332
#     4  10  22  38  57  83 118 146 182 233 285 331
#     4   9  19  37  57  83 112 150 182 231 279 324
#     4  10  18  35  60  88 106 145 190 229 272 335
#     4  11  22  37  59  87 111 150 190 230 274 339
#     4  11  20  37  59  85 114 146 188 233 275 335
#     4   9  19  35  62  84 109 145 196 230 273 325
#
# _framework density 22.966207000000001
#
# number of rings (size 3 to 8) (size 9 to 14) (size 15 to 20)
#    0.750    1.250    0.000    6.000    0.000    1.000 
#    0.000    5.000    0.000    3.000    0.000    0.000 
#    0.000    0.000    0.000    0.000    0.000    0.000 
#
# Total GULP energy -89420.181183 kJ/mol
# GULP energy per Si atom -5588.761324 kJ/mol
# Density = 2.291393 g / cm^3
# Si number density = 22.966207 Si / 1000 Ang^3
#
#
#
# Elastic Constant Matrix: (Units=GPa)
#
#
# Indices 1 2 3 4 5 6 
#
# 1 85.5804 28.7840 29.8016 -9.0800 -27.3568 18.1672
# 2 28.7840 55.3495 22.7410 3.8919 -12.6250 13.3701
# 3 29.8016 22.7410 67.0967 -2.7737 -19.3384 7.4151
# 4 -9.0800 3.8919 -2.7737 33.2709 3.9273 -8.9427
# 5 -27.3568 -12.6250 -19.3384 3.9273 39.2975 -2.0997
# 6 18.1672 13.3701 7.4151 -8.9427 -2.0997 33.7112
#
#
#
# Elastic Compliance Matrix: (Units=1/GPa)
#
#
# Indices 1 2 3 4 5 6 
#
# 1 0.019216 -0.005178 -0.003232 0.002775 0.009511 -0.006263
# 2 -0.005178 0.025943 -0.005181 -0.007365 0.002481 -0.008158
# 3 -0.003232 -0.005181 0.019783 0.000691 0.005751 -0.000014
# 4 0.002775 -0.007365 0.000691 0.034868 -0.003027 0.010335
# 5 0.009511 0.002481 0.005751 -0.003027 0.035680 -0.005955
# 6 -0.006263 -0.008158 -0.000014 0.010335 -0.005955 0.038648
#
#
# Mechanical properties :
#
#
# Convention : Reuss Voigt Hill
#
# Bulk Modulus (GPa) = 26.48273 41.18663 33.83468
# Shear Modulus (GPa) = 23.37473 29.70259 26.53866
#
# Velocity S-wave (km/s) = 3.19374 3.60017 3.40303
# Velocity P-wave (km/s) = 5.01559 5.93752 5.49592
#
# Compressibility (1/GPa) = 0.03776045
#
# Stress axis : x y z
#
# Youngs Moduli (GPa) = 52.03928 38.54627 50.54868
#
# Poissons Ratio (x) = 0.19960 0.16337
# Poissons Ratio (y) = 0.26947 0.26188
# Poissons Ratio (z) = 0.16818 0.19970
#
# Static dielectric constant tensor:
#      x y z
#    x 1.860310 0.042200 0.004810 
#    y 0.042200 1.876500 -0.011900 
#    z 0.004810 -0.011900 1.892730 
# 
# From -- ./inp_files/196848.got.cif
#   From: 2010.05.17/outbox.cif.g08.bks.cpg/sg2_99_cif.got.tgz:196848.got - 2010.06.03 11:33:40.
