data_PCOD9078436
_publ_section_title
;
Structure prediction by ZEFSAII (Michael W. Deem and Ramdas Pophale) SiO2 
 PCOD9078436
Probable space group: P -1
;
_chemical_formula_sum "Si O2"
_cell_formula_units_Z 16
_cell_length_a 17.159919
_cell_length_b 22.300796
_cell_length_c 11.405238
_cell_angle_alpha 41.526875
_cell_angle_beta 147.154045
_cell_angle_gamma 161.502913
_cell_volume 721.107432
_symmetry_space_group_name_H-M "P -1"
_symmetry_group_IT_number 2
_symmetry_cell_setting 'triclinic'
loop_
_space_group_symop_operation_xyz
x,y,z
-x,-y,-z
loop_
_atom_site_type_symbol
_atom_site_label
_atom_site_fract_x
_atom_site_fract_y
_atom_site_fract_z
Si Si1 0.795224 0.607990 0.754509
Si Si2 0.764825 0.252379 0.353814
Si Si3 0.462099 0.202989 0.724307
Si Si4 0.639805 0.480544 0.165645
Si Si5 0.553104 0.332530 0.030806
Si Si6 0.835486 0.884684 0.740937
Si Si7 0.995093 0.624790 0.786803
Si Si8 0.860371 0.089109 0.057519
O O1 0.500000 0.500000 0.500000
O O2 0.007531 0.720233 0.741524
O O3 0.001702 0.766229 0.886347
O O4 0.665400 0.443970 0.890678
O O5 0.721055 0.327793 0.245072
O O6 0.000092 0.325992 0.621471
O O7 0.926520 0.339131 0.302693
O O8 0.413972 0.027232 0.202752
O O9 0.269114 0.102550 0.508845
O O10 0.634209 0.394374 0.679086
O O11 0.280124 0.069338 0.804843
O O12 0.759028 0.302795 0.943635
O O13 0.625994 0.441831 0.069504
O O14 0.432079 0.286408 0.252732
O O15 0.500000 0.500000 0.000000
O O16 0.179929 0.104853 0.897669
O O17 0.884601 0.816242 0.837873
#
# Coordination Sequence:
#
# PCOD9078436 Si02
#       8
#     2   2   2   2   2   2   2   2
#     4  12  24  38  63 101 140 169 206 272 327 380
#     4  10  23  46  68  90 130 176 218 266 316 397
#     4  10  18  35  62  92 124 169 210 256 309 389
#     4  12  26  45  68  96 128 168 217 281 329 374
#     4  11  25  45  67  97 125 175 226 255 321 394
#     4  11  21  41  67  92 128 170 218 262 317 390
#     4  10  20  36  63  95 129 168 214 253 324 389
#     4  10  22  38  62 100 133 169 209 264 328 378
#
# _framework density 22.188094
#
# number of rings (size 3 to 8) (size 9 to 14) (size 15 to 20)
#    0.000    1.250    1.250    6.375    1.750    2.000 
#    2.250    6.875    0.000    0.000    0.000    0.000 
#    0.000    0.000    0.000    0.000    0.000    0.000 
#
# Total GULP energy -89270.709512 kJ/mol
# GULP energy per Si atom -5579.419345 kJ/mol
# Density = 2.213759 g / cm^3
# Si number density = 22.188094 Si / 1000 Ang^3
#
#
#
# Elastic Constant Matrix: (Units=GPa)
#
#
# Indices 1 2 3 4 5 6 
#
# 1 138.9082 19.3240 41.3038 10.8357 -6.8780 -11.3845
# 2 19.3240 61.5103 11.1177 1.3661 -8.6804 7.5538
# 3 41.3038 11.1177 129.5769 20.8494 -2.0706 -13.3658
# 4 10.8357 1.3661 20.8494 17.5373 -2.1134 -5.8163
# 5 -6.8780 -8.6804 -2.0706 -2.1134 24.3849 -3.2733
# 6 -11.3845 7.5538 -13.3658 -5.8163 -3.2733 42.1497
#
#
#
# Elastic Compliance Matrix: (Units=1/GPa)
#
#
# Indices 1 2 3 4 5 6 
#
# 1 0.008487 -0.002291 -0.001982 -0.001887 0.001506 0.001931
# 2 -0.002291 0.018415 -0.001303 0.000921 0.005370 -0.003788
# 3 -0.001982 -0.001303 0.010291 -0.010535 -0.000869 0.001440
# 4 -0.001887 0.000921 -0.010535 0.073578 0.006166 0.006616
# 5 0.001506 0.005370 -0.000869 0.006166 0.044270 0.003458
# 6 0.001931 -0.003788 0.001440 0.006616 0.003458 0.026564
#
#
# Mechanical properties :
#
#
# Convention : Reuss Voigt Hill
#
# Bulk Modulus (GPa) = 38.39958 52.60962 45.50460
# Shear Modulus (GPa) = 24.82170 34.03102 29.42636
#
# Velocity S-wave (km/s) = 3.34832 3.92056 3.64569
# Velocity P-wave (km/s) = 5.68263 6.65257 6.18663
#
# Compressibility (1/GPa) = 0.02604195
#
# Stress axis : x y z
#
# Youngs Moduli (GPa) = 117.82716 54.30310 97.17424
#
# Poissons Ratio (x) = 0.12440 0.19258
# Poissons Ratio (y) = 0.26992 0.12661
# Poissons Ratio (z) = 0.23351 0.07075
#
# Static dielectric constant tensor:
#      x y z
#    x 1.862100 -0.059280 0.005580 
#    y -0.059280 1.906010 -0.017310 
#    z 0.005580 -0.017310 1.825420 
# 
# From -- ./inp_files/467450.got.cif
#   From: 2010.05.17/outbox.cif.g08.bks.cpg/sg2_234_cif.got.tgz:467450.got - 2010.06.03 11:33:40.
