data_PCOD9078850
_publ_section_title
;
Structure prediction by ZEFSAII (Michael W. Deem and Ramdas Pophale) SiO2 
 PCOD9078850
Probable space group: P -1
;
_chemical_formula_sum "Si O2"
_cell_formula_units_Z 16
_cell_length_a 14.698051
_cell_length_b 11.839932
_cell_length_c 11.187781
_cell_angle_alpha 107.251270
_cell_angle_beta 118.475675
_cell_angle_gamma 28.890073
_cell_volume 792.624782
_symmetry_space_group_name_H-M "P -1"
_symmetry_group_IT_number 2
_symmetry_cell_setting 'triclinic'
loop_
_space_group_symop_operation_xyz
x,y,z
-x,-y,-z
loop_
_atom_site_type_symbol
_atom_site_label
_atom_site_fract_x
_atom_site_fract_y
_atom_site_fract_z
Si Si1 0.501725 0.561428 0.675941
Si Si2 0.838524 0.273137 0.464172
Si Si3 0.024677 0.988053 0.153290
Si Si4 0.228841 0.047732 0.594446
Si Si5 0.384855 0.720599 0.928908
Si Si6 0.124901 0.151681 0.284034
Si Si7 0.463350 0.281230 0.764908
Si Si8 0.162922 0.370076 0.668528
O O1 0.362359 0.588394 0.551185
O O2 0.743801 0.280050 0.741217
O O3 0.445756 0.646851 0.807036
O O4 0.423447 0.762195 0.635364
O O5 0.700444 0.462708 0.322900
O O6 0.013188 0.203902 0.564804
O O7 0.000000 0.000000 0.500000
O O8 0.997288 0.155541 0.206054
O O9 0.862285 0.064087 0.141938
O O10 0.000000 0.000000 0.000000
O O11 0.201598 0.087611 0.447815
O O12 0.254855 0.152057 0.698346
O O13 0.500000 0.500000 0.000000
O O14 0.460113 0.755761 0.066561
O O15 0.969850 0.418951 0.252785
O O16 0.324193 0.940768 0.253407
O O17 0.340809 0.279943 0.698979
O O18 0.000000 0.500000 0.500000
#
# Coordination Sequence:
#
# PCOD9078850 Si02
#       8
#     2   2   2   2   2   2   2   2
#     4  11  23  40  59  90 128 154 194 248 305 359
#     4  10  18  36  59  87 124 150 187 242 306 358
#     4  12  21  36  61  96 118 152 199 244 307 354
#     4  10  23  42  59  86 125 164 195 241 305 355
#     4  12  21  36  61  86 122 156 196 245 295 356
#     4  11  21  37  63  89 120 150 202 251 290 354
#     4  12  21  37  60  93 113 156 204 244 296 345
#     4  10  22  40  61  85 118 162 203 238 291 354
#
# _framework density 20.186095999999999
#
# number of rings (size 3 to 8) (size 9 to 14) (size 15 to 20)
#    0.000    1.000    7.500    1.500    0.000    2.500 
#    4.500    0.625    0.000    1.500    0.000    0.000 
#    0.000    0.000    0.000    0.000    0.000    0.000 
#
# Total GULP energy -89102.074312 kJ/mol
# GULP energy per Si atom -5568.879644 kJ/mol
# Density = 2.014015 g / cm^3
# Si number density = 20.186096 Si / 1000 Ang^3
#
#
#
# Elastic Constant Matrix: (Units=GPa)
#
#
# Indices 1 2 3 4 5 6 
#
# 1 86.2051 29.4321 24.4914 4.8907 28.2207 11.1951
# 2 29.4321 94.6467 28.6094 1.0009 15.1789 10.1898
# 3 24.4914 28.6094 65.2616 12.9849 12.5081 5.4700
# 4 4.8907 1.0009 12.9849 32.2291 -4.9888 11.0244
# 5 28.2207 15.1789 12.5081 -4.9888 41.1726 -0.8844
# 6 11.1951 10.1898 5.4700 11.0244 -0.8844 38.9328
#
#
#
# Elastic Compliance Matrix: (Units=1/GPa)
#
#
# Indices 1 2 3 4 5 6 
#
# 1 0.017167 -0.002445 -0.002731 -0.001782 -0.010329 -0.003643
# 2 -0.002445 0.013340 -0.004945 0.002711 -0.001473 -0.002895
# 3 -0.002731 -0.004945 0.020873 -0.008962 -0.003698 0.001600
# 4 -0.001782 0.002711 -0.008962 0.039379 0.007503 -0.009918
# 5 -0.010329 -0.001473 -0.003698 0.007503 0.033998 0.002523
# 6 -0.003643 -0.002895 0.001600 -0.009918 0.002523 0.030131
#
#
# Mechanical properties :
#
#
# Convention : Reuss Voigt Hill
#
# Bulk Modulus (GPa) = 32.11484 45.68656 38.90070
# Shear Modulus (GPa) = 26.95295 33.37227 30.16261
#
# Velocity S-wave (km/s) = 3.65804 4.07040 3.86972
# Velocity P-wave (km/s) = 5.81253 6.69124 6.26731
#
# Compressibility (1/GPa) = 0.03113826
#
# Stress axis : x y z
#
# Youngs Moduli (GPa) = 58.25274 74.96286 47.90865
#
# Poissons Ratio (x) = 0.18330 0.13083
# Poissons Ratio (y) = 0.14244 0.23689
# Poissons Ratio (z) = 0.15907 0.37067
#
# Static dielectric constant tensor:
#      x y z
#    x 1.719290 -0.008480 -0.030360 
#    y -0.008480 1.774840 0.053500 
#    z -0.030360 0.053500 1.879380 
# 
# From -- ./inp_files/451672.got.cif
#   From: 2010.05.17/outbox.cif.g08.bks.cpg/sg2_226_cif.got.tgz:451672.got - 2010.06.03 11:33:40.
