data_PCOD9078883
_publ_section_title
;
Structure prediction by ZEFSAII (Michael W. Deem and Ramdas Pophale) SiO2 
 PCOD9078883
Probable space group: P -1
;
_chemical_formula_sum "Si O2"
_cell_formula_units_Z 12
_cell_length_a 10.940474
_cell_length_b 9.883460
_cell_length_c 18.650382
_cell_angle_alpha 143.535651
_cell_angle_beta 153.849794
_cell_angle_gamma 46.251700
_cell_volume 524.657247
_symmetry_space_group_name_H-M "P -1"
_symmetry_group_IT_number 2
_symmetry_cell_setting 'triclinic'
loop_
_space_group_symop_operation_xyz
x,y,z
-x,-y,-z
loop_
_atom_site_type_symbol
_atom_site_label
_atom_site_fract_x
_atom_site_fract_y
_atom_site_fract_z
Si Si1 0.242650 0.081640 0.855242
Si Si2 0.754308 0.310791 0.411025
Si Si3 0.420733 0.756931 0.556179
Si Si4 0.853497 0.777683 0.988751
Si Si5 0.008747 0.757609 0.812575
Si Si6 0.118037 0.478316 0.890166
O O1 0.062036 0.169647 0.862664
O O2 0.338941 0.305998 0.953107
O O3 0.121220 0.863019 0.651430
O O4 0.500000 0.000000 0.000000
O O5 0.686503 0.178452 0.394978
O O6 0.927519 0.551132 0.625551
O O7 0.455971 0.357428 0.240834
O O8 0.500000 0.500000 0.500000
O O9 0.720438 0.861270 0.730206
O O10 0.155836 0.710655 0.345896
O O11 0.061024 0.641551 0.995077
O O12 0.824258 0.021221 0.039485
O O13 0.139331 0.634378 0.896572
#
# Coordination Sequence:
#
# PCOD9078883 Si02
#       6
#     2   2   2   2   2   2
#     4  10  23  36  55  79 116 157 175 219 280 329
#     4   9  18  37  54  79 118 139 180 226 273 326
#     4   8  15  31  57  81 103 136 179 233 265 305
#     4  11  19  35  61  82 112 145 179 227 277 330
#     4  10  19  33  64  87 104 138 187 239 270 309
#     4  10  18  36  60  83 106 148 188 220 277 325
#
# _framework density 22.872077000000001
#
# number of rings (size 3 to 8) (size 9 to 14) (size 15 to 20)
#    0.000    2.667    5.000    1.000    0.000    3.333 
#    0.000    4.167    7.333    0.000    0.000    0.000 
#    0.000    0.000    0.000    0.000    0.000    0.000 
#
# Total GULP energy -66846.205541 kJ/mol
# GULP energy per Si atom -5570.517128 kJ/mol
# Density = 2.282002 g / cm^3
# Si number density = 22.872077 Si / 1000 Ang^3
#
#
#
# Elastic Constant Matrix: (Units=GPa)
#
#
# Indices 1 2 3 4 5 6 
#
# 1 49.6424 14.5285 32.3859 -4.2764 -36.7011 -0.5364
# 2 14.5285 125.1975 27.1300 9.0754 -7.1115 3.8639
# 3 32.3859 27.1300 77.0969 13.3183 -31.6826 -1.4659
# 4 -4.2764 9.0754 13.3183 19.0051 -1.4896 -7.4683
# 5 -36.7011 -7.1115 -31.6826 -1.4896 44.0686 7.1379
# 6 -0.5364 3.8639 -1.4659 -7.4683 7.1379 22.8853
#
#
#
# Elastic Compliance Matrix: (Units=1/GPa)
#
#
# Indices 1 2 3 4 5 6 
#
# 1 0.067207 -0.004373 -0.011464 0.027201 0.048710 -0.004736
# 2 -0.004373 0.009174 -0.001880 -0.005275 -0.003292 -0.002466
# 3 -0.011464 -0.001880 0.026126 -0.022640 0.009568 -0.008650
# 4 0.027201 -0.005275 -0.022640 0.088298 0.004034 0.027634
# 5 0.048710 -0.003292 0.009568 0.004034 0.072834 -0.019090
# 6 -0.004736 -0.002466 -0.008650 0.027634 -0.019090 0.058420
#
#
# Mechanical properties :
#
#
# Convention : Reuss Voigt Hill
#
# Bulk Modulus (GPa) = 14.90937 44.44729 29.67833
# Shear Modulus (GPa) = 13.16308 29.05129 21.10718
#
# Velocity S-wave (km/s) = 2.40158 3.56780 3.04112
# Velocity P-wave (km/s) = 3.77132 6.03717 5.03340
#
# Compressibility (1/GPa) = 0.06707192
#
# Stress axis : x y z
#
# Youngs Moduli (GPa) = 14.87950 109.00754 38.27550
#
# Poissons Ratio (x) = 0.47674 0.43880
# Poissons Ratio (y) = 0.06508 0.07194
# Poissons Ratio (z) = 0.17058 0.20489
#
# Static dielectric constant tensor:
#      x y z
#    x 2.034060 -0.001430 0.043700 
#    y -0.001430 1.921070 -0.071870 
#    z 0.043700 -0.071870 1.939210 
# 
# From -- ./inp_files/168658.got.cif
#   From: 2010.05.17/outbox.cif.g08.bks.cpg/sg2_85_cif.got.tgz:168658.got - 2010.06.03 11:33:40.
