data_PCOD9078212
_publ_section_title
;
Structure prediction by ZEFSAII (Michael W. Deem and Ramdas Pophale) SiO2 
 PCOD9078212
Probable space group: P -1
;
_chemical_formula_sum "Si O2"
_cell_formula_units_Z 16
_cell_length_a 11.931708
_cell_length_b 9.550595
_cell_length_c 7.756125
_cell_angle_alpha 75.529343
_cell_angle_beta 125.087036
_cell_angle_gamma 107.390511
_cell_volume 686.717290
_symmetry_space_group_name_H-M "P -1"
_symmetry_group_IT_number 2
_symmetry_cell_setting 'triclinic'
loop_
_space_group_symop_operation_xyz
x,y,z
-x,-y,-z
loop_
_atom_site_type_symbol
_atom_site_label
_atom_site_fract_x
_atom_site_fract_y
_atom_site_fract_z
Si Si1 0.851272 0.898121 0.843554
Si Si2 0.714999 0.104247 0.829340
Si Si3 0.318665 0.396700 0.047094
Si Si4 0.159500 0.043186 0.687604
Si Si5 0.441471 0.094494 0.771291
Si Si6 0.878229 0.699683 0.594125
Si Si7 0.399675 0.426390 0.708977
Si Si8 0.875636 0.400315 0.027345
O O1 0.765958 0.765274 0.927778
O O2 0.753444 0.019621 0.723012
O O3 0.878610 0.806820 0.726438
O O4 0.000000 0.000000 0.000000
O O5 0.791138 0.272321 0.872266
O O6 0.787549 0.025167 0.074340
O O7 0.550364 0.088485 0.717298
O O8 0.358819 0.432166 0.872488
O O9 0.223937 0.507648 0.997804
O O10 0.471015 0.441691 0.258643
O O11 0.276748 0.025953 0.655683
O O12 0.161292 0.217324 0.635808
O O13 0.000000 0.000000 0.500000
O O14 0.447177 0.268342 0.765795
O O15 0.500000 0.000000 0.000000
O O16 0.740510 0.572474 0.526652
O O17 0.031176 0.665966 0.728384
O O18 0.000000 0.500000 0.000000
#
# Coordination Sequence:
#
# PCOD9078212 Si02
#       8
#     2   2   2   2   2   2   2   2
#     4  12  22  40  64  96 127 179 222 260 331 398
#     4  11  21  39  65  89 126 168 220 262 318 394
#     4  11  23  42  70  92 132 174 218 265 331 405
#     4  10  18  35  59  92 119 156 206 269 315 365
#     4   9  18  33  60  89 122 159 207 261 316 376
#     4  11  23  39  64  96 131 166 221 271 324 379
#     4  10  23  42  64  98 129 170 221 271 329 384
#     4  12  22  41  65  97 127 174 214 268 330 389
#
# _framework density 23.299253
#
# number of rings (size 3 to 8) (size 9 to 14) (size 15 to 20)
#    0.000    1.250    5.000    2.250    0.000    1.000 
#    0.000    2.500    2.750    0.000    0.000    0.000 
#    0.000    0.000    0.000    0.000    0.000    0.000 
#
# Total GULP energy -89147.849690 kJ/mol
# GULP energy per Si atom -5571.740606 kJ/mol
# Density = 2.324622 g / cm^3
# Si number density = 23.299253 Si / 1000 Ang^3
#
#
#
# Elastic Constant Matrix: (Units=GPa)
#
#
# Indices 1 2 3 4 5 6 
#
# 1 163.3397 56.5194 31.9379 31.9051 34.3206 4.5927
# 2 56.5194 111.7265 25.6376 17.4694 3.7017 1.2426
# 3 31.9379 25.6376 69.4548 22.7877 21.1988 11.7819
# 4 31.9051 17.4694 22.7877 34.6954 7.0732 4.5493
# 5 34.3206 3.7017 21.1988 7.0732 46.1601 3.6140
# 6 4.5927 1.2426 11.7819 4.5493 3.6140 46.4540
#
#
#
# Elastic Compliance Matrix: (Units=1/GPa)
#
#
# Indices 1 2 3 4 5 6 
#
# 1 0.009964 -0.004050 0.001040 -0.006467 -0.006571 0.000004
# 2 -0.004050 0.011792 -0.003506 -0.000771 0.003735 0.000759
# 3 0.001040 -0.003506 0.022309 -0.011571 -0.008662 -0.003860
# 4 -0.006467 -0.000771 -0.011571 0.042091 0.003799 -0.000823
# 5 -0.006571 0.003735 -0.008662 0.003799 0.029640 0.000069
# 6 0.000004 0.000759 -0.003860 -0.000823 0.000069 0.022560
#
#
# Mechanical properties :
#
#
# Convention : Reuss Voigt Hill
#
# Bulk Modulus (GPa) = 32.22435 63.63452 47.92944
# Shear Modulus (GPa) = 30.91502 40.82364 35.86933
#
# Velocity S-wave (km/s) = 3.64657 4.19040 3.92791
# Velocity P-wave (km/s) = 5.62055 7.12627 6.41773
#
# Compressibility (1/GPa) = 0.03103243
#
# Stress axis : x y z
#
# Youngs Moduli (GPa) = 100.35981 84.80118 44.82515
#
# Poissons Ratio (x) = 0.34347 -0.04661
# Poissons Ratio (y) = 0.40649 0.15716
# Poissons Ratio (z) = -0.10436 0.29731
#
# Static dielectric constant tensor:
#      x y z
#    x 1.952970 0.107960 0.036490 
#    y 0.107960 2.045310 0.008590 
#    z 0.036490 0.008590 2.061330 
# 
# From -- ./inp_files/239344.got.cif
#   From: 2010.05.17/outbox.cif.g08.bks.cpg/sg2_120_cif.got.tgz:239344.got - 2010.06.03 11:33:40.
