data_PCOD9078626
_publ_section_title
;
Structure prediction by ZEFSAII (Michael W. Deem and Ramdas Pophale) SiO2 
 PCOD9078626
Probable space group: P -1
;
_chemical_formula_sum "Si O2"
_cell_formula_units_Z 12
_cell_length_a 9.161312
_cell_length_b 11.713940
_cell_length_c 5.605706
_cell_angle_alpha 66.485429
_cell_angle_beta 75.384225
_cell_angle_gamma 106.338402
_cell_volume 481.772910
_symmetry_space_group_name_H-M "P -1"
_symmetry_group_IT_number 2
_symmetry_cell_setting 'triclinic'
loop_
_space_group_symop_operation_xyz
x,y,z
-x,-y,-z
loop_
_atom_site_type_symbol
_atom_site_label
_atom_site_fract_x
_atom_site_fract_y
_atom_site_fract_z
Si Si1 0.149365 0.986610 0.812260
Si Si2 0.118988 0.693240 0.647825
Si Si3 0.508348 0.074217 0.688349
Si Si4 0.325643 0.369463 0.630687
Si Si5 0.034191 0.656261 0.198928
Si Si6 0.801907 0.774682 0.704131
O O1 0.331260 0.079740 0.763647
O O2 0.161273 0.066201 0.491962
O O3 0.111838 0.826294 0.992287
O O4 0.000000 0.000000 0.000000
O O5 0.311949 0.799865 0.486124
O O6 0.092747 0.629251 0.450789
O O7 0.973808 0.751842 0.657499
O O8 0.101542 0.615154 0.969749
O O9 0.500000 0.000000 0.500000
O O10 0.500000 0.000000 0.000000
O O11 0.500000 0.500000 0.500000
O O12 0.302993 0.310379 0.415444
O O13 0.163764 0.400512 0.684287
O O14 0.290564 0.274909 0.964122
#
# Coordination Sequence:
#
# PCOD9078626 Si02
#       6
#     2   2   2   2   2   2
#     4  12  21  37  56  87 125 143 181 234 285 342
#     4  10  18  36  48  77 109 147 189 206 267 340
#     4  12  22  35  52  78 116 159 184 215 267 352
#     4  10  20  36  55  81 109 142 191 234 273 327
#     4  10  20  33  56  76 112 142 181 218 284 314
#     4  10  22  34  57  83 111 146 180 233 289 316
#
# _framework density 24.908000999999999
#
# number of rings (size 3 to 8) (size 9 to 14) (size 15 to 20)
#    0.000    1.333    6.667    0.500    0.000    5.333 
#    0.000    0.000    0.000    0.000    0.000   28.000 
#    0.000    0.000    0.000    0.000    0.000    0.000 
#
# Total GULP energy -66959.025990 kJ/mol
# GULP energy per Si atom -5579.918833 kJ/mol
# Density = 2.485131 g / cm^3
# Si number density = 24.908001 Si / 1000 Ang^3
#
#
#
# Elastic Constant Matrix: (Units=GPa)
#
#
# Indices 1 2 3 4 5 6 
#
# 1 131.6253 57.4692 63.8263 -0.2498 -8.4436 58.0114
# 2 57.4692 128.3688 68.7328 29.5241 -6.6402 41.0285
# 3 63.8263 68.7328 224.9838 35.4993 11.6230 26.0524
# 4 -0.2498 29.5241 35.4993 45.1144 12.0187 11.6821
# 5 -8.4436 -6.6402 11.6230 12.0187 55.7776 -7.6816
# 6 58.0114 41.0285 26.0524 11.6821 -7.6816 59.1828
#
#
#
# Elastic Compliance Matrix: (Units=1/GPa)
#
#
# Indices 1 2 3 4 5 6 
#
# 1 0.017384 -0.003169 -0.003602 0.009234 -0.001081 -0.015220
# 2 -0.003169 0.012922 -0.001687 -0.006904 0.002425 -0.003432
# 3 -0.003602 -0.001687 0.006416 -0.004450 -0.000758 0.002656
# 4 0.009234 -0.006904 -0.004450 0.034834 -0.007400 -0.010142
# 5 -0.001081 0.002425 -0.000758 -0.007400 0.020331 0.003811
# 6 -0.015220 -0.003432 0.002656 -0.010142 0.003811 0.035522
#
#
# Mechanical properties :
#
#
# Convention : Reuss Voigt Hill
#
# Bulk Modulus (GPa) = 50.49145 96.11497 73.30321
# Shear Modulus (GPa) = 33.12841 51.67826 42.40333
#
# Velocity S-wave (km/s) = 3.65092 4.55990 4.13049
# Velocity P-wave (km/s) = 6.17150 8.14833 7.22782
#
# Compressibility (1/GPa) = 0.01980534
#
# Stress axis : x y z
#
# Youngs Moduli (GPa) = 57.52496 77.38492 155.86234
#
# Poissons Ratio (x) = 0.24521 0.56145
# Poissons Ratio (y) = 0.18228 0.26300
# Poissons Ratio (z) = 0.20722 0.13058
#
# Static dielectric constant tensor:
#      x y z
#    x 1.979310 -0.004670 0.020890 
#    y -0.004670 2.124400 -0.028360 
#    z 0.020890 -0.028360 1.983930 
# 
# From -- ./inp_files/29651.got.cif
#   From: 2010.05.17/outbox.cif.g08.bks.cpg/sg2_15_cif.got.tgz:29651.got - 2010.06.03 11:33:40.
