data_PCOD9078852
_publ_section_title
;
Structure prediction by ZEFSAII (Michael W. Deem and Ramdas Pophale) SiO2 
 PCOD9078852
Probable space group: P -1
;
_chemical_formula_sum "Si O2"
_cell_formula_units_Z 16
_cell_length_a 12.259936
_cell_length_b 9.441397
_cell_length_c 14.440831
_cell_angle_alpha 140.050922
_cell_angle_beta 71.015212
_cell_angle_gamma 124.898016
_cell_volume 859.690640
_symmetry_space_group_name_H-M "P -1"
_symmetry_group_IT_number 2
_symmetry_cell_setting 'triclinic'
loop_
_space_group_symop_operation_xyz
x,y,z
-x,-y,-z
loop_
_atom_site_type_symbol
_atom_site_label
_atom_site_fract_x
_atom_site_fract_y
_atom_site_fract_z
Si Si1 0.819820 0.652919 0.704500
Si Si2 0.348748 0.568156 0.643809
Si Si3 0.343144 0.201191 0.297388
Si Si4 0.103016 0.608323 0.313072
Si Si5 0.892221 0.893504 0.193595
Si Si6 0.172724 0.691466 0.638576
Si Si7 0.877599 0.402798 0.911942
Si Si8 0.870587 0.885769 0.410732
O O1 0.700092 0.690934 0.723610
O O2 0.812449 0.512866 0.731995
O O3 0.837827 0.483447 0.534314
O O4 0.958756 0.934876 0.807542
O O5 0.333968 0.353847 0.465636
O O6 0.503462 0.730101 0.714978
O O7 0.296836 0.731501 0.686554
O O8 0.243685 0.400948 0.670036
O O9 0.235669 0.896020 0.186795
O O10 0.072717 0.569279 0.193472
O O11 0.964104 0.472172 0.343734
O O12 0.180719 0.915431 0.464977
O O13 0.914713 0.901499 0.301271
O O14 0.818815 0.047970 0.266278
O O15 0.823134 0.597127 0.033900
O O16 0.000000 0.500000 0.000000
O O17 0.000000 0.000000 0.500000
#
# Coordination Sequence:
#
# PCOD9078852 Si02
#       8
#     2   2   2   2   2   2   2   2
#     4  10  18  36  59  88 119 146 189 241 288 333
#     4  10  21  36  64  85 111 154 197 237 282 334
#     4  10  21  40  56  85 122 151 187 239 288 342
#     4  11  20  34  60  88 114 150 192 240 284 337
#     4  11  21  35  57  87 118 148 185 246 290 330
#     4  10  19  35  59  90 115 144 193 243 286 329
#     4  12  24  38  56  89 121 153 189 237 291 345
#     4  12  18  34  60  90 108 144 203 238 278 335
#
# _framework density 18.611346000000001
#
# number of rings (size 3 to 8) (size 9 to 14) (size 15 to 20)
#    0.000    1.250    6.250    2.250    0.000    2.000 
#    0.000    3.125    0.000    0.000    0.000    0.000 
#    0.000    0.000    0.000    0.000    0.000    0.000 
#
# Total GULP energy -89331.102729 kJ/mol
# GULP energy per Si atom -5583.193921 kJ/mol
# Density = 1.856899 g / cm^3
# Si number density = 18.611346 Si / 1000 Ang^3
#
#
#
# Elastic Constant Matrix: (Units=GPa)
#
#
# Indices 1 2 3 4 5 6 
#
# 1 131.7539 41.5321 26.8860 22.5114 9.9278 -18.6734
# 2 41.5321 80.4826 23.7250 5.3807 9.1223 -22.5377
# 3 26.8860 23.7250 67.4562 12.3745 -1.4081 -10.1259
# 4 22.5114 5.3807 12.3745 25.9789 -4.0400 0.0580
# 5 9.9278 9.1223 -1.4081 -4.0400 24.0499 4.2931
# 6 -18.6734 -22.5377 -10.1259 0.0580 4.2931 25.6561
#
#
#
# Elastic Compliance Matrix: (Units=1/GPa)
#
#
# Indices 1 2 3 4 5 6 
#
# 1 0.011913 -0.002188 -0.001067 -0.010508 -0.007266 0.007567
# 2 -0.002188 0.020743 -0.003670 -0.002339 -0.010600 0.016960
# 3 -0.001067 -0.003670 0.018274 -0.006838 0.001214 0.003025
# 4 -0.010508 -0.002339 -0.006838 0.053959 0.016621 -0.015305
# 5 -0.007266 -0.010600 0.001214 0.016621 0.055653 -0.023472
# 6 0.007567 0.016960 0.003025 -0.015305 -0.023472 0.064540
#
#
# Mechanical properties :
#
#
# Convention : Reuss Voigt Hill
#
# Bulk Modulus (GPa) = 26.96777 51.55319 39.26048
# Shear Modulus (GPa) = 19.89726 27.64028 23.76877
#
# Velocity S-wave (km/s) = 3.27325 3.85792 3.57755
# Velocity P-wave (km/s) = 5.36721 6.89962 6.18109
#
# Compressibility (1/GPa) = 0.03708130
#
# Stress axis : x y z
#
# Youngs Moduli (GPa) = 83.94423 48.20891 54.72226
#
# Poissons Ratio (x) = 0.10547 0.05837
# Poissons Ratio (y) = 0.18365 0.20083
# Poissons Ratio (z) = 0.08954 0.17692
#
# Static dielectric constant tensor:
#      x y z
#    x 1.670420 -0.026740 -0.035010 
#    y -0.026740 1.637380 -0.009090 
#    z -0.035010 -0.009090 1.660150 
# 
# From -- ./inp_files/181479.got.cif
#   From: 2010.05.17/outbox.cif.g08.bks.cpg/sg2_91_cif.got.tgz:181479.got - 2010.06.03 11:33:40.
