data_PCOD9078060
_publ_section_title
;
Structure prediction by ZEFSAII (Michael W. Deem and Ramdas Pophale) SiO2 
 PCOD9078060
Probable space group: P -1
;
_chemical_formula_sum "Si O2"
_cell_formula_units_Z 14
_cell_length_a 19.563973
_cell_length_b 8.848477
_cell_length_c 14.671719
_cell_angle_alpha 42.801752
_cell_angle_beta 147.167138
_cell_angle_gamma 147.354759
_cell_volume 739.860234
_symmetry_space_group_name_H-M "P -1"
_symmetry_group_IT_number 2
_symmetry_cell_setting 'triclinic'
loop_
_space_group_symop_operation_xyz
x,y,z
-x,-y,-z
loop_
_atom_site_type_symbol
_atom_site_label
_atom_site_fract_x
_atom_site_fract_y
_atom_site_fract_z
Si Si1 0.125347 0.832554 0.206105
Si Si2 0.191636 0.989195 0.659935
Si Si3 0.126534 0.417664 0.807545
Si Si4 0.979427 0.740960 0.699221
Si Si5 0.540137 0.290295 0.884867
Si Si6 0.648820 0.590295 0.689070
Si Si7 0.974149 0.837533 0.849414
O O1 0.138077 0.579738 0.326561
O O2 0.968322 0.704273 0.149002
O O3 0.268002 0.115942 0.291065
O O4 0.080693 0.870555 0.038981
O O5 0.094168 0.095189 0.469428
O O6 0.377815 0.243717 0.743888
O O7 0.149812 0.706750 0.689631
O O8 0.137271 0.896226 0.745113
O O9 0.298702 0.489064 0.977406
O O10 0.021671 0.147355 0.745838
O O11 0.004759 0.736473 0.836626
O O12 0.584833 0.358729 0.798751
O O13 0.500000 0.000000 0.000000
O O14 0.500000 0.500000 0.500000
O O15 0.791118 0.641477 0.764999
#
# Coordination Sequence:
#
# PCOD9078060 Si02
#       7
#     2   2   2   2   2   2   2
#     4  10  19  37  60  82 117 149 185 234 286 338
#     4   9  20  36  54  80 118 156 183 232 286 338
#     4   9  17  34  61  81 105 149 193 237 278 326
#     4  10  21  36  55  83 118 154 187 224 289 350
#     4  10  18  35  58  81 115 149 184 236 290 331
#     4  11  21  36  62  91 111 142 198 248 284 324
#     4  11  19  35  61  89 108 146 198 238 276 333
#
# _framework density 18.922491999999998
#
# number of rings (size 3 to 8) (size 9 to 14) (size 15 to 20)
#    0.000    2.000    2.857    2.143    0.000    0.571 
#    0.000   10.714    0.000    0.000    0.000    0.000 
#    0.000    0.000    0.000    0.000    0.000    0.000 
#
# Total GULP energy -77969.667906 kJ/mol
# GULP energy per Si atom -5569.261993 kJ/mol
# Density = 1.887942 g / cm^3
# Si number density = 18.922492 Si / 1000 Ang^3
#
#
#
# Elastic Constant Matrix: (Units=GPa)
#
#
# Indices 1 2 3 4 5 6 
#
# 1 68.5939 38.6999 16.6903 13.3217 -7.8094 3.4810
# 2 38.6999 95.2886 27.4742 1.1307 -4.4406 12.5843
# 3 16.6903 27.4742 53.6580 9.0427 -5.8846 10.7700
# 4 13.3217 1.1307 9.0427 28.1888 1.0399 5.5314
# 5 -7.8094 -4.4406 -5.8846 1.0399 27.0826 3.4431
# 6 3.4810 12.5843 10.7700 5.5314 3.4431 29.4779
#
#
#
# Elastic Compliance Matrix: (Units=1/GPa)
#
#
# Indices 1 2 3 4 5 6 
#
# 1 0.022214 -0.008867 -0.000600 -0.010682 0.004873 0.002817
# 2 -0.008867 0.016293 -0.005755 0.006375 -0.000756 -0.004914
# 3 -0.000600 -0.005755 0.024602 -0.006419 0.005221 -0.005866
# 4 -0.010682 0.006375 -0.006419 0.043826 -0.004242 -0.006843
# 5 0.004873 -0.000756 0.005221 -0.004242 0.040274 -0.006068
# 6 0.002817 -0.004914 -0.005866 -0.006843 -0.006068 0.039825
#
#
# Mechanical properties :
#
#
# Convention : Reuss Voigt Hill
#
# Bulk Modulus (GPa) = 30.61505 42.58547 36.60026
# Shear Modulus (GPa) = 21.89466 25.92829 23.91148
#
# Velocity S-wave (km/s) = 3.40526 3.70569 3.55865
# Velocity P-wave (km/s) = 5.62809 6.39246 6.02242
#
# Compressibility (1/GPa) = 0.03266367
#
# Stress axis : x y z
#
# Youngs Moduli (GPa) = 45.01761 61.37608 40.64725
#
# Poissons Ratio (x) = 0.54420 0.02440
# Poissons Ratio (y) = 0.39916 0.23394
# Poissons Ratio (z) = 0.02702 0.35325
#
# Static dielectric constant tensor:
#      x y z
#    x 1.672350 0.001310 0.006270 
#    y 0.001310 1.712910 -0.027180 
#    z 0.006270 -0.027180 1.696260 
# 
# From -- ./inp_files/157119.got.cif
#   From: 2010.05.17/outbox.cif.g08.bks.cpg/sg2_79_cif.got.tgz:157119.got - 2010.06.03 11:33:40.
