data_PCOD9078669
_publ_section_title
;
Structure prediction by ZEFSAII (Michael W. Deem and Ramdas Pophale) SiO2 
 PCOD9078669
Probable space group: P -1
;
_chemical_formula_sum "Si O2"
_cell_formula_units_Z 14
_cell_length_a 7.410380
_cell_length_b 11.357010
_cell_length_c 12.041404
_cell_angle_alpha 125.686269
_cell_angle_beta 125.588478
_cell_angle_gamma 57.630984
_cell_volume 639.253290
_symmetry_space_group_name_H-M "P -1"
_symmetry_group_IT_number 2
_symmetry_cell_setting 'triclinic'
loop_
_space_group_symop_operation_xyz
x,y,z
-x,-y,-z
loop_
_atom_site_type_symbol
_atom_site_label
_atom_site_fract_x
_atom_site_fract_y
_atom_site_fract_z
Si Si1 0.969877 0.988653 0.136751
Si Si2 0.870840 0.351533 0.076533
Si Si3 0.376063 0.342082 0.903194
Si Si4 0.889241 0.996094 0.578463
Si Si5 0.511744 0.029574 0.889368
Si Si6 0.406058 0.234138 0.607433
Si Si7 0.750436 0.776410 0.684517
O O1 0.915189 0.013954 0.262467
O O2 0.146701 0.088370 0.244777
O O3 0.053328 0.807987 0.049139
O O4 0.774020 0.049486 0.007093
O O5 0.831580 0.503198 0.072876
O O6 0.063224 0.335488 0.231335
O O7 0.617316 0.365055 0.043219
O O8 0.360353 0.187243 0.868394
O O9 0.410338 0.321299 0.770567
O O10 0.668183 0.137291 0.614160
O O11 0.765319 0.863798 0.470204
O O12 0.000000 0.000000 0.500000
O O13 0.542001 0.879967 0.742780
O O14 0.500000 0.000000 0.000000
O O15 0.308326 0.302265 0.489962
#
# Coordination Sequence:
#
# PCOD9078669 Si02
#       7
#     2   2   2   2   2   2   2
#     4  10  18  36  55  83 110 146 193 235 278 336
#     4  10  19  35  60  81 114 151 191 235 284 345
#     4  11  20  36  57  88 112 151 196 228 291 344
#     4  10  20  33  57  84 115 149 192 241 290 330
#     4  11  21  32  56  85 114 143 187 239 282 340
#     4  10  21  36  57  84 118 147 192 243 276 348
#     4  10  19  38  56  81 113 146 191 235 282 333
#
# _framework density 21.900552999999999
#
# number of rings (size 3 to 8) (size 9 to 14) (size 15 to 20)
#    0.000    1.714    4.286    2.571    4.000    0.571 
#    0.000    2.857    0.000    0.000    0.000    6.000 
#    0.000    0.000    0.000    0.000    0.000    0.000 
#
# Total GULP energy -77943.150842 kJ/mol
# GULP energy per Si atom -5567.367917 kJ/mol
# Density = 2.185071 g / cm^3
# Si number density = 21.900553 Si / 1000 Ang^3
#
#
#
# Elastic Constant Matrix: (Units=GPa)
#
#
# Indices 1 2 3 4 5 6 
#
# 1 50.5296 15.0048 -0.2515 0.4429 -26.5487 9.2203
# 2 15.0048 152.1084 32.4464 -15.0283 -8.6172 -1.6206
# 3 -0.2515 32.4464 73.2742 -17.4709 -15.6536 11.2071
# 4 0.4429 -15.0283 -17.4709 26.0549 0.0100 -0.1969
# 5 -26.5487 -8.6172 -15.6536 0.0100 30.4937 -8.8265
# 6 9.2203 -1.6206 11.2071 -0.1969 -8.8265 12.3491
#
#
#
# Elastic Compliance Matrix: (Units=1/GPa)
#
#
# Indices 1 2 3 4 5 6 
#
# 1 0.047190 -0.005284 0.016256 0.006879 0.041982 -0.020563
# 2 -0.005284 0.008260 -0.005061 0.001520 -0.002613 0.007779
# 3 0.016256 -0.005061 0.027313 0.014938 0.020082 -0.022997
# 4 0.006879 0.001520 0.014938 0.049080 0.011277 -0.009650
# 5 0.041982 -0.002613 0.020082 0.011277 0.081345 0.008408
# 6 -0.020563 0.007779 -0.022997 -0.009650 0.008408 0.124078
#
#
# Mechanical properties :
#
#
# Convention : Reuss Voigt Hill
#
# Bulk Modulus (GPa) = 10.57252 41.14573 25.85913
# Shear Modulus (GPa) = 14.00664 29.02703 21.51684
#
# Velocity S-wave (km/s) = 2.53169 3.64456 3.13785
# Velocity P-wave (km/s) = 3.65841 6.04472 4.99613
#
# Compressibility (1/GPa) = 0.09458479
#
# Stress axis : x y z
#
# Youngs Moduli (GPa) = 21.19088 121.06326 36.61206
#
# Poissons Ratio (x) = 0.63966 -0.59515
# Poissons Ratio (y) = 0.11197 0.18530
# Poissons Ratio (z) = -0.34447 0.61274
#
# Static dielectric constant tensor:
#      x y z
#    x 2.163300 -0.084720 0.014330 
#    y -0.084720 1.832640 -0.033860 
#    z 0.014330 -0.033860 1.848930 
# 
# From -- ./inp_files/234404.got.cif
#   From: 2010.05.17/outbox.cif.g08.bks.cpg/sg2_118_cif.got.tgz:234404.got - 2010.06.03 11:33:40.
