data_PCOD9078397
_publ_section_title
;
Structure prediction by ZEFSAII (Michael W. Deem and Ramdas Pophale) SiO2 
 PCOD9078397
Probable space group: P -1
;
_chemical_formula_sum "Si O2"
_cell_formula_units_Z 16
_cell_length_a 20.173556
_cell_length_b 7.781090
_cell_length_c 20.873308
_cell_angle_alpha 131.448297
_cell_angle_beta 21.290037
_cell_angle_gamma 144.907491
_cell_volume 599.558390
_symmetry_space_group_name_H-M "P -1"
_symmetry_group_IT_number 2
_symmetry_cell_setting 'triclinic'
loop_
_space_group_symop_operation_xyz
x,y,z
-x,-y,-z
loop_
_atom_site_type_symbol
_atom_site_label
_atom_site_fract_x
_atom_site_fract_y
_atom_site_fract_z
Si Si1 0.269573 0.659569 0.036008
Si Si2 0.588363 0.624145 0.245043
Si Si3 0.139578 0.378570 0.351615
Si Si4 0.741923 0.238924 0.289019
Si Si5 0.549239 0.743207 0.933403
Si Si6 0.865655 0.815514 0.351413
Si Si7 0.265738 0.945986 0.566176
Si Si8 0.116716 0.361453 0.510357
O O1 0.322264 0.538876 0.899899
O O2 0.370692 0.633247 0.005340
O O3 0.943006 0.331517 0.259313
O O4 0.474305 0.073152 0.947720
O O5 0.421312 0.450316 0.418359
O O6 0.370083 0.501872 0.357188
O O7 0.798354 0.030622 0.164988
O O8 0.430369 0.508724 0.133533
O O9 0.029382 0.204212 0.479428
O O10 0.000000 0.500000 0.500000
O O11 0.046323 0.140386 0.315611
O O12 0.951567 0.630242 0.219186
O O13 0.500000 0.000000 0.500000
O O14 0.573187 0.201622 0.373788
O O15 0.851560 0.109880 0.731013
O O16 0.822786 0.894922 0.341992
O O17 0.209025 0.710313 0.502933
#
# Coordination Sequence:
#
# PCOD9078397 Si02
#       8
#     2   2   2   2   2   2   2   2
#     4  10  21  36  63  90 126 168 193 251 313 373
#     4  10  19  38  67  88 114 160 219 245 293 364
#     4  12  21  33  61  93 122 153 209 252 299 355
#     4   9  21  39  66  88 111 161 221 256 285 362
#     4  10  20  36  58  88 126 165 205 242 306 368
#     4  11  21  37  62  90 119 158 205 263 297 346
#     4  10  21  38  60  88 127 153 198 259 320 350
#     4  10  18  35  62  86 116 163 213 251 280 366
#
# _framework density 26.686306999999999
#
# number of rings (size 3 to 8) (size 9 to 14) (size 15 to 20)
#    0.000    1.750    3.750    1.500    1.750    0.000 
#    0.000    3.750    5.500    0.000    0.000    0.000 
#    0.000    0.000    0.000    0.000    0.000    0.000 
#
# Total GULP energy -89145.906743 kJ/mol
# GULP energy per Si atom -5571.619171 kJ/mol
# Density = 2.662557 g / cm^3
# Si number density = 26.686307 Si / 1000 Ang^3
#
#
#
# Elastic Constant Matrix: (Units=GPa)
#
#
# Indices 1 2 3 4 5 6 
#
# 1 91.3788 12.0583 -4.2651 -3.8426 -18.4314 -22.6303
# 2 12.0583 154.5187 15.1431 25.8855 -17.6476 9.6900
# 3 -4.2651 15.1431 48.4588 14.7681 -9.7736 3.0224
# 4 -3.8426 25.8855 14.7681 31.2316 6.6276 -6.5896
# 5 -18.4314 -17.6476 -9.7736 6.6276 29.7468 7.0184
# 6 -22.6303 9.6900 3.0224 -6.5896 7.0184 51.1241
#
#
#
# Elastic Compliance Matrix: (Units=1/GPa)
#
#
# Indices 1 2 3 4 5 6 
#
# 1 0.014056 -0.000978 0.002422 0.000946 0.007449 0.005364
# 2 -0.000978 0.010129 0.003522 -0.013749 0.011002 -0.005844
# 3 0.002422 0.003522 0.031629 -0.023588 0.020981 -0.007386
# 4 0.000946 -0.013749 -0.023588 0.065622 -0.034083 0.017556
# 5 0.007449 0.011002 0.020981 -0.034083 0.062308 -0.012976
# 6 0.005364 -0.005844 -0.007386 0.017556 -0.012976 0.027523
#
#
# Mechanical properties :
#
#
# Convention : Reuss Voigt Hill
#
# Bulk Modulus (GPa) = 15.20982 37.80321 26.50651
# Shear Modulus (GPa) = 22.39632 40.51517 31.45574
#
# Velocity S-wave (km/s) = 2.90011 3.90064 3.43698
# Velocity P-wave (km/s) = 4.11413 5.87223 5.06997
#
# Compressibility (1/GPa) = 0.06574700
#
# Stress axis : x y z
#
# Youngs Moduli (GPa) = 71.14335 98.72449 31.61607
#
# Poissons Ratio (x) = 0.09660 -0.07659
# Poissons Ratio (y) = 0.06961 -0.11136
# Poissons Ratio (z) = -0.17234 -0.34772
#
# Static dielectric constant tensor:
#      x y z
#    x 2.140830 0.055510 0.061550 
#    y 0.055510 2.390340 0.215150 
#    z 0.061550 0.215150 2.405590 
# 
# From -- ./inp_files/444644.got.cif
#   From: 2010.05.17/outbox.cif.g08.bks.cpg/sg2_223_cif.got.tgz:444644.got - 2010.06.03 11:33:40.
