data_PCOD9078106
_publ_section_title
;
Structure prediction by ZEFSAII (Michael W. Deem and Ramdas Pophale) SiO2 
 PCOD9078106
Probable space group: P -1
;
_chemical_formula_sum "Si O2"
_cell_formula_units_Z 16
_cell_length_a 15.433441
_cell_length_b 11.925536
_cell_length_c 14.076834
_cell_angle_alpha 139.554811
_cell_angle_beta 47.750249
_cell_angle_gamma 153.878519
_cell_volume 739.451230
_symmetry_space_group_name_H-M "P -1"
_symmetry_group_IT_number 2
_symmetry_cell_setting 'triclinic'
loop_
_space_group_symop_operation_xyz
x,y,z
-x,-y,-z
loop_
_atom_site_type_symbol
_atom_site_label
_atom_site_fract_x
_atom_site_fract_y
_atom_site_fract_z
Si Si1 0.797023 0.360911 0.554326
Si Si2 0.422082 0.941054 0.673901
Si Si3 0.212689 0.245524 0.222622
Si Si4 0.845816 0.596760 0.050755
Si Si5 0.671006 0.062504 0.899057
Si Si6 0.333686 0.457217 0.476602
Si Si7 0.547783 0.764960 0.992751
Si Si8 0.363617 0.447217 0.657716
O O1 0.684831 0.161057 0.413812
O O2 0.820119 0.595690 0.678558
O O3 0.000000 0.500000 0.500000
O O4 0.648578 0.166238 0.626489
O O5 0.335263 0.665090 0.606468
O O6 0.399760 0.073516 0.846408
O O7 0.215659 0.250763 0.339119
O O8 0.417399 0.399319 0.138315
O O9 0.051615 0.928780 0.090547
O O10 0.776147 0.618859 0.210375
O O11 0.842988 0.387618 0.940635
O O12 0.673912 0.440218 0.002343
O O13 0.568429 0.803566 0.737520
O O14 0.500000 0.000000 0.000000
O O15 0.681174 0.987946 0.947465
O O16 0.272956 0.331001 0.545694
O O17 0.554639 0.638475 0.421195
#
# Coordination Sequence:
#
# PCOD9078106 Si02
#       8
#     2   2   2   2   2   2   2   2
#     4  10  25  44  63  88 113 146 204 252 300 354
#     4  10  22  41  68  82 114 161 187 247 305 341
#     4  11  23  37  61  90 117 157 198 247 294 347
#     4  10  20  33  58  86 126 162 186 241 290 333
#     4   8  15  32  54  83 121 160 190 229 278 344
#     4  10  18  35  58  88 116 156 201 234 285 345
#     4  10  20  40  59  89 119 153 202 234 288 360
#     4   9  17  32  58  84 121 158 195 235 273 348
#
# _framework density 21.637668000000001
#
# number of rings (size 3 to 8) (size 9 to 14) (size 15 to 20)
#    0.000    2.500    2.500    2.250    1.750    3.500 
#    0.000    1.250    0.000    0.000    0.000    0.000 
#    0.000    0.000    0.000    0.000    0.000    0.000 
#
# Total GULP energy -89177.936137 kJ/mol
# GULP energy per Si atom -5573.621009 kJ/mol
# Density = 2.158842 g / cm^3
# Si number density = 21.637668 Si / 1000 Ang^3
#
#
#
# Elastic Constant Matrix: (Units=GPa)
#
#
# Indices 1 2 3 4 5 6 
#
# 1 70.8281 12.3411 36.8986 2.8589 -12.6025 11.2211
# 2 12.3411 31.3182 5.4846 9.4412 5.3653 10.7517
# 3 36.8986 5.4846 121.8775 -4.3291 -0.9903 -0.0115
# 4 2.8589 9.4412 -4.3291 21.1015 7.7664 -0.8901
# 5 -12.6025 5.3653 -0.9903 7.7664 23.7413 -0.6877
# 6 11.2211 10.7517 -0.0115 -0.8901 -0.6877 15.2284
#
#
#
# Elastic Compliance Matrix: (Units=1/GPa)
#
#
# Indices 1 2 3 4 5 6 
#
# 1 0.024229 -0.002342 -0.007468 -0.010331 0.015993 -0.016086
# 2 -0.002342 0.055104 -0.002681 -0.023910 -0.007113 -0.038900
# 3 -0.007468 -0.002681 0.010780 0.006517 -0.004821 0.007567
# 4 -0.010331 -0.023910 0.006517 0.070059 -0.021927 0.027603
# 5 0.015993 -0.007113 -0.004821 -0.021927 0.059034 -0.005381
# 6 -0.016086 -0.038900 0.007567 0.027603 -0.005381 0.106360
#
#
# Mechanical properties :
#
#
# Convention : Reuss Voigt Hill
#
# Bulk Modulus (GPa) = 15.35435 37.05249 26.20342
# Shear Modulus (GPa) = 13.43153 23.30088 18.36620
#
# Velocity S-wave (km/s) = 2.49418 3.28512 2.91659
# Velocity P-wave (km/s) = 3.92506 5.61699 4.84545
#
# Compressibility (1/GPa) = 0.06512814
#
# Stress axis : x y z
#
# Youngs Moduli (GPa) = 41.27332 18.14756 92.76684
#
# Poissons Ratio (x) = 0.04251 0.69282
# Poissons Ratio (y) = 0.09668 0.24874
# Poissons Ratio (z) = 0.30825 0.04866
#
# Static dielectric constant tensor:
#      x y z
#    x 1.827970 -0.015330 -0.021980 
#    y -0.015330 1.864740 0.038180 
#    z -0.021980 0.038180 1.774270 
# 
# From -- ./inp_files/532045.got.cif
#   From: 2010.05.17/outbox.cif.g08.bks.cpg/sg2_267_cif.got.tgz:532045.got - 2010.06.03 11:33:40.
