data_PCOD9078583
_publ_section_title
;
Structure prediction by ZEFSAII (Michael W. Deem and Ramdas Pophale) SiO2 
 PCOD9078583
Probable space group: P -1
;
_chemical_formula_sum "Si O2"
_cell_formula_units_Z 16
_cell_length_a 20.495586
_cell_length_b 9.420113
_cell_length_c 11.773771
_cell_angle_alpha 130.040236
_cell_angle_beta 144.793132
_cell_angle_gamma 31.415175
_cell_volume 671.996192
_symmetry_space_group_name_H-M "P -1"
_symmetry_group_IT_number 2
_symmetry_cell_setting 'triclinic'
loop_
_space_group_symop_operation_xyz
x,y,z
-x,-y,-z
loop_
_atom_site_type_symbol
_atom_site_label
_atom_site_fract_x
_atom_site_fract_y
_atom_site_fract_z
Si Si1 0.636981 0.797857 0.689425
Si Si2 0.223335 0.999540 0.068765
Si Si3 0.068367 0.874594 0.909163
Si Si4 0.305484 0.301731 0.869961
Si Si5 0.276421 0.800407 0.785625
Si Si6 0.428667 0.280567 0.810720
Si Si7 0.458883 0.487074 0.564506
Si Si8 0.828666 0.931486 0.440211
O O1 0.660221 0.552465 0.617492
O O2 0.500000 0.000000 0.500000
O O3 0.779616 0.776524 0.847732
O O4 0.542535 0.985642 0.765213
O O5 0.379959 0.767155 0.259000
O O6 0.078138 0.058828 0.953048
O O7 0.242366 0.882726 0.911368
O O8 0.247819 0.544728 0.990149
O O9 0.954140 0.867349 0.675568
O O10 0.000000 0.000000 0.000000
O O11 0.297832 0.373643 0.765297
O O12 0.187971 0.266829 0.700992
O O13 0.500000 0.000000 0.000000
O O14 0.331236 0.521883 0.703766
O O15 0.137116 0.024671 0.612705
O O16 0.437441 0.736325 0.955952
O O17 0.500000 0.500000 0.500000
O O18 0.352763 0.777354 0.622153
#
# Coordination Sequence:
#
# PCOD9078583 Si02
#       8
#     2   2   2   2   2   2   2   2
#     4   9  19  34  62 101 138 176 231 296 351 402
#     4  10  21  43  67  94 139 193 236 290 350 423
#     4  12  28  49  69 102 152 188 231 301 370 423
#     4  12  24  46  76 107 131 190 248 285 350 431
#     4  10  19  38  65  99 134 175 234 292 343 417
#     4  10  18  35  66 100 135 173 235 298 336 409
#     4  11  21  39  67 103 141 185 240 290 350 422
#     4  12  25  42  68 101 142 185 236 293 358 426
#
# _framework density 23.809659
#
# number of rings (size 3 to 8) (size 9 to 14) (size 15 to 20)
#    0.000    1.250    2.500    5.625    0.000    2.500 
#    0.000    0.625    0.000    0.000    0.000    0.000 
#    0.000    0.000    0.000    0.000    0.000    0.000 
#
# Total GULP energy -89383.369160 kJ/mol
# GULP energy per Si atom -5586.460572 kJ/mol
# Density = 2.375547 g / cm^3
# Si number density = 23.809659 Si / 1000 Ang^3
#
#
#
# Elastic Constant Matrix: (Units=GPa)
#
#
# Indices 1 2 3 4 5 6 
#
# 1 151.2514 48.1158 42.5002 15.3005 -17.9901 11.0072
# 2 48.1158 83.0309 28.5644 21.6134 1.4664 16.2485
# 3 42.5002 28.5644 81.9133 3.7073 -8.7166 8.0469
# 4 15.3005 21.6134 3.7073 35.6228 5.4385 7.5707
# 5 -17.9901 1.4664 -8.7166 5.4385 40.7187 9.4829
# 6 11.0072 16.2485 8.0469 7.5707 9.4829 33.2987
#
#
#
# Elastic Compliance Matrix: (Units=1/GPa)
#
#
# Indices 1 2 3 4 5 6 
#
# 1 0.009419 -0.003805 -0.002895 -0.001794 0.004234 -0.001355
# 2 -0.003805 0.018613 -0.003781 -0.008099 -0.000962 -0.004796
# 3 -0.002895 -0.003781 0.015390 0.002011 0.002359 -0.002046
# 4 -0.001794 -0.008099 0.002011 0.034740 -0.004088 -0.002675
# 5 0.004234 -0.000962 0.002359 -0.004088 0.029612 -0.009004
# 6 -0.001355 -0.004796 -0.002046 -0.002675 -0.009004 0.036486
#
#
# Mechanical properties :
#
#
# Convention : Reuss Voigt Hill
#
# Bulk Modulus (GPa) = 44.52518 61.61739 53.07129
# Shear Modulus (GPa) = 28.95035 35.06239 32.00637
#
# Velocity S-wave (km/s) = 3.49077 3.84163 3.67039
# Velocity P-wave (km/s) = 5.91510 6.75372 6.34827
#
# Compressibility (1/GPa) = 0.02245920
#
# Stress axis : x y z
#
# Youngs Moduli (GPa) = 106.16618 53.72543 64.97749
#
# Poissons Ratio (x) = 0.20441 0.18814
# Poissons Ratio (y) = 0.40394 0.24570
# Poissons Ratio (z) = 0.30740 0.20315
#
# Static dielectric constant tensor:
#      x y z
#    x 1.964190 0.032810 -0.012950 
#    y 0.032810 2.004510 -0.089590 
#    z -0.012950 -0.089590 2.020600 
# 
# From -- ./inp_files/470149.got.cif
#   From: 2010.05.17/outbox.cif.g08.bks.cpg/sg2_236_cif.got.tgz:470149.got - 2010.06.03 11:33:40.
