data_PCOD9078506
_publ_section_title
;
Structure prediction by ZEFSAII (Michael W. Deem and Ramdas Pophale) SiO2 
 PCOD9078506
Probable space group: P -1
;
_chemical_formula_sum "Si O2"
_cell_formula_units_Z 16
_cell_length_a 7.532743
_cell_length_b 16.436122
_cell_length_c 20.295926
_cell_angle_alpha 31.087995
_cell_angle_beta 135.979528
_cell_angle_gamma 144.048197
_cell_volume 758.997024
_symmetry_space_group_name_H-M "P -1"
_symmetry_group_IT_number 2
_symmetry_cell_setting 'triclinic'
loop_
_space_group_symop_operation_xyz
x,y,z
-x,-y,-z
loop_
_atom_site_type_symbol
_atom_site_label
_atom_site_fract_x
_atom_site_fract_y
_atom_site_fract_z
Si Si1 0.437603 0.251370 0.628820
Si Si2 0.736009 0.814676 0.021093
Si Si3 0.099532 0.853335 0.629069
Si Si4 0.942162 0.408794 0.762908
Si Si5 0.297839 0.546267 0.194040
Si Si6 0.164970 0.818365 0.523049
Si Si7 0.218559 0.424721 0.601156
Si Si8 0.346896 0.959271 0.265032
O O1 0.631373 0.289252 0.720400
O O2 0.574822 0.452618 0.489508
O O3 0.514286 0.130376 0.684187
O O4 0.075694 0.160017 0.598152
O O5 0.450223 0.706074 0.069092
O O6 0.864372 0.684270 0.130135
O O7 0.657752 0.883017 0.886906
O O8 0.000000 0.000000 0.000000
O O9 0.035699 0.781797 0.587593
O O10 0.916941 0.657840 0.754675
O O11 0.442342 0.962539 0.669178
O O12 0.000000 0.000000 0.500000
O O13 0.856673 0.411182 0.815382
O O14 0.130029 0.620895 0.635330
O O15 0.570897 0.539063 0.305665
O O16 0.500000 0.000000 0.500000
O O17 0.000000 0.500000 0.500000
O O18 0.989340 0.203184 0.690915
#
# Coordination Sequence:
#
# PCOD9078506 Si02
#       8
#     2   2   2   2   2   2   2   2
#     4  11  20  41  65 100 136 170 220 284 350 397
#     4  12  24  46  67  98 135 180 240 272 324 401
#     4  11  22  42  66  95 134 169 220 274 344 407
#     4  11  25  43  70  98 138 175 227 282 334 404
#     4  11  24  43  65  94 135 184 220 279 338 387
#     4  11  25  40  62 102 137 173 215 278 351 402
#     4  10  18  35  63  95 128 165 217 276 337 387
#     4  11  23  39  68 102 128 178 229 275 328 410
#
# _framework density 21.080449000000002
#
# number of rings (size 3 to 8) (size 9 to 14) (size 15 to 20)
#    0.000    1.000    6.250    1.875    3.500    1.000 
#    0.000    2.500    0.000    0.000    0.000    0.000 
#    0.000    0.000    0.000    0.000    0.000    0.000 
#
# Total GULP energy -89324.142292 kJ/mol
# GULP energy per Si atom -5582.758893 kJ/mol
# Density = 2.103247 g / cm^3
# Si number density = 21.080449 Si / 1000 Ang^3
#
#
#
# Elastic Constant Matrix: (Units=GPa)
#
#
# Indices 1 2 3 4 5 6 
#
# 1 76.3613 19.9435 24.3507 -7.3496 9.1097 -3.1330
# 2 19.9435 116.1602 22.9093 -9.2592 6.1147 18.6349
# 3 24.3507 22.9093 82.1113 0.9868 8.5343 0.4253
# 4 -7.3496 -9.2592 0.9868 37.0859 2.9984 -2.3966
# 5 9.1097 6.1147 8.5343 2.9984 33.8914 -5.7271
# 6 -3.1330 18.6349 0.4253 -2.3966 -5.7271 37.0918
#
#
#
# Elastic Compliance Matrix: (Units=1/GPa)
#
#
# Indices 1 2 3 4 5 6 
#
# 1 0.015516 -0.001842 -0.003845 0.003076 -0.002796 0.002047
# 2 -0.001842 0.010525 -0.002180 0.002120 -0.001987 -0.005588
# 3 -0.003845 -0.002180 0.014149 -0.001510 -0.001967 0.000207
# 4 0.003076 0.002120 -0.001510 0.028442 -0.003253 0.000547
# 5 -0.002796 -0.001987 -0.001967 -0.003253 0.032340 0.005568
# 6 0.002047 -0.005588 0.000207 0.000547 0.005568 0.030833
#
#
# Mechanical properties :
#
#
# Convention : Reuss Voigt Hill
#
# Bulk Modulus (GPa) = 40.88867 45.44884 43.16876
# Shear Modulus (GPa) = 32.11493 35.44243 33.77868
#
# Velocity S-wave (km/s) = 3.90737 4.10481 4.00730
# Velocity P-wave (km/s) = 6.30835 6.63871 6.47564
#
# Compressibility (1/GPa) = 0.02445665
#
# Stress axis : x y z
#
# Youngs Moduli (GPa) = 64.44855 95.01098 70.67829
#
# Poissons Ratio (x) = 0.17499 0.27172
# Poissons Ratio (y) = 0.11870 0.15411
# Poissons Ratio (z) = 0.24777 0.20716
#
# Static dielectric constant tensor:
#      x y z
#    x 1.832360 0.011690 -0.021930 
#    y 0.011690 1.817660 -0.082450 
#    z -0.021930 -0.082450 1.799710 
# 
# From -- ./inp_files/407379.got.cif
#   From: 2010.05.17/outbox.cif.g08.bks.cpg/sg2_204_cif.got.tgz:407379.got - 2010.06.03 11:33:40.
