data_PCOD9078415
_publ_section_title
;
Structure prediction by ZEFSAII (Michael W. Deem and Ramdas Pophale) SiO2 
 PCOD9078415
Probable space group: P -1
;
_chemical_formula_sum "Si O2"
_cell_formula_units_Z 14
_cell_length_a 9.732356
_cell_length_b 10.971390
_cell_length_c 7.044681
_cell_angle_alpha 56.067425
_cell_angle_beta 110.909249
_cell_angle_gamma 105.337171
_cell_volume 580.936711
_symmetry_space_group_name_H-M "P -1"
_symmetry_group_IT_number 2
_symmetry_cell_setting 'triclinic'
loop_
_space_group_symop_operation_xyz
x,y,z
-x,-y,-z
loop_
_atom_site_type_symbol
_atom_site_label
_atom_site_fract_x
_atom_site_fract_y
_atom_site_fract_z
Si Si1 0.568209 0.863771 0.254406
Si Si2 0.064061 0.613560 0.590835
Si Si3 0.263500 0.418027 0.051126
Si Si4 0.498291 0.368950 0.896856
Si Si5 0.175135 0.088572 0.218675
Si Si6 0.643309 0.182853 0.456439
Si Si7 0.114372 0.115778 0.713016
O O1 0.475557 0.824663 0.429925
O O2 0.741827 0.909753 0.312853
O O3 0.550737 0.722503 0.230658
O O4 0.500000 0.000000 0.000000
O O5 0.206475 0.718541 0.498437
O O6 0.000000 0.500000 0.500000
O O7 0.945025 0.725379 0.491117
O O8 0.128508 0.517425 0.872119
O O9 0.361102 0.425032 0.897019
O O10 0.209101 0.248560 0.185283
O O11 0.378728 0.495043 0.190228
O O12 0.574770 0.256448 0.174947
O O13 0.302529 0.978814 0.406809
O O14 0.158756 0.109542 0.963671
O O15 0.019923 0.007411 0.277614
#
# Coordination Sequence:
#
# PCOD9078415 Si02
#       7
#     2   2   2   2   2   2   2
#     4  12  22  39  65  96 125 158 206 260 306 361
#     4  10  18  35  62  89 121 168 206 243 306 369
#     4  10  19  36  62  86 123 164 202 250 303 368
#     4  10  22  40  61  95 128 159 200 256 314 364
#     4  10  18  36  64  92 117 168 209 244 312 364
#     4  10  23  38  66  95 121 162 206 255 308 365
#     4  10  20  34  60  94 121 159 213 251 299 371
#
# _framework density 24.099011999999998
#
# number of rings (size 3 to 8) (size 9 to 14) (size 15 to 20)
#    0.000    1.714    4.286    0.000    0.000    2.286 
#    0.000   11.429    0.000   37.714    0.000    0.000 
#    0.000    0.000    0.000    0.000    0.000    0.000 
#
# Total GULP energy -78494.668101 kJ/mol
# GULP energy per Si atom -5606.762007 kJ/mol
# Density = 2.404416 g / cm^3
# Si number density = 24.099012 Si / 1000 Ang^3
#
#
#
# Elastic Constant Matrix: (Units=GPa)
#
#
# Indices 1 2 3 4 5 6 
#
# 1 160.6628 37.2254 47.3878 -8.2300 13.2184 -1.3435
# 2 37.2254 118.5246 19.2444 -28.8331 -11.9143 11.5071
# 3 47.3878 19.2444 117.1500 -22.9056 20.3809 -10.6161
# 4 -8.2300 -28.8331 -22.9056 40.1192 -14.0253 4.3750
# 5 13.2184 -11.9143 20.3809 -14.0253 39.0974 -4.7850
# 6 -1.3435 11.5071 -10.6161 4.3750 -4.7850 24.8248
#
#
#
# Elastic Compliance Matrix: (Units=1/GPa)
#
#
# Indices 1 2 3 4 5 6 
#
# 1 0.007900 -0.003364 -0.002670 -0.003637 -0.003510 0.000809
# 2 -0.003364 0.014769 -0.000826 0.013830 0.010066 -0.007879
# 3 -0.002670 -0.000826 0.011438 0.003751 -0.003502 0.003794
# 4 -0.003637 0.013830 0.003751 0.043553 0.017985 -0.009213
# 5 -0.003510 0.010066 -0.003502 0.017985 0.037835 -0.002230
# 6 0.000809 -0.007879 0.003794 -0.009213 -0.002230 0.046794
#
#
# Mechanical properties :
#
#
# Convention : Reuss Voigt Hill
#
# Bulk Modulus (GPa) = 49.05130 67.11694 58.08412
# Shear Modulus (GPa) = 27.35125 40.30692 33.82909
#
# Velocity S-wave (km/s) = 3.37256 4.09412 3.75074
# Velocity P-wave (km/s) = 5.96354 7.08944 6.55072
#
# Compressibility (1/GPa) = 0.02038682
#
# Stress axis : x y z
#
# Youngs Moduli (GPa) = 126.57506 67.70974 87.42465
#
# Poissons Ratio (x) = 0.22776 0.23345
# Poissons Ratio (y) = 0.42577 0.07225
# Poissons Ratio (z) = 0.33800 0.05595
#
# Static dielectric constant tensor:
#      x y z
#    x 1.890380 0.022370 -0.016060 
#    y 0.022370 1.910400 0.003540 
#    z -0.016060 0.003540 1.943450 
# 
# From -- ./inp_files/174583.got.cif
#   From: 2010.05.17/outbox.cif.g08.bks.cpg/sg2_88_cif.got.tgz:174583.got - 2010.06.03 11:33:40.
