data_PCOD9078057
_publ_section_title
;
Structure prediction by ZEFSAII (Michael W. Deem and Ramdas Pophale) SiO2 
 PCOD9078057
Probable space group: P -1
;
_chemical_formula_sum "Si O2"
_cell_formula_units_Z 16
_cell_length_a 23.485880
_cell_length_b 12.840660
_cell_length_c 7.749955
_cell_angle_alpha 143.988942
_cell_angle_beta 144.097856
_cell_angle_gamma 34.127949
_cell_volume 697.602327
_symmetry_space_group_name_H-M "P -1"
_symmetry_group_IT_number 2
_symmetry_cell_setting 'triclinic'
loop_
_space_group_symop_operation_xyz
x,y,z
-x,-y,-z
loop_
_atom_site_type_symbol
_atom_site_label
_atom_site_fract_x
_atom_site_fract_y
_atom_site_fract_z
Si Si1 0.249438 0.889048 0.569536
Si Si2 0.518845 0.081238 0.446501
Si Si3 0.127099 0.089368 0.010076
Si Si4 0.306503 0.208323 0.286222
Si Si5 0.015728 0.045306 0.323811
Si Si6 0.643433 0.199329 0.654541
Si Si7 0.467759 0.604073 0.874123
Si Si8 0.101635 0.491505 0.344943
O O1 0.300849 0.887062 0.506894
O O2 0.344239 0.675056 0.599093
O O3 0.125680 0.923531 0.313310
O O4 0.246833 0.075109 0.920447
O O5 0.387424 0.168427 0.267226
O O6 0.554046 0.140284 0.434055
O O7 0.616160 0.856460 0.436918
O O8 0.537730 0.187328 0.806645
O O9 0.070013 0.063596 0.663430
O O10 0.131283 0.300709 0.291819
O O11 0.053440 0.068464 0.953871
O O12 0.253639 0.899736 0.090854
O O13 0.204394 0.428955 0.380220
O O14 0.940380 0.279476 0.388695
O O15 0.569434 0.445488 0.794140
O O16 0.500000 0.500000 0.000000
O O17 0.000000 0.500000 0.000000
#
# Coordination Sequence:
#
# PCOD9078057 Si02
#       8
#     2   2   2   2   2   2   2   2
#     4  11  21  37  55  84 125 154 191 243 310 365
#     4   9  19  34  58  82 105 152 198 249 288 343
#     4  10  20  38  61  86 116 154 208 249 291 347
#     4  10  18  35  58  81 112 148 199 249 289 345
#     4  10  21  37  64  87 113 160 204 254 290 346
#     4  11  21  36  56  84 124 156 187 246 310 368
#     4   9  19  36  58  81 109 149 202 243 288 348
#     4  10  18  36  62  84 115 145 203 255 291 332
#
# _framework density 22.935704000000001
#
# number of rings (size 3 to 8) (size 9 to 14) (size 15 to 20)
#    0.000    2.000    3.750    1.875    1.750    1.000 
#    6.750    0.625    0.000    3.000    0.000    0.000 
#    0.000    0.000    0.000    0.000    0.000    0.000 
#
# Total GULP energy -89085.336199 kJ/mol
# GULP energy per Si atom -5567.833512 kJ/mol
# Density = 2.288350 g / cm^3
# Si number density = 22.935704 Si / 1000 Ang^3
#
#
#
# Elastic Constant Matrix: (Units=GPa)
#
#
# Indices 1 2 3 4 5 6 
#
# 1 155.1434 42.8145 26.7185 -6.1947 21.7284 -27.5146
# 2 42.8145 140.0959 22.1395 -5.3714 4.7674 -27.8829
# 3 26.7185 22.1395 36.6060 2.9556 4.1209 -9.6351
# 4 -6.1947 -5.3714 2.9556 12.1326 -6.3272 8.1827
# 5 21.7284 4.7674 4.1209 -6.3272 33.1749 -12.5107
# 6 -27.5146 -27.8829 -9.6351 8.1827 -12.5107 36.9267
#
#
#
# Elastic Compliance Matrix: (Units=1/GPa)
#
#
# Indices 1 2 3 4 5 6 
#
# 1 0.008606 -0.001181 -0.004499 0.001151 -0.003607 0.002870
# 2 -0.001181 0.009154 -0.003653 0.001876 0.002325 0.005451
# 3 -0.004499 -0.003653 0.036293 -0.018346 -0.001990 0.006751
# 4 0.001151 0.001876 -0.018346 0.110623 0.013943 -0.022302
# 5 -0.003607 0.002325 -0.001990 0.013943 0.038253 0.008420
# 6 0.002870 0.005451 0.006751 -0.022302 0.008420 0.042891
#
#
# Mechanical properties :
#
#
# Convention : Reuss Voigt Hill
#
# Bulk Modulus (GPa) = 28.25832 57.24338 42.75085
# Shear Modulus (GPa) = 18.09749 32.45836 25.27792
#
# Velocity S-wave (km/s) = 2.81206 3.76598 3.32342
# Velocity P-wave (km/s) = 4.78445 6.62741 5.77986
#
# Compressibility (1/GPa) = 0.03538780
#
# Stress axis : x y z
#
# Youngs Moduli (GPa) = 116.19155 109.24374 27.55363
#
# Poissons Ratio (x) = 0.12903 0.12396
# Poissons Ratio (y) = 0.13724 0.10064
# Poissons Ratio (z) = 0.52273 0.39903
#
# Static dielectric constant tensor:
#      x y z
#    x 1.928870 0.035170 0.039070 
#    y 0.035170 2.094760 0.089800 
#    z 0.039070 0.089800 1.974580 
# 
# From -- ./inp_files/354226.got.cif
#   From: 2010.05.17/outbox.cif.g08.bks.cpg/sg2_178_cif.got.tgz:354226.got - 2010.06.03 11:33:40.
