data_PCOD9078524
_publ_section_title
;
Structure prediction by ZEFSAII (Michael W. Deem and Ramdas Pophale) SiO2 
 PCOD9078524
Probable space group: P -1
;
_chemical_formula_sum "Si O2"
_cell_formula_units_Z 16
_cell_length_a 16.602522
_cell_length_b 8.702349
_cell_length_c 26.914799
_cell_angle_alpha 29.759773
_cell_angle_beta 158.821276
_cell_angle_gamma 146.511921
_cell_volume 690.789810
_symmetry_space_group_name_H-M "P -1"
_symmetry_group_IT_number 2
_symmetry_cell_setting 'triclinic'
loop_
_space_group_symop_operation_xyz
x,y,z
-x,-y,-z
loop_
_atom_site_type_symbol
_atom_site_label
_atom_site_fract_x
_atom_site_fract_y
_atom_site_fract_z
Si Si1 0.730322 0.572809 0.292492
Si Si2 0.976784 0.776678 0.693855
Si Si3 0.772177 0.407338 0.026268
Si Si4 0.198835 0.177220 0.322085
Si Si5 0.460123 0.700497 0.640713
Si Si6 0.060052 0.216783 0.078035
Si Si7 0.402719 0.791990 0.206845
Si Si8 0.158077 0.967731 0.553424
O O1 0.879481 0.881748 0.311055
O O2 0.655019 0.343484 0.359660
O O3 0.862678 0.376280 0.386087
O O4 0.494260 0.656733 0.111923
O O5 0.136040 0.553994 0.875467
O O6 0.772059 0.736874 0.626687
O O7 0.895199 0.783167 0.589056
O O8 0.854478 0.679703 0.957495
O O9 0.927075 0.147401 0.167978
O O10 0.304657 0.471107 0.269029
O O11 0.314280 0.869455 0.470801
O O12 0.483422 0.347336 0.736202
O O13 0.715083 0.883597 0.740562
O O14 0.809380 0.039272 0.977616
O O15 0.000000 0.500000 0.000000
O O16 0.586248 0.973330 0.296784
O O17 0.000000 0.000000 0.500000
#
# Coordination Sequence:
#
# PCOD9078524 Si02
#       8
#     2   2   2   2   2   2   2   2
#     4  11  20  39  61  83 113 153 197 235 277 345
#     4  10  21  38  60  83 115 149 199 231 284 336
#     4   8  18  34  59  87 108 145 191 236 280 331
#     4   9  19  35  60  89 112 144 190 231 285 337
#     4  10  18  35  64  89 111 150 193 232 281 340
#     4   8  16  33  56  86 117 144 183 227 280 340
#     4  10  21  38  56  87 124 145 184 239 287 339
#     4  12  26  39  57  83 116 155 193 239 289 335
#
# _framework density 23.161892999999999
#
# number of rings (size 3 to 8) (size 9 to 14) (size 15 to 20)
#    0.750    1.500    1.250    1.875    1.750    0.500 
#    0.000    7.500    0.000    0.000    0.000    0.000 
#    0.000    0.000    0.000    0.000    0.000    0.000 
#
# Total GULP energy -89089.839335 kJ/mol
# GULP energy per Si atom -5568.114958 kJ/mol
# Density = 2.310918 g / cm^3
# Si number density = 23.161893 Si / 1000 Ang^3
#
#
#
# Elastic Constant Matrix: (Units=GPa)
#
#
# Indices 1 2 3 4 5 6 
#
# 1 107.1946 9.1847 8.8599 -1.0481 -2.9416 -6.9342
# 2 9.1847 36.4529 14.6418 -0.1298 9.4084 -13.4647
# 3 8.8599 14.6418 113.2523 8.3358 6.1342 -11.0639
# 4 -1.0481 -0.1298 8.3358 28.3396 -3.7072 0.0741
# 5 -2.9416 9.4084 6.1342 -3.7072 39.0750 0.5313
# 6 -6.9342 -13.4647 -11.0639 0.0741 0.5313 17.2646
#
#
#
# Elastic Compliance Matrix: (Units=1/GPa)
#
#
# Indices 1 2 3 4 5 6 
#
# 1 0.009700 -0.001787 -0.000429 0.000636 0.001258 0.002186
# 2 -0.001787 0.043266 -0.001647 -0.000883 -0.010817 0.032307
# 3 -0.000429 -0.001647 0.009874 -0.003143 -0.001551 0.004932
# 4 0.000636 -0.000883 -0.003143 0.036798 0.004282 -0.002737
# 5 0.001258 -0.010817 -0.001551 0.004282 0.029074 -0.009838
# 6 0.002186 0.032307 0.004932 -0.002737 -0.009838 0.087471
#
#
# Mechanical properties :
#
#
# Convention : Reuss Voigt Hill
#
# Bulk Modulus (GPa) = 18.14432 35.80810 26.97621
# Shear Modulus (GPa) = 20.63737 31.88340 26.26039
#
# Velocity S-wave (km/s) = 2.98821 3.71421 3.37081
# Velocity P-wave (km/s) = 4.44484 5.82128 5.17899
#
# Compressibility (1/GPa) = 0.05511365
#
# Stress axis : x y z
#
# Youngs Moduli (GPa) = 103.09779 23.11273 101.28107
#
# Poissons Ratio (x) = 0.04129 0.04347
# Poissons Ratio (y) = 0.18420 0.16680
# Poissons Ratio (z) = 0.04425 0.03806
#
# Static dielectric constant tensor:
#      x y z
#    x 1.928560 -0.025070 0.005590 
#    y -0.025070 1.909310 -0.023450 
#    z 0.005590 -0.023450 1.968940 
# 
# From -- ./inp_files/620196.got.cif
#   From: 2010.05.17/outbox.cif.g08.bks.cpg/sg2_311_cif.got.tgz:620196.got - 2010.06.03 11:33:40.
