data_PCOD9078022
_publ_section_title
;
Structure prediction by ZEFSAII (Michael W. Deem and Ramdas Pophale) SiO2 
 PCOD9078022
Probable space group: P -1
;
_chemical_formula_sum "Si O2"
_cell_formula_units_Z 15
_cell_length_a 9.895466
_cell_length_b 8.119754
_cell_length_c 13.132233
_cell_angle_alpha 93.109981
_cell_angle_beta 34.267999
_cell_angle_gamma 84.748535
_cell_volume 575.534433
_symmetry_space_group_name_H-M "P -1"
_symmetry_group_IT_number 2
_symmetry_cell_setting 'triclinic'
loop_
_space_group_symop_operation_xyz
x,y,z
-x,-y,-z
loop_
_atom_site_type_symbol
_atom_site_label
_atom_site_fract_x
_atom_site_fract_y
_atom_site_fract_z
Si Si1 0.573774 0.996148 0.571428
Si Si2 0.716549 0.273227 0.173384
Si Si3 0.500000 0.500000 0.500000
Si Si4 0.013321 0.314856 0.434634
Si Si5 0.968353 0.519217 0.774711
Si Si6 0.420823 0.875177 0.932763
Si Si7 0.877340 0.195796 0.712727
Si Si8 0.264550 0.219079 0.917262
O O1 0.418732 0.871137 0.710584
O O2 0.861225 0.923991 0.416433
O O3 0.500000 0.000000 0.500000
O O4 0.465851 0.174770 0.701114
O O5 0.572906 0.432830 0.333415
O O6 0.700496 0.255035 0.061924
O O7 0.998690 0.231670 0.031375
O O8 0.235188 0.444178 0.654742
O O9 0.290448 0.199233 0.265583
O O10 0.863092 0.220356 0.601135
O O11 0.000000 0.500000 0.500000
O O12 0.969926 0.346460 0.342664
O O13 0.872223 0.381042 0.767315
O O14 0.776772 0.615249 0.981313
O O15 0.336581 0.868133 0.100745
O O16 0.318007 0.059744 0.955551
#
# Coordination Sequence:
#
# PCOD9078022 Si02
#       8
#     2   2   1   2   2   2   2   2
#     4  11  19  35  59  89 119 161 205 244 300 372
#     4  10  18  35  57  86 119 161 196 248 307 352
#     4  10  18  38  60  84 122 156 194 252 308 358
#     4  10  21  40  65  89 123 166 205 251 307 364
#     4  10  22  39  63  91 122 163 203 254 314 359
#     4  11  21  39  64  89 123 162 209 255 295 368
#     4  11  21  40  66  91 118 168 211 244 304 372
#     4  10  21  37  60  90 127 161 200 259 313 351
#
# _framework density 26.062733999999999
#
# number of rings (size 3 to 8) (size 9 to 14) (size 15 to 20)
#    0.000    1.600    4.000    4.000    0.000    2.667 
#    2.400    2.667    8.800    0.000    0.000    0.000 
#    0.000    0.000    0.000    0.000    0.000    0.000 
#
# Total GULP energy -83759.894369 kJ/mol
# GULP energy per Si atom -5583.992958 kJ/mol
# Density = 2.600341 g / cm^3
# Si number density = 26.062734 Si / 1000 Ang^3
#
#
#
# Elastic Constant Matrix: (Units=GPa)
#
#
# Indices 1 2 3 4 5 6 
#
# 1 107.3424 17.5570 38.5439 6.1701 22.3456 12.7336
# 2 17.5570 71.4897 33.0098 5.4746 14.4142 5.0243
# 3 38.5439 33.0098 144.8467 23.4813 31.2122 -5.3013
# 4 6.1701 5.4746 23.4813 44.1736 -1.4143 17.9500
# 5 22.3456 14.4142 31.2122 -1.4143 36.0587 -2.4072
# 6 12.7336 5.0243 -5.3013 17.9500 -2.4072 27.5339
#
#
#
# Elastic Compliance Matrix: (Units=1/GPa)
#
#
# Indices 1 2 3 4 5 6 
#
# 1 0.012420 -0.000210 -0.002917 0.003276 -0.005553 -0.008888
# 2 -0.000210 0.016587 -0.003339 0.001651 -0.003879 -0.004988
# 3 -0.002917 -0.003339 0.011868 -0.009778 -0.006845 0.010019
# 4 0.003276 0.001651 -0.009778 0.038985 0.005391 -0.028642
# 5 -0.005553 -0.003879 -0.006845 0.005391 0.038984 0.001852
# 6 -0.008888 -0.004988 0.010019 -0.028642 0.001852 0.062103
#
#
# Mechanical properties :
#
#
# Convention : Reuss Voigt Hill
#
# Bulk Modulus (GPa) = 35.78618 55.76669 45.77644
# Shear Modulus (GPa) = 24.60727 37.19111 30.89919
#
# Velocity S-wave (km/s) = 3.07604 3.78164 3.44695
# Velocity P-wave (km/s) = 5.13582 6.36485 5.78308
#
# Compressibility (1/GPa) = 0.02794375
#
# Stress axis : x y z
#
# Youngs Moduli (GPa) = 80.51775 60.28673 84.26271
#
# Poissons Ratio (x) = 0.01266 0.24578
# Poissons Ratio (y) = 0.01690 0.28133
# Poissons Ratio (z) = 0.23486 0.20128
#
# Static dielectric constant tensor:
#      x y z
#    x 2.046510 -0.011250 0.075910 
#    y -0.011250 2.132660 -0.013580 
#    z 0.075910 -0.013580 2.048310 
# 
# From -- ./inp_files/515604.got.cif
#   From: 2010.05.17/outbox.cif.g08.bks.cpg/sg2_258_cif.got.tgz:515604.got - 2010.06.03 11:33:40.
