data_PCOD9078069
_publ_section_title
;
Structure prediction by ZEFSAII (Michael W. Deem and Ramdas Pophale) SiO2 
 PCOD9078069
Probable space group: P -1
;
_chemical_formula_sum "Si O2"
_cell_formula_units_Z 16
_cell_length_a 9.478146
_cell_length_b 8.229873
_cell_length_c 20.056411
_cell_angle_alpha 138.869574
_cell_angle_beta 45.272007
_cell_angle_gamma 132.096162
_cell_volume 697.381740
_symmetry_space_group_name_H-M "P -1"
_symmetry_group_IT_number 2
_symmetry_cell_setting 'triclinic'
loop_
_space_group_symop_operation_xyz
x,y,z
-x,-y,-z
loop_
_atom_site_type_symbol
_atom_site_label
_atom_site_fract_x
_atom_site_fract_y
_atom_site_fract_z
Si Si1 0.105290 0.707877 0.240513
Si Si2 0.621897 0.248282 0.427797
Si Si3 0.180490 0.614013 0.860594
Si Si4 0.233148 0.932920 0.814418
Si Si5 0.484126 0.548454 0.098305
Si Si6 0.186479 0.234212 0.538338
Si Si7 0.182098 0.047006 0.091420
Si Si8 0.914128 0.956229 0.286673
O O1 0.050225 0.520635 0.136189
O O2 0.921935 0.621872 0.328719
O O3 0.061994 0.962592 0.303160
O O4 0.314177 0.707750 0.206071
O O5 0.664953 0.147327 0.309352
O O6 0.373539 0.163074 0.491674
O O7 0.705608 0.559529 0.490636
O O8 0.766088 0.137394 0.392975
O O9 0.290075 0.816558 0.828524
O O10 0.234994 0.343941 0.764291
O O11 0.196439 0.779520 0.972864
O O12 0.983599 0.866043 0.872352
O O13 0.308232 0.244670 0.883170
O O14 0.394837 0.280480 0.084737
O O15 0.500000 0.500000 0.000000
O O16 0.000000 0.000000 0.500000
O O17 0.072392 0.017027 0.190228
#
# Coordination Sequence:
#
# PCOD9078069 Si02
#       8
#     2   2   2   2   2   2   2   2
#     4  10  21  39  57  85 120 156 188 243 296 339
#     4  10  21  39  62  88 110 151 193 242 297 350
#     4  10  18  35  58  82 119 160 188 230 289 338
#     4  11  20  36  61  85 117 154 202 243 283 338
#     4  12  22  34  60  90 115 159 208 240 276 338
#     4  11  22  40  66  86 110 144 201 250 291 345
#     4  11  19  37  58  85 122 159 198 238 281 336
#     4   9  21  37  62  83 124 161 186 230 301 356
#
# _framework density 22.942958000000001
#
# number of rings (size 3 to 8) (size 9 to 14) (size 15 to 20)
#    0.750    0.750    3.750    3.000    0.000    0.500 
#    0.000    5.000    0.000    0.000    0.000    0.000 
#    0.000    0.000    0.000    0.000    0.000    0.000 
#
# Total GULP energy -89180.942915 kJ/mol
# GULP energy per Si atom -5573.808932 kJ/mol
# Density = 2.289074 g / cm^3
# Si number density = 22.942958 Si / 1000 Ang^3
#
#
#
# Elastic Constant Matrix: (Units=GPa)
#
#
# Indices 1 2 3 4 5 6 
#
# 1 39.3779 7.9975 0.6366 3.6548 -5.7706 -5.4650
# 2 7.9975 92.5725 -8.8753 10.1471 5.9023 5.4307
# 3 0.6366 -8.8753 49.0232 1.2108 -12.2960 8.3480
# 4 3.6548 10.1471 1.2108 31.5748 1.6257 1.3880
# 5 -5.7706 5.9023 -12.2960 1.6257 21.0605 8.0360
# 6 -5.4650 5.4307 8.3480 1.3880 8.0360 32.2397
#
#
#
# Elastic Compliance Matrix: (Units=1/GPa)
#
#
# Indices 1 2 3 4 5 6 
#
# 1 0.027782 -0.002703 0.000615 -0.002910 0.007731 0.003204
# 2 -0.002703 0.011876 0.002335 -0.003406 -0.001470 -0.002550
# 3 0.000615 0.002335 0.028354 -0.002435 0.021139 -0.012795
# 4 -0.002910 -0.003406 -0.002435 0.033387 -0.003939 0.000255
# 5 0.007731 -0.001470 0.021139 -0.003939 0.070824 -0.021399
# 6 0.003204 -0.002550 -0.012795 0.000255 -0.021399 0.040626
#
#
# Mechanical properties :
#
#
# Convention : Reuss Voigt Hill
#
# Bulk Modulus (GPa) = 14.59711 20.05460 17.32586
# Shear Modulus (GPa) = 21.25940 29.05598 25.15769
#
# Velocity S-wave (km/s) = 3.04735 3.56257 3.31499
# Velocity P-wave (km/s) = 4.33104 5.06780 4.71384
#
# Compressibility (1/GPa) = 0.06850669
#
# Stress axis : x y z
#
# Youngs Moduli (GPa) = 35.99507 84.20097 35.26810
#
# Poissons Ratio (x) = 0.22760 -0.02170
# Poissons Ratio (y) = 0.09730 -0.08235
# Poissons Ratio (z) = -0.02215 -0.19661
#
# Static dielectric constant tensor:
#      x y z
#    x 1.897250 -0.015470 0.000170 
#    y -0.015470 1.935470 0.057600 
#    z 0.000170 0.057600 1.910040 
# 
# From -- ./inp_files/609920.got.cif
#   From: 2010.05.17/outbox.cif.g08.bks.cpg/sg2_305_cif.got.tgz:609920.got - 2010.06.03 11:33:40.
