data_PCOD9078947
_publ_section_title
;
Structure prediction by ZEFSAII (Michael W. Deem and Ramdas Pophale) SiO2 
 PCOD9078947
Probable space group: P -1
;
_chemical_formula_sum "Si O2"
_cell_formula_units_Z 14
_cell_length_a 12.586212
_cell_length_b 11.765798
_cell_length_c 12.143977
_cell_angle_alpha 87.367105
_cell_angle_beta 135.919536
_cell_angle_gamma 127.568013
_cell_volume 697.304740
_symmetry_space_group_name_H-M "P -1"
_symmetry_group_IT_number 2
_symmetry_cell_setting 'triclinic'
loop_
_space_group_symop_operation_xyz
x,y,z
-x,-y,-z
loop_
_atom_site_type_symbol
_atom_site_label
_atom_site_fract_x
_atom_site_fract_y
_atom_site_fract_z
Si Si1 0.822553 0.306947 0.154109
Si Si2 0.339299 0.277697 0.006344
Si Si3 0.562907 0.922325 0.911744
Si Si4 0.366588 0.137893 0.679198
Si Si5 0.795106 0.055118 0.668266
Si Si6 0.333497 0.778394 0.511458
Si Si7 0.209934 0.272097 0.658760
O O1 0.665190 0.222984 0.156307
O O2 0.122063 0.544442 0.371047
O O3 0.646401 0.270810 0.936289
O O4 0.789319 0.155158 0.102184
O O5 0.292074 0.276342 0.841700
O O6 0.098027 0.192022 0.895114
O O7 0.324795 0.134863 0.016374
O O8 0.630255 0.511649 0.245758
O O9 0.423884 0.870658 0.696192
O O10 0.308380 0.235703 0.649837
O O11 0.337011 0.082917 0.533459
O O12 0.117512 0.923723 0.571340
O O13 0.804765 0.196581 0.648345
O O14 0.599685 0.913036 0.632142
#
# Coordination Sequence:
#
# PCOD9078947 Si02
#       7
#     2   2   2   2   2   2   2
#     4  11  23  40  64  92 124 161 198 256 312 356
#     4  10  20  38  62  89 121 160 201 253 308 354
#     4  11  24  40  62  93 125 157 204 255 304 367
#     4  10  18  36  60  93 120 152 207 256 294 365
#     4  10  23  41  64  88 125 161 211 247 291 372
#     4  11  24  44  61  90 126 167 202 247 301 366
#     4   9  19  33  61  93 121 152 203 258 309 345
#
# _framework density 20.077304000000002
#
# number of rings (size 3 to 8) (size 9 to 14) (size 15 to 20)
#    0.000    1.714    2.857    1.286    4.000    3.429 
#    2.571    0.714    0.000    0.000    0.000    0.000 
#    0.000    0.000    0.000    0.000    0.000    0.000 
#
# Total GULP energy -78273.310404 kJ/mol
# GULP energy per Si atom -5590.950743 kJ/mol
# Density = 2.003161 g / cm^3
# Si number density = 20.077304 Si / 1000 Ang^3
#
#
#
# Elastic Constant Matrix: (Units=GPa)
#
#
# Indices 1 2 3 4 5 6 
#
# 1 47.7652 27.9477 16.6070 23.5730 -3.8789 -15.9716
# 2 27.9477 67.5160 20.0732 24.7116 -2.3494 -6.5541
# 3 16.6070 20.0732 38.6348 17.6708 -8.6090 1.9890
# 4 23.5730 24.7116 17.6708 27.9596 -7.6333 -4.0226
# 5 -3.8789 -2.3494 -8.6090 -7.6333 23.3175 -7.3415
# 6 -15.9716 -6.5541 1.9890 -4.0226 -7.3415 23.1648
#
#
#
# Elastic Compliance Matrix: (Units=1/GPa)
#
#
# Indices 1 2 3 4 5 6 
#
# 1 0.051413 -0.005911 -0.006563 -0.027683 0.006409 0.031563
# 2 -0.005911 0.023636 -0.003987 -0.015073 -0.005446 -0.001389
# 3 -0.006563 -0.003987 0.039818 -0.016372 0.004550 -0.010473
# 4 -0.027683 -0.015073 -0.016372 0.086765 0.015629 -0.001926
# 5 0.006409 -0.005446 0.004550 0.015629 0.057583 0.023451
# 6 0.031563 -0.001389 -0.010473 -0.001926 0.023451 0.072535
#
#
# Mechanical properties :
#
#
# Convention : Reuss Voigt Hill
#
# Bulk Modulus (GPa) = 12.20358 31.46353 21.83356
# Shear Modulus (GPa) = 12.75546 20.84094 16.79820
#
# Velocity S-wave (km/s) = 2.52329 3.22535 2.89567
# Velocity P-wave (km/s) = 3.81848 5.43836 4.69875
#
# Compressibility (1/GPa) = 0.08194315
#
# Stress axis : x y z
#
# Youngs Moduli (GPa) = 19.45034 42.30766 25.11449
#
# Poissons Ratio (x) = 0.25009 0.16483
# Poissons Ratio (y) = 0.11498 0.10014
# Poissons Ratio (z) = 0.12766 0.16870
#
# Static dielectric constant tensor:
#      x y z
#    x 1.688620 -0.022730 -0.001080 
#    y -0.022730 1.708730 -0.017680 
#    z -0.001080 -0.017680 1.707570 
# 
# From -- ./inp_files/260858.got.cif
#   From: 2010.05.17/outbox.cif.g08.bks.cpg/sg2_131_cif.got.tgz:260858.got - 2010.06.03 11:33:40.
