data_PCOD9078931
_publ_section_title
;
Structure prediction by ZEFSAII (Michael W. Deem and Ramdas Pophale) SiO2 
 PCOD9078931
Probable space group: P -1
;
_chemical_formula_sum "Si O2"
_cell_formula_units_Z 15
_cell_length_a 12.726373
_cell_length_b 11.895690
_cell_length_c 14.703927
_cell_angle_alpha 151.028604
_cell_angle_beta 141.796539
_cell_angle_gamma 57.927867
_cell_volume 568.600873
_symmetry_space_group_name_H-M "P -1"
_symmetry_group_IT_number 2
_symmetry_cell_setting 'triclinic'
loop_
_space_group_symop_operation_xyz
x,y,z
-x,-y,-z
loop_
_atom_site_type_symbol
_atom_site_label
_atom_site_fract_x
_atom_site_fract_y
_atom_site_fract_z
Si Si1 0.198558 0.505212 0.670812
Si Si2 0.721428 0.604778 0.536528
Si Si3 0.464806 0.154673 0.166192
Si Si4 0.000000 0.000000 0.500000
Si Si5 0.218435 0.654490 0.333954
Si Si6 0.179826 0.806970 0.034489
Si Si7 0.804600 0.471084 0.973236
Si Si8 0.961531 0.983343 0.241379
O O1 0.322021 0.563751 0.705072
O O2 0.266697 0.699844 0.940742
O O3 0.000000 0.500000 0.500000
O O4 0.136506 0.208068 0.457145
O O5 0.561576 0.456391 0.401543
O O6 0.937074 0.662766 0.759858
O O7 0.741956 0.883666 0.717351
O O8 0.592295 0.191227 0.366683
O O9 0.234548 0.025435 0.933169
O O10 0.500000 0.000000 0.000000
O O11 0.238274 0.290649 0.874937
O O12 0.005647 0.939356 0.576122
O O13 0.049738 0.714978 0.299786
O O14 0.257061 0.684932 0.274446
O O15 0.096117 0.326505 0.030642
O O16 0.229439 0.722766 0.104341
#
# Coordination Sequence:
#
# PCOD9078931 Si02
#       8
#     2   2   2   1   2   2   2   2
#     4  10  20  34  59  91 119 160 209 248 300 371
#     4  10  22  36  60  92 124 164 207 252 310 370
#     4  12  23  40  60  89 132 159 201 265 322 356
#     4  10  20  36  62  90 122 158 204 252 306 368
#     4  10  22  35  58  89 122 162 203 257 309 369
#     4  10  18  36  61  86 125 163 209 251 302 368
#     4  10  18  36  60  89 121 162 208 254 303 364
#     4  11  22  38  62  92 123 157 209 258 311 365
#
# _framework density 26.380544
#
# number of rings (size 3 to 8) (size 9 to 14) (size 15 to 20)
#    0.000    1.600    2.667    3.600    3.733    0.000 
#    2.400    0.000    0.000    8.000    0.000    0.000 
#    0.000    0.000    0.000    0.000    0.000    0.000 
#
# Total GULP energy -83882.923754 kJ/mol
# GULP energy per Si atom -5592.194917 kJ/mol
# Density = 2.632050 g / cm^3
# Si number density = 26.380544 Si / 1000 Ang^3
#
#
#
# Elastic Constant Matrix: (Units=GPa)
#
#
# Indices 1 2 3 4 5 6 
#
# 1 88.0767 42.7886 53.0932 -18.4759 -16.4992 25.7698
# 2 42.7886 139.4030 51.9963 -0.2134 -10.0107 39.3894
# 3 53.0932 51.9963 95.6624 -6.2423 -27.2495 16.0659
# 4 -18.4759 -0.2134 -6.2423 52.9940 10.8964 -4.7844
# 5 -16.4992 -10.0107 -27.2495 10.8964 41.9598 -2.4487
# 6 25.7698 39.3894 16.0659 -4.7844 -2.4487 58.5663
#
#
#
# Elastic Compliance Matrix: (Units=1/GPa)
#
#
# Indices 1 2 3 4 5 6 
#
# 1 0.020223 -0.001304 -0.009361 0.005525 -0.000165 -0.005009
# 2 -0.001304 0.010771 -0.004529 -0.001266 -0.000880 -0.005568
# 3 -0.009361 -0.004529 0.020255 -0.002622 0.009177 0.001778
# 4 0.005525 -0.001266 -0.002622 0.021658 -0.005417 0.000683
# 5 -0.000165 -0.000880 0.009177 -0.005417 0.030866 -0.001005
# 6 -0.005009 -0.005568 0.001778 0.000683 -0.001005 0.022550
#
#
# Mechanical properties :
#
#
# Convention : Reuss Voigt Hill
#
# Bulk Modulus (GPa) = 47.93345 68.76645 58.34995
# Shear Modulus (GPa) = 30.55038 42.38830 36.46934
#
# Velocity S-wave (km/s) = 3.40673 4.01284 3.72214
# Velocity P-wave (km/s) = 5.80378 6.89886 6.37487
#
# Compressibility (1/GPa) = 0.02086226
#
# Stress axis : x y z
#
# Youngs Moduli (GPa) = 49.44744 92.83963 49.37097
#
# Poissons Ratio (x) = 0.12106 0.46214
# Poissons Ratio (y) = 0.06448 0.22361
# Poissons Ratio (z) = 0.46286 0.42048
#
# Static dielectric constant tensor:
#      x y z
#    x 2.160640 -0.123630 -0.076140 
#    y -0.123630 2.162020 0.104910 
#    z -0.076140 0.104910 2.197380 
# 
# From -- ./inp_files/495914.got.cif
#   From: 2010.05.17/outbox.cif.g08.bks.cpg/sg2_248_cif.got.tgz:495914.got - 2010.06.03 11:33:40.
