data_PCOD9078259
_publ_section_title
;
Structure prediction by ZEFSAII (Michael W. Deem and Ramdas Pophale) SiO2 
 PCOD9078259
Probable space group: P -1
;
_chemical_formula_sum "Si O2"
_cell_formula_units_Z 16
_cell_length_a 11.442739
_cell_length_b 11.100176
_cell_length_c 12.736357
_cell_angle_alpha 117.169257
_cell_angle_beta 143.517994
_cell_angle_gamma 47.262761
_cell_volume 691.616700
_symmetry_space_group_name_H-M "P -1"
_symmetry_group_IT_number 2
_symmetry_cell_setting 'triclinic'
loop_
_space_group_symop_operation_xyz
x,y,z
-x,-y,-z
loop_
_atom_site_type_symbol
_atom_site_label
_atom_site_fract_x
_atom_site_fract_y
_atom_site_fract_z
Si Si1 0.387758 0.426056 0.063725
Si Si2 0.745526 0.954820 0.713483
Si Si3 0.577878 0.308240 0.688805
Si Si4 0.139001 0.823716 0.769979
Si Si5 0.008696 0.806172 0.222910
Si Si6 0.178675 0.352319 0.273462
Si Si7 0.915393 0.881975 0.415861
Si Si8 0.599681 0.784886 0.827017
O O1 0.423220 0.561854 0.187177
O O2 0.579955 0.323788 0.069859
O O3 0.470135 0.288840 0.159962
O O4 0.107233 0.508780 0.872422
O O5 0.791883 0.824377 0.782758
O O6 0.968281 0.852714 0.753546
O O7 0.500000 0.000000 0.500000
O O8 0.702625 0.131054 0.769525
O O9 0.323711 0.356454 0.477602
O O10 0.740178 0.281434 0.693142
O O11 0.034370 0.793533 0.576940
O O12 0.106805 0.997284 0.796228
O O13 0.004006 0.772283 0.330194
O O14 0.836943 0.768429 0.028468
O O15 0.319896 0.336265 0.263344
O O16 0.624210 0.019883 0.273159
O O17 0.000000 0.000000 0.500000
#
# Coordination Sequence:
#
# PCOD9078259 Si02
#       8
#     2   2   2   2   2   2   2   2
#     4  12  25  40  59 101 138 158 205 265 327 376
#     4   9  20  45  73  87 118 169 227 257 299 383
#     4  10  23  43  65  93 125 167 215 261 314 375
#     4  10  22  41  64  94 127 166 212 269 307 374
#     4  10  20  38  62  91 126 168 218 251 306 382
#     4  11  24  42  66  91 129 174 207 260 320 369
#     4  10  18  35  60  86 122 167 209 251 314 362
#     4  12  22  39  60  98 133 164 215 260 306 390
#
# _framework density 23.1342
#
# number of rings (size 3 to 8) (size 9 to 14) (size 15 to 20)
#    0.000    1.500    3.750    3.750    0.000    2.500 
#    0.000    2.500    0.000    0.000    0.000    0.000 
#    0.000    0.000    0.000    0.000    0.000    0.000 
#
# Total GULP energy -89436.056527 kJ/mol
# GULP energy per Si atom -5589.753533 kJ/mol
# Density = 2.308155 g / cm^3
# Si number density = 23.134200 Si / 1000 Ang^3
#
#
#
# Elastic Constant Matrix: (Units=GPa)
#
#
# Indices 1 2 3 4 5 6 
#
# 1 42.2135 24.6095 16.9821 -6.5488 20.5628 -8.2306
# 2 24.6095 58.0605 18.4289 -5.1357 18.6310 -3.7521
# 3 16.9821 18.4289 71.8446 -0.7062 15.8159 2.5052
# 4 -6.5488 -5.1357 -0.7062 39.1572 -6.6582 7.7063
# 5 20.5628 18.6310 15.8159 -6.6582 30.3554 -5.8480
# 6 -8.2306 -3.7521 2.5052 7.7063 -5.8480 26.8213
#
#
#
# Elastic Compliance Matrix: (Units=1/GPa)
#
#
# Indices 1 2 3 4 5 6 
#
# 1 0.041521 -0.009992 -0.003404 0.000968 -0.018596 0.007329
# 2 -0.009992 0.024453 -0.002291 0.000502 -0.007154 -0.001136
# 3 -0.003404 -0.002291 0.016756 -0.000794 -0.005964 -0.004002
# 4 0.000968 0.000502 -0.000794 0.027778 0.004270 -0.006609
# 5 -0.018596 -0.007154 -0.005964 0.004270 0.054858 0.004584
# 6 0.007329 -0.001136 -0.004002 -0.006609 0.004584 0.042646
#
#
# Mechanical properties :
#
#
# Convention : Reuss Voigt Hill
#
# Bulk Modulus (GPa) = 19.47202 32.46221 25.96712
# Shear Modulus (GPa) = 19.49286 26.73998 23.11642
#
# Velocity S-wave (km/s) = 2.90591 3.40349 3.16449
# Velocity P-wave (km/s) = 4.43783 5.43209 4.95993
#
# Compressibility (1/GPa) = 0.05135573
#
# Stress axis : x y z
#
# Youngs Moduli (GPa) = 24.08407 40.89535 59.68129
#
# Poissons Ratio (x) = 0.40864 0.20313
# Poissons Ratio (y) = 0.24066 0.13673
# Poissons Ratio (z) = 0.08197 0.09369
#
# Static dielectric constant tensor:
#      x y z
#    x 1.942360 -0.077900 -0.024910 
#    y -0.077900 2.022910 -0.021880 
#    z -0.024910 -0.021880 1.856980 
# 
# From -- ./inp_files/298270.got.cif
#   From: 2010.05.17/outbox.cif.g08.bks.cpg/sg2_150_cif.got.tgz:298270.got - 2010.06.03 11:33:40.
