data_PCOD9078450
_publ_section_title
;
Structure prediction by ZEFSAII (Michael W. Deem and Ramdas Pophale) SiO2 
 PCOD9078450
Probable space group: P -1
;
_chemical_formula_sum "Si O2"
_cell_formula_units_Z 14
_cell_length_a 26.038077
_cell_length_b 11.605483
_cell_length_c 14.831650
_cell_angle_alpha 142.826407
_cell_angle_beta 18.580483
_cell_angle_gamma 150.048497
_cell_volume 704.509552
_symmetry_space_group_name_H-M "P -1"
_symmetry_group_IT_number 2
_symmetry_cell_setting 'triclinic'
loop_
_space_group_symop_operation_xyz
x,y,z
-x,-y,-z
loop_
_atom_site_type_symbol
_atom_site_label
_atom_site_fract_x
_atom_site_fract_y
_atom_site_fract_z
Si Si1 0.355719 0.302980 0.994873
Si Si2 0.689064 0.811910 0.806109
Si Si3 0.913350 0.078419 0.432944
Si Si4 0.666796 0.802651 0.230209
Si Si5 0.604161 0.031731 0.639043
Si Si6 0.482643 0.274443 0.238247
Si Si7 0.170558 0.548619 0.366090
O O1 0.266272 0.153222 0.140531
O O2 0.235606 0.408104 0.228725
O O3 0.568641 0.535783 0.812967
O O4 0.369536 0.187210 0.809463
O O5 0.865260 0.946519 0.526237
O O6 0.546939 0.894940 0.072532
O O7 0.723190 0.914474 0.586031
O O8 0.970184 0.336751 0.522462
O O9 0.108640 0.122386 0.090963
O O10 0.636482 0.957229 0.442900
O O11 0.526337 0.530357 0.323620
O O12 0.521596 0.822101 0.716970
O O13 0.806483 0.255267 0.485201
O O14 0.656939 0.311633 0.908102
#
# Coordination Sequence:
#
# PCOD9078450 Si02
#       7
#     2   2   2   2   2   2   2
#     4   8  17  36  59  79 107 140 187 215 272 328
#     4  10  18  35  63  81  98 152 182 224 264 320
#     4  10  19  37  58  80 106 145 187 215 277 316
#     4  10  22  37  54  84 112 144 176 227 271 330
#     4  11  21  36  54  83 119 136 181 228 272 312
#     4  10  19  39  57  76 110 154 179 218 267 328
#     4   9  20  35  56  87 104 140 187 232 255 320
#
# _framework density 19.871981000000002
#
# number of rings (size 3 to 8) (size 9 to 14) (size 15 to 20)
#    0.000    2.571    4.286    0.857    0.000    4.000 
#    5.143    0.000    0.000    8.571    0.000    0.000 
#    0.000    0.000    0.000    0.000    0.000    0.000 
#
# Total GULP energy -78075.019598 kJ/mol
# GULP energy per Si atom -5576.787114 kJ/mol
# Density = 1.982675 g / cm^3
# Si number density = 19.871981 Si / 1000 Ang^3
#
#
#
# Elastic Constant Matrix: (Units=GPa)
#
#
# Indices 1 2 3 4 5 6 
#
# 1 90.3444 2.4770 35.9294 -7.2956 22.1313 -0.6269
# 2 2.4770 53.1131 34.0632 -10.1178 8.0474 28.1946
# 3 35.9294 34.0632 40.8243 -11.1792 3.5515 15.3491
# 4 -7.2956 -10.1178 -11.1792 31.2958 10.5467 7.7492
# 5 22.1313 8.0474 3.5515 10.5467 28.3353 0.0174
# 6 -0.6269 28.1946 15.3491 7.7492 0.0174 43.0878
#
#
#
# Elastic Compliance Matrix: (Units=1/GPa)
#
#
# Indices 1 2 3 4 5 6 
#
# 1 -0.144260 -0.269118 0.263173 -0.119355 0.200482 0.101634
# 2 -0.269118 -0.429576 0.456503 -0.192183 0.346421 0.148983
# 3 0.263173 0.456503 -0.425197 0.225886 -0.365873 -0.183895
# 4 -0.119355 -0.192183 0.225886 -0.034147 0.132170 0.049640
# 5 0.200482 0.346421 -0.365873 0.132170 -0.222946 -0.117111
# 6 0.101634 0.148983 -0.183895 0.049640 -0.117111 -0.016172
#
#
# Mechanical properties :
#
#
# Convention : Reuss Voigt Hill
#
# Bulk Modulus (GPa) = -10.21302 36.58009 13.18354
# Shear Modulus (GPa) = -2.26649 27.99793 12.86572
#
# Velocity S-wave (km/s) = -1.06912 3.75762 2.54723
# Velocity P-wave (km/s) = 2.58352 6.10526 3.91149
#
# Compressibility (1/GPa) = -0.09791422
#
# Stress axis : x y z
#
# Youngs Moduli (GPa) = -6.93195 -2.32788 -2.35185
#
# Poissons Ratio (x) = -0.62647 0.61895
# Poissons Ratio (y) = -1.86551 1.07363
# Poissons Ratio (z) = 1.82430 1.06268
#
# Static dielectric constant tensor:
#      x y z
#    x 1.756110 0.016120 -0.028110 
#    y 0.016120 1.738080 -0.019810 
#    z -0.028110 -0.019810 1.691370 
# 
# From -- ./inp_files/543965.got.cif
#   From: 2010.05.17/outbox.cif.g08.bks.cpg/sg2_272_cif.got.tgz:543965.got - 2010.06.03 11:33:40.
