data_PCOD9078448
_publ_section_title
;
Structure prediction by ZEFSAII (Michael W. Deem and Ramdas Pophale) SiO2 
 PCOD9078448
Probable space group: P -1
;
_chemical_formula_sum "Si O2"
_cell_formula_units_Z 14
_cell_length_a 9.542689
_cell_length_b 13.299313
_cell_length_c 6.690015
_cell_angle_alpha 40.374702
_cell_angle_beta 69.200119
_cell_angle_gamma 73.502242
_cell_volume 514.020971
_symmetry_space_group_name_H-M "P -1"
_symmetry_group_IT_number 2
_symmetry_cell_setting 'triclinic'
loop_
_space_group_symop_operation_xyz
x,y,z
-x,-y,-z
loop_
_atom_site_type_symbol
_atom_site_label
_atom_site_fract_x
_atom_site_fract_y
_atom_site_fract_z
Si Si1 0.191291 0.451373 0.256742
Si Si2 0.740909 0.205378 0.708041
Si Si3 0.722094 0.712190 0.915072
Si Si4 0.549081 0.921053 0.360743
Si Si5 0.549046 0.654362 0.474008
Si Si6 0.048872 0.731596 0.133741
Si Si7 0.193702 0.978596 0.430626
O O1 0.186098 0.401218 0.105777
O O2 0.359849 0.457883 0.252061
O O3 0.102296 0.605201 0.134317
O O4 0.111519 0.314589 0.630106
O O5 0.630170 0.332569 0.467967
O O6 0.846339 0.280038 0.704453
O O7 0.824777 0.101288 0.655442
O O8 0.632997 0.082655 0.059599
O O9 0.618546 0.811038 0.662709
O O10 0.817465 0.838444 0.794563
O O11 0.618864 0.634561 0.250218
O O12 0.580610 0.827301 0.282131
O O13 0.629419 0.062712 0.553171
O O14 0.088355 0.895262 0.769680
#
# Coordination Sequence:
#
# PCOD9078448 Si02
#       7
#     2   2   2   2   2   2   2
#     4  10  27  45  58  82 131 171 201 250 304 355
#     4  11  20  37  68  97 121 155 202 248 309 366
#     4  11  19  36  67  92 121 160 199 253 309 353
#     4  10  18  35  62  99 130 153 186 252 322 364
#     4  10  20  38  64  95 125 153 197 258 306 356
#     4  11  25  46  60  83 125 173 208 242 301 372
#     4  11  20  35  68  97 117 157 205 250 305 363
#
# _framework density 27.236242000000001
#
# number of rings (size 3 to 8) (size 9 to 14) (size 15 to 20)
#    0.000    1.429    4.286    2.143    0.000    3.429 
#    0.000   14.286    0.000    0.000    0.000    0.000 
#    0.000    0.000    0.000    0.000    0.000    0.000 
#
# Total GULP energy -78510.471837 kJ/mol
# GULP energy per Si atom -5607.890845 kJ/mol
# Density = 2.717425 g / cm^3
# Si number density = 27.236242 Si / 1000 Ang^3
#
#
#
# Elastic Constant Matrix: (Units=GPa)
#
#
# Indices 1 2 3 4 5 6 
#
# 1 110.2166 31.1112 17.3139 9.3117 -16.0642 -2.1288
# 2 31.1112 195.9829 48.4671 45.5677 -14.4084 -1.1032
# 3 17.3139 48.4671 114.0792 10.4068 -16.8030 4.8639
# 4 9.3117 45.5677 10.4068 51.7392 7.8401 -3.8530
# 5 -16.0642 -14.4084 -16.8030 7.8401 37.9498 12.1532
# 6 -2.1288 -1.1032 4.8639 -3.8530 12.1532 30.9163
#
#
#
# Elastic Compliance Matrix: (Units=1/GPa)
#
#
# Indices 1 2 3 4 5 6 
#
# 1 0.010156 -0.000753 -0.000291 -0.001924 0.004723 -0.001378
# 2 -0.000753 0.007524 -0.001837 -0.006818 0.003710 -0.001803
# 3 -0.000291 -0.001837 0.010749 -0.001656 0.005624 -0.004194
# 4 -0.001924 -0.006818 -0.001656 0.028573 -0.012748 0.008457
# 5 0.004723 0.003710 0.005624 -0.012748 0.040644 -0.017993
# 6 -0.001378 -0.001803 -0.004194 0.008457 -0.017993 0.040973
#
#
# Mechanical properties :
#
#
# Convention : Reuss Voigt Hill
#
# Bulk Modulus (GPa) = 44.12058 68.22923 56.17491
# Shear Modulus (GPa) = 32.90824 45.68016 39.29420
#
# Velocity S-wave (km/s) = 3.47976 4.09979 3.80243
# Velocity P-wave (km/s) = 5.69029 6.89320 6.32043
#
# Compressibility (1/GPa) = 0.02266516
#
# Stress axis : x y z
#
# Youngs Moduli (GPa) = 98.46657 132.90285 93.03422
#
# Poissons Ratio (x) = 0.10012 0.02711
# Poissons Ratio (y) = 0.07418 0.17091
# Poissons Ratio (z) = 0.02870 0.24415
#
# Static dielectric constant tensor:
#      x y z
#    x 2.158540 -0.008040 0.049870 
#    y -0.008040 2.101220 -0.019230 
#    z 0.049870 -0.019230 2.103390 
# 
# From -- ./inp_files/68319.got.cif
#   From: 2010.05.17/outbox.cif.g08.bks.cpg/sg2_35_cif.got.tgz:68319.got - 2010.06.03 11:33:40.
