data_PCOD9078595
_publ_section_title
;
Structure prediction by ZEFSAII (Michael W. Deem and Ramdas Pophale) SiO2 
 PCOD9078595
Probable space group: P -1
;
_chemical_formula_sum "Si O2"
_cell_formula_units_Z 14
_cell_length_a 9.155046
_cell_length_b 13.373727
_cell_length_c 9.153244
_cell_angle_alpha 111.694723
_cell_angle_beta 130.137883
_cell_angle_gamma 100.514717
_cell_volume 641.377347
_symmetry_space_group_name_H-M "P -1"
_symmetry_group_IT_number 2
_symmetry_cell_setting 'triclinic'
loop_
_space_group_symop_operation_xyz
x,y,z
-x,-y,-z
loop_
_atom_site_type_symbol
_atom_site_label
_atom_site_fract_x
_atom_site_fract_y
_atom_site_fract_z
Si Si1 0.597070 0.220600 0.919927
Si Si2 0.854828 0.091353 0.002042
Si Si3 0.503738 0.588295 0.916436
Si Si4 0.676953 0.841289 0.574580
Si Si5 0.868621 0.527504 0.624151
Si Si6 0.902686 0.702060 0.986798
Si Si7 0.787420 0.360409 0.715766
O O1 0.693929 0.135026 0.981517
O O2 0.429470 0.143496 0.631673
O O3 0.472191 0.277445 0.952668
O O4 0.850177 0.363356 0.130212
O O5 0.992754 0.170501 0.982255
O O6 0.708121 0.938618 0.776186
O O7 0.071437 0.132000 0.269083
O O8 0.254652 0.491822 0.617833
O O9 0.500000 0.500000 0.000000
O O10 0.710680 0.644575 0.959844
O O11 0.465901 0.692973 0.411380
O O12 0.796995 0.387486 0.565394
O O13 0.789802 0.585162 0.728780
O O14 0.136922 0.731718 0.232562
O O15 0.000000 0.500000 0.000000
#
# Coordination Sequence:
#
# PCOD9078595 Si02
#       7
#     2   2   2   2   2   2   2
#     4  11  23  39  62  95 133 163 212 276 319 379
#     4  10  23  41  70  92 124 173 231 257 318 374
#     4  12  26  37  61  99 140 173 206 268 338 385
#     4  11  21  40  69  97 122 171 223 272 306 391
#     4  10  21  40  61  91 131 171 216 260 319 389
#     4  10  21  39  63  92 125 172 220 261 310 390
#     4  10  18  35  66  96 124 159 217 268 318 366
#
# _framework density 21.828025
#
# number of rings (size 3 to 8) (size 9 to 14) (size 15 to 20)
#    0.000    1.429    4.286    3.000    6.000    0.000 
#    0.000    0.714    0.000    2.571    0.000    0.000 
#    0.000    0.000    0.000    0.000    0.000    0.000 
#
# Total GULP energy -77967.563741 kJ/mol
# GULP energy per Si atom -5569.111696 kJ/mol
# Density = 2.177834 g / cm^3
# Si number density = 21.828025 Si / 1000 Ang^3
#
#
#
# Elastic Constant Matrix: (Units=GPa)
#
#
# Indices 1 2 3 4 5 6 
#
# 1 83.2811 1.8245 16.1667 4.9763 -3.3681 -19.9027
# 2 1.8245 50.2413 15.7062 -11.9324 -2.7970 -14.0784
# 3 16.1667 15.7062 123.5546 -17.6147 17.2342 -13.7098
# 4 4.9763 -11.9324 -17.6147 29.8596 -5.2298 5.1454
# 5 -3.3681 -2.7970 17.2342 -5.2298 23.0171 -0.6587
# 6 -19.9027 -14.0784 -13.7098 5.1454 -0.6587 30.1263
#
#
#
# Elastic Compliance Matrix: (Units=1/GPa)
#
#
# Indices 1 2 3 4 5 6 
#
# 1 0.015434 0.002450 -0.002188 -0.004179 0.003564 0.011137
# 2 0.002450 0.026062 -0.002236 0.007979 0.007344 0.011578
# 3 -0.002188 -0.002236 0.010440 0.004085 -0.007440 0.001400
# 4 -0.004179 0.007979 0.004085 0.041663 0.006647 -0.004143
# 5 0.003564 0.007344 -0.007440 0.006647 0.052010 0.002402
# 6 0.011137 0.011578 0.001400 -0.004143 0.002402 0.047360
#
#
# Mechanical properties :
#
#
# Convention : Reuss Voigt Hill
#
# Bulk Modulus (GPa) = 20.83808 36.05240 28.44524
# Shear Modulus (GPa) = 23.48393 31.49257 27.48825
#
# Velocity S-wave (km/s) = 3.28359 3.80249 3.55253
# Velocity P-wave (km/s) = 4.89318 5.98590 5.46691
#
# Compressibility (1/GPa) = 0.04798906
#
# Stress axis : x y z
#
# Youngs Moduli (GPa) = 64.79184 38.36986 95.78817
#
# Poissons Ratio (x) = -0.09402 0.20958
# Poissons Ratio (y) = -0.15876 0.21416
# Poissons Ratio (z) = 0.14176 0.08578
#
# Static dielectric constant tensor:
#      x y z
#    x 1.932710 -0.034410 0.012500 
#    y -0.034410 1.968520 -0.015130 
#    z 0.012500 -0.015130 1.800340 
# 
# From -- ./inp_files/203423.got.cif
#   From: 2010.05.17/outbox.cif.g08.bks.cpg/sg2_102_cif.got.tgz:203423.got - 2010.06.03 11:33:40.
