data_PCOD9078030
_publ_section_title
;
Structure prediction by ZEFSAII (Michael W. Deem and Ramdas Pophale) SiO2 
 PCOD9078030
Probable space group: P -1
;
_chemical_formula_sum "Si O2"
_cell_formula_units_Z 16
_cell_length_a 11.627527
_cell_length_b 19.983743
_cell_length_c 15.028067
_cell_angle_alpha 148.920441
_cell_angle_beta 56.046212
_cell_angle_gamma 146.457369
_cell_volume 835.478695
_symmetry_space_group_name_H-M "P -1"
_symmetry_group_IT_number 2
_symmetry_cell_setting 'triclinic'
loop_
_space_group_symop_operation_xyz
x,y,z
-x,-y,-z
loop_
_atom_site_type_symbol
_atom_site_label
_atom_site_fract_x
_atom_site_fract_y
_atom_site_fract_z
Si Si1 0.592621 0.493169 0.274690
Si Si2 0.214393 0.039597 0.805703
Si Si3 0.261982 0.175567 0.218085
Si Si4 0.498248 0.985435 0.877388
Si Si5 0.471352 0.275539 0.425544
Si Si6 0.814992 0.389576 0.066974
Si Si7 0.624091 0.204119 0.740382
Si Si8 0.056715 0.773486 0.740353
O O1 0.456426 0.393224 0.315565
O O2 0.653233 0.687758 0.443519
O O3 0.790691 0.528487 0.230466
O O4 0.375600 0.270696 0.051905
O O5 0.406638 0.142617 0.765756
O O6 0.146184 0.870147 0.710719
O O7 0.949959 0.894691 0.731874
O O8 0.398624 0.214093 0.283639
O O9 0.122857 0.958863 0.973046
O O10 0.592467 0.915869 0.728586
O O11 0.222801 0.794871 0.741077
O O12 0.500000 0.000000 0.000000
O O13 0.660465 0.219845 0.024440
O O14 0.766936 0.522372 0.585363
O O15 0.096673 0.559546 0.146530
O O16 0.689009 0.237751 0.856980
O O17 0.500000 0.000000 0.500000
#
# Coordination Sequence:
#
# PCOD9078030 Si02
#       8
#     2   2   2   2   2   2   2   2
#     4  10  18  35  57  88 117 159 195 253 305 352
#     4  10  19  36  63  86 122 150 205 266 298 342
#     4  11  19  34  57  89 125 152 200 248 314 357
#     4  12  23  41  58  91 134 169 189 243 320 374
#     4  12  23  31  58  89 121 165 195 234 307 377
#     4  10  22  43  62  87 131 153 205 262 298 354
#     4  10  22  39  65  93 109 165 215 259 294 340
#     4  11  20  39  54  89 128 160 195 245 306 372
#
# _framework density 19.150700000000001
#
# number of rings (size 3 to 8) (size 9 to 14) (size 15 to 20)
#    0.000    1.250    7.500    1.500    1.750    1.000 
#    2.250    0.000    0.000    7.500    0.000    0.000 
#    0.000    0.000    0.000    0.000    0.000    0.000 
#
# Total GULP energy -89160.510042 kJ/mol
# GULP energy per Si atom -5572.531878 kJ/mol
# Density = 1.910711 g / cm^3
# Si number density = 19.150700 Si / 1000 Ang^3
#
#
#
# Elastic Constant Matrix: (Units=GPa)
#
#
# Indices 1 2 3 4 5 6 
#
# 1 95.5812 23.6318 21.2402 -4.4031 -8.3795 19.1705
# 2 23.6318 73.8146 24.5816 -6.0153 8.6464 20.5695
# 3 21.2402 24.5816 59.9482 -8.4330 -7.4158 13.9553
# 4 -4.4031 -6.0153 -8.4330 23.5476 9.8023 -1.9173
# 5 -8.3795 8.6464 -7.4158 9.8023 35.7836 1.6633
# 6 19.1705 20.5695 13.9553 -1.9173 1.6633 22.8759
#
#
#
# Elastic Compliance Matrix: (Units=1/GPa)
#
#
# Indices 1 2 3 4 5 6 
#
# 1 0.013352 -0.001777 -0.001547 -0.000864 0.003891 -0.009004
# 2 -0.001777 0.020698 -0.004977 0.005118 -0.007240 -0.013131
# 3 -0.001547 -0.004977 0.022208 0.003770 0.004773 -0.007808
# 4 -0.000864 0.005118 0.003770 0.050963 -0.014579 -0.000846
# 5 0.003891 -0.007240 0.004773 -0.014579 0.035751 -0.003483
# 6 -0.009004 -0.013131 -0.007808 -0.000846 -0.003483 0.068012
#
#
# Mechanical properties :
#
#
# Convention : Reuss Voigt Hill
#
# Bulk Modulus (GPa) = 25.21535 40.91679 33.06607
# Shear Modulus (GPa) = 20.76380 27.10076 23.93228
#
# Velocity S-wave (km/s) = 3.29634 3.76590 3.53892
# Velocity P-wave (km/s) = 5.26148 6.34992 5.83115
#
# Compressibility (1/GPa) = 0.03965838
#
# Stress axis : x y z
#
# Youngs Moduli (GPa) = 74.89246 48.31432 45.02868
#
# Poissons Ratio (x) = 0.08585 0.06964
# Poissons Ratio (y) = 0.13308 0.22409
# Poissons Ratio (z) = 0.11582 0.24044
#
# Static dielectric constant tensor:
#      x y z
#    x 1.708970 0.045840 -0.021910 
#    y 0.045840 1.675310 -0.028320 
#    z -0.021910 -0.028320 1.734290 
# 
# From -- ./inp_files/425095.got.cif
#   From: 2010.05.17/outbox.cif.g08.bks.cpg/sg2_213_cif.got.tgz:425095.got - 2010.06.03 11:33:40.
