data_PCOD9078462
_publ_section_title
;
Structure prediction by ZEFSAII (Michael W. Deem and Ramdas Pophale) SiO2 
 PCOD9078462
Probable space group: P -1
;
_chemical_formula_sum "Si O2"
_cell_formula_units_Z 16
_cell_length_a 21.830506
_cell_length_b 11.195761
_cell_length_c 7.380307
_cell_angle_alpha 98.427073
_cell_angle_beta 52.262723
_cell_angle_gamma 141.072555
_cell_volume 670.788155
_symmetry_space_group_name_H-M "P -1"
_symmetry_group_IT_number 2
_symmetry_cell_setting 'triclinic'
loop_
_space_group_symop_operation_xyz
x,y,z
-x,-y,-z
loop_
_atom_site_type_symbol
_atom_site_label
_atom_site_fract_x
_atom_site_fract_y
_atom_site_fract_z
Si Si1 0.453752 0.189603 0.954203
Si Si2 0.874212 0.035124 0.191219
Si Si3 0.733309 0.313694 0.769917
Si Si4 0.503347 0.218931 0.269280
Si Si5 0.775923 0.488049 0.350407
Si Si6 0.558319 0.475044 0.523693
Si Si7 0.941257 0.577245 0.767455
Si Si8 0.135395 0.738577 0.945505
O O1 0.621189 0.359347 0.616052
O O2 0.425774 0.250850 0.864205
O O3 0.328145 0.906324 0.133521
O O4 0.487912 0.271647 0.119126
O O5 0.047216 0.205765 0.890062
O O6 0.901958 0.152115 0.352387
O O7 0.862934 0.117411 0.067436
O O8 0.716424 0.738040 0.402726
O O9 0.594001 0.218176 0.060618
O O10 0.896203 0.556012 0.644965
O O11 0.764258 0.383985 0.520986
O O12 0.595604 0.418023 0.302892
O O13 0.320082 0.954467 0.613975
O O14 0.795691 0.438083 0.121678
O O15 0.500000 0.500000 0.500000
O O16 0.918218 0.403356 0.806930
O O17 0.000000 0.500000 0.000000
#
# Coordination Sequence:
#
# PCOD9078462 Si02
#       8
#     2   2   2   2   2   2   2   2
#     4  11  24  39  66  97 125 160 205 263 316 364
#     4   9  22  41  59  85 130 166 208 252 298 372
#     4  11  21  38  66 104 118 153 210 261 327 365
#     4  11  23  41  67  93 127 160 207 267 307 366
#     4   9  20  40  60  92 129 150 201 267 310 360
#     4  12  25  45  62  89 127 175 215 241 300 381
#     4   9  19  36  62  89 122 164 198 259 314 355
#     4  10  18  35  63  86 121 168 199 250 313 353
#
# _framework density 23.852537000000002
#
# number of rings (size 3 to 8) (size 9 to 14) (size 15 to 20)
#    0.750    1.000    1.250    4.500    0.000    2.500 
#    2.250    3.125    0.000    0.000    0.000    0.000 
#    0.000    0.000    0.000    0.000    0.000    0.000 
#
# Total GULP energy -89363.686443 kJ/mol
# GULP energy per Si atom -5585.230403 kJ/mol
# Density = 2.379825 g / cm^3
# Si number density = 23.852537 Si / 1000 Ang^3
#
#
#
# Elastic Constant Matrix: (Units=GPa)
#
#
# Indices 1 2 3 4 5 6 
#
# 1 89.2164 27.2445 19.5689 1.0409 27.8798 20.1305
# 2 27.2445 84.9536 23.4159 -5.8309 13.4984 8.7319
# 3 19.5689 23.4159 70.5190 1.6560 2.9982 -11.4891
# 4 1.0409 -5.8309 1.6560 35.5466 3.6141 5.9010
# 5 27.8798 13.4984 2.9982 3.6141 52.7333 3.9918
# 6 20.1305 8.7319 -11.4891 5.9010 3.9918 31.1030
#
#
#
# Elastic Compliance Matrix: (Units=1/GPa)
#
#
# Indices 1 2 3 4 5 6 
#
# 1 0.018731 -0.001233 -0.006728 0.002686 -0.008352 -0.013700
# 2 -0.001233 0.015016 -0.005584 0.004013 -0.002703 -0.005895
# 3 -0.006728 -0.005584 0.020112 -0.004255 0.003093 0.013762
# 4 0.002686 0.004013 -0.004255 0.030907 -0.003579 -0.009841
# 5 -0.008352 -0.002703 0.003093 -0.003579 0.023767 0.004936
# 6 -0.013700 -0.005895 0.013762 -0.009841 0.004936 0.048990
#
#
# Mechanical properties :
#
#
# Convention : Reuss Voigt Hill
#
# Bulk Modulus (GPa) = 37.35602 42.79419 40.07511
# Shear Modulus (GPa) = 25.83481 35.50723 30.67102
#
# Velocity S-wave (km/s) = 3.29463 3.86244 3.58978
# Velocity P-wave (km/s) = 5.49254 6.15397 5.83264
#
# Compressibility (1/GPa) = 0.02676944
#
# Stress axis : x y z
#
# Youngs Moduli (GPa) = 53.38806 66.59371 49.72065
#
# Poissons Ratio (x) = 0.08210 0.33454
# Poissons Ratio (y) = 0.06582 0.27763
# Poissons Ratio (z) = 0.35922 0.37185
#
# Static dielectric constant tensor:
#      x y z
#    x 1.997190 -0.008000 -0.030030 
#    y -0.008000 1.917160 0.018010 
#    z -0.030030 0.018010 1.899570 
# 
# From -- ./inp_files/345268.got.cif
#   From: 2010.05.17/outbox.cif.g08.bks.cpg/sg2_173_cif.got.tgz:345268.got - 2010.06.03 11:33:40.
