data_PCOD9078696
_publ_section_title
;
Structure prediction by ZEFSAII (Michael W. Deem and Ramdas Pophale) SiO2 
 PCOD9078696
Probable space group: P -1
;
_chemical_formula_sum "Si O2"
_cell_formula_units_Z 12
_cell_length_a 6.462983
_cell_length_b 13.464318
_cell_length_c 11.731359
_cell_angle_alpha 35.154553
_cell_angle_beta 117.446135
_cell_angle_gamma 99.514306
_cell_volume 474.829016
_symmetry_space_group_name_H-M "P -1"
_symmetry_group_IT_number 2
_symmetry_cell_setting 'triclinic'
loop_
_space_group_symop_operation_xyz
x,y,z
-x,-y,-z
loop_
_atom_site_type_symbol
_atom_site_label
_atom_site_fract_x
_atom_site_fract_y
_atom_site_fract_z
Si Si1 0.120055 0.841096 0.414004
Si Si2 0.945061 0.675433 0.984124
Si Si3 0.863896 0.562053 0.527460
Si Si4 0.920904 0.296794 0.239884
Si Si5 0.486314 0.993938 0.312524
Si Si6 0.580687 0.137840 0.968186
O O1 0.992672 0.699907 0.478627
O O2 0.204673 0.786352 0.618424
O O3 0.349887 0.850450 0.392165
O O4 0.884985 0.045153 0.145567
O O5 0.079681 0.591123 0.216361
O O6 0.876799 0.507165 0.071290
O O7 0.131914 0.697212 0.913602
O O8 0.688412 0.862451 0.770065
O O9 0.568063 0.668952 0.317120
O O10 0.000000 0.500000 0.500000
O O11 0.218826 0.145086 0.462638
O O12 0.472688 0.123395 0.078953
O O13 0.500000 0.000000 0.000000
#
# Coordination Sequence:
#
# PCOD9078696 Si02
#       6
#     2   2   2   2   2   2
#     4   9  21  37  60  86 112 150 192 240 287 334
#     4  10  20  38  61  84 116 156 190 232 293 341
#     4  10  18  36  56  81 115 154 187 228 286 343
#     4   9  21  41  59  84 120 148 189 243 284 343
#     4  11  20  38  62  88 112 152 194 237 291 337
#     4   9  19  36  57  79 118 151 186 234 282 338
#
# _framework density 25.272255999999999
#
# number of rings (size 3 to 8) (size 9 to 14) (size 15 to 20)
#    0.000    2.333    1.667    1.500    0.000    3.333 
#    3.000    8.333    0.000    0.000    0.000    0.000 
#    0.000    0.000    0.000    0.000    0.000    0.000 
#
# Total GULP energy -67065.206810 kJ/mol
# GULP energy per Si atom -5588.767234 kJ/mol
# Density = 2.521474 g / cm^3
# Si number density = 25.272256 Si / 1000 Ang^3
#
#
#
# Elastic Constant Matrix: (Units=GPa)
#
#
# Indices 1 2 3 4 5 6 
#
# 1 64.5538 21.2774 27.4690 12.5632 -11.8675 11.9136
# 2 21.2774 92.8796 34.2020 0.1041 -8.3946 -18.0625
# 3 27.4690 34.2020 145.9025 14.5216 -14.7939 -0.0052
# 4 12.5632 0.1041 14.5216 47.9769 -8.9975 -7.0003
# 5 -11.8675 -8.3946 -14.7939 -8.9975 27.3309 -6.4008
# 6 11.9136 -18.0625 -0.0052 -7.0003 -6.4008 32.3211
#
#
#
# Elastic Compliance Matrix: (Units=1/GPa)
#
#
# Indices 1 2 3 4 5 6 
#
# 1 0.022716 -0.007090 -0.001784 -0.007168 0.001162 -0.013658
# 2 -0.007090 0.016646 -0.002543 0.005794 0.005924 0.014343
# 3 -0.001784 -0.002543 0.008172 -0.001702 0.002142 -0.000706
# 4 -0.007168 0.005794 -0.001702 0.027072 0.009866 0.013697
# 5 0.001162 0.005924 0.002142 0.009866 0.046660 0.014260
# 6 -0.013658 0.014343 -0.000706 0.013697 0.014260 0.049780
#
#
# Mechanical properties :
#
#
# Convention : Reuss Voigt Hill
#
# Bulk Modulus (GPa) = 40.48448 52.13697 46.31072
# Shear Modulus (GPa) = 24.73863 36.21827 30.47845
#
# Velocity S-wave (km/s) = 3.13211 3.78977 3.47652
# Velocity P-wave (km/s) = 5.39761 6.31068 5.87192
#
# Compressibility (1/GPa) = 0.02470083
#
# Stress axis : x y z
#
# Youngs Moduli (GPa) = 44.02109 60.07627 122.36311
#
# Poissons Ratio (x) = 0.42595 0.21829
# Poissons Ratio (y) = 0.31212 0.31112
# Poissons Ratio (z) = 0.07853 0.15275
#
# Static dielectric constant tensor:
#      x y z
#    x 1.630720 -0.362700 0.138060 
#    y -0.362700 1.622020 0.145660 
#    z 0.138060 0.145660 1.963980 
# 
# From -- ./inp_files/21770.got.cif
#   From: 2010.05.17/outbox.cif.g08.bks.cpg/sg2_11_cif.got.tgz:21770.got - 2010.06.03 11:33:40.
