data_PCOD9078050
_publ_section_title
;
Structure prediction by ZEFSAII (Michael W. Deem and Ramdas Pophale) SiO2 
 PCOD9078050
Probable space group: P -1
;
_chemical_formula_sum "Si O2"
_cell_formula_units_Z 14
_cell_length_a 11.575394
_cell_length_b 8.452176
_cell_length_c 7.929557
_cell_angle_alpha 91.334304
_cell_angle_beta 48.980497
_cell_angle_gamma 88.979816
_cell_volume 584.613078
_symmetry_space_group_name_H-M "P -1"
_symmetry_group_IT_number 2
_symmetry_cell_setting 'triclinic'
loop_
_space_group_symop_operation_xyz
x,y,z
-x,-y,-z
loop_
_atom_site_type_symbol
_atom_site_label
_atom_site_fract_x
_atom_site_fract_y
_atom_site_fract_z
Si Si1 0.188608 0.119198 0.068800
Si Si2 0.660520 0.076542 0.367181
Si Si3 0.652774 0.396188 0.518965
Si Si4 0.590169 0.681253 0.956899
Si Si5 0.849910 0.151930 0.494990
Si Si6 0.830717 0.549376 0.103087
Si Si7 0.289276 0.647641 0.088199
O O1 0.234743 0.983276 0.888838
O O2 0.318252 0.165469 0.080778
O O3 0.174425 0.280528 0.975483
O O4 0.025135 0.099586 0.309930
O O5 0.500000 0.000000 0.500000
O O6 0.623339 0.263129 0.404461
O O7 0.743774 0.048700 0.470514
O O8 0.514981 0.366789 0.780987
O O9 0.811075 0.322140 0.446390
O O10 0.703102 0.548185 0.374501
O O11 0.466448 0.697607 0.927003
O O12 0.699112 0.523836 0.824063
O O13 0.797242 0.203722 0.733477
O O14 0.787451 0.415774 0.005814
O O15 0.000000 0.500000 0.000000
#
# Coordination Sequence:
#
# PCOD9078050 Si02
#       7
#     2   2   2   2   2   2   2
#     4  11  19  33  60  84 109 141 189 223 267 324
#     4  10  18  35  58  80 107 146 187 227 256 328
#     4   9  19  35  54  82 111 137 184 220 277 319
#     4   9  18  34  53  81 104 147 184 222 265 319
#     4   9  19  33  55  83 105 146 183 221 264 320
#     4  11  21  35  55  86 115 139 174 232 283 316
#     4   9  19  34  53  78 114 142 180 227 265 326
#
# _framework density 23.947462000000002
#
# number of rings (size 3 to 8) (size 9 to 14) (size 15 to 20)
#    0.857    1.429    2.857    0.429    0.000    4.571 
#    2.571    0.000    0.000    6.857    0.000    0.000 
#    0.000    0.000    0.000    0.000    0.000    0.000 
#
# Total GULP energy -77977.157076 kJ/mol
# GULP energy per Si atom -5569.796934 kJ/mol
# Density = 2.389296 g / cm^3
# Si number density = 23.947462 Si / 1000 Ang^3
#
#
#
# Elastic Constant Matrix: (Units=GPa)
#
#
# Indices 1 2 3 4 5 6 
#
# 1 135.9297 17.0234 44.3803 3.0116 -0.3521 32.2436
# 2 17.0234 40.8102 24.4621 7.7814 2.6218 10.3278
# 3 44.3803 24.4621 130.6865 21.7509 -15.3255 14.3300
# 4 3.0116 7.7814 21.7509 40.6689 2.9581 7.5492
# 5 -0.3521 2.6218 -15.3255 2.9581 29.7427 5.9163
# 6 32.2436 10.3278 14.3300 7.5492 5.9163 30.3254
#
#
#
# Elastic Compliance Matrix: (Units=1/GPa)
#
#
# Indices 1 2 3 4 5 6 
#
# 1 0.010847 -0.000710 -0.002749 0.002762 0.000649 -0.010806
# 2 -0.000710 0.029769 -0.004844 -0.001675 -0.003781 -0.005939
# 3 -0.002749 -0.004844 0.011257 -0.005245 0.006872 -0.000781
# 4 0.002762 -0.001675 -0.005245 0.028980 -0.004153 -0.006292
# 5 0.000649 -0.003781 0.006872 -0.004153 0.039782 -0.009377
# 6 -0.010806 -0.005939 -0.000781 -0.006292 -0.009377 0.050253
#
#
# Mechanical properties :
#
#
# Convention : Reuss Voigt Hill
#
# Bulk Modulus (GPa) = 28.35659 53.23976 40.79818
# Shear Modulus (GPa) = 25.09403 34.91811 30.00607
#
# Velocity S-wave (km/s) = 3.24061 3.82267 3.54361
# Velocity P-wave (km/s) = 5.08615 6.46250 5.81519
#
# Compressibility (1/GPa) = 0.03526517
#
# Stress axis : x y z
#
# Youngs Moduli (GPa) = 92.18976 33.59197 88.83595
#
# Poissons Ratio (x) = 0.02386 0.24423
# Poissons Ratio (y) = 0.06549 0.43035
# Poissons Ratio (z) = 0.25345 0.16273
#
# Static dielectric constant tensor:
#      x y z
#    x 1.992250 -0.045190 0.083960 
#    y -0.045190 1.952430 -0.030110 
#    z 0.083960 -0.030110 2.058610 
# 
# From -- ./inp_files/254436.got.cif
#   From: 2010.05.17/outbox.cif.g08.bks.cpg/sg2_128_cif.got.tgz:254436.got - 2010.06.03 11:33:40.
