data_PCOD9078115
_publ_section_title
;
Structure prediction by ZEFSAII (Michael W. Deem and Ramdas Pophale) SiO2 
 PCOD9078115
Probable space group: P -1
;
_chemical_formula_sum "Si O2"
_cell_formula_units_Z 16
_cell_length_a 14.640634
_cell_length_b 20.449985
_cell_length_c 8.736820
_cell_angle_alpha 66.669886
_cell_angle_beta 116.347880
_cell_angle_gamma 162.283807
_cell_volume 709.866802
_symmetry_space_group_name_H-M "P -1"
_symmetry_group_IT_number 2
_symmetry_cell_setting 'triclinic'
loop_
_space_group_symop_operation_xyz
x,y,z
-x,-y,-z
loop_
_atom_site_type_symbol
_atom_site_label
_atom_site_fract_x
_atom_site_fract_y
_atom_site_fract_z
Si Si1 0.128809 0.890278 0.898904
Si Si2 0.854434 0.243247 0.101261
Si Si3 0.512449 0.178182 0.633943
Si Si4 0.737761 0.126392 0.436144
Si Si5 0.943785 0.685945 0.215499
Si Si6 0.881752 0.490034 0.207101
Si Si7 0.750389 0.746755 0.940752
Si Si8 0.767767 0.927592 0.754305
O O1 0.396020 0.098286 0.796537
O O2 0.906536 0.806923 0.862644
O O3 0.993910 0.733840 0.847087
O O4 0.195152 0.892508 0.106443
O O5 0.852018 0.253369 0.270462
O O6 0.028474 0.419580 0.975924
O O7 0.500000 0.000000 0.000000
O O8 0.328086 0.111086 0.451210
O O9 0.883416 0.419729 0.670286
O O10 0.417352 0.039706 0.617884
O O11 0.008423 0.275581 0.605432
O O12 0.500000 0.000000 0.500000
O O13 0.944799 0.602662 0.252905
O O14 0.616859 0.502725 0.092893
O O15 0.524273 0.239797 0.203791
O O16 0.927219 0.845311 0.139697
O O17 0.792131 0.858528 0.838980
#
# Coordination Sequence:
#
# PCOD9078115 Si02
#       8
#     2   2   2   2   2   2   2   2
#     4  10  20  35  61  86 119 150 183 248 296 335
#     4  10  18  35  58  89 123 143 178 240 307 343
#     4  11  21  36  59  90 120 150 190 244 295 346
#     4  11  19  32  61  93 118 144 183 236 302 356
#     4  10  20  36  62  90 116 151 190 239 297 343
#     4  10  19  38  59  85 124 150 187 244 291 345
#     4  10  22  43  58  77 117 160 205 239 273 342
#     4  10  23  40  61  79 110 170 207 228 278 340
#
# _framework density 22.539439000000002
#
# number of rings (size 3 to 8) (size 9 to 14) (size 15 to 20)
#    0.000    1.750    3.750    2.250    0.000    0.500 
#    0.000   12.500    0.000    0.000    0.000    0.000 
#    0.000    0.000    0.000    0.000    0.000    0.000 
#
# Total GULP energy -89278.517111 kJ/mol
# GULP energy per Si atom -5579.907319 kJ/mol
# Density = 2.248814 g / cm^3
# Si number density = 22.539439 Si / 1000 Ang^3
#
#
#
# Elastic Constant Matrix: (Units=GPa)
#
#
# Indices 1 2 3 4 5 6 
#
# 1 86.9303 24.8381 15.8560 8.9797 -5.4692 23.3273
# 2 24.8381 87.7563 46.6175 17.6690 -8.5159 16.9414
# 3 15.8560 46.6175 133.2230 7.2186 -14.3956 13.0811
# 4 8.9797 17.6690 7.2186 32.1102 12.9136 3.7449
# 5 -5.4692 -8.5159 -14.3956 12.9136 30.5682 -2.1124
# 6 23.3273 16.9414 13.0811 3.7449 -2.1124 30.1422
#
#
#
# Elastic Compliance Matrix: (Units=1/GPa)
#
#
# Indices 1 2 3 4 5 6 
#
# 1 0.015238 -0.001370 0.000245 -0.003667 0.003288 -0.010444
# 2 -0.001370 0.017879 -0.004252 -0.010634 0.006857 -0.005342
# 3 0.000245 -0.004252 0.009593 -0.001229 0.003789 -0.001545
# 4 -0.003667 -0.010634 -0.001229 0.047872 -0.024304 0.001697
# 5 0.003288 0.006857 0.003789 -0.024304 0.047145 -0.001719
# 6 -0.010444 -0.005342 -0.001545 0.001697 -0.001719 0.044600
#
#
# Mechanical properties :
#
#
# Convention : Reuss Voigt Hill
#
# Bulk Modulus (GPa) = 31.29150 53.61476 42.45313
# Shear Modulus (GPa) = 24.54196 33.27064 28.90630
#
# Velocity S-wave (km/s) = 3.30335 3.84618 3.58505
# Velocity P-wave (km/s) = 5.33503 6.60022 6.00106
#
# Compressibility (1/GPa) = 0.03195756
#
# Stress axis : x y z
#
# Youngs Moduli (GPa) = 65.62435 55.93110 104.24787
#
# Poissons Ratio (x) = 0.07660 -0.02554
# Poissons Ratio (y) = 0.08988 0.44322
# Poissons Ratio (z) = -0.01608 0.23780
#
# Static dielectric constant tensor:
#      x y z
#    x 1.881390 -0.016360 0.026120 
#    y -0.016360 1.895850 0.021410 
#    z 0.026120 0.021410 1.914820 
# 
# From -- ./inp_files/320086.got.cif
#   From: 2010.05.17/outbox.cif.g08.bks.cpg/sg2_161_cif.got.tgz:320086.got - 2010.06.03 11:33:40.
