data_PCOD9078704
_publ_section_title
;
Structure prediction by ZEFSAII (Michael W. Deem and Ramdas Pophale) SiO2 
 PCOD9078704
Probable space group: P -1
;
_chemical_formula_sum "Si O2"
_cell_formula_units_Z 14
_cell_length_a 11.861147
_cell_length_b 13.565775
_cell_length_c 11.970860
_cell_angle_alpha 148.162018
_cell_angle_beta 142.052062
_cell_angle_gamma 53.817671
_cell_volume 605.756074
_symmetry_space_group_name_H-M "P -1"
_symmetry_group_IT_number 2
_symmetry_cell_setting 'triclinic'
loop_
_space_group_symop_operation_xyz
x,y,z
-x,-y,-z
loop_
_atom_site_type_symbol
_atom_site_label
_atom_site_fract_x
_atom_site_fract_y
_atom_site_fract_z
Si Si1 0.575209 0.426950 0.290785
Si Si2 0.255134 0.643166 0.255329
Si Si3 0.703396 0.347145 0.939731
Si Si4 0.995273 0.094773 0.258060
Si Si5 0.396476 0.234305 0.770196
Si Si6 0.128090 0.679894 0.420028
Si Si7 0.912883 0.699991 0.705687
O O1 0.417580 0.534903 0.309129
O O2 0.711168 0.402831 0.473807
O O3 0.717855 0.542640 0.417872
O O4 0.466385 0.237677 0.955339
O O5 0.326236 0.749242 0.298056
O O6 0.204624 0.755254 0.430250
O O7 0.063258 0.484493 0.914879
O O8 0.560251 0.234487 0.810858
O O9 0.660858 0.558284 0.091726
O O10 0.915462 0.365946 0.165647
O O11 0.206030 0.083409 0.443271
O O12 0.022122 0.234447 0.305487
O O13 0.914749 0.173195 0.380351
O O14 0.883492 0.887769 0.928328
#
# Coordination Sequence:
#
# PCOD9078704 Si02
#       7
#     2   2   2   2   2   2   2
#     4  11  20  38  63  89 110 152 195 241 285 342
#     4  10  21  36  62  90 112 147 200 245 277 334
#     4  10  18  36  56  87 112 150 192 238 283 337
#     4  11  22  39  53  89 121 152 188 241 287 351
#     4  10  20  34  63  85 114 147 201 240 282 341
#     4  11  21  38  63  84 119 150 196 241 283 334
#     4  11  23  35  60  83 124 153 185 238 303 335
#
# _framework density 23.111612000000001
#
# number of rings (size 3 to 8) (size 9 to 14) (size 15 to 20)
#    0.000    1.429    4.286    3.857    0.000    2.286 
#    0.000    4.286    0.000    0.000    0.000    0.000 
#    0.000    0.000    0.000    0.000    0.000    0.000 
#
# Total GULP energy -78278.365649 kJ/mol
# GULP energy per Si atom -5591.311832 kJ/mol
# Density = 2.305901 g / cm^3
# Si number density = 23.111612 Si / 1000 Ang^3
#
#
#
# Elastic Constant Matrix: (Units=GPa)
#
#
# Indices 1 2 3 4 5 6 
#
# 1 129.6384 22.4671 34.1878 -15.7197 -54.8965 -5.2820
# 2 22.4671 83.0671 26.5675 -30.3715 -6.4998 -9.0314
# 3 34.1878 26.5675 74.0510 -15.7041 -20.2984 -6.2515
# 4 -15.7197 -30.3715 -15.7041 32.6197 -14.6983 13.8360
# 5 -54.8965 -6.4998 -20.2984 -14.6983 38.2483 -0.1417
# 6 -5.2820 -9.0314 -6.2515 13.8360 -0.1417 8.9041
#
#
#
# Elastic Compliance Matrix: (Units=1/GPa)
#
#
# Indices 1 2 3 4 5 6 
#
# 1 0.001148 -0.007988 -0.006097 -0.035761 -0.016526 0.043604
# 2 -0.007988 0.013336 -0.005977 -0.010072 -0.016167 0.019984
# 3 -0.006097 -0.005977 0.016227 -0.011150 -0.005369 0.018954
# 4 -0.035761 -0.010072 -0.011150 -0.063072 -0.082980 0.057429
# 5 -0.016526 -0.016167 -0.005369 -0.082980 -0.034694 0.098419
# 6 0.043604 0.019984 0.018954 0.057429 0.098419 0.084079
#
#
# Mechanical properties :
#
#
# Convention : Reuss Voigt Hill
#
# Bulk Modulus (GPa) = -106.23943 50.35568 -27.94187
# Shear Modulus (GPa) = 92.57426 29.52337 61.04882
#
# Velocity S-wave (km/s) = 6.33579 3.57799 5.14511
# Velocity P-wave (km/s) = 2.73043 6.23736 4.81456
#
# Compressibility (1/GPa) = -0.00941270
#
# Stress axis : x y z
#
# Youngs Moduli (GPa) = 870.82104 74.98543 61.62499
#
# Poissons Ratio (x) = 0.59899 0.37573
# Poissons Ratio (y) = 6.95615 0.36834
# Poissons Ratio (z) = 5.30937 0.44819
#
# Static dielectric constant tensor:
#      x y z
#    x 1.876450 0.008710 -0.027780 
#    y 0.008710 1.902230 0.032240 
#    z -0.027780 0.032240 1.881850 
# 
# From -- ./inp_files/258118.got.cif
#   From: 2010.05.17/outbox.cif.g08.bks.cpg/sg2_130_cif.got.tgz:258118.got - 2010.06.03 11:33:40.
