data_PCOD9078077
_publ_section_title
;
Structure prediction by ZEFSAII (Michael W. Deem and Ramdas Pophale) SiO2 
 PCOD9078077
Probable space group: P -1
;
_chemical_formula_sum "Si O2"
_cell_formula_units_Z 14
_cell_length_a 8.064276
_cell_length_b 8.135937
_cell_length_c 12.028883
_cell_angle_alpha 125.205171
_cell_angle_beta 72.300378
_cell_angle_gamma 122.519593
_cell_volume 543.736294
_symmetry_space_group_name_H-M "P -1"
_symmetry_group_IT_number 2
_symmetry_cell_setting 'triclinic'
loop_
_space_group_symop_operation_xyz
x,y,z
-x,-y,-z
loop_
_atom_site_type_symbol
_atom_site_label
_atom_site_fract_x
_atom_site_fract_y
_atom_site_fract_z
Si Si1 0.265848 0.402479 0.006230
Si Si2 0.171099 0.730212 0.303859
Si Si3 0.723142 0.468176 0.383594
Si Si4 0.754045 0.949022 0.973475
Si Si5 0.179752 0.761656 0.554149
Si Si6 0.318021 0.651618 0.887020
Si Si7 0.158904 0.126433 0.321576
O O1 0.223123 0.560296 0.160368
O O2 0.500000 0.500000 0.000000
O O3 0.821323 0.849974 0.024782
O O4 0.207794 0.439446 0.908644
O O5 0.279024 0.794331 0.426562
O O6 0.944112 0.603456 0.339980
O O7 0.193990 0.935559 0.301725
O O8 0.693169 0.242543 0.368603
O O9 0.611371 0.405465 0.265508
O O10 0.714310 0.643512 0.542446
O O11 0.514656 0.822128 0.978559
O O12 0.801745 0.871175 0.815975
O O13 0.804233 0.211648 0.059985
O O14 0.000000 0.500000 0.500000
O O15 0.066034 0.911383 0.638744
#
# Coordination Sequence:
#
# PCOD9078077 Si02
#       7
#     2   2   2   2   2   2   2
#     4  10  20  37  60  79 108 154 190 223 274 338
#     4  10  18  35  58  83 114 148 187 227 276 337
#     4  10  20  35  56  86 115 141 187 235 279 324
#     4  10  20  39  60  76 111 152 192 223 279 335
#     4   8  16  31  53  80 108 144 179 221 275 328
#     4  10  22  38  56  84 113 147 187 235 275 329
#     4  10  18  35  60  82 111 152 185 224 279 337
#
# _framework density 25.747772999999999
#
# number of rings (size 3 to 8) (size 9 to 14) (size 15 to 20)
#    0.000    2.571    1.429    4.286    0.000    1.143 
#    5.143    1.429    0.000    2.571    0.000    0.000 
#    0.000    0.000    0.000    0.000    0.000    0.000 
#
# Total GULP energy -78284.997533 kJ/mol
# GULP energy per Si atom -5591.785538 kJ/mol
# Density = 2.568917 g / cm^3
# Si number density = 25.747773 Si / 1000 Ang^3
#
#
#
# Elastic Constant Matrix: (Units=GPa)
#
#
# Indices 1 2 3 4 5 6 
#
# 1 50.3179 55.6255 39.6468 1.7393 0.1221 -9.7011
# 2 55.6255 170.4008 64.8804 -21.3508 11.3531 -64.2952
# 3 39.6468 64.8804 155.2221 -16.8078 -10.8691 -22.5974
# 4 1.7393 -21.3508 -16.8078 41.4750 -10.7150 8.0663
# 5 0.1221 11.3531 -10.8691 -10.7150 40.3385 -3.1918
# 6 -9.7011 -64.2952 -22.5974 8.0663 -3.1918 45.0061
#
#
#
# Elastic Compliance Matrix: (Units=1/GPa)
#
#
# Indices 1 2 3 4 5 6 
#
# 1 0.047325 -0.023648 -0.007243 -0.012408 -0.000717 -0.025047
# 2 -0.023648 0.026457 0.000184 0.007910 -0.002757 0.031178
# 3 -0.007243 0.000184 0.009420 0.004685 0.003980 0.002874
# 4 -0.012408 0.007910 0.004685 0.031499 0.007907 0.005894
# 5 -0.000717 -0.002757 0.003980 0.007907 0.028624 -0.001482
# 6 -0.025047 0.031178 0.002874 0.005894 -0.001482 0.061642
#
#
# Mechanical properties :
#
#
# Convention : Reuss Voigt Hill
#
# Bulk Modulus (GPa) = 45.89876 77.36069 61.62972
# Shear Modulus (GPa) = 18.27188 39.74978 29.01083
#
# Velocity S-wave (km/s) = 2.66681 3.93340 3.36032
# Velocity P-wave (km/s) = 5.22949 7.12318 6.24849
#
# Compressibility (1/GPa) = 0.02178708
#
# Stress axis : x y z
#
# Youngs Moduli (GPa) = 21.13031 37.79721 106.15777
#
# Poissons Ratio (x) = 0.89385 0.76892
# Poissons Ratio (y) = 0.49970 -0.01954
# Poissons Ratio (z) = 0.15305 -0.00696
#
# Static dielectric constant tensor:
#      x y z
#    x 2.215140 -0.018220 0.078200 
#    y -0.018220 2.039850 -0.004080 
#    z 0.078200 -0.004080 2.015170 
# 
# From -- ./inp_files/413632.got.cif
#   From: 2010.05.17/outbox.cif.g08.bks.cpg/sg2_207_cif.got.tgz:413632.got - 2010.06.03 11:33:40.
