data_PCOD9078088
_publ_section_title
;
Structure prediction by ZEFSAII (Michael W. Deem and Ramdas Pophale) SiO2 
 PCOD9078088
Probable space group: P -1
;
_chemical_formula_sum "Si O2"
_cell_formula_units_Z 16
_cell_length_a 20.006702
_cell_length_b 16.092252
_cell_length_c 9.793824
_cell_angle_alpha 36.560232
_cell_angle_beta 145.428292
_cell_angle_gamma 153.815279
_cell_volume 763.030051
_symmetry_space_group_name_H-M "P -1"
_symmetry_group_IT_number 2
_symmetry_cell_setting 'triclinic'
loop_
_space_group_symop_operation_xyz
x,y,z
-x,-y,-z
loop_
_atom_site_type_symbol
_atom_site_label
_atom_site_fract_x
_atom_site_fract_y
_atom_site_fract_z
Si Si1 0.511082 0.954846 0.731752
Si Si2 0.009001 0.270443 0.789144
Si Si3 0.355600 0.246916 0.772148
Si Si4 0.159307 0.140838 0.841813
Si Si5 0.684074 0.654661 0.902444
Si Si6 0.798640 0.958710 0.489034
Si Si7 0.665648 0.157971 0.982315
Si Si8 0.178774 0.634089 0.774546
O O1 0.337113 0.782982 0.743495
O O2 0.500000 0.000000 0.500000
O O3 0.600817 0.880230 0.972173
O O4 0.611853 0.140249 0.759601
O O5 0.923047 0.306939 0.492978
O O6 0.072493 0.419179 0.823214
O O7 0.165941 0.321932 0.921795
O O8 0.887497 0.051792 0.928350
O O9 0.216771 0.177396 0.736022
O O10 0.518277 0.462799 0.808359
O O11 0.289439 0.205050 0.562271
O O12 0.299297 0.317939 0.943155
O O13 0.992185 0.090541 0.639469
O O14 0.725087 0.839005 0.663327
O O15 0.755790 0.083447 0.230516
O O16 0.769177 0.343856 0.009674
O O17 0.500000 0.000000 0.000000
#
# Coordination Sequence:
#
# PCOD9078088 Si02
#       8
#     2   2   2   2   2   2   2   2
#     4  10  20  35  58  82 119 150 184 237 295 337
#     4  10  20  34  61  84 114 155 191 238 280 345
#     4  11  22  38  57  86 119 149 190 238 293 338
#     4  11  22  37  59  84 118 152 193 233 292 339
#     4  11  21  38  60  89 112 150 199 239 278 344
#     4  10  21  38  62  83 116 151 187 236 291 344
#     4   9  19  35  59  87 111 144 192 239 281 335
#     4  10  18  35  58  85 112 148 199 231 279 339
#
# _framework density 20.96903
#
# number of rings (size 3 to 8) (size 9 to 14) (size 15 to 20)
#    0.000    1.750    1.250    4.875    0.000    1.000 
#    0.000    0.000    2.750    4.500    0.000    0.000 
#    0.000    0.000    0.000    0.000    0.000    0.000 
#
# Total GULP energy -89342.034832 kJ/mol
# GULP energy per Si atom -5583.877177 kJ/mol
# Density = 2.092130 g / cm^3
# Si number density = 20.969030 Si / 1000 Ang^3
#
#
#
# Elastic Constant Matrix: (Units=GPa)
#
#
# Indices 1 2 3 4 5 6 
#
# 1 74.1493 8.4531 18.1162 13.3907 -16.6429 -17.8956
# 2 8.4531 133.2994 8.3453 17.4425 -39.6758 -22.4223
# 3 18.1162 8.3453 50.3789 15.9786 -19.9437 -10.7205
# 4 13.3907 17.4425 15.9786 28.0692 -9.5038 -8.5532
# 5 -16.6429 -39.6758 -19.9437 -9.5038 41.3510 15.8921
# 6 -17.8956 -22.4223 -10.7205 -8.5532 15.8921 27.1309
#
#
#
# Elastic Compliance Matrix: (Units=1/GPa)
#
#
# Indices 1 2 3 4 5 6 
#
# 1 0.017551 0.002283 -0.001737 -0.004748 0.003859 0.009020
# 2 0.002283 0.012070 0.004623 -0.005876 0.011585 0.004670
# 3 -0.001737 0.004623 0.030177 -0.013789 0.014431 0.001800
# 4 -0.004748 -0.005876 -0.013789 0.049270 -0.004750 0.004879
# 5 0.003859 0.011585 0.014431 -0.004750 0.047034 -0.011227
# 6 0.009020 0.004670 0.001800 0.004879 -0.011227 0.055492
#
#
# Mechanical properties :
#
#
# Convention : Reuss Voigt Hill
#
# Bulk Modulus (GPa) = 14.25785 36.40634 25.33210
# Shear Modulus (GPa) = 22.25826 34.17108 28.21467
#
# Velocity S-wave (km/s) = 3.26157 4.04121 3.67214
# Velocity P-wave (km/s) = 4.58236 6.25898 5.48511
#
# Compressibility (1/GPa) = 0.07013680
#
# Stress axis : x y z
#
# Youngs Moduli (GPa) = 56.97767 82.84900 33.13754
#
# Poissons Ratio (x) = -0.18913 0.05754
# Poissons Ratio (y) = -0.13007 -0.15320
# Poissons Ratio (z) = 0.09894 -0.38302
#
# Static dielectric constant tensor:
#      x y z
#    x 1.737850 -0.026820 -0.004770 
#    y -0.026820 1.771640 0.027190 
#    z -0.004770 0.027190 1.731080 
# 
# From -- ./inp_files/244975.got.cif
#   From: 2010.05.17/outbox.cif.g08.bks.cpg/sg2_123_cif.got.tgz:244975.got - 2010.06.03 11:33:40.
