data_PCOD9078154
_publ_section_title
;
Structure prediction by ZEFSAII (Michael W. Deem and Ramdas Pophale) SiO2 
 PCOD9078154
Probable space group: P -1
;
_chemical_formula_sum "Si O2"
_cell_formula_units_Z 14
_cell_length_a 15.936103
_cell_length_b 8.083073
_cell_length_c 7.866799
_cell_angle_alpha 128.813435
_cell_angle_beta 73.987264
_cell_angle_gamma 132.537140
_cell_volume 562.164437
_symmetry_space_group_name_H-M "P -1"
_symmetry_group_IT_number 2
_symmetry_cell_setting 'triclinic'
loop_
_space_group_symop_operation_xyz
x,y,z
-x,-y,-z
loop_
_atom_site_type_symbol
_atom_site_label
_atom_site_fract_x
_atom_site_fract_y
_atom_site_fract_z
Si Si1 0.522245 0.591420 0.807312
Si Si2 0.795887 0.583473 0.230109
Si Si3 0.901981 0.321107 0.139555
Si Si4 0.688295 0.975752 0.257134
Si Si5 0.312799 0.770323 0.262978
Si Si6 0.850628 0.126678 0.677087
Si Si7 0.561577 0.264504 0.362658
O O1 0.395427 0.323566 0.785446
O O2 0.579269 0.462120 0.631743
O O3 0.498333 0.698793 0.731285
O O4 0.611632 0.853352 0.050263
O O5 0.872950 0.511940 0.208048
O O6 0.680064 0.384279 0.285455
O O7 0.849026 0.900412 0.439164
O O8 0.760987 0.497102 0.995813
O O9 0.040857 0.552310 0.243320
O O10 0.818835 0.131988 0.222288
O O11 0.870330 0.128212 0.868550
O O12 0.698881 0.206726 0.513723
O O13 0.267495 0.929552 0.323853
O O14 0.450280 0.940046 0.270172
#
# Coordination Sequence:
#
# PCOD9078154 Si02
#       7
#     2   2   2   2   2   2   2
#     4   9  18  33  59  84 111 149 183 221 279 333
#     4  11  20  36  59  82 109 146 189 229 269 328
#     4  10  22  38  59  84 109 143 189 234 274 321
#     4  10  19  35  52  83 120 141 178 231 279 329
#     4  10  22  36  56  85 114 146 184 225 276 331
#     4  10  21  40  61  79 106 149 194 229 266 325
#     4  10  18  35  59  84 110 145 189 227 268 329
#
# _framework density 24.903746000000002
#
# number of rings (size 3 to 8) (size 9 to 14) (size 15 to 20)
#    0.000    2.000    0.000    6.000    0.000    0.571 
#    0.000   12.857    0.000    0.000    0.000    0.000 
#    0.000    0.000    0.000    0.000    0.000    0.000 
#
# Total GULP energy -78276.775181 kJ/mol
# GULP energy per Si atom -5591.198227 kJ/mol
# Density = 2.484706 g / cm^3
# Si number density = 24.903746 Si / 1000 Ang^3
#
#
#
# Elastic Constant Matrix: (Units=GPa)
#
#
# Indices 1 2 3 4 5 6 
#
# 1 46.6870 1.0608 17.7373 4.1466 -4.9619 14.4395
# 2 1.0608 130.2822 34.1965 -18.6373 7.4631 25.0591
# 3 17.7373 34.1965 174.1261 5.0442 9.2376 -13.4946
# 4 4.1466 -18.6373 5.0442 36.3624 4.0412 -6.9444
# 5 -4.9619 7.4631 9.2376 4.0412 25.9278 0.1185
# 6 14.4395 25.0591 -13.4946 -6.9444 0.1185 26.7693
#
#
#
# Elastic Compliance Matrix: (Units=1/GPa)
#
#
# Indices 1 2 3 4 5 6 
#
# 1 0.034718 0.005887 -0.007261 -0.006561 0.008694 -0.029639
# 2 0.005887 0.012413 -0.004310 0.003368 -0.001362 -0.016089
# 3 -0.007261 -0.004310 0.008447 0.000149 -0.003238 0.012262
# 4 -0.006561 0.003368 0.000149 0.032478 -0.007381 0.008920
# 5 0.008694 -0.001362 -0.003238 -0.007381 0.042961 -0.007152
# 6 -0.029639 -0.016089 0.012262 0.008920 -0.007152 0.076931
#
#
# Mechanical properties :
#
#
# Convention : Reuss Voigt Hill
#
# Bulk Modulus (GPa) = 22.61870 50.78717 36.70294
# Shear Modulus (GPa) = 21.36278 37.68527 29.52402
#
# Velocity S-wave (km/s) = 2.93202 3.89425 3.44688
# Velocity P-wave (km/s) = 4.53481 6.37636 5.53274
#
# Compressibility (1/GPa) = 0.04421120
#
# Stress axis : x y z
#
# Youngs Moduli (GPa) = 28.80385 80.55875 118.38926
#
# Poissons Ratio (x) = -0.47428 0.85961
# Poissons Ratio (y) = -0.16958 0.51022
# Poissons Ratio (z) = 0.20914 0.34718
#
# Static dielectric constant tensor:
#      x y z
#    x 2.037000 -0.047240 0.001640 
#    y -0.047240 1.957810 -0.017660 
#    z 0.001640 -0.017660 2.012220 
# 
# From -- ./inp_files/346443.got.cif
#   From: 2010.05.17/outbox.cif.g08.bks.cpg/sg2_174_cif.got.tgz:346443.got - 2010.06.03 11:33:40.
