data_PCOD9078732
_publ_section_title
;
Structure prediction by ZEFSAII (Michael W. Deem and Ramdas Pophale) SiO2 
 PCOD9078732
Probable space group: P -1
;
_chemical_formula_sum "Si O2"
_cell_formula_units_Z 16
_cell_length_a 7.066192
_cell_length_b 23.887743
_cell_length_c 6.219912
_cell_angle_alpha 85.726534
_cell_angle_beta 117.107288
_cell_angle_gamma 132.818770
_cell_volume 639.497303
_symmetry_space_group_name_H-M "P -1"
_symmetry_group_IT_number 2
_symmetry_cell_setting 'triclinic'
loop_
_space_group_symop_operation_xyz
x,y,z
-x,-y,-z
loop_
_atom_site_type_symbol
_atom_site_label
_atom_site_fract_x
_atom_site_fract_y
_atom_site_fract_z
Si Si1 0.227932 0.529723 0.312179
Si Si2 0.951084 0.070341 0.525479
Si Si3 0.044015 0.726966 0.436210
Si Si4 0.481873 0.305473 0.666123
Si Si5 0.379941 0.893118 0.385827
Si Si6 0.086053 0.157172 0.177769
Si Si7 0.551334 0.219616 0.011475
Si Si8 0.731398 0.556803 0.303845
O O1 0.336451 0.613406 0.397891
O O2 0.517499 0.551979 0.355460
O O3 0.150920 0.475018 0.491900
O O4 0.000000 0.500000 0.000000
O O5 0.785709 0.095132 0.534017
O O6 0.964953 0.081171 0.274196
O O7 0.734339 0.979153 0.523025
O O8 0.302600 0.135582 0.774910
O O9 0.298220 0.814099 0.428051
O O10 0.145730 0.746924 0.732800
O O11 0.724416 0.699596 0.265494
O O12 0.994532 0.653682 0.356005
O O13 0.253660 0.227649 0.418455
O O14 0.653817 0.292497 0.902738
O O15 0.207542 0.872381 0.080144
O O16 0.338905 0.195759 0.112804
O O17 0.500000 0.500000 0.000000
#
# Coordination Sequence:
#
# PCOD9078732 Si02
#       8
#     2   2   2   2   2   2   2   2
#     4  10  22  40  62  87 117 157 197 243 297 353
#     4   9  19  37  57  84 114 152 189 240 285 335
#     4  11  21  40  59  83 117 156 186 237 296 339
#     4  10  21  39  60  82 115 155 193 232 290 345
#     4  10  19  35  60  83 114 151 193 233 290 343
#     4  10  18  36  57  84 112 148 194 239 279 340
#     4  10  21  37  56  86 119 146 194 242 278 343
#     4  10  24  40  59  89 124 151 197 249 291 352
#
# _framework density 25.019651
#
# number of rings (size 3 to 8) (size 9 to 14) (size 15 to 20)
#    0.000    2.000    3.750    1.125    1.750    2.000 
#    4.500    0.625    0.000    0.000    0.000    0.000 
#    0.000    0.000    0.000    0.000    0.000    0.000 
#
# Total GULP energy -89436.793846 kJ/mol
# GULP energy per Si atom -5589.799615 kJ/mol
# Density = 2.496271 g / cm^3
# Si number density = 25.019651 Si / 1000 Ang^3
#
#
#
# Elastic Constant Matrix: (Units=GPa)
#
#
# Indices 1 2 3 4 5 6 
#
# 1 69.3090 42.0471 8.9481 -15.5452 0.4043 0.5763
# 2 42.0471 228.5113 63.3762 -22.0416 1.4477 -20.2654
# 3 8.9481 63.3762 114.7943 -25.4640 20.0465 -16.6152
# 4 -15.5452 -22.0416 -25.4640 35.1291 -0.3667 -0.7096
# 5 0.4043 1.4477 20.0465 -0.3667 37.9573 -7.7823
# 6 0.5763 -20.2654 -16.6152 -0.7096 -7.7823 33.1074
#
#
#
# Elastic Compliance Matrix: (Units=1/GPa)
#
#
# Indices 1 2 3 4 5 6 
#
# 1 0.017794 -0.003263 0.002061 0.007277 -0.001379 -0.001441
# 2 -0.003263 0.006058 -0.002970 0.000279 0.001936 0.002735
# 3 0.002061 -0.002970 0.013876 0.009117 -0.006368 0.003808
# 4 0.007277 0.000279 0.009117 0.038526 -0.003587 0.004602
# 5 -0.001379 0.001936 -0.006368 -0.003587 0.030670 0.005145
# 6 -0.001441 0.002735 0.003808 0.004602 0.005145 0.035123
#
#
# Mechanical properties :
#
#
# Convention : Reuss Voigt Hill
#
# Bulk Modulus (GPa) = 34.03341 71.26191 52.64766
# Shear Modulus (GPa) = 31.21387 41.12164 36.16776
#
# Velocity S-wave (km/s) = 3.53593 4.05850 3.80620
# Velocity P-wave (km/s) = 5.50478 7.10676 6.35644
#
# Compressibility (1/GPa) = 0.02938289
#
# Stress axis : x y z
#
# Youngs Moduli (GPa) = 56.19979 165.08439 72.06679
#
# Poissons Ratio (x) = 0.53863 -0.14851
# Poissons Ratio (y) = 0.18337 0.21405
# Poissons Ratio (z) = -0.11581 0.49032
#
# Static dielectric constant tensor:
#      x y z
#    x 2.019700 0.019800 0.000920 
#    y 0.019800 2.061350 -0.002450 
#    z 0.000920 -0.002450 1.962660 
# 
# From -- ./inp_files/47743.got.cif
#   From: 2010.05.17/outbox.cif.g08.bks.cpg/sg2_24_cif.got.tgz:47743.got - 2010.06.03 11:33:40.
