data_PCOD9078193
_publ_section_title
;
Structure prediction by ZEFSAII (Michael W. Deem and Ramdas Pophale) SiO2 
 PCOD9078193
Probable space group: P -1
;
_chemical_formula_sum "Si O2"
_cell_formula_units_Z 16
_cell_length_a 21.448076
_cell_length_b 14.547808
_cell_length_c 11.880494
_cell_angle_alpha 41.609112
_cell_angle_beta 149.519046
_cell_angle_gamma 158.565141
_cell_volume 656.802012
_symmetry_space_group_name_H-M "P -1"
_symmetry_group_IT_number 2
_symmetry_cell_setting 'triclinic'
loop_
_space_group_symop_operation_xyz
x,y,z
-x,-y,-z
loop_
_atom_site_type_symbol
_atom_site_label
_atom_site_fract_x
_atom_site_fract_y
_atom_site_fract_z
Si Si1 0.119328 0.007570 0.765082
Si Si2 0.378713 0.683332 0.152366
Si Si3 0.161146 0.175761 0.311178
Si Si4 0.574524 0.826915 0.573297
Si Si5 0.000487 0.784195 0.254022
Si Si6 0.852469 0.252984 0.283458
Si Si7 0.503519 0.574020 0.190770
Si Si8 0.884564 0.522771 0.742867
O O1 0.079762 0.023379 0.814754
O O2 0.970701 0.727756 0.771262
O O3 0.375770 0.240936 0.899742
O O4 0.000000 0.000000 0.500000
O O5 0.280414 0.433751 0.226594
O O6 0.483563 0.792439 0.341649
O O7 0.594205 0.935574 0.176508
O O8 0.190603 0.624615 0.899687
O O9 0.325604 0.267869 0.579783
O O10 0.123760 0.033525 0.281837
O O11 0.533248 0.623824 0.710990
O O12 0.398266 0.738816 0.462615
O O13 0.852223 0.104933 0.730994
O O14 0.021637 0.678243 0.470818
O O15 0.735463 0.575984 0.020126
O O16 0.998872 0.346295 0.317483
O O17 0.000000 0.500000 0.000000
#
# Coordination Sequence:
#
# PCOD9078193 Si02
#       8
#     2   2   2   2   2   2   2   2
#     4  10  18  35  59  88 120 157 201 257 297 361
#     4   9  18  37  58  87 125 159 209 257 297 373
#     4  10  20  39  63  91 122 167 205 256 313 360
#     4  10  20  38  59  91 127 159 209 258 296 375
#     4  11  24  37  65  94 124 167 204 255 316 359
#     4  10  20  33  60  91 120 165 205 252 312 360
#     4  10  21  39  62  91 133 156 208 258 304 372
#     4  12  20  36  64  92 121 167 208 250 315 370
#
# _framework density 24.360462999999999
#
# number of rings (size 3 to 8) (size 9 to 14) (size 15 to 20)
#    0.000    1.750    5.000    1.875    0.000    6.000 
#    0.000    0.000    2.750    2.250    0.000    5.250 
#    0.000    0.000    0.000    0.000    0.000    0.000 
#
# Total GULP energy -89520.944855 kJ/mol
# GULP energy per Si atom -5595.059053 kJ/mol
# Density = 2.430502 g / cm^3
# Si number density = 24.360463 Si / 1000 Ang^3
#
#
#
# Elastic Constant Matrix: (Units=GPa)
#
#
# Indices 1 2 3 4 5 6 
#
# 1 100.0229 53.0911 35.6466 11.2883 19.7610 41.4150
# 2 53.0911 103.7601 41.5508 4.6980 12.7027 33.5910
# 3 35.6466 41.5508 109.7277 9.7087 23.6843 5.7961
# 4 11.2883 4.6980 9.7087 44.1485 3.7412 18.8207
# 5 19.7610 12.7027 23.6843 3.7412 40.8493 7.1159
# 6 41.4150 33.5910 5.7961 18.8207 7.1159 62.8397
#
#
#
# Elastic Compliance Matrix: (Units=1/GPa)
#
#
# Indices 1 2 3 4 5 6 
#
# 1 0.017815 -0.004757 -0.002690 0.000583 -0.004124 -0.008658
# 2 -0.004757 0.015457 -0.004435 0.002900 0.000789 -0.005676
# 3 -0.002690 -0.004435 0.012842 -0.003134 -0.005261 0.004494
# 4 0.000583 0.002900 -0.003134 0.027042 -0.000149 -0.009727
# 5 -0.004124 0.000789 -0.005261 -0.000149 0.029381 -0.000501
# 6 -0.008658 -0.005676 0.004494 -0.009727 -0.000501 0.027210
#
#
# Mechanical properties :
#
#
# Convention : Reuss Voigt Hill
#
# Bulk Modulus (GPa) = 44.74112 63.78753 54.26432
# Shear Modulus (GPa) = 31.06320 41.78233 36.42277
#
# Velocity S-wave (km/s) = 3.57480 4.14595 3.87092
# Velocity P-wave (km/s) = 5.95357 7.01144 6.50405
#
# Compressibility (1/GPa) = 0.02235080
#
# Stress axis : x y z
#
# Youngs Moduli (GPa) = 56.13168 64.69427 77.86708
#
# Poissons Ratio (x) = 0.30774 0.20948
# Poissons Ratio (y) = 0.26701 0.34534
# Poissons Ratio (z) = 0.15101 0.28692
#
# Static dielectric constant tensor:
#      x y z
#    x 1.996460 0.030500 0.019940 
#    y 0.030500 1.946540 0.069090 
#    z 0.019940 0.069090 1.961800 
# 
# From -- ./inp_files/475441.got.cif
#   From: 2010.05.17/outbox.cif.g08.bks.cpg/sg2_238_cif.got.tgz:475441.got - 2010.06.03 11:33:40.
