data_PCOD9078058
_publ_section_title
;
Structure prediction by ZEFSAII (Michael W. Deem and Ramdas Pophale) SiO2 
 PCOD9078058
Probable space group: P -1
;
_chemical_formula_sum "Si O2"
_cell_formula_units_Z 15
_cell_length_a 8.499492
_cell_length_b 11.468533
_cell_length_c 8.881480
_cell_angle_alpha 140.919420
_cell_angle_beta 75.162894
_cell_angle_gamma 99.075516
_cell_volume 526.376741
_symmetry_space_group_name_H-M "P -1"
_symmetry_group_IT_number 2
_symmetry_cell_setting 'triclinic'
loop_
_space_group_symop_operation_xyz
x,y,z
-x,-y,-z
loop_
_atom_site_type_symbol
_atom_site_label
_atom_site_fract_x
_atom_site_fract_y
_atom_site_fract_z
Si Si1 0.772443 0.984700 0.330799
Si Si2 0.104197 0.362825 0.730502
Si Si3 0.435722 0.781591 0.194490
Si Si4 0.816978 0.654223 0.653939
Si Si5 0.525866 0.276646 0.262435
Si Si6 0.539027 0.606917 0.291887
Si Si7 0.838861 0.236440 0.279980
Si Si8 0.000000 0.000000 0.500000
O O1 0.731185 0.089608 0.615227
O O2 0.806768 0.107922 0.301641
O O3 0.930634 0.872308 0.243228
O O4 0.600158 0.889976 0.256877
O O5 0.138923 0.409472 0.592502
O O6 0.279711 0.354732 0.756062
O O7 0.032072 0.165850 0.541552
O O8 0.000000 0.500000 0.000000
O O9 0.430552 0.667136 0.236903
O O10 0.448002 0.616753 0.904964
O O11 0.646146 0.778673 0.817563
O O12 0.798009 0.459351 0.550418
O O13 0.966620 0.760946 0.787596
O O14 0.500000 0.500000 0.500000
O O15 0.501410 0.249407 0.421611
O O16 0.715414 0.202528 0.135858
#
# Coordination Sequence:
#
# PCOD9078058 Si02
#       8
#     2   2   2   2   2   2   2   1
#     4  11  21  36  55  84 118 155 192 248 308 355
#     4  11  22  37  59  87 121 156 192 252 303 353
#     4  10  21  33  55  83 112 151 191 241 300 359
#     4   9  20  33  57  87 113 152 207 237 288 366
#     4   9  18  33  55  81 109 147 196 241 283 348
#     4  10  19  35  54  83 114 145 197 244 290 362
#     4  10  18  35  58  81 114 158 195 244 296 353
#     4  12  22  36  56  88 118 152 198 240 304 358
#
# _framework density 28.496700000000001
#
# number of rings (size 3 to 8) (size 9 to 14) (size 15 to 20)
#    0.000    1.867    4.000    0.800    0.000    0.000 
#    0.000    0.000    0.000   12.800    0.000    0.000 
#    0.000    0.000    0.000    0.000    0.000    0.000 
#
# Total GULP energy -83510.143126 kJ/mol
# GULP energy per Si atom -5567.342875 kJ/mol
# Density = 2.843184 g / cm^3
# Si number density = 28.496700 Si / 1000 Ang^3
#
#
#
# Elastic Constant Matrix: (Units=GPa)
#
#
# Indices 1 2 3 4 5 6 
#
# 1 184.0467 28.2461 9.1720 2.5030 10.2607 -0.2313
# 2 28.2461 97.2350 24.5143 26.5973 5.9258 3.4293
# 3 9.1720 24.5143 96.5092 -8.4502 -0.5973 10.4348
# 4 2.5030 26.5973 -8.4502 47.6054 11.7876 12.8189
# 5 10.2607 5.9258 -0.5973 11.7876 21.9444 12.8620
# 6 -0.2313 3.4293 10.4348 12.8189 12.8620 54.9745
#
#
#
# Elastic Compliance Matrix: (Units=1/GPa)
#
#
# Indices 1 2 3 4 5 6 
#
# 1 0.005897 -0.001908 -0.000038 0.001418 -0.003360 0.000607
# 2 -0.001908 0.014468 -0.004537 -0.009524 0.000817 0.001980
# 3 -0.000038 -0.004537 0.012384 0.005513 0.000677 -0.003512
# 4 0.001418 -0.009524 0.005513 0.031537 -0.011948 -0.005005
# 5 -0.003360 0.000817 0.000677 -0.011948 0.060076 -0.011463
# 6 0.000607 0.001980 -0.003512 -0.005005 -0.011463 0.022585
#
#
# Mechanical properties :
#
#
# Convention : Reuss Voigt Hill
#
# Bulk Modulus (GPa) = 50.54595 55.73950 53.14273
# Shear Modulus (GPa) = 30.02898 45.96209 37.99554
#
# Velocity S-wave (km/s) = 3.24970 4.02044 3.65544
# Velocity P-wave (km/s) = 5.64418 6.41517 6.04198
#
# Compressibility (1/GPa) = 0.01978398
#
# Stress axis : x y z
#
# Youngs Moduli (GPa) = 169.58010 69.11928 80.74784
#
# Poissons Ratio (x) = 0.13187 0.00307
# Poissons Ratio (y) = 0.32353 0.36632
# Poissons Ratio (z) = 0.00645 0.31356
#
# Static dielectric constant tensor:
#      x y z
#    x 2.091480 0.144190 0.117790 
#    y 0.144190 2.398850 -0.130570 
#    z 0.117790 -0.130570 2.268890 
# 
# From -- ./inp_files/175225.got.cif
#   From: 2010.05.17/outbox.cif.g08.bks.cpg/sg2_88_cif.got.tgz:175225.got - 2010.06.03 11:33:40.
