data_PCOD9078235
_publ_section_title
;
Structure prediction by ZEFSAII (Michael W. Deem and Ramdas Pophale) SiO2 
 PCOD9078235
Probable space group: P -1
;
_chemical_formula_sum "Si O2"
_cell_formula_units_Z 16
_cell_length_a 9.287556
_cell_length_b 11.982734
_cell_length_c 13.120444
_cell_angle_alpha 33.798772
_cell_angle_beta 112.827601
_cell_angle_gamma 99.698928
_cell_volume 714.111677
_symmetry_space_group_name_H-M "P -1"
_symmetry_group_IT_number 2
_symmetry_cell_setting 'triclinic'
loop_
_space_group_symop_operation_xyz
x,y,z
-x,-y,-z
loop_
_atom_site_type_symbol
_atom_site_label
_atom_site_fract_x
_atom_site_fract_y
_atom_site_fract_z
Si Si1 0.664105 0.528887 0.071227
Si Si2 0.275083 0.519625 0.640171
Si Si3 0.748596 0.078011 0.459481
Si Si4 0.997987 0.953376 0.296297
Si Si5 0.558774 0.984119 0.660833
Si Si6 0.795759 0.656433 0.442818
Si Si7 0.892353 0.198736 0.884048
Si Si8 0.565272 0.253235 0.639086
O O1 0.666951 0.560072 0.170704
O O2 0.779791 0.292710 0.266274
O O3 0.500000 0.500000 0.000000
O O4 0.669990 0.743189 0.858997
O O5 0.134883 0.746109 0.443245
O O6 0.211175 0.366788 0.664562
O O7 0.412578 0.574788 0.566921
O O8 0.919796 0.967734 0.644920
O O9 0.635714 0.992141 0.417900
O O10 0.617318 0.117189 0.489377
O O11 0.855375 0.847266 0.354337
O O12 0.939233 0.136449 0.059539
O O13 0.597046 0.049188 0.732889
O O14 0.907937 0.427514 0.686227
O O15 0.614361 0.690077 0.409180
O O16 0.705335 0.219704 0.787160
O O17 0.000000 0.000000 0.000000
#
# Coordination Sequence:
#
# PCOD9078235 Si02
#       8
#     2   2   2   2   2   2   2   2
#     4   9  18  31  56  90 112 140 195 253 290 324
#     4  10  19  38  59  83 122 150 196 245 287 344
#     4   9  19  36  57  88 114 146 202 252 286 331
#     4  11  21  37  59  87 114 154 201 242 291 348
#     4  10  18  35  60  83 115 154 195 247 290 342
#     4  11  25  39  55  87 130 157 185 245 300 346
#     4  11  21  37  63  86 115 154 204 236 287 351
#     4  11  22  40  58  89 123 159 190 239 303 349
#
# _framework density 22.405460000000001
#
# number of rings (size 3 to 8) (size 9 to 14) (size 15 to 20)
#    0.000    1.750    5.000    1.875    1.750    3.500 
#    2.250    0.625    0.000    0.750    0.000    0.000 
#    0.000    0.000    0.000    0.000    0.000    0.000 
#
# Total GULP energy -89143.766346 kJ/mol
# GULP energy per Si atom -5571.485397 kJ/mol
# Density = 2.235446 g / cm^3
# Si number density = 22.405460 Si / 1000 Ang^3
#
#
#
# Elastic Constant Matrix: (Units=GPa)
#
#
# Indices 1 2 3 4 5 6 
#
# 1 75.2372 -4.1846 0.9432 2.4940 4.8764 9.7492
# 2 -4.1846 58.5846 17.0137 13.8727 -0.7375 27.1365
# 3 0.9432 17.0137 102.9802 24.8827 -5.4620 9.1281
# 4 2.4940 13.8727 24.8827 41.6025 5.3506 7.7269
# 5 4.8764 -0.7375 -5.4620 5.3506 10.8777 -0.7083
# 6 9.7492 27.1365 9.1281 7.7269 -0.7083 27.5567
#
#
#
# Elastic Compliance Matrix: (Units=1/GPa)
#
#
# Indices 1 2 3 4 5 6 
#
# 1 0.015812 0.006908 -0.000739 0.000554 -0.008078 -0.012515
# 2 0.006908 0.035686 -0.001833 -0.004336 -0.001796 -0.035809
# 3 -0.000739 -0.001833 0.012547 -0.008311 0.010629 0.000514
# 4 0.000554 -0.004336 -0.008311 0.033786 -0.021543 -0.003200
# 5 -0.008078 -0.001796 0.010629 -0.021543 0.112017 0.010026
# 6 -0.012515 -0.035809 0.000514 -0.003200 0.010026 0.076965
#
#
# Mechanical properties :
#
#
# Convention : Reuss Voigt Hill
#
# Bulk Modulus (GPa) = 13.75197 29.37184 21.56191
# Shear Modulus (GPa) = 16.53561 30.87603 23.70582
#
# Velocity S-wave (km/s) = 2.71959 3.71625 3.25628
# Velocity P-wave (km/s) = 4.00159 5.61709 4.87670
#
# Compressibility (1/GPa) = 0.07271685
#
# Stress axis : x y z
#
# Youngs Moduli (GPa) = 63.24442 28.02218 79.70332
#
# Poissons Ratio (x) = -0.19358 0.05891
# Poissons Ratio (y) = -0.43690 0.14606
# Poissons Ratio (z) = 0.04675 0.05135
#
# Static dielectric constant tensor:
#      x y z
#    x 1.860250 0.036140 -0.011730 
#    y 0.036140 1.910520 -0.008400 
#    z -0.011730 -0.008400 1.897480 
# 
# From -- ./inp_files/505126.got.cif
#   From: 2010.05.17/outbox.cif.g08.bks.cpg/sg2_253_cif.got.tgz:505126.got - 2010.06.03 11:33:40.
