data_PCOD9078453
_publ_section_title
;
Structure prediction by ZEFSAII (Michael W. Deem and Ramdas Pophale) SiO2 
 PCOD9078453
Probable space group: P -1
;
_chemical_formula_sum "Si O2"
_cell_formula_units_Z 14
_cell_length_a 10.353306
_cell_length_b 9.897452
_cell_length_c 9.005579
_cell_angle_alpha 48.644649
_cell_angle_beta 119.408731
_cell_angle_gamma 95.827177
_cell_volume 567.282630
_symmetry_space_group_name_H-M "P -1"
_symmetry_group_IT_number 2
_symmetry_cell_setting 'triclinic'
loop_
_space_group_symop_operation_xyz
x,y,z
-x,-y,-z
loop_
_atom_site_type_symbol
_atom_site_label
_atom_site_fract_x
_atom_site_fract_y
_atom_site_fract_z
Si Si1 0.460332 0.413728 0.723821
Si Si2 0.666862 0.866504 0.254881
Si Si3 0.887731 0.087513 0.605124
Si Si4 0.432320 0.818042 0.490128
Si Si5 0.804026 0.166910 0.187456
Si Si6 0.357579 0.230624 0.087810
Si Si7 0.070307 0.280949 0.740564
O O1 0.370444 0.330482 0.608940
O O2 0.412671 0.640480 0.522304
O O3 0.650245 0.312350 0.915498
O O4 0.401532 0.355429 0.893017
O O5 0.793548 0.822410 0.225345
O O6 0.746249 0.982514 0.320691
O O7 0.500000 0.000000 0.000000
O O8 0.719526 0.085722 0.561855
O O9 0.849213 0.220801 0.337223
O O10 0.944587 0.179760 0.712439
O O11 0.037227 0.906237 0.768562
O O12 0.578069 0.731575 0.746198
O O13 0.443651 0.000718 0.276543
O O14 0.171136 0.267453 0.954604
O O15 0.000000 0.500000 0.500000
#
# Coordination Sequence:
#
# PCOD9078453 Si02
#       7
#     2   2   2   2   2   2   2
#     4  10  18  35  63  84 107 147 193 232 277 332
#     4   8  16  31  52  82 110 143 183 228 277 328
#     4  10  19  33  53  86 111 150 185 226 290 332
#     4  11  22  36  62  86 110 150 192 232 280 330
#     4   9  18  31  56  82 115 146 185 231 278 337
#     4  10  22  37  55  89 118 143 184 241 280 329
#     4  10  20  33  56  84 113 144 187 232 280 331
#
# _framework density 24.679055999999999
#
# number of rings (size 3 to 8) (size 9 to 14) (size 15 to 20)
#    0.000    2.286    1.429    2.143    2.000    0.571 
#    0.000    0.000    0.000   42.857    0.000    0.000 
#    0.000    0.000    0.000    0.000    0.000    0.000 
#
# Total GULP energy -78092.335408 kJ/mol
# GULP energy per Si atom -5578.023958 kJ/mol
# Density = 2.462289 g / cm^3
# Si number density = 24.679056 Si / 1000 Ang^3
#
#
#
# Elastic Constant Matrix: (Units=GPa)
#
#
# Indices 1 2 3 4 5 6 
#
# 1 86.2156 5.2004 13.5420 11.7480 9.6941 0.6479
# 2 5.2004 101.7441 12.0128 1.8056 1.5180 17.6096
# 3 13.5420 12.0128 49.5115 15.9134 10.3637 7.0670
# 4 11.7480 1.8056 15.9134 43.0140 12.0286 8.9716
# 5 9.6941 1.5180 10.3637 12.0286 43.2905 2.8711
# 6 0.6479 17.6096 7.0670 8.9716 2.8711 16.5506
#
#
#
# Elastic Compliance Matrix: (Units=1/GPa)
#
#
# Indices 1 2 3 4 5 6 
#
# 1 0.012567 -0.000829 -0.002483 -0.002681 -0.001657 0.003191
# 2 -0.000829 0.012507 -0.001879 0.003319 0.000224 -0.014311
# 3 -0.002483 -0.001879 0.024738 -0.006602 -0.003178 -0.004337
# 4 -0.002681 0.003319 -0.006602 0.031295 -0.005529 -0.016612
# 5 -0.001657 0.000224 -0.003178 -0.005529 0.025780 -0.000291
# 6 0.003191 -0.014311 -0.004337 -0.016612 -0.000291 0.086429
#
#
# Mechanical properties :
#
#
# Convention : Reuss Voigt Hill
#
# Bulk Modulus (GPa) = 25.36078 33.22017 29.29047
# Shear Modulus (GPa) = 23.05837 34.35209 28.70523
#
# Velocity S-wave (km/s) = 3.06000 3.73494 3.41419
# Velocity P-wave (km/s) = 4.77319 5.66478 5.23799
#
# Compressibility (1/GPa) = 0.03943097
#
# Stress axis : x y z
#
# Youngs Moduli (GPa) = 79.57660 79.95247 40.42290
#
# Poissons Ratio (x) = 0.06630 0.10036
# Poissons Ratio (y) = 0.06598 0.07594
# Poissons Ratio (z) = 0.19757 0.15021
#
# Static dielectric constant tensor:
#      x y z
#    x 1.969100 0.002930 -0.010910 
#    y 0.002930 2.062270 0.007410 
#    z -0.010910 0.007410 1.968550 
# 
# From -- ./inp_files/407119.got.cif
#   From: 2010.05.17/outbox.cif.g08.bks.cpg/sg2_204_cif.got.tgz:407119.got - 2010.06.03 11:33:40.
