data_PCOD9078454
_publ_section_title
;
Structure prediction by ZEFSAII (Michael W. Deem and Ramdas Pophale) SiO2 
 PCOD9078454
Probable space group: P -1
;
_chemical_formula_sum "Si O2"
_cell_formula_units_Z 14
_cell_length_a 7.876451
_cell_length_b 14.049524
_cell_length_c 10.130149
_cell_angle_alpha 87.340750
_cell_angle_beta 132.158255
_cell_angle_gamma 126.427963
_cell_volume 539.638890
_symmetry_space_group_name_H-M "P -1"
_symmetry_group_IT_number 2
_symmetry_cell_setting 'triclinic'
loop_
_space_group_symop_operation_xyz
x,y,z
-x,-y,-z
loop_
_atom_site_type_symbol
_atom_site_label
_atom_site_fract_x
_atom_site_fract_y
_atom_site_fract_z
Si Si1 0.199377 0.037774 0.970255
Si Si2 0.346797 0.236735 0.476832
Si Si3 0.676824 0.013246 0.299170
Si Si4 0.665320 0.614823 0.199156
Si Si5 0.370414 0.727440 0.016007
Si Si6 0.201413 0.788798 0.260001
Si Si7 0.691131 0.610692 0.763668
O O1 0.464207 0.202491 0.046752
O O2 0.881376 0.911577 0.715497
O O3 0.434725 0.017476 0.108089
O O4 0.000000 0.000000 0.000000
O O5 0.697337 0.291381 0.694990
O O6 0.399179 0.339738 0.396236
O O7 0.073354 0.167358 0.458955
O O8 0.577426 0.878442 0.192468
O O9 0.542835 0.955313 0.381316
O O10 0.452077 0.645272 0.098493
O O11 0.625798 0.543354 0.318262
O O12 0.048039 0.754843 0.327496
O O13 0.500000 0.500000 0.000000
O O14 0.964988 0.625636 0.834414
O O15 0.917266 0.722420 0.000035
#
# Coordination Sequence:
#
# PCOD9078454 Si02
#       7
#     2   2   2   2   2   2   2
#     4  11  20  34  61  90 118 151 188 238 300 350
#     4  11  20  38  62  89 115 159 187 240 297 347
#     4  10  19  39  59  87 120 148 192 240 291 357
#     4  10  22  37  59  86 118 159 197 240 287 334
#     4  10  18  35  63  84 112 157 198 231 289 351
#     4  10  21  36  60  90 118 149 197 243 287 344
#     4  10  20  39  62  81 117 158 200 235 287 344
#
# _framework density 25.943275
#
# number of rings (size 3 to 8) (size 9 to 14) (size 15 to 20)
#    0.000    1.714    4.286    2.571    2.000    0.571 
#    0.000    9.286    0.000    6.857    0.000    0.000 
#    0.000    0.000    0.000    0.000    0.000    0.000 
#
# Total GULP energy -78321.099662 kJ/mol
# GULP energy per Si atom -5594.364262 kJ/mol
# Density = 2.588423 g / cm^3
# Si number density = 25.943275 Si / 1000 Ang^3
#
#
#
# Elastic Constant Matrix: (Units=GPa)
#
#
# Indices 1 2 3 4 5 6 
#
# 1 91.0075 41.0352 11.6005 18.4760 -2.2573 36.2034
# 2 41.0352 155.0069 49.6757 -15.7842 -14.8170 39.7170
# 3 11.6005 49.6757 77.0296 -17.1594 -2.6755 -10.4410
# 4 18.4760 -15.7842 -17.1594 40.8729 -4.9105 -1.7171
# 5 -2.2573 -14.8170 -2.6755 -4.9105 14.1483 -9.1652
# 6 36.2034 39.7170 -10.4410 -1.7171 -9.1652 73.5239
#
#
#
# Elastic Compliance Matrix: (Units=1/GPa)
#
#
# Indices 1 2 3 4 5 6 
#
# 1 0.020699 -0.003475 -0.006385 -0.015577 -0.014316 -0.011370
# 2 -0.003475 0.011894 -0.006428 0.004412 0.009398 -0.004352
# 3 -0.006385 -0.006428 0.022313 0.011126 0.007438 0.010972
# 4 -0.015577 0.004412 0.011126 0.041443 0.025780 0.011048
# 5 -0.014316 0.009398 0.007438 0.025780 0.098933 0.015963
# 6 -0.011370 -0.004352 0.010972 0.011048 0.015963 0.025357
#
#
# Mechanical properties :
#
#
# Convention : Reuss Voigt Hill
#
# Bulk Modulus (GPa) = 44.78037 58.62965 51.70501
# Shear Modulus (GPa) = 19.18227 40.42452 29.80339
#
# Velocity S-wave (km/s) = 2.72213 3.95167 3.39306
# Velocity P-wave (km/s) = 5.21328 6.59312 5.94338
#
# Compressibility (1/GPa) = 0.02233121
#
# Stress axis : x y z
#
# Youngs Moduli (GPa) = 48.31107 84.07708 44.81757
#
# Poissons Ratio (x) = 0.29215 0.28615
# Poissons Ratio (y) = 0.16787 0.28807
# Poissons Ratio (z) = 0.30845 0.54042
#
# Static dielectric constant tensor:
#      x y z
#    x 2.259350 0.034890 -0.096730 
#    y 0.034890 2.088740 0.033660 
#    z -0.096730 0.033660 2.070990 
# 
# From -- ./inp_files/254419.got.cif
#   From: 2010.05.17/outbox.cif.g08.bks.cpg/sg2_128_cif.got.tgz:254419.got - 2010.06.03 11:33:40.
