data_PCOD9078345
_publ_section_title
;
Structure prediction by ZEFSAII (Michael W. Deem and Ramdas Pophale) SiO2 
 PCOD9078345
Probable space group: P -1
;
_chemical_formula_sum "Si O2"
_cell_formula_units_Z 14
_cell_length_a 11.315265
_cell_length_b 11.863798
_cell_length_c 7.084994
_cell_angle_alpha 112.672684
_cell_angle_beta 42.989326
_cell_angle_gamma 118.097509
_cell_volume 570.763857
_symmetry_space_group_name_H-M "P -1"
_symmetry_group_IT_number 2
_symmetry_cell_setting 'triclinic'
loop_
_space_group_symop_operation_xyz
x,y,z
-x,-y,-z
loop_
_atom_site_type_symbol
_atom_site_label
_atom_site_fract_x
_atom_site_fract_y
_atom_site_fract_z
Si Si1 0.009555 0.522633 0.279369
Si Si2 0.530058 0.877286 0.294731
Si Si3 0.626853 0.389827 0.591701
Si Si4 0.426092 0.847252 0.001421
Si Si5 0.957122 0.199648 0.688596
Si Si6 0.576107 0.417025 0.123627
Si Si7 0.046693 0.012391 0.172787
O O1 0.840680 0.412648 0.319838
O O2 0.000000 0.500000 0.500000
O O3 0.959852 0.652736 0.368814
O O4 0.219153 0.535170 0.999651
O O5 0.493168 0.755673 0.393472
O O6 0.387380 0.834109 0.262807
O O7 0.500000 0.000000 0.500000
O O8 0.736841 0.921823 0.009453
O O9 0.542592 0.487900 0.647604
O O10 0.603986 0.413930 0.859828
O O11 0.253186 0.811879 0.048040
O O12 0.514871 0.731304 0.801582
O O13 0.500000 0.000000 0.000000
O O14 0.016140 0.127583 0.746832
O O15 0.961982 0.107381 0.446385
O O16 0.000000 0.000000 0.000000
#
# Coordination Sequence:
#
# PCOD9078345 Si02
#       7
#     2   2   2   2   2   2   2
#     4   9  18  32  59  93 122 155 209 268 311 389
#     4  11  23  39  60  89 125 167 211 259 327 383
#     4   9  18  33  56  85 120 160 206 261 313 381
#     4  10  18  35  61  89 121 156 205 267 307 379
#     4  10  22  39  64  97 123 166 219 259 331 382
#     4   8  17  29  52  88 114 153 203 253 316 365
#     4  11  24  40  62  91 132 170 209 270 319 389
#
# _framework density 24.528531999999998
#
# number of rings (size 3 to 8) (size 9 to 14) (size 15 to 20)
#    0.000    2.286    1.429    1.714    8.000    0.000 
#    0.000    0.000    0.000    6.857    0.000    0.000 
#    0.000    0.000    0.000    0.000    0.000    0.000 
#
# Total GULP energy -78131.582610 kJ/mol
# GULP energy per Si atom -5580.827329 kJ/mol
# Density = 2.447270 g / cm^3
# Si number density = 24.528532 Si / 1000 Ang^3
#
#
#
# Elastic Constant Matrix: (Units=GPa)
#
#
# Indices 1 2 3 4 5 6 
#
# 1 111.4529 33.4687 37.4654 1.4721 11.5210 -28.7324
# 2 33.4687 182.5404 36.3123 7.4560 -24.1235 -35.2484
# 3 37.4654 36.3123 70.7153 10.0212 -13.6805 -11.8115
# 4 1.4721 7.4560 10.0212 28.9144 -3.8859 -9.7439
# 5 11.5210 -24.1235 -13.6805 -3.8859 45.4484 -2.1199
# 6 -28.7324 -35.2484 -11.8115 -9.7439 -2.1199 32.6712
#
#
#
# Elastic Compliance Matrix: (Units=1/GPa)
#
#
# Indices 1 2 3 4 5 6 
#
# 1 0.015048 0.000202 -0.007813 0.005203 -0.005062 0.011850
# 2 0.000202 0.008100 -0.002271 0.002301 0.004184 0.009054
# 3 -0.007813 -0.002271 0.021074 -0.006551 0.006407 -0.003241
# 4 0.005203 0.002301 -0.006551 0.042185 0.002350 0.017424
# 5 -0.005062 0.004184 0.006407 0.002350 0.027864 0.004888
# 6 0.011850 0.009054 -0.003241 0.017424 0.004888 0.055139
#
#
# Mechanical properties :
#
#
# Convention : Reuss Voigt Hill
#
# Bulk Modulus (GPa) = 40.88841 64.35571 52.62206
# Shear Modulus (GPa) = 25.33879 38.57094 31.95487
#
# Velocity S-wave (km/s) = 3.21757 3.96977 3.61330
# Velocity P-wave (km/s) = 5.52355 6.87795 6.23762
#
# Compressibility (1/GPa) = 0.02445681
#
# Stress axis : x y z
#
# Youngs Moduli (GPa) = 66.45569 123.45565 47.45285
#
# Poissons Ratio (x) = -0.02496 0.37076
# Poissons Ratio (y) = -0.01343 0.10777
# Poissons Ratio (z) = 0.51924 0.28037
#
# Static dielectric constant tensor:
#      x y z
#    x 2.004970 -0.036410 0.055810 
#    y -0.036410 2.032290 -0.069160 
#    z 0.055810 -0.069160 2.063300 
# 
# From -- ./inp_files/259793.got.cif
#   From: 2010.05.17/outbox.cif.g08.bks.cpg/sg2_130_cif.got.tgz:259793.got - 2010.06.03 11:33:40.
