data_PCOD9078670
_publ_section_title
;
Structure prediction by ZEFSAII (Michael W. Deem and Ramdas Pophale) SiO2 
 PCOD9078670
Probable space group: P -1
;
_chemical_formula_sum "Si O2"
_cell_formula_units_Z 16
_cell_length_a 9.779880
_cell_length_b 11.362684
_cell_length_c 17.215245
_cell_angle_alpha 148.423979
_cell_angle_beta 143.183824
_cell_angle_gamma 44.676896
_cell_volume 597.710189
_symmetry_space_group_name_H-M "P -1"
_symmetry_group_IT_number 2
_symmetry_cell_setting 'triclinic'
loop_
_space_group_symop_operation_xyz
x,y,z
-x,-y,-z
loop_
_atom_site_type_symbol
_atom_site_label
_atom_site_fract_x
_atom_site_fract_y
_atom_site_fract_z
Si Si1 0.964605 0.788057 0.310689
Si Si2 0.269376 0.078462 0.532198
Si Si3 0.757508 0.059687 0.727494
Si Si4 0.606058 0.526709 0.842343
Si Si5 0.797109 0.456926 0.444998
Si Si6 0.446441 0.694277 0.019375
Si Si7 0.771118 0.966125 0.119274
Si Si8 0.988444 0.451133 0.254940
O O1 0.057672 0.552003 0.260334
O O2 0.126337 0.862437 0.357815
O O3 0.689299 0.801572 0.184971
O O4 0.000000 0.000000 0.500000
O O5 0.280559 0.092684 0.451999
O O6 0.528941 0.036685 0.660792
O O7 0.159971 0.317257 0.649874
O O8 0.714439 0.315435 0.821309
O O9 0.027320 0.018819 0.844403
O O10 0.449933 0.483765 0.673368
O O11 0.426546 0.637976 0.887056
O O12 0.785349 0.707946 0.008903
O O13 0.000000 0.500000 0.500000
O O14 0.831754 0.585259 0.613915
O O15 0.804317 0.185725 0.310945
O O16 0.176250 0.747459 0.944870
O O17 0.500000 0.500000 0.000000
O O18 0.500000 0.000000 0.000000
#
# Coordination Sequence:
#
# PCOD9078670 Si02
#       8
#     2   2   2   2   2   2   2   2
#     4   9  20  33  55  80 119 158 205 255 288 356
#     4  10  19  33  56  87 120 157 198 242 307 347
#     4  11  20  35  61  87 128 153 196 256 303 361
#     4  11  22  36  57  91 122 159 197 250 303 354
#     4  11  20  36  58  84 125 154 203 242 305 357
#     4  10  19  33  53  83 122 157 204 249 292 353
#     4  10  23  37  55  86 119 158 196 245 300 362
#     4  10  18  36  55  85 121 162 203 247 293 358
#
# _framework density 26.768827000000002
#
# number of rings (size 3 to 8) (size 9 to 14) (size 15 to 20)
#    0.000    1.750    3.750    1.125    3.500    0.000 
#    0.000    0.000    0.000    0.750    0.000   12.250 
#    0.000    0.000    0.000    0.000    0.000    0.000 
#
# Total GULP energy -89112.711653 kJ/mol
# GULP energy per Si atom -5569.544478 kJ/mol
# Density = 2.670790 g / cm^3
# Si number density = 26.768827 Si / 1000 Ang^3
#
#
#
# Elastic Constant Matrix: (Units=GPa)
#
#
# Indices 1 2 3 4 5 6 
#
# 1 66.8204 11.8298 20.7648 -1.9107 34.3793 7.3819
# 2 11.8298 94.6432 47.7813 1.5263 20.1428 -0.7509
# 3 20.7648 47.7813 206.1329 -12.1176 49.5471 13.6603
# 4 -1.9107 1.5263 -12.1176 50.1152 6.8289 10.2991
# 5 34.3793 20.1428 49.5471 6.8289 49.3572 1.1090
# 6 7.3819 -0.7509 13.6603 10.2991 1.1090 34.5754
#
#
#
# Elastic Compliance Matrix: (Units=1/GPa)
#
#
# Indices 1 2 3 4 5 6 
#
# 1 0.027016 -0.000617 0.004031 0.007000 -0.023386 -0.008709
# 2 -0.000617 0.012365 -0.002510 -0.001103 -0.001984 0.001784
# 3 0.004031 -0.002510 0.008181 0.004715 -0.010531 -0.005214
# 4 0.007000 -0.001103 0.004715 0.025245 -0.012415 -0.010503
# 5 -0.023386 -0.001984 -0.010531 -0.012415 0.049396 0.011224
# 6 -0.008709 0.001784 -0.005214 -0.010503 0.011224 0.035649
#
#
# Mechanical properties :
#
#
# Convention : Reuss Voigt Hill
#
# Bulk Modulus (GPa) = 20.25518 58.70537 39.48028
# Shear Modulus (GPa) = 28.98552 45.95761 37.47157
#
# Velocity S-wave (km/s) = 3.29418 4.14796 3.74548
# Velocity P-wave (km/s) = 4.69595 6.70216 5.78666
#
# Compressibility (1/GPa) = 0.04937009
#
# Stress axis : x y z
#
# Youngs Moduli (GPa) = 37.01484 80.87614 122.23425
#
# Poissons Ratio (x) = 0.04989 -0.49275
# Poissons Ratio (y) = 0.02283 0.30683
# Poissons Ratio (z) = -0.14922 0.20301
#
# Static dielectric constant tensor:
#      x y z
#    x 2.437070 0.079700 0.013130 
#    y 0.079700 2.284000 0.001340 
#    z 0.013130 0.001340 2.199980 
# 
# From -- ./inp_files/594821.got.cif
#   From: 2010.05.17/outbox.cif.g08.bks.cpg/sg2_298_cif.got.tgz:594821.got - 2010.06.03 11:33:40.
