data_PCOD9078646
_publ_section_title
;
Structure prediction by ZEFSAII (Michael W. Deem and Ramdas Pophale) SiO2 
 PCOD9078646
Probable space group: P -1
;
_chemical_formula_sum "Si O2"
_cell_formula_units_Z 16
_cell_length_a 10.058855
_cell_length_b 16.844975
_cell_length_c 9.486756
_cell_angle_alpha 121.848951
_cell_angle_beta 118.096233
_cell_angle_gamma 112.375610
_cell_volume 654.198942
_symmetry_space_group_name_H-M "P -1"
_symmetry_group_IT_number 2
_symmetry_cell_setting 'triclinic'
loop_
_space_group_symop_operation_xyz
x,y,z
-x,-y,-z
loop_
_atom_site_type_symbol
_atom_site_label
_atom_site_fract_x
_atom_site_fract_y
_atom_site_fract_z
Si Si1 0.166337 0.903796 0.127407
Si Si2 0.845176 0.199993 0.497076
Si Si3 0.380395 0.303835 0.203598
Si Si4 0.543010 0.834167 0.717456
Si Si5 0.462696 0.881890 0.216911
Si Si6 0.692338 0.808855 0.218020
Si Si7 0.735950 0.687851 0.362469
Si Si8 0.660632 0.458105 0.750438
O O1 0.196659 0.810811 0.012611
O O2 0.899224 0.793404 0.977587
O O3 0.227230 0.001693 0.115788
O O4 0.648854 0.820930 0.880535
O O5 0.645618 0.180254 0.334226
O O6 0.981567 0.216756 0.450194
O O7 0.677486 0.043453 0.368370
O O8 0.086368 0.369871 0.874928
O O9 0.408632 0.320287 0.066735
O O10 0.365874 0.530855 0.417404
O O11 0.580863 0.946967 0.496256
O O12 0.360607 0.665557 0.375907
O O13 0.473673 0.779363 0.085688
O O14 0.723525 0.778194 0.355907
O O15 0.000000 0.000000 0.500000
O O16 0.625302 0.651720 0.428024
O O17 0.500000 0.500000 0.000000
#
# Coordination Sequence:
#
# PCOD9078646 Si02
#       8
#     2   2   2   2   2   2   2   2
#     4  10  18  36  53  87 120 145 203 241 292 347
#     4  10  18  38  56  89 114 155 206 237 289 354
#     4  10  22  36  57  91 118 157 189 246 300 343
#     4   9  20  33  59  85 119 153 193 245 292 347
#     4  10  21  33  61  85 112 158 197 246 286 350
#     4  12  21  38  63  84 121 155 198 243 296 357
#     4  10  21  38  62  87 112 155 199 241 290 352
#     4   9  21  36  60  85 115 157 197 238 290 346
#
# _framework density 24.457395000000002
#
# number of rings (size 3 to 8) (size 9 to 14) (size 15 to 20)
#    0.750    1.250    2.500    1.500    0.000    0.000 
#    2.250    6.875    0.000    3.000    0.000    0.000 
#    0.000    0.000    0.000    0.000    0.000    0.000 
#
# Total GULP energy -89475.628253 kJ/mol
# GULP energy per Si atom -5592.226766 kJ/mol
# Density = 2.440173 g / cm^3
# Si number density = 24.457395 Si / 1000 Ang^3
#
#
#
# Elastic Constant Matrix: (Units=GPa)
#
#
# Indices 1 2 3 4 5 6 
#
# 1 158.4473 29.2364 11.2987 3.4944 18.8009 -16.0157
# 2 29.2364 62.9912 14.3901 5.1333 -5.8279 -16.3697
# 3 11.2987 14.3901 57.1803 -4.2654 -0.7963 1.0865
# 4 3.4944 5.1333 -4.2654 24.6847 6.3897 -4.3685
# 5 18.8009 -5.8279 -0.7963 6.3897 28.5656 -15.8374
# 6 -16.0157 -16.3697 1.0865 -4.3685 -15.8374 41.8986
#
#
#
# Elastic Compliance Matrix: (Units=1/GPa)
#
#
# Indices 1 2 3 4 5 6 
#
# 1 0.007902 -0.004761 -0.000329 0.001450 -0.007305 -0.001441
# 2 -0.004761 0.025422 -0.006057 -0.007744 0.017738 0.014167
# 3 -0.000329 -0.006057 0.019469 0.004950 -0.003744 -0.003896
# 4 0.001450 -0.007744 0.004950 0.045942 -0.014496 -0.003289
# 5 -0.007305 0.017738 -0.003744 -0.014496 0.060830 0.025717
# 6 -0.001441 0.014167 -0.003896 -0.003289 0.025717 0.038330
#
#
# Mechanical properties :
#
#
# Convention : Reuss Voigt Hill
#
# Bulk Modulus (GPa) = 32.78780 43.16324 37.97552
# Shear Modulus (GPa) = 21.70542 33.94270 27.82406
#
# Velocity S-wave (km/s) = 2.98229 3.72940 3.37657
# Velocity P-wave (km/s) = 5.02931 6.01924 5.54640
#
# Compressibility (1/GPa) = 0.03049915
#
# Stress axis : x y z
#
# Youngs Moduli (GPa) = 126.54426 39.33524 51.36346
#
# Poissons Ratio (x) = 0.18727 0.01692
# Poissons Ratio (y) = 0.60247 0.31111
# Poissons Ratio (z) = 0.04169 0.23825
#
# Static dielectric constant tensor:
#      x y z
#    x 1.950950 -0.033640 -0.034580 
#    y -0.033640 1.927760 -0.015200 
#    z -0.034580 -0.015200 1.973210 
# 
# From -- ./inp_files/312565.got.cif
#   From: 2010.05.17/outbox.cif.g08.bks.cpg/sg2_157_cif.got.tgz:312565.got - 2010.06.03 11:33:40.
