data_PCOD9078657
_publ_section_title
;
Structure prediction by ZEFSAII (Michael W. Deem and Ramdas Pophale) SiO2 
 PCOD9078657
Probable space group: P -1
;
_chemical_formula_sum "Si O2"
_cell_formula_units_Z 16
_cell_length_a 11.752169
_cell_length_b 9.757413
_cell_length_c 11.911620
_cell_angle_alpha 95.859759
_cell_angle_beta 145.348198
_cell_angle_gamma 105.503577
_cell_volume 605.521400
_symmetry_space_group_name_H-M "P -1"
_symmetry_group_IT_number 2
_symmetry_cell_setting 'triclinic'
loop_
_space_group_symop_operation_xyz
x,y,z
-x,-y,-z
loop_
_atom_site_type_symbol
_atom_site_label
_atom_site_fract_x
_atom_site_fract_y
_atom_site_fract_z
Si Si1 0.208942 0.914709 0.592584
Si Si2 0.752940 0.838257 0.078280
Si Si3 0.860194 0.717612 0.499959
Si Si4 0.213221 0.759748 0.360588
Si Si5 0.738074 0.434047 0.223498
Si Si6 0.774931 0.147246 0.018730
Si Si7 0.774004 0.008202 0.787274
Si Si8 0.319606 0.507528 0.072302
O O1 0.205573 0.782484 0.491896
O O2 0.999608 0.922649 0.364433
O O3 0.106994 0.858448 0.632136
O O4 0.501905 0.082030 0.833565
O O5 0.700450 0.670009 0.959173
O O6 0.795361 0.992225 0.053643
O O7 0.499251 0.752514 0.938315
O O8 0.710897 0.573490 0.268576
O O9 0.993225 0.693747 0.708122
O O10 0.607952 0.677502 0.351090
O O11 0.214061 0.913278 0.317103
O O12 0.952123 0.573323 0.096215
O O13 0.492409 0.822123 0.561519
O O14 0.726835 0.450492 0.085025
O O15 0.000000 0.500000 0.500000
O O16 0.790070 0.145481 0.897889
O O17 0.000000 0.000000 0.000000
#
# Coordination Sequence:
#
# PCOD9078657 Si02
#       8
#     2   2   2   2   2   2   2   2
#     4  10  18  36  54  83 121 148 188 227 286 345
#     4  10  19  34  55  80 114 157 187 228 273 340
#     4  11  20  38  54  88 129 151 180 238 294 357
#     4   9  19  34  62  80 105 151 194 244 277 323
#     4  11  20  34  58  82 120 158 195 222 276 356
#     4  11  24  35  59  89 121 153 192 239 296 339
#     4  10  20  38  59  84 108 147 206 244 278 334
#     4  10  19  39  57  84 119 153 193 233 282 352
#
# _framework density 26.423511999999999
#
# number of rings (size 3 to 8) (size 9 to 14) (size 15 to 20)
#    0.000    1.750    3.750    3.375    1.750    0.500 
#    2.250    0.625    0.000    0.750    0.000    0.000 
#    0.000    0.000    0.000    0.000    0.000    0.000 
#
# Total GULP energy -89237.812823 kJ/mol
# GULP energy per Si atom -5577.363301 kJ/mol
# Density = 2.636337 g / cm^3
# Si number density = 26.423512 Si / 1000 Ang^3
#
#
#
# Elastic Constant Matrix: (Units=GPa)
#
#
# Indices 1 2 3 4 5 6 
#
# 1 95.5289 7.1555 41.7855 10.5896 22.1246 16.8592
# 2 7.1555 61.8720 5.1035 -11.1178 7.5388 -9.4454
# 3 41.7855 5.1035 215.4457 -9.5872 57.1294 9.9050
# 4 10.5896 -11.1178 -9.5872 41.6800 -0.0339 3.5962
# 5 22.1246 7.5388 57.1294 -0.0339 59.4062 1.2905
# 6 16.8592 -9.4454 9.9050 3.5962 1.2905 26.8287
#
#
#
# Elastic Compliance Matrix: (Units=1/GPa)
#
#
# Indices 1 2 3 4 5 6 
#
# 1 0.014120 -0.003178 -0.001619 -0.004059 -0.003112 -0.008701
# 2 -0.003178 0.018860 0.000551 0.005289 -0.001907 0.007816
# 3 -0.001619 0.000551 0.006643 0.002190 -0.005827 -0.001254
# 4 -0.004059 0.005289 0.002190 0.026932 -0.001251 0.000055
# 5 -0.003112 -0.001907 -0.005827 -0.001251 0.023783 0.002459
# 6 -0.008701 0.007816 -0.001254 0.000055 0.002459 0.045830
#
#
# Mechanical properties :
#
#
# Convention : Reuss Voigt Hill
#
# Bulk Modulus (GPa) = 32.12088 53.43729 42.77908
# Shear Modulus (GPa) = 32.25006 46.83643 39.54325
#
# Velocity S-wave (km/s) = 3.49736 4.21471 3.87268
# Velocity P-wave (km/s) = 5.33773 6.62965 6.01846
#
# Compressibility (1/GPa) = 0.03113240
#
# Stress axis : x y z
#
# Youngs Moduli (GPa) = 70.81920 53.02096 150.54419
#
# Poissons Ratio (x) = 0.16850 0.24369
# Poissons Ratio (y) = 0.22506 -0.08298
# Poissons Ratio (z) = 0.11464 -0.02923
#
# Static dielectric constant tensor:
#      x y z
#    x 2.220050 -0.133580 0.015650 
#    y -0.133580 2.236500 0.092920 
#    z 0.015650 0.092920 2.152860 
# 
# From -- ./inp_files/531846.got.cif
#   From: 2010.05.17/outbox.cif.g08.bks.cpg/sg2_266_cif.got.tgz:531846.got - 2010.06.03 11:33:40.
