data_PCOD9078978
_publ_section_title
;
Structure prediction by ZEFSAII (Michael W. Deem and Ramdas Pophale) SiO2 
 PCOD9078978
Probable space group: P -1
;
_chemical_formula_sum "Si O2"
_cell_formula_units_Z 15
_cell_length_a 18.860572
_cell_length_b 14.248799
_cell_length_c 9.902211
_cell_angle_alpha 145.511306
_cell_angle_beta 144.993597
_cell_angle_gamma 21.168152
_cell_volume 527.298277
_symmetry_space_group_name_H-M "P -1"
_symmetry_group_IT_number 2
_symmetry_cell_setting 'triclinic'
loop_
_space_group_symop_operation_xyz
x,y,z
-x,-y,-z
loop_
_atom_site_type_symbol
_atom_site_label
_atom_site_fract_x
_atom_site_fract_y
_atom_site_fract_z
Si Si1 0.500000 0.500000 0.000000
Si Si2 0.106502 0.819793 0.615170
Si Si3 0.099121 0.168967 0.322357
Si Si4 0.227680 0.721390 0.145403
Si Si5 0.515712 0.115255 0.485483
Si Si6 0.265223 0.443533 0.219218
Si Si7 0.467289 0.827397 0.952408
Si Si8 0.933482 0.682169 0.253412
O O1 0.711677 0.264013 0.142655
O O2 0.536408 0.666503 0.249992
O O3 0.153536 0.733905 0.427758
O O4 0.118694 0.606575 0.420134
O O5 0.911675 0.071542 0.702564
O O6 0.088396 0.268834 0.565283
O O7 0.221267 0.863772 0.184118
O O8 0.238708 0.137338 0.414638
O O9 0.884686 0.327395 0.131813
O O10 0.456137 0.432249 0.187741
O O11 0.452685 0.223504 0.356978
O O12 0.458238 0.981594 0.234993
O O13 0.368618 0.315589 0.082342
O O14 0.091498 0.486388 0.005954
O O15 0.255471 0.049803 0.809829
#
# Coordination Sequence:
#
# PCOD9078978 Si02
#       8
#     1   2   2   2   2   2   2   2
#     4  10  20  36  58  88 114 154 194 238 292 344
#     4  10  21  34  58  84 120 154 196 233 293 345
#     4  10  18  37  57  82 114 149 202 230 286 343
#     4  10  23  35  57  90 116 155 193 244 286 350
#     4  10  18  36  61  84 112 157 192 238 284 351
#     4  10  19  35  58  88 115 157 191 243 283 348
#     4  11  21  37  61  88 122 148 197 242 291 335
#     4  10  19  37  60  88 113 155 198 238 287 350
#
# _framework density 28.446895000000001
#
# number of rings (size 3 to 8) (size 9 to 14) (size 15 to 20)
#    0.000    1.867    4.000    1.200    0.000    3.200 
#    0.000    0.000    0.000    0.800    0.000    0.000 
#    0.000    0.000    0.000    0.000    0.000    0.000 
#
# Total GULP energy -83515.334157 kJ/mol
# GULP energy per Si atom -5567.688944 kJ/mol
# Density = 2.838215 g / cm^3
# Si number density = 28.446895 Si / 1000 Ang^3
#
#
#
# Elastic Constant Matrix: (Units=GPa)
#
#
# Indices 1 2 3 4 5 6 
#
# 1 78.3930 15.2098 25.8473 -8.9618 7.6060 -10.5345
# 2 15.2098 69.1279 39.8329 19.3719 0.2789 -0.7502
# 3 25.8473 39.8329 262.9269 -3.4165 2.3333 -20.1673
# 4 -8.9618 19.3719 -3.4165 41.8864 -24.5494 12.4619
# 5 7.6060 0.2789 2.3333 -24.5494 25.7617 -10.0772
# 6 -10.5345 -0.7502 -20.1673 12.4619 -10.0772 31.2213
#
#
#
# Elastic Compliance Matrix: (Units=1/GPa)
#
#
# Indices 1 2 3 4 5 6 
#
# 1 0.014608 -0.004498 -0.000470 0.005634 0.002328 0.003020
# 2 -0.004498 0.025292 -0.003547 -0.027462 -0.024902 -0.000277
# 3 -0.000470 -0.003547 0.004600 0.003609 0.004238 0.002655
# 4 0.005634 -0.027462 0.003609 0.084833 0.077024 -0.005427
# 5 0.002328 -0.024902 0.004238 0.077024 0.115060 0.009319
# 6 0.003020 -0.000277 0.002655 -0.005427 0.009319 0.039931
#
#
# Mechanical properties :
#
#
# Convention : Reuss Voigt Hill
#
# Bulk Modulus (GPa) = 36.40412 63.58087 49.99249
# Shear Modulus (GPa) = 16.10247 41.74441 28.92344
#
# Velocity S-wave (km/s) = 2.38177 3.83489 3.19211
# Velocity P-wave (km/s) = 4.51539 6.48134 5.58554
#
# Compressibility (1/GPa) = 0.02746942
#
# Stress axis : x y z
#
# Youngs Moduli (GPa) = 68.45536 39.53746 217.40061
#
# Poissons Ratio (x) = 0.17786 0.10226
# Poissons Ratio (y) = 0.30794 0.77105
# Poissons Ratio (z) = 0.03220 0.14023
#
# Static dielectric constant tensor:
#      x y z
#    x 9.571630 -6.238560 -4.647170 
#    y -6.238560 7.907430 4.090000 
#    z -4.647170 4.090000 5.049540 
# 
# From -- ./inp_files/456626.got.cif
#   From: 2010.05.17/outbox.cif.g08.bks.cpg/sg2_229_cif.got.tgz:456626.got - 2010.06.03 11:33:40.
