data_PCOD9078210
_publ_section_title
;
Structure prediction by ZEFSAII (Michael W. Deem and Ramdas Pophale) SiO2 
 PCOD9078210
Probable space group: P -1
;
_chemical_formula_sum "Si O2"
_cell_formula_units_Z 16
_cell_length_a 11.462783
_cell_length_b 10.325150
_cell_length_c 12.494172
_cell_angle_alpha 145.024946
_cell_angle_beta 45.844498
_cell_angle_gamma 118.334146
_cell_volume 591.277829
_symmetry_space_group_name_H-M "P -1"
_symmetry_group_IT_number 2
_symmetry_cell_setting 'triclinic'
loop_
_space_group_symop_operation_xyz
x,y,z
-x,-y,-z
loop_
_atom_site_type_symbol
_atom_site_label
_atom_site_fract_x
_atom_site_fract_y
_atom_site_fract_z
Si Si1 0.192276 0.273353 0.932495
Si Si2 0.237850 0.551443 0.806701
Si Si3 0.241425 0.810440 0.529412
Si Si4 0.868622 0.782605 0.683786
Si Si5 0.616678 0.135084 0.953160
Si Si6 0.838801 0.305084 0.272710
Si Si7 0.613136 0.700661 0.968942
Si Si8 0.995049 0.754086 0.280835
O O1 0.337124 0.264481 0.919252
O O2 0.118594 0.538409 0.119994
O O3 0.028722 0.203816 0.043215
O O4 0.259698 0.068276 0.665089
O O5 0.261665 0.659130 0.749196
O O6 0.186287 0.310971 0.650530
O O7 0.382880 0.608584 0.826518
O O8 0.070223 0.693578 0.072019
O O9 0.249009 0.797407 0.645188
O O10 0.360123 0.576652 0.251514
O O11 0.055796 0.789034 0.598241
O O12 0.859575 0.544450 0.472806
O O13 0.755506 0.784635 0.863078
O O14 0.787726 0.972765 0.776951
O O15 0.558021 0.171930 0.893694
O O16 0.500000 0.000000 0.000000
O O17 0.000000 0.000000 0.500000
#
# Coordination Sequence:
#
# PCOD9078210 Si02
#       8
#     2   2   2   2   2   2   2   2
#     4  11  21  34  63  92 119 163 220 270 329 373
#     4  10  23  41  63  96 132 167 222 268 324 386
#     4  11  20  35  62  93 131 166 214 271 325 390
#     4  10  18  35  59  91 129 174 210 260 322 384
#     4  10  23  39  63  94 142 178 204 262 330 406
#     4  10  19  33  61  97 125 165 210 272 331 379
#     4  10  21  38  53  92 133 167 210 256 323 397
#     4  10  24  44  69  96 122 171 231 286 320 360
#
# _framework density 27.060037000000001
#
# number of rings (size 3 to 8) (size 9 to 14) (size 15 to 20)
#    0.000    1.750    2.500    2.625    7.000    3.000 
#    2.250    2.500    0.000    1.500    0.000    0.000 
#    0.000    0.000    0.000    0.000    0.000    0.000 
#
# Total GULP energy -89378.687541 kJ/mol
# GULP energy per Si atom -5586.167971 kJ/mol
# Density = 2.699845 g / cm^3
# Si number density = 27.060037 Si / 1000 Ang^3
#
#
#
# Elastic Constant Matrix: (Units=GPa)
#
#
# Indices 1 2 3 4 5 6 
#
# 1 148.9065 29.9213 27.7598 22.9017 2.1340 -18.8586
# 2 29.9213 71.8677 34.8042 17.1382 7.3736 11.4500
# 3 27.7598 34.8042 113.6319 56.2498 10.5426 5.0755
# 4 22.9017 17.1382 56.2498 52.6475 3.6604 3.3717
# 5 2.1340 7.3736 10.5426 3.6604 43.6391 9.0489
# 6 -18.8586 11.4500 5.0755 3.3717 9.0489 34.8647
#
#
#
# Elastic Compliance Matrix: (Units=1/GPa)
#
#
# Indices 1 2 3 4 5 6 
#
# 1 0.008814 -0.004093 0.000657 -0.003560 -0.000971 0.006613
# 2 -0.004093 0.019051 -0.005371 0.001835 -0.000258 -0.007799
# 3 0.000657 -0.005371 0.020586 -0.020457 -0.002759 0.001817
# 4 -0.003560 0.001835 -0.020457 0.041919 0.002153 -0.004163
# 5 -0.000971 -0.000258 -0.002759 0.002153 0.024883 -0.006705
# 6 0.006613 -0.007799 0.001817 -0.004163 -0.006705 0.036699
#
#
# Mechanical properties :
#
#
# Convention : Reuss Voigt Hill
#
# Bulk Modulus (GPa) = 32.42760 57.70852 45.06806
# Shear Modulus (GPa) = 27.80158 42.35831 35.07995
#
# Velocity S-wave (km/s) = 3.20879 3.96074 3.60443
# Velocity P-wave (km/s) = 5.07327 6.50300 5.83211
#
# Compressibility (1/GPa) = 0.03083793
#
# Stress axis : x y z
#
# Youngs Moduli (GPa) = 113.44973 52.48999 48.57615
#
# Poissons Ratio (x) = 0.21485 -0.03194
# Poissons Ratio (y) = 0.46436 0.26092
# Poissons Ratio (z) = -0.07459 0.28194
#
# Static dielectric constant tensor:
#      x y z
#    x 2.166140 0.007760 -0.019350 
#    y 0.007760 2.284870 0.023450 
#    z -0.019350 0.023450 2.238830 
# 
# From -- ./inp_files/519337.got.cif
#   From: 2010.05.17/outbox.cif.g08.bks.cpg/sg2_260_cif.got.tgz:519337.got - 2010.06.03 11:33:40.
