data_PCOD9078571
_publ_section_title
;
Structure prediction by ZEFSAII (Michael W. Deem and Ramdas Pophale) SiO2 
 PCOD9078571
Probable space group: P -1
;
_chemical_formula_sum "Si O2"
_cell_formula_units_Z 16
_cell_length_a 10.143433
_cell_length_b 25.740327
_cell_length_c 16.557041
_cell_angle_alpha 153.643978
_cell_angle_beta 24.763132
_cell_angle_gamma 137.569617
_cell_volume 734.522548
_symmetry_space_group_name_H-M "P -1"
_symmetry_group_IT_number 2
_symmetry_cell_setting 'triclinic'
loop_
_space_group_symop_operation_xyz
x,y,z
-x,-y,-z
loop_
_atom_site_type_symbol
_atom_site_label
_atom_site_fract_x
_atom_site_fract_y
_atom_site_fract_z
Si Si1 0.237821 0.571280 0.317345
Si Si2 0.270885 0.269025 0.300915
Si Si3 0.298252 0.283719 0.716827
Si Si4 0.378776 0.992400 0.796190
Si Si5 0.189552 0.680323 0.818628
Si Si6 0.358961 0.110238 0.665884
Si Si7 0.618487 0.329530 0.863328
Si Si8 0.776608 0.434064 0.077971
O O1 0.385587 0.673711 0.408552
O O2 0.872218 0.646305 0.582294
O O3 0.500000 0.500000 0.000000
O O4 0.305768 0.461768 0.193339
O O5 0.582198 0.285054 0.194613
O O6 0.952842 0.315665 0.605829
O O7 0.363666 0.122776 0.022751
O O8 0.431431 0.131262 0.425867
O O9 0.126767 0.322120 0.955113
O O10 0.009082 0.356158 0.913906
O O11 0.558599 0.959833 0.563903
O O12 0.000000 0.000000 0.000000
O O13 0.433273 0.547044 0.458967
O O14 0.037075 0.788494 0.984825
O O15 0.545279 0.206089 0.712444
O O16 0.500000 0.000000 0.500000
O O17 0.694297 0.345714 0.936486
O O18 0.000000 0.500000 0.000000
#
# Coordination Sequence:
#
# PCOD9078571 Si02
#       8
#     2   2   2   2   2   2   2   2
#     4  10  18  35  65  92 124 170 216 263 316 389
#     4  11  21  39  69  98 128 174 224 265 320 392
#     4  11  23  40  65  97 134 170 215 276 324 378
#     4  11  21  42  70  95 125 177 230 258 315 401
#     4  11  25  43  65  98 136 168 216 277 332 380
#     4  11  27  47  66  96 138 169 216 280 328 385
#     4  11  23  42  65  96 131 175 223 261 332 394
#     4  12  23  41  66  99 137 169 217 275 326 385
#
# _framework density 21.782857
#
# number of rings (size 3 to 8) (size 9 to 14) (size 15 to 20)
#    0.000    1.000    5.000    3.375    0.000    7.500 
#    0.000    1.250    0.000    0.000    0.000    0.000 
#    0.000    0.000    0.000    0.000    0.000    0.000 
#
# Total GULP energy -89515.658026 kJ/mol
# GULP energy per Si atom -5594.728627 kJ/mol
# Density = 2.173328 g / cm^3
# Si number density = 21.782857 Si / 1000 Ang^3
#
#
#
# Elastic Constant Matrix: (Units=GPa)
#
#
# Indices 1 2 3 4 5 6 
#
# 1 124.3221 33.6247 38.4515 18.0557 -16.7821 -3.9089
# 2 33.6247 88.2060 29.2911 19.5283 -14.4377 -2.4646
# 3 38.4515 29.2911 107.0295 23.4654 -13.5624 -11.3225
# 4 18.0557 19.5283 23.4654 28.0248 -1.9875 -12.9207
# 5 -16.7821 -14.4377 -13.5624 -1.9875 51.7192 14.7020
# 6 -3.9089 -2.4646 -11.3225 -12.9207 14.7020 42.2187
#
#
#
# Elastic Compliance Matrix: (Units=1/GPa)
#
#
# Indices 1 2 3 4 5 6 
#
# 1 0.010082 -0.001864 -0.002075 -0.004154 0.002589 -0.001905
# 2 -0.001864 0.015220 -0.001221 -0.009979 0.004104 -0.004095
# 3 -0.002075 -0.001221 0.012446 -0.008141 0.001966 -0.000102
# 4 -0.004154 -0.009979 -0.008141 0.059962 -0.009195 0.018402
# 5 0.002589 0.004104 0.001966 -0.009195 0.024414 -0.010309
# 6 -0.001905 -0.004095 -0.000102 0.018402 -0.010309 0.032466
#
#
# Mechanical properties :
#
#
# Convention : Reuss Voigt Hill
#
# Bulk Modulus (GPa) = 36.45823 58.03247 47.24535
# Shear Modulus (GPa) = 28.72715 38.93857 33.83286
#
# Velocity S-wave (km/s) = 3.63546 4.23256 3.94533
# Velocity P-wave (km/s) = 5.86477 7.11233 6.51847
#
# Compressibility (1/GPa) = 0.02742865
#
# Stress axis : x y z
#
# Youngs Moduli (GPa) = 99.18241 65.70382 80.34775
#
# Poissons Ratio (x) = 0.12249 0.16670
# Poissons Ratio (y) = 0.18490 0.09809
# Poissons Ratio (z) = 0.20577 0.08021
#
# Static dielectric constant tensor:
#      x y z
#    x 1.789070 -0.001970 -0.014100 
#    y -0.001970 1.824050 -0.015260 
#    z -0.014100 -0.015260 1.821490 
# 
# From -- ./inp_files/508733.got.cif
#   From: 2010.05.17/outbox.cif.g08.bks.cpg/sg2_255_cif.got.tgz:508733.got - 2010.06.03 11:33:40.
