data_PCOD9078123
_publ_section_title
;
Structure prediction by ZEFSAII (Michael W. Deem and Ramdas Pophale) SiO2 
 PCOD9078123
Probable space group: P -1
;
_chemical_formula_sum "Si O2"
_cell_formula_units_Z 16
_cell_length_a 15.811818
_cell_length_b 21.670827
_cell_length_c 8.126848
_cell_angle_alpha 31.896202
_cell_angle_beta 33.202161
_cell_angle_gamma 28.769945
_cell_volume 659.620688
_symmetry_space_group_name_H-M "P -1"
_symmetry_group_IT_number 2
_symmetry_cell_setting 'triclinic'
loop_
_space_group_symop_operation_xyz
x,y,z
-x,-y,-z
loop_
_atom_site_type_symbol
_atom_site_label
_atom_site_fract_x
_atom_site_fract_y
_atom_site_fract_z
Si Si1 0.635348 0.093858 0.167353
Si Si2 0.360037 0.379022 0.087283
Si Si3 0.923836 0.660775 0.563592
Si Si4 0.414968 0.133017 0.125890
Si Si5 0.126939 0.687445 0.688327
Si Si6 0.084953 0.833610 0.769304
Si Si7 0.791718 0.647925 0.279260
Si Si8 0.054187 0.872708 0.074994
O O1 0.568648 0.238618 0.040056
O O2 0.559495 0.129971 0.022862
O O3 0.542492 0.022563 0.574901
O O4 0.850348 0.965322 0.108143
O O5 0.224986 0.345104 0.291371
O O6 0.289785 0.399389 0.339728
O O7 0.307719 0.525650 0.768038
O O8 0.795330 0.751613 0.721457
O O9 0.094264 0.496635 0.689178
O O10 0.991405 0.748040 0.164285
O O11 0.387176 0.203767 0.836748
O O12 0.141914 0.770853 0.629440
O O13 0.103388 0.751196 0.400235
O O14 0.944620 0.678398 0.022712
O O15 0.187206 0.813258 0.830205
O O16 0.000000 0.000000 0.500000
O O17 0.000000 0.000000 0.000000
#
# Coordination Sequence:
#
# PCOD9078123 Si02
#       8
#     2   2   2   2   2   2   2   2
#     4  10  22  39  54  91 131 162 203 254 322 371
#     4  10  21  36  62  90 133 158 195 264 320 372
#     4  10  18  35  58  90 128 158 204 257 310 363
#     4  10  20  33  59  92 130 160 200 257 320 375
#     4  11  21  41  63  96 125 164 213 255 307 368
#     4  12  22  37  64  92 119 160 220 262 289 358
#     4  11  18  34  62  95 125 165 196 254 319 376
#     4  12  25  44  66  87 122 170 216 256 306 370
#
# _framework density 24.256364000000001
#
# number of rings (size 3 to 8) (size 9 to 14) (size 15 to 20)
#    0.000    1.250    6.250    1.125    0.000    2.500 
#    2.250    0.625    0.000    0.750    0.000    0.000 
#    0.000    0.000    0.000    0.000    0.000    0.000 
#
# Total GULP energy -89084.681215 kJ/mol
# GULP energy per Si atom -5567.792576 kJ/mol
# Density = 2.420116 g / cm^3
# Si number density = 24.256364 Si / 1000 Ang^3
#
#
#
# Elastic Constant Matrix: (Units=GPa)
#
#
# Indices 1 2 3 4 5 6 
#
# 1 92.0244 36.6681 35.3629 -10.3071 11.6636 10.7128
# 2 36.6681 94.1979 48.9804 -37.1442 10.5441 8.2600
# 3 35.3629 48.9804 123.2620 -23.7695 28.7650 3.7996
# 4 -10.3071 -37.1442 -23.7695 43.4788 2.2227 -3.8652
# 5 11.6636 10.5441 28.7650 2.2227 45.8956 -4.7293
# 6 10.7128 8.2600 3.7996 -3.8652 -4.7293 39.4402
#
#
#
# Elastic Compliance Matrix: (Units=1/GPa)
#
#
# Indices 1 2 3 4 5 6 
#
# 1 0.013824 -0.004707 -0.002100 -0.002086 -0.001316 -0.002929
# 2 -0.004707 0.020208 -0.003371 0.014284 -0.002179 -0.001490
# 3 -0.002100 -0.003371 0.012318 0.003665 -0.006625 -0.000346
# 4 -0.002086 0.014284 0.003665 0.037065 -0.006840 0.000034
# 5 -0.001316 -0.002179 -0.006625 -0.006840 0.027528 0.004083
# 6 -0.002929 -0.001490 -0.000346 0.000034 0.004083 0.026989
#
#
# Mechanical properties :
#
#
# Convention : Reuss Voigt Hill
#
# Bulk Modulus (GPa) = 38.47047 61.27857 49.87452
# Shear Modulus (GPa) = 29.94871 38.32779 34.13825
#
# Velocity S-wave (km/s) = 3.51761 3.97938 3.75559
# Velocity P-wave (km/s) = 5.69144 6.81408 6.27790
#
# Compressibility (1/GPa) = 0.02599396
#
# Stress axis : x y z
#
# Youngs Moduli (GPa) = 72.34036 49.48493 81.18081
#
# Poissons Ratio (x) = 0.23294 0.17049
# Poissons Ratio (y) = 0.34053 0.27362
# Poissons Ratio (z) = 0.15192 0.16679
#
# Static dielectric constant tensor:
#      x y z
#    x 1.072770 -1.398790 -0.418540 
#    y -1.398790 -0.209860 -0.555720 
#    z -0.418540 -0.555720 1.836110 
# 
# From -- ./inp_files/338574.got.cif
#   From: 2010.05.17/outbox.cif.g08.bks.cpg/sg2_170_cif.got.tgz:338574.got - 2010.06.03 11:33:40.
