data_PCOD9078785
_publ_section_title
;
Structure prediction by ZEFSAII (Michael W. Deem and Ramdas Pophale) SiO2 
 PCOD9078785
Probable space group: P -1
;
_chemical_formula_sum "Si O2"
_cell_formula_units_Z 14
_cell_length_a 9.022313
_cell_length_b 14.088075
_cell_length_c 11.867220
_cell_angle_alpha 123.379235
_cell_angle_beta 66.922571
_cell_angle_gamma 147.251307
_cell_volume 672.972475
_symmetry_space_group_name_H-M "P -1"
_symmetry_group_IT_number 2
_symmetry_cell_setting 'triclinic'
loop_
_space_group_symop_operation_xyz
x,y,z
-x,-y,-z
loop_
_atom_site_type_symbol
_atom_site_label
_atom_site_fract_x
_atom_site_fract_y
_atom_site_fract_z
Si Si1 0.546999 0.129047 0.913000
Si Si2 0.532234 0.407273 0.350483
Si Si3 0.131598 0.476660 0.370809
Si Si4 0.351385 0.769317 0.800004
Si Si5 0.037803 0.869608 0.740079
Si Si6 0.423759 0.123022 0.575388
Si Si7 0.152838 0.763146 0.318741
O O1 0.769819 0.259149 0.831729
O O2 0.514703 0.976077 0.851185
O O3 0.259300 0.009484 0.866173
O O4 0.622955 0.230405 0.073508
O O5 0.500000 0.500000 0.500000
O O6 0.552960 0.293920 0.326229
O O7 0.828753 0.589622 0.321437
O O8 0.261263 0.243988 0.245416
O O9 0.450261 0.687975 0.386118
O O10 0.000000 0.500000 0.500000
O O11 0.960644 0.381817 0.243139
O O12 0.048724 0.312758 0.349106
O O13 0.197877 0.995856 0.659926
O O14 0.689321 0.211193 0.609508
O O15 0.298712 0.970536 0.416805
#
# Coordination Sequence:
#
# PCOD9078785 Si02
#       7
#     2   2   2   2   2   2   2
#     4   9  21  41  63  83 109 163 208 241 277 358
#     4  12  22  37  56  90 127 150 183 255 309 346
#     4  11  19  35  62  86 110 158 199 245 290 342
#     4  10  21  39  63  85 117 152 206 243 290 350
#     4  10  22  37  57  86 124 150 195 244 302 353
#     4  10  18  36  58  86 113 156 201 245 281 350
#     4  10  19  35  59  85 117 149 203 244 287 350
#
# _framework density 20.803229000000002
#
# number of rings (size 3 to 8) (size 9 to 14) (size 15 to 20)
#    0.000    1.714    2.857    4.286    0.000    1.143 
#    2.571    1.429    0.000    2.571    0.000    0.000 
#    0.000    0.000    0.000    0.000    0.000    0.000 
#
# Total GULP energy -78096.327075 kJ/mol
# GULP energy per Si atom -5578.309077 kJ/mol
# Density = 2.075588 g / cm^3
# Si number density = 20.803229 Si / 1000 Ang^3
#
#
#
# Elastic Constant Matrix: (Units=GPa)
#
#
# Indices 1 2 3 4 5 6 
#
# 1 59.0075 34.3838 22.5202 -6.8909 5.4678 20.2859
# 2 34.3838 140.2734 33.8197 -0.3536 7.0833 13.6414
# 3 22.5202 33.8197 80.9858 -8.2613 16.6700 1.1806
# 4 -6.8909 -0.3536 -8.2613 16.2690 -11.0519 -8.1266
# 5 5.4678 7.0833 16.6700 -11.0519 33.2032 8.2260
# 6 20.2859 13.6414 1.1806 -8.1266 8.2260 37.9759
#
#
#
# Elastic Compliance Matrix: (Units=1/GPa)
#
#
# Indices 1 2 3 4 5 6 
#
# 1 0.025718 -0.003958 -0.005669 0.004627 0.003971 -0.012010
# 2 -0.003958 0.009008 -0.002914 -0.004425 -0.000834 -0.001797
# 3 -0.005669 -0.002914 0.016937 0.004397 -0.006971 0.006000
# 4 0.004627 -0.004425 0.004397 0.088349 0.024252 0.012634
# 5 0.003971 -0.000834 -0.006971 0.024252 0.042613 -0.005645
# 6 -0.012010 -0.001797 0.006000 0.012634 -0.005645 0.037134
#
#
# Mechanical properties :
#
#
# Convention : Reuss Voigt Hill
#
# Bulk Modulus (GPa) = 37.62215 51.30156 44.46186
# Shear Modulus (GPa) = 19.70822 30.12581 24.91702
#
# Velocity S-wave (km/s) = 3.08127 3.80956 3.46460
# Velocity P-wave (km/s) = 5.54824 6.63809 6.11748
#
# Compressibility (1/GPa) = 0.02658008
#
# Stress axis : x y z
#
# Youngs Moduli (GPa) = 38.88289 111.01850 59.04128
#
# Poissons Ratio (x) = 0.43943 0.33471
# Poissons Ratio (y) = 0.15390 0.17207
# Poissons Ratio (z) = 0.22043 0.32355
#
# Static dielectric constant tensor:
#      x y z
#    x 1.811830 -0.030220 0.025080 
#    y -0.030220 1.772390 0.028030 
#    z 0.025080 0.028030 1.770380 
# 
# From -- ./inp_files/159267.got.cif
#   From: 2010.05.17/outbox.cif.g08.bks.cpg/sg2_80_cif.got.tgz:159267.got - 2010.06.03 11:33:40.
