data_PCOD9078992
_publ_section_title
;
Structure prediction by ZEFSAII (Michael W. Deem and Ramdas Pophale) SiO2 
 PCOD9078992
Probable space group: P -1
;
_chemical_formula_sum "Si O2"
_cell_formula_units_Z 16
_cell_length_a 7.931174
_cell_length_b 18.447964
_cell_length_c 6.813337
_cell_angle_alpha 41.809794
_cell_angle_beta 97.675487
_cell_angle_gamma 94.109977
_cell_volume 658.043251
_symmetry_space_group_name_H-M "P -1"
_symmetry_group_IT_number 2
_symmetry_cell_setting 'triclinic'
loop_
_space_group_symop_operation_xyz
x,y,z
-x,-y,-z
loop_
_atom_site_type_symbol
_atom_site_label
_atom_site_fract_x
_atom_site_fract_y
_atom_site_fract_z
Si Si1 0.602103 0.100966 0.396045
Si Si2 0.217771 0.826760 0.379154
Si Si3 0.861364 0.057323 0.221736
Si Si4 0.734902 0.827153 0.634129
Si Si5 0.718731 0.535797 0.166504
Si Si6 0.052179 0.328691 0.294089
Si Si7 0.476801 0.668115 0.549687
Si Si8 0.222930 0.325446 0.724147
O O1 0.726756 0.084743 0.634113
O O2 0.731606 0.130938 0.185491
O O3 0.457401 0.183070 0.295475
O O4 0.500000 0.000000 0.500000
O O5 0.382679 0.776781 0.394557
O O6 0.127185 0.724068 0.667215
O O7 0.090615 0.879505 0.092143
O O8 0.759573 0.952798 0.345860
O O9 0.000000 0.000000 0.500000
O O10 0.811194 0.761516 0.594547
O O11 0.830552 0.775258 0.944559
O O12 0.662107 0.413507 0.389107
O O13 0.737570 0.581788 0.296649
O O14 0.894549 0.564670 0.028620
O O15 0.575410 0.603726 0.874895
O O16 0.082616 0.345717 0.494151
O O17 0.608950 0.691252 0.350582
#
# Coordination Sequence:
#
# PCOD9078992 Si02
#       8
#     2   2   2   2   2   2   2   2
#     4  10  23  40  61  88 116 156 208 259 302 353
#     4  12  24  39  60  90 125 163 205 251 304 365
#     4  11  24  40  59  86 121 162 204 250 305 361
#     4  10  21  38  59  84 117 155 201 253 297 352
#     4   9  20  40  63  89 120 156 200 250 305 361
#     4  10  22  36  58  88 122 162 200 245 304 363
#     4  10  21  38  64  92 118 155 202 252 305 361
#     4  10  18  36  61  86 116 156 201 247 301 358
#
# _framework density 24.314511
#
# number of rings (size 3 to 8) (size 9 to 14) (size 15 to 20)
#    0.000    1.750    0.000    4.875    0.000    7.500 
#    0.000    0.625    0.000    0.000    0.000    0.000 
#    0.000    0.000    0.000    0.000    0.000    0.000 
#
# Total GULP energy -89277.044652 kJ/mol
# GULP energy per Si atom -5579.815291 kJ/mol
# Density = 2.425917 g / cm^3
# Si number density = 24.314511 Si / 1000 Ang^3
#
#
#
# Elastic Constant Matrix: (Units=GPa)
#
#
# Indices 1 2 3 4 5 6 
#
# 1 65.9539 22.2728 14.9182 14.3871 -4.1276 1.3124
# 2 22.2728 134.0725 48.6548 35.0477 -0.2435 6.8363
# 3 14.9182 48.6548 78.5334 23.0546 -6.3006 -1.1747
# 4 14.3871 35.0477 23.0546 39.4440 4.6900 0.4566
# 5 -4.1276 -0.2435 -6.3006 4.6900 27.0874 -5.9182
# 6 1.3124 6.8363 -1.1747 0.4566 -5.9182 35.7316
#
#
#
# Elastic Compliance Matrix: (Units=1/GPa)
#
#
# Indices 1 2 3 4 5 6 
#
# 1 0.017062 -0.001253 -0.000693 -0.005107 0.003358 0.000212
# 2 -0.001253 0.011288 -0.004894 -0.006617 -0.000581 -0.002286
# 3 -0.000693 -0.004894 0.018439 -0.006910 0.005911 0.002635
# 4 -0.005107 -0.006617 -0.006910 0.038241 -0.009239 -0.000793
# 5 0.003358 -0.000581 0.005911 -0.009239 0.041984 0.007254
# 6 0.000212 -0.002286 0.002635 -0.000793 0.007254 0.029714
#
#
# Mechanical properties :
#
#
# Convention : Reuss Voigt Hill
#
# Bulk Modulus (GPa) = 30.20265 50.02793 40.11529
# Shear Modulus (GPa) = 27.55677 33.30021 30.42849
#
# Velocity S-wave (km/s) = 3.37017 3.70477 3.54143
# Velocity P-wave (km/s) = 5.25288 6.23863 5.76685
#
# Compressibility (1/GPa) = 0.03310968
#
# Stress axis : x y z
#
# Youngs Moduli (GPa) = 58.61032 88.59022 54.23246
#
# Poissons Ratio (x) = 0.11096 0.03760
# Poissons Ratio (y) = 0.07341 0.26540
# Poissons Ratio (z) = 0.04064 0.43354
#
# Static dielectric constant tensor:
#      x y z
#    x 2.013460 0.056040 0.041540 
#    y 0.056040 1.964350 0.003220 
#    z 0.041540 0.003220 1.945020 
# 
# From -- ./inp_files/46351.got.cif
#   From: 2010.05.17/outbox.cif.g08.bks.cpg/sg2_24_cif.got.tgz:46351.got - 2010.06.03 11:33:40.
