data_PCOD9078847
_publ_section_title
;
Structure prediction by ZEFSAII (Michael W. Deem and Ramdas Pophale) SiO2 
 PCOD9078847
Probable space group: P -1
;
_chemical_formula_sum "Si O2"
_cell_formula_units_Z 14
_cell_length_a 11.614012
_cell_length_b 14.875927
_cell_length_c 10.318213
_cell_angle_alpha 135.995093
_cell_angle_beta 41.267778
_cell_angle_gamma 104.429994
_cell_volume 630.347239
_symmetry_space_group_name_H-M "P -1"
_symmetry_group_IT_number 2
_symmetry_cell_setting 'triclinic'
loop_
_space_group_symop_operation_xyz
x,y,z
-x,-y,-z
loop_
_atom_site_type_symbol
_atom_site_label
_atom_site_fract_x
_atom_site_fract_y
_atom_site_fract_z
Si Si1 0.577927 0.454752 0.601167
Si Si2 0.225443 0.950985 0.367804
Si Si3 0.892790 0.408264 0.482277
Si Si4 0.777944 0.287198 0.995726
Si Si5 0.353329 0.837882 0.612762
Si Si6 0.683219 0.882749 0.332512
Si Si7 0.902486 0.175671 0.419421
O O1 0.662924 0.514694 0.700988
O O2 0.709238 0.400258 0.297587
O O3 0.317454 0.589141 0.917983
O O4 0.639789 0.287334 0.430613
O O5 0.128893 0.889276 0.487428
O O6 0.341851 0.001599 0.412314
O O7 0.344669 0.796829 0.006020
O O8 0.034202 0.122505 0.631927
O O9 0.858026 0.343736 0.578331
O O10 0.000000 0.500000 0.500000
O O11 0.070657 0.242180 0.070372
O O12 0.601324 0.780918 0.340787
O O13 0.254780 0.833089 0.555222
O O14 0.168122 0.028019 0.013256
O O15 0.500000 0.000000 0.500000
#
# Coordination Sequence:
#
# PCOD9078847 Si02
#       7
#     2   2   2   2   2   2   2
#     4  10  21  42  61  84 119 161 193 234 295 343
#     4  11  21  39  64  89 112 157 204 232 284 352
#     4  11  24  38  61  92 119 147 190 252 303 338
#     4  10  22  38  65  80 118 163 201 229 274 361
#     4  10  19  34  62  87 116 150 193 241 298 339
#     4  12  21  36  60  92 120 145 190 252 296 336
#     4  10  18  36  59  87 116 151 192 242 289 353
#
# _framework density 22.209980000000002
#
# number of rings (size 3 to 8) (size 9 to 14) (size 15 to 20)
#    0.000    1.429    5.714    0.857    2.000    1.143 
#    0.000    4.286   12.571    0.000    0.000    0.000 
#    0.000    0.000    0.000    0.000    0.000    0.000 
#
# Total GULP energy -77991.732857 kJ/mol
# GULP energy per Si atom -5570.838061 kJ/mol
# Density = 2.215943 g / cm^3
# Si number density = 22.209980 Si / 1000 Ang^3
#
#
#
# Elastic Constant Matrix: (Units=GPa)
#
#
# Indices 1 2 3 4 5 6 
#
# 1 132.5340 48.9197 17.1036 20.3372 -19.9527 -12.1650
# 2 48.9197 97.7996 5.8802 6.3286 -15.6635 0.5032
# 3 17.1036 5.8802 53.1596 11.8267 -3.3352 -10.8883
# 4 20.3372 6.3286 11.8267 32.9950 -2.8697 -7.2565
# 5 -19.9527 -15.6635 -3.3352 -2.8697 26.8215 15.9202
# 6 -12.1650 0.5032 -10.8883 -7.2565 15.9202 34.6437
#
#
#
# Elastic Compliance Matrix: (Units=1/GPa)
#
#
# Indices 1 2 3 4 5 6 
#
# 1 0.010778 -0.004224 -0.001600 -0.004813 0.004745 0.000154
# 2 -0.004224 0.013740 -0.000754 -0.000313 0.008158 -0.005734
# 3 -0.001600 -0.000754 0.021798 -0.005500 -0.003526 0.006768
# 4 -0.004813 -0.000313 -0.005500 0.036285 -0.004193 0.006113
# 5 0.004745 0.008158 -0.003526 -0.004193 0.061811 -0.028843
# 6 0.000154 -0.005734 0.006768 0.006113 -0.028843 0.045665
#
#
# Mechanical properties :
#
#
# Convention : Reuss Voigt Hill
#
# Bulk Modulus (GPa) = 30.15763 47.47780 38.81771
# Shear Modulus (GPa) = 23.33312 32.99801 28.16557
#
# Velocity S-wave (km/s) = 3.24476 3.85870 3.56497
# Velocity P-wave (km/s) = 5.25794 6.42463 5.87034
#
# Compressibility (1/GPa) = 0.03315910
#
# Stress axis : x y z
#
# Youngs Moduli (GPa) = 92.78063 72.78213 45.87502
#
# Poissons Ratio (x) = 0.30746 0.07342
# Poissons Ratio (y) = 0.39194 0.03458
# Poissons Ratio (z) = 0.14849 0.05486
#
# Static dielectric constant tensor:
#      x y z
#    x 1.909110 -0.032080 0.094270 
#    y -0.032080 1.873860 -0.033200 
#    z 0.094270 -0.033200 1.941650 
# 
# From -- ./inp_files/181916.got.cif
#   From: 2010.05.17/outbox.cif.g08.bks.cpg/sg2_91_cif.got.tgz:181916.got - 2010.06.03 11:33:40.
