data_PCOD9078869
_publ_section_title
;
Structure prediction by ZEFSAII (Michael W. Deem and Ramdas Pophale) SiO2 
 PCOD9078869
Probable space group: P -1
;
_chemical_formula_sum "Si O2"
_cell_formula_units_Z 16
_cell_length_a 14.200230
_cell_length_b 9.363747
_cell_length_c 8.573008
_cell_angle_alpha 67.815822
_cell_angle_beta 95.785186
_cell_angle_gamma 52.405367
_cell_volume 746.322363
_symmetry_space_group_name_H-M "P -1"
_symmetry_group_IT_number 2
_symmetry_cell_setting 'triclinic'
loop_
_space_group_symop_operation_xyz
x,y,z
-x,-y,-z
loop_
_atom_site_type_symbol
_atom_site_label
_atom_site_fract_x
_atom_site_fract_y
_atom_site_fract_z
Si Si1 0.076625 0.531642 0.392884
Si Si2 0.509012 0.221972 0.978066
Si Si3 0.659578 0.767229 0.274813
Si Si4 0.111791 0.993081 0.975090
Si Si5 0.293753 0.549310 0.033713
Si Si6 0.854749 0.596182 0.894687
Si Si7 0.683709 0.074406 0.768395
Si Si8 0.517202 0.802261 0.528421
O O1 0.192164 0.447489 0.566645
O O2 0.148886 0.394459 0.300128
O O3 0.000000 0.500000 0.500000
O O4 0.967690 0.776415 0.211832
O O5 0.398032 0.224658 0.900828
O O6 0.589280 0.196837 0.855053
O O7 0.410474 0.440175 0.971440
O O8 0.618229 0.995093 0.185223
O O9 0.577004 0.765741 0.385397
O O10 0.211561 0.796026 0.953991
O O11 0.195214 0.951245 0.158020
O O12 0.000000 0.000000 0.000000
O O13 0.186958 0.529214 0.007653
O O14 0.378893 0.398897 0.260178
O O15 0.749729 0.829293 0.864558
O O16 0.000000 0.500000 0.000000
O O17 0.605988 0.168082 0.551611
O O18 0.500000 0.000000 0.500000
#
# Coordination Sequence:
#
# PCOD9078869 Si02
#       8
#     2   2   2   2   2   2   2   2
#     4  12  25  41  69 100 134 181 236 284 330 403
#     4  10  22  36  66  98 131 173 217 289 340 397
#     4  10  18  36  59  93 132 162 222 282 334 380
#     4  12  25  48  68  97 144 189 220 279 352 415
#     4  12  23  41  70  96 142 178 225 277 360 398
#     4  12  22  40  69 101 129 184 235 277 331 415
#     4  11  23  41  67 100 135 173 238 274 342 413
#     4  11  18  36  65 100 128 170 225 287 326 401
#
# _framework density 21.438458000000001
#
# number of rings (size 3 to 8) (size 9 to 14) (size 15 to 20)
#    0.000    0.750    6.250    2.250    1.750    1.000 
#    0.000    0.625    5.500    0.000    0.000    0.000 
#    0.000    0.000    0.000    0.000    0.000    0.000 
#
# Total GULP energy -89133.543334 kJ/mol
# GULP energy per Si atom -5570.846458 kJ/mol
# Density = 2.138966 g / cm^3
# Si number density = 21.438458 Si / 1000 Ang^3
#
#
#
# Elastic Constant Matrix: (Units=GPa)
#
#
# Indices 1 2 3 4 5 6 
#
# 1 97.2538 20.7521 34.6180 11.3111 21.1750 6.4103
# 2 20.7521 116.9906 12.7587 -2.7306 -2.5615 -12.9536
# 3 34.6180 12.7587 76.7111 -4.4090 25.5358 -2.4131
# 4 11.3111 -2.7306 -4.4090 14.6888 -5.3407 0.4653
# 5 21.1750 -2.5615 25.5358 -5.3407 38.1876 9.5498
# 6 6.4103 -12.9536 -2.4131 0.4653 9.5498 26.3314
#
#
#
# Elastic Compliance Matrix: (Units=1/GPa)
#
#
# Indices 1 2 3 4 5 6 
#
# 1 0.016992 -0.003333 -0.005755 -0.018058 -0.007507 -0.003262
# 2 -0.003333 0.009879 -0.000493 0.004967 0.002365 0.004681
# 3 -0.005755 -0.000493 0.019965 0.006092 -0.011064 0.006893
# 4 -0.018058 0.004967 0.006092 0.091844 0.019436 -0.001274
# 5 -0.007507 0.002365 -0.011064 0.019436 0.044227 -0.014407
# 6 -0.003262 0.004681 0.006893 -0.001274 -0.014407 0.046954
#
#
# Mechanical properties :
#
#
# Convention : Reuss Voigt Hill
#
# Bulk Modulus (GPa) = 36.13780 47.46813 41.80296
# Shear Modulus (GPa) = 19.36117 30.69665 25.02891
#
# Velocity S-wave (km/s) = 3.00843 3.78808 3.42054
# Velocity P-wave (km/s) = 5.38151 6.42825 5.92803
#
# Compressibility (1/GPa) = 0.02767186
#
# Stress axis : x y z
#
# Youngs Moduli (GPa) = 58.85116 101.22720 50.08695
#
# Poissons Ratio (x) = 0.33744 0.28827
# Poissons Ratio (y) = 0.19618 0.02471
# Poissons Ratio (z) = 0.33871 0.04994
#
# Static dielectric constant tensor:
#      x y z
#    x 1.740830 0.025760 0.008240 
#    y 0.025760 1.846290 0.014640 
#    z 0.008240 0.014640 1.750440 
# 
# From -- ./inp_files/279822.got.cif
#   From: 2010.05.17/outbox.cif.g08.bks.cpg/sg2_140_cif.got.tgz:279822.got - 2010.06.03 11:33:40.
