data_PCOD9078604
_publ_section_title
;
Structure prediction by ZEFSAII (Michael W. Deem and Ramdas Pophale) SiO2 
 PCOD9078604
Probable space group: P -1
;
_chemical_formula_sum "Si O2"
_cell_formula_units_Z 12
_cell_length_a 11.400954
_cell_length_b 7.635281
_cell_length_c 6.925023
_cell_angle_alpha 56.858761
_cell_angle_beta 86.934423
_cell_angle_gamma 106.973133
_cell_volume 465.369277
_symmetry_space_group_name_H-M "P -1"
_symmetry_group_IT_number 2
_symmetry_cell_setting 'triclinic'
loop_
_space_group_symop_operation_xyz
x,y,z
-x,-y,-z
loop_
_atom_site_type_symbol
_atom_site_label
_atom_site_fract_x
_atom_site_fract_y
_atom_site_fract_z
Si Si1 0.940205 0.242039 0.238589
Si Si2 0.754856 0.786573 0.343007
Si Si3 0.484361 0.142101 0.660870
Si Si4 0.231763 0.589600 0.652484
Si Si5 0.440651 0.229012 0.170132
Si Si6 0.220097 0.321205 0.170024
O O1 0.862014 0.278145 0.408070
O O2 0.069114 0.197485 0.270728
O O3 0.841704 0.045966 0.232763
O O4 0.000000 0.500000 0.000000
O O5 0.617315 0.772318 0.284750
O O6 0.822970 0.664421 0.273951
O O7 0.736501 0.648836 0.629843
O O8 0.634535 0.292544 0.539553
O O9 0.437512 0.139083 0.443757
O O10 0.483626 0.899231 0.870040
O O11 0.256661 0.545608 0.901274
O O12 0.295616 0.178154 0.158367
O O13 0.500000 0.500000 0.000000
#
# Coordination Sequence:
#
# PCOD9078604 Si02
#       6
#     2   2   2   2   2   2
#     4  10  23  41  64  93 130 172 218 267 321 386
#     4  11  24  41  67  95 129 174 216 267 327 386
#     4  10  21  37  63  98 131 165 218 271 319 388
#     4  11  22  43  66  94 134 168 213 275 322 381
#     4  10  18  35  67  90 126 174 208 261 331 374
#     4  10  22  39  65  94 127 169 216 262 323 387
#
# _framework density 25.785972999999998
#
# number of rings (size 3 to 8) (size 9 to 14) (size 15 to 20)
#    0.000    1.667    1.667    4.000    2.333    3.333 
#    0.000    7.500    0.000    0.000    0.000    0.000 
#    0.000    0.000    0.000    0.000    0.000    0.000 
#
# Total GULP energy -66955.459834 kJ/mol
# GULP energy per Si atom -5579.621653 kJ/mol
# Density = 2.572728 g / cm^3
# Si number density = 25.785973 Si / 1000 Ang^3
#
#
#
# Elastic Constant Matrix: (Units=GPa)
#
#
# Indices 1 2 3 4 5 6 
#
# 1 183.9891 59.2044 27.6963 -9.0005 -26.5252 -35.5456
# 2 59.2044 140.1560 29.9429 -16.0177 -19.4420 -30.4929
# 3 27.6963 29.9429 106.4374 -23.8965 -5.4885 -1.5936
# 4 -9.0005 -16.0177 -23.8965 44.1346 2.7231 -2.3544
# 5 -26.5252 -19.4420 -5.4885 2.7231 35.8438 -4.3983
# 6 -35.5456 -30.4929 -1.5936 -2.3544 -4.3983 35.0006
#
#
#
# Elastic Compliance Matrix: (Units=1/GPa)
#
#
# Indices 1 2 3 4 5 6 
#
# 1 0.008628 -0.000150 -0.001472 0.000974 0.007174 0.009532
# 2 -0.000150 0.011199 -0.001898 0.003155 0.006731 0.010576
# 3 -0.001472 -0.001898 0.011366 0.005102 -0.001063 -0.002421
# 4 0.000974 0.003155 0.005102 0.026968 0.001904 0.006024
# 5 0.007174 0.006731 -0.001063 0.001904 0.038773 0.018102
# 6 0.009532 0.010576 -0.002421 0.006024 0.018102 0.050035
#
#
# Mechanical properties :
#
#
# Convention : Reuss Voigt Hill
#
# Bulk Modulus (GPa) = 41.39922 73.80776 57.60349
# Shear Modulus (GPa) = 30.85286 43.91170 37.38228
#
# Velocity S-wave (km/s) = 3.46280 4.13113 3.81164
# Velocity P-wave (km/s) = 5.66372 7.17220 6.46212
#
# Compressibility (1/GPa) = 0.02415505
#
# Stress axis : x y z
#
# Youngs Moduli (GPa) = 115.89667 89.29450 87.97870
#
# Poissons Ratio (x) = 0.01340 0.12947
# Poissons Ratio (y) = 0.01739 0.16695
# Poissons Ratio (z) = 0.17056 0.16945
#
# Static dielectric constant tensor:
#      x y z
#    x 2.134500 -0.046790 -0.029450 
#    y -0.046790 2.094310 0.026360 
#    z -0.029450 0.026360 2.115170 
# 
# From -- ./inp_files/233222.got.cif
#   From: 2010.05.17/outbox.cif.g08.bks.cpg/sg2_117_cif.got.tgz:233222.got - 2010.06.03 11:33:40.
