data_PCOD9078769
_publ_section_title
;
Structure prediction by ZEFSAII (Michael W. Deem and Ramdas Pophale) SiO2 
 PCOD9078769
Probable space group: P -1
;
_chemical_formula_sum "Si O2"
_cell_formula_units_Z 15
_cell_length_a 16.798320
_cell_length_b 19.237594
_cell_length_c 21.108440
_cell_angle_alpha 17.938998
_cell_angle_beta 161.772765
_cell_angle_gamma 158.092870
_cell_volume 636.200799
_symmetry_space_group_name_H-M "P -1"
_symmetry_group_IT_number 2
_symmetry_cell_setting 'triclinic'
loop_
_space_group_symop_operation_xyz
x,y,z
-x,-y,-z
loop_
_atom_site_type_symbol
_atom_site_label
_atom_site_fract_x
_atom_site_fract_y
_atom_site_fract_z
Si Si1 0.033665 0.757830 0.271521
Si Si2 0.660432 0.446036 0.415277
Si Si3 0.500000 0.000000 0.000000
Si Si4 0.076708 0.931979 0.285260
Si Si5 0.539196 0.300365 0.154343
Si Si6 0.855963 0.572211 0.043108
Si Si7 0.901690 0.476245 0.854404
Si Si8 0.429409 0.533100 0.285829
O O1 0.185536 0.726425 0.349759
O O2 0.000000 0.500000 0.500000
O O3 0.141900 0.929429 0.262270
O O4 0.748514 0.791126 0.012201
O O5 0.834117 0.710076 0.307921
O O6 0.394474 0.415058 0.200857
O O7 0.596643 0.414562 0.468724
O O8 0.239723 0.795893 0.005149
O O9 0.568045 0.795778 0.182925
O O10 0.674252 0.119887 0.446103
O O11 0.026267 0.170025 0.065087
O O12 0.500000 0.500000 0.000000
O O13 0.738225 0.412234 0.151685
O O14 0.045112 0.481546 0.216042
O O15 0.698753 0.596749 0.633701
O O16 0.175804 0.545016 0.040200
#
# Coordination Sequence:
#
# PCOD9078769 Si02
#       8
#     2   2   1   2   2   2   2   2
#     4  10  19  39  58  84 122 158 200 249 296 350
#     4  10  18  36  58  82 125 154 200 254 293 356
#     4   8  12  26  46  78 118 134 194 240 282 358
#     4  11  23  40  61  89 122 162 203 248 303 354
#     4  12  22  41  61  86 128 160 201 259 296 350
#     4  11  22  38  63  89 120 163 205 244 304 368
#     4   8  16  29  50  86 113 146 200 238 295 361
#     4   8  15  26  49  83 110 151 193 238 296 356
#
# _framework density 23.577461
#
# number of rings (size 3 to 8) (size 9 to 14) (size 15 to 20)
#    0.800    1.333    5.333    0.800    0.000    2.133 
#    2.400    1.333    0.000    0.800    0.000    9.333 
#    0.000    0.000    0.000    0.000    0.000    0.000 
#
# Total GULP energy -83549.731688 kJ/mol
# GULP energy per Si atom -5569.982113 kJ/mol
# Density = 2.352380 g / cm^3
# Si number density = 23.577461 Si / 1000 Ang^3
#
#
#
# Elastic Constant Matrix: (Units=GPa)
#
#
# Indices 1 2 3 4 5 6 
#
# 1 227.3675 33.2971 50.0379 -8.4540 38.6983 -1.3246
# 2 33.2971 91.3567 30.8755 1.5934 7.4947 -12.3975
# 3 50.0379 30.8755 80.3365 1.5765 -0.5640 -7.6189
# 4 -8.4540 1.5934 1.5765 13.7016 -0.6419 2.7485
# 5 38.6983 7.4947 -0.5640 -0.6419 30.8508 6.9454
# 6 -1.3246 -12.3975 -7.6189 2.7485 6.9454 30.4481
#
#
#
# Elastic Compliance Matrix: (Units=1/GPa)
#
#
# Indices 1 2 3 4 5 6 
#
# 1 0.007107 -0.000354 -0.004370 0.004363 -0.008981 0.000726
# 2 -0.000354 0.013772 -0.004512 -0.002644 -0.004320 0.005687
# 3 -0.004370 -0.004512 0.017137 -0.004064 0.006552 0.001133
# 4 0.004363 -0.002644 -0.004064 0.078124 -0.001331 -0.008652
# 5 -0.008981 -0.004320 0.006552 -0.001331 0.047340 -0.011189
# 6 0.000726 0.005687 0.001133 -0.008652 -0.011189 0.038807
#
#
# Mechanical properties :
#
#
# Convention : Reuss Voigt Hill
#
# Bulk Modulus (GPa) = 51.16615 69.72018 60.44316
# Shear Modulus (GPa) = 21.99989 33.99010 27.99499
#
# Velocity S-wave (km/s) = 3.05797 3.80101 3.44955
# Velocity P-wave (km/s) = 5.84950 6.99274 6.44651
#
# Compressibility (1/GPa) = 0.01954417
#
# Stress axis : x y z
#
# Youngs Moduli (GPa) = 140.70918 72.61025 58.35379
#
# Poissons Ratio (x) = 0.02570 0.25502
# Poissons Ratio (y) = 0.04981 0.26327
# Poissons Ratio (z) = 0.61494 0.32759
#
# Static dielectric constant tensor:
#      x y z
#    x 2.051830 0.094570 -0.101420 
#    y 0.094570 2.018280 -0.039170 
#    z -0.101420 -0.039170 2.037720 
# 
# From -- ./inp_files/613311.got.cif
#   From: 2010.05.17/outbox.cif.g08.bks.cpg/sg2_307_cif.got.tgz:613311.got - 2010.06.03 11:33:40.
