data_PCOD9078008
_publ_section_title
;
Structure prediction by ZEFSAII (Michael W. Deem and Ramdas Pophale) SiO2 
 PCOD9078008
Probable space group: P -1
;
_chemical_formula_sum "Si O2"
_cell_formula_units_Z 16
_cell_length_a 9.644246
_cell_length_b 15.575910
_cell_length_c 12.498100
_cell_angle_alpha 144.692565
_cell_angle_beta 118.722050
_cell_angle_gamma 37.764830
_cell_volume 588.346607
_symmetry_space_group_name_H-M "P -1"
_symmetry_group_IT_number 2
_symmetry_cell_setting 'triclinic'
loop_
_space_group_symop_operation_xyz
x,y,z
-x,-y,-z
loop_
_atom_site_type_symbol
_atom_site_label
_atom_site_fract_x
_atom_site_fract_y
_atom_site_fract_z
Si Si1 0.373798 0.121862 0.800893
Si Si2 0.381916 0.665617 0.363889
Si Si3 0.306312 0.731863 0.088248
Si Si4 0.933171 0.585670 0.437842
Si Si5 0.661168 0.122042 0.047148
Si Si6 0.206119 0.645718 0.647182
Si Si7 0.151341 0.148644 0.958029
Si Si8 0.156202 0.072212 0.523741
O O1 0.247893 0.126450 0.857025
O O2 0.644629 0.850595 0.595837
O O3 0.203369 0.204071 0.717682
O O4 0.450326 0.221383 0.985318
O O5 0.564573 0.602061 0.455108
O O6 0.283509 0.860758 0.441570
O O7 0.580073 0.399420 0.115962
O O8 0.138852 0.756047 0.407954
O O9 0.283201 0.919645 0.305497
O O10 0.030044 0.861234 0.129988
O O11 0.500000 0.500000 0.000000
O O12 0.000000 0.500000 0.500000
O O13 0.110879 0.592960 0.474996
O O14 0.976515 0.409888 0.204728
O O15 0.678020 0.278037 0.254531
O O16 0.647438 0.032123 0.057274
O O17 0.941141 0.876477 0.848686
#
# Coordination Sequence:
#
# PCOD9078008 Si02
#       8
#     2   2   2   2   2   2   2   2
#     4  11  22  37  58  87 126 148 199 252 294 344
#     4  10  18  35  57  85 116 153 193 247 291 348
#     4  10  19  33  56  90 118 147 193 249 298 338
#     4  11  20  35  60  88 113 155 192 243 292 347
#     4  10  22  37  59  90 119 165 190 241 304 356
#     4  10  20  39  60  85 127 159 195 235 307 358
#     4  12  21  36  62  91 118 152 201 247 295 349
#     4  10  21  34  59  88 115 151 200 246 293 346
#
# _framework density 27.194852000000001
#
# number of rings (size 3 to 8) (size 9 to 14) (size 15 to 20)
#    0.000    1.500    3.750    4.875    0.000    0.000 
#    0.000    1.250    0.000    2.250    0.000    0.000 
#    0.000    0.000    0.000    0.000    0.000    0.000 
#
# Total GULP energy -89612.778244 kJ/mol
# GULP energy per Si atom -5600.798640 kJ/mol
# Density = 2.713296 g / cm^3
# Si number density = 27.194852 Si / 1000 Ang^3
#
#
#
# Elastic Constant Matrix: (Units=GPa)
#
#
# Indices 1 2 3 4 5 6 
#
# 1 88.7604 18.6731 39.3499 -8.2260 17.1950 -19.4622
# 2 18.6731 99.6927 19.2029 -5.7628 5.8484 -36.4221
# 3 39.3499 19.2029 118.5517 -25.3985 8.5728 -17.1142
# 4 -8.2260 -5.7628 -25.3985 42.7360 -9.8820 12.0575
# 5 17.1950 5.8484 8.5728 -9.8820 37.9185 -1.7905
# 6 -19.4622 -36.4221 -17.1142 12.0575 -1.7905 42.4645
#
#
#
# Elastic Compliance Matrix: (Units=1/GPa)
#
#
# Indices 1 2 3 4 5 6 
#
# 1 0.015524 0.000452 -0.004468 -0.002884 -0.006556 0.006244
# 2 0.000452 0.015009 -0.001094 -0.002858 -0.002387 0.013351
# 3 -0.004468 -0.001094 0.011281 0.006001 0.001204 -0.000093
# 4 -0.002884 -0.002858 0.006001 0.030593 0.007906 -0.009708
# 5 -0.006556 -0.002387 0.001204 0.007906 0.031242 -0.005494
# 6 0.006244 0.013351 -0.000093 -0.009708 -0.005494 0.040349
#
#
# Mechanical properties :
#
#
# Convention : Reuss Voigt Hill
#
# Bulk Modulus (GPa) = 31.65112 51.27295 41.46204
# Shear Modulus (GPa) = 30.34911 39.94239 35.14575
#
# Velocity S-wave (km/s) = 3.34426 3.83658 3.59885
# Velocity P-wave (km/s) = 5.15520 6.20650 5.70512
#
# Compressibility (1/GPa) = 0.03159445
#
# Stress axis : x y z
#
# Youngs Moduli (GPa) = 64.41610 66.62560 88.64715
#
# Poissons Ratio (x) = -0.03013 0.39611
# Poissons Ratio (y) = -0.02913 0.09694
# Poissons Ratio (z) = 0.28784 0.07286
#
# Static dielectric constant tensor:
#      x y z
#    x 2.154830 0.049180 0.032550 
#    y 0.049180 2.101280 -0.043270 
#    z 0.032550 -0.043270 2.402340 
# 
# From -- ./inp_files/523966.got.cif
#   From: 2010.05.17/outbox.cif.g08.bks.cpg/sg2_262_cif.got.tgz:523966.got - 2010.06.03 11:33:40.
