data_PCOD9078706
_publ_section_title
;
Structure prediction by ZEFSAII (Michael W. Deem and Ramdas Pophale) SiO2 
 PCOD9078706
Probable space group: P -1
;
_chemical_formula_sum "Si O2"
_cell_formula_units_Z 14
_cell_length_a 15.426252
_cell_length_b 14.250414
_cell_length_c 14.592634
_cell_angle_alpha 160.373690
_cell_angle_beta 40.610880
_cell_angle_gamma 142.504542
_cell_volume 654.762575
_symmetry_space_group_name_H-M "P -1"
_symmetry_group_IT_number 2
_symmetry_cell_setting 'triclinic'
loop_
_space_group_symop_operation_xyz
x,y,z
-x,-y,-z
loop_
_atom_site_type_symbol
_atom_site_label
_atom_site_fract_x
_atom_site_fract_y
_atom_site_fract_z
Si Si1 0.051563 0.926785 0.263759
Si Si2 0.396148 0.361655 0.071396
Si Si3 0.698451 0.149781 0.471661
Si Si4 0.050144 0.388791 0.221666
Si Si5 0.686874 0.261356 0.777984
Si Si6 0.142786 0.747968 0.202517
Si Si7 0.128887 0.196320 0.254644
O O1 0.161507 0.895479 0.222993
O O2 0.113247 0.010826 0.190595
O O3 0.983710 0.167312 0.571601
O O4 0.920340 0.610120 0.083462
O O5 0.543293 0.330932 0.954714
O O6 0.319944 0.100241 0.818209
O O7 0.408401 0.672939 0.299615
O O8 0.289437 0.325035 0.207936
O O9 0.682489 0.050913 0.499784
O O10 0.852397 0.424937 0.601235
O O11 0.938240 0.551017 0.441627
O O12 0.171781 0.461177 0.111148
O O13 0.967056 0.037943 0.959345
O O14 0.723762 0.151875 0.744041
#
# Coordination Sequence:
#
# PCOD9078706 Si02
#       7
#     2   2   2   2   2   2   2
#     4  10  18  36  56  88 105 142 176 242 263 335
#     4  12  25  36  58  81 120 147 187 221 296 314
#     4  10  23  39  58  80 109 156 191 229 260 339
#     4  10  23  36  62  75 118 142 196 222 277 314
#     4  10  22  41  57  85 109 154 186 235 258 347
#     4  10  20  33  62  80 109 139 193 216 284 313
#     4  12  21  39  55  90 112 146 176 246 273 333
#
# _framework density 21.381796000000001
#
# number of rings (size 3 to 8) (size 9 to 14) (size 15 to 20)
#    0.857    0.571    2.857    2.571    0.000    6.857 
#    0.000    0.714    0.000    0.000    0.000   10.000 
#    0.000    0.000    0.000    0.000    0.000    0.000 
#
# Total GULP energy -78207.466920 kJ/mol
# GULP energy per Si atom -5586.247637 kJ/mol
# Density = 2.133313 g / cm^3
# Si number density = 21.381796 Si / 1000 Ang^3
#
#
#
# Elastic Constant Matrix: (Units=GPa)
#
#
# Indices 1 2 3 4 5 6 
#
# 1 150.1455 29.6735 22.4976 -18.3806 2.4784 -15.5909
# 2 29.6735 72.7626 11.9001 -26.6797 -1.7382 2.2755
# 3 22.4976 11.9001 100.6628 -1.4309 -1.9197 3.5232
# 4 -18.3806 -26.6797 -1.4309 29.5555 9.1618 -2.6879
# 5 2.4784 -1.7382 -1.9197 9.1618 23.1875 -4.6243
# 6 -15.5909 2.2755 3.5232 -2.6879 -4.6243 31.3965
#
#
#
# Elastic Compliance Matrix: (Units=1/GPa)
#
#
# Indices 1 2 3 4 5 6 
#
# 1 0.008328 -0.001543 -0.001811 0.004774 -0.002136 0.004545
# 2 -0.001543 0.022340 -0.002081 0.021139 -0.006957 -0.001367
# 3 -0.001811 -0.002081 0.010642 -0.003226 0.001804 -0.001953
# 4 0.004774 0.021139 -0.003226 0.063327 -0.023586 0.003148
# 5 -0.002136 -0.006957 0.001804 -0.023586 0.053314 0.005075
# 6 0.004545 -0.001367 -0.001953 0.003148 0.005075 0.035443
#
#
# Mechanical properties :
#
#
# Convention : Reuss Voigt Hill
#
# Bulk Modulus (GPa) = 32.84965 50.19037 41.52001
# Shear Modulus (GPa) = 23.31990 34.12789 28.72389
#
# Velocity S-wave (km/s) = 3.30607 3.99948 3.66919
# Velocity P-wave (km/s) = 5.47450 6.69718 6.11647
#
# Compressibility (1/GPa) = 0.03044172
#
# Stress axis : x y z
#
# Youngs Moduli (GPa) = 120.07592 44.76251 93.96962
#
# Poissons Ratio (x) = 0.06905 0.17016
# Poissons Ratio (y) = 0.18524 0.19551
# Poissons Ratio (z) = 0.21744 0.09313
#
# Static dielectric constant tensor:
#      x y z
#    x 1.834750 -0.001040 0.020440 
#    y -0.001040 1.811600 0.012480 
#    z 0.020440 0.012480 1.771320 
# 
# From -- ./inp_files/534664.got.cif
#   From: 2010.05.17/outbox.cif.g08.bks.cpg/sg2_268_cif.got.tgz:534664.got - 2010.06.03 11:33:40.
