data_PCOD9078352
_publ_section_title
;
Structure prediction by ZEFSAII (Michael W. Deem and Ramdas Pophale) SiO2 
 PCOD9078352
Probable space group: P -1
;
_chemical_formula_sum "Si O2"
_cell_formula_units_Z 10
_cell_length_a 5.618459
_cell_length_b 9.239609
_cell_length_c 14.657851
_cell_angle_alpha 36.247391
_cell_angle_beta 54.843807
_cell_angle_gamma 67.784592
_cell_volume 361.936188
_symmetry_space_group_name_H-M "P -1"
_symmetry_group_IT_number 2
_symmetry_cell_setting 'triclinic'
loop_
_space_group_symop_operation_xyz
x,y,z
-x,-y,-z
loop_
_atom_site_type_symbol
_atom_site_label
_atom_site_fract_x
_atom_site_fract_y
_atom_site_fract_z
Si Si1 0.807378 0.891236 0.007480
Si Si2 0.347699 0.451771 0.359108
Si Si3 0.781655 0.848040 0.699186
Si Si4 0.254283 0.660394 0.458150
Si Si5 0.199903 0.873421 0.750368
O O1 0.670064 0.598331 0.196920
O O2 0.017490 0.907224 0.864547
O O3 0.500000 0.000000 0.000000
O O4 0.000000 0.000000 0.000000
O O5 0.240368 0.632306 0.367691
O O6 0.325184 0.160677 0.540400
O O7 0.051708 0.437076 0.370895
O O8 0.654447 0.057203 0.679611
O O9 0.476642 0.729243 0.777156
O O10 0.976106 0.747283 0.784785
O O11 0.000000 0.000000 0.500000
O O12 0.500000 0.500000 0.500000
#
# Coordination Sequence:
#
# PCOD9078352 Si02
#       5
#     2   2   2   2   2
#     4  12  25  36  60  99 132 165 205 264 332 377
#     4  10  22  36  63  91 129 160 206 265 330 368
#     4  11  23  40  65  90 126 174 213 258 319 377
#     4  10  18  35  61  90 120 160 210 258 313 374
#     4  11  23  43  62  93 129 165 215 263 313 387
#
# _framework density 27.629179000000001
#
# number of rings (size 3 to 8) (size 9 to 14) (size 15 to 20)
#    0.000    1.200    2.000    6.600    2.800    0.000 
#    0.000    0.000    0.000   16.800    0.000    0.000 
#    0.000    0.000    0.000    0.000    0.000    0.000 
#
# Total GULP energy -55753.025851 kJ/mol
# GULP energy per Si atom -5575.302585 kJ/mol
# Density = 2.756629 g / cm^3
# Si number density = 27.629179 Si / 1000 Ang^3
#
#
#
# Elastic Constant Matrix: (Units=GPa)
#
#
# Indices 1 2 3 4 5 6 
#
# 1 267.1899 38.2499 71.3965 24.6052 -24.1895 -3.9432
# 2 38.2499 100.0797 24.8801 13.5847 -10.7986 -8.9287
# 3 71.3965 24.8801 164.7282 11.4418 -27.4392 -1.9578
# 4 24.6052 13.5847 11.4418 43.6434 8.0853 -11.7586
# 5 -24.1895 -10.7986 -27.4392 8.0853 35.0432 13.5402
# 6 -3.9432 -8.9287 -1.9578 -11.7586 13.5402 38.8809
#
#
#
# Elastic Compliance Matrix: (Units=1/GPa)
#
#
# Indices 1 2 3 4 5 6 
#
# 1 0.004787 -0.000874 -0.001102 -0.003407 0.003775 -0.002116
# 2 -0.000874 0.011285 -0.000589 -0.003309 0.003013 0.000423
# 3 -0.001102 -0.000589 0.008136 -0.003739 0.007702 -0.003650
# 4 -0.003407 -0.003309 -0.003739 0.035174 -0.020827 0.016597
# 5 0.003775 0.003013 0.007702 -0.020827 0.051737 -0.022853
# 6 -0.002116 0.000423 -0.003650 0.016597 -0.022853 0.038396
#
#
# Mechanical properties :
#
#
# Convention : Reuss Voigt Hill
#
# Bulk Modulus (GPa) = 52.41859 89.00564 70.71211
# Shear Modulus (GPa) = 31.05515 50.01157 40.53336
#
# Velocity S-wave (km/s) = 3.35625 4.25914 3.83436
# Velocity P-wave (km/s) = 5.83374 7.51474 6.72696
#
# Compressibility (1/GPa) = 0.01907720
#
# Stress axis : x y z
#
# Youngs Moduli (GPa) = 208.91390 88.61620 122.90451
#
# Poissons Ratio (x) = 0.07748 0.13547
# Poissons Ratio (y) = 0.18267 0.07235
# Poissons Ratio (z) = 0.23027 0.05216
#
# Static dielectric constant tensor:
#      x y z
#    x -0.210540 -0.123510 0.575620 
#    y -0.123510 2.155550 0.046110 
#    z 0.575620 0.046110 2.339630 
# 
# From -- ./inp_files/361152.got.cif
#   From: 2010.05.17/outbox.cif.g08.bks.cpg/sg2_181_cif.got.tgz:361152.got - 2010.06.03 11:33:40.
