data_PCOD9078921
_publ_section_title
;
Structure prediction by ZEFSAII (Michael W. Deem and Ramdas Pophale) SiO2 
 PCOD9078921
Probable space group: P -1
;
_chemical_formula_sum "Si O2"
_cell_formula_units_Z 14
_cell_length_a 9.692113
_cell_length_b 8.212215
_cell_length_c 12.089219
_cell_angle_alpha 112.197713
_cell_angle_beta 35.769242
_cell_angle_gamma 102.183397
_cell_volume 512.585541
_symmetry_space_group_name_H-M "P -1"
_symmetry_group_IT_number 2
_symmetry_cell_setting 'triclinic'
loop_
_space_group_symop_operation_xyz
x,y,z
-x,-y,-z
loop_
_atom_site_type_symbol
_atom_site_label
_atom_site_fract_x
_atom_site_fract_y
_atom_site_fract_z
Si Si1 0.865697 0.406710 0.825971
Si Si2 0.171019 0.705211 0.531165
Si Si3 0.632068 0.754062 0.164403
Si Si4 0.269099 0.820447 0.968453
Si Si5 0.705592 0.515402 0.281968
Si Si6 0.762479 0.026480 0.288430
Si Si7 0.783820 0.714084 0.624042
O O1 0.705521 0.282594 0.957015
O O2 0.085438 0.422180 0.768704
O O3 0.993003 0.310913 0.612195
O O4 0.724811 0.611908 0.971929
O O5 0.345340 0.799824 0.365485
O O6 0.260196 0.492190 0.405440
O O7 0.902033 0.747726 0.672131
O O8 0.213860 0.771239 0.644249
O O9 0.679685 0.642666 0.221818
O O10 0.753320 0.929109 0.150273
O O11 0.005530 0.938812 0.170984
O O12 0.238401 0.679761 0.856854
O O13 0.543937 0.851115 0.783591
O O14 0.500000 0.500000 0.500000
O O15 0.500000 0.000000 0.500000
#
# Coordination Sequence:
#
# PCOD9078921 Si02
#       7
#     2   2   2   2   2   2   2
#     4  11  19  34  63  93 112 152 203 247 290 346
#     4  10  22  41  56  87 123 159 197 242 293 348
#     4  10  18  36  60  88 116 153 193 245 299 341
#     4  11  20  37  62  89 115 156 199 241 297 352
#     4  11  17  30  61  93 115 146 200 248 289 340
#     4  10  21  37  64  84 122 158 187 249 308 343
#     4  11  23  39  63  85 120 159 205 240 280 361
#
# _framework density 27.312514
#
# number of rings (size 3 to 8) (size 9 to 14) (size 15 to 20)
#    0.000    1.429    7.143    0.857    0.000    1.143 
#    0.000    1.429   12.571    0.000    0.000    0.000 
#    0.000    0.000    0.000    0.000    0.000    0.000 
#
# Total GULP energy -78158.715284 kJ/mol
# GULP energy per Si atom -5582.765377 kJ/mol
# Density = 2.725035 g / cm^3
# Si number density = 27.312514 Si / 1000 Ang^3
#
#
#
# Elastic Constant Matrix: (Units=GPa)
#
#
# Indices 1 2 3 4 5 6 
#
# 1 115.9535 33.8727 38.9584 9.1641 -22.8486 16.8827
# 2 33.8727 78.9445 24.6661 1.0368 -4.5853 17.0631
# 3 38.9584 24.6661 150.5408 -0.2676 -5.3702 -9.3859
# 4 9.1641 1.0368 -0.2676 29.1991 -10.2811 1.1348
# 5 -22.8486 -4.5853 -5.3702 -10.2811 50.1274 -1.0581
# 6 16.8827 17.0631 -9.3859 1.1348 -1.0581 29.3206
#
#
#
# Elastic Compliance Matrix: (Units=1/GPa)
#
#
# Indices 1 2 3 4 5 6 
#
# 1 0.012391 -0.002741 -0.002989 -0.001977 0.004539 -0.006256
# 2 -0.002741 0.016554 -0.002560 0.000566 -0.000081 -0.008900
# 3 -0.002989 -0.002560 0.008182 0.000721 -0.000450 0.005786
# 4 -0.001977 0.000566 0.000721 0.037280 0.006870 -0.000155
# 5 0.004539 -0.000081 -0.000450 0.006870 0.023327 -0.002135
# 6 -0.006256 -0.008900 0.005786 -0.000155 -0.002135 0.044668
#
#
# Mechanical properties :
#
#
# Convention : Reuss Voigt Hill
#
# Bulk Modulus (GPa) = 48.66845 60.04812 54.35829
# Shear Modulus (GPa) = 30.15129 38.25887 34.20508
#
# Velocity S-wave (km/s) = 3.32616 3.74676 3.54271
# Velocity P-wave (km/s) = 5.71042 6.38365 6.05639
#
# Compressibility (1/GPa) = 0.02054719
#
# Stress axis : x y z
#
# Youngs Moduli (GPa) = 80.70580 60.40670 122.22422
#
# Poissons Ratio (x) = 0.16556 0.36535
# Poissons Ratio (y) = 0.22119 0.31289
# Poissons Ratio (z) = 0.24124 0.15464
#
# Static dielectric constant tensor:
#      x y z
#    x 2.122990 -0.098970 0.006170 
#    y -0.098970 2.222060 -0.019980 
#    z 0.006170 -0.019980 2.291950 
# 
# From -- ./inp_files/519083.got.cif
#   From: 2010.05.17/outbox.cif.g08.bks.cpg/sg2_260_cif.got.tgz:519083.got - 2010.06.03 11:33:40.
