data_PCOD9078754
_publ_section_title
;
Structure prediction by ZEFSAII (Michael W. Deem and Ramdas Pophale) SiO2 
 PCOD9078754
Probable space group: P -1
;
_chemical_formula_sum "Si O2"
_cell_formula_units_Z 15
_cell_length_a 7.828103
_cell_length_b 12.718298
_cell_length_c 26.232362
_cell_angle_alpha 29.505675
_cell_angle_beta 148.264220
_cell_angle_gamma 152.985694
_cell_volume 550.311154
_symmetry_space_group_name_H-M "P -1"
_symmetry_group_IT_number 2
_symmetry_cell_setting 'triclinic'
loop_
_space_group_symop_operation_xyz
x,y,z
-x,-y,-z
loop_
_atom_site_type_symbol
_atom_site_label
_atom_site_fract_x
_atom_site_fract_y
_atom_site_fract_z
Si Si1 0.736800 0.082498 0.691421
Si Si2 0.000000 0.500000 0.000000
Si Si3 0.145551 0.175780 0.253360
Si Si4 0.033294 0.215161 0.058706
Si Si5 0.802134 0.942297 0.577935
Si Si6 0.929122 0.534136 0.615795
Si Si7 0.182495 0.436626 0.316948
Si Si8 0.871167 0.724346 0.062518
O O1 0.816576 0.348950 0.617361
O O2 0.913254 0.070098 0.687892
O O3 0.928366 0.003484 0.816970
O O4 0.267541 0.839592 0.675219
O O5 0.983935 0.295820 0.125327
O O6 0.711784 0.237857 0.995093
O O7 0.006348 0.114459 0.302326
O O8 0.624330 0.376218 0.295190
O O9 0.413505 0.498314 0.062494
O O10 0.112831 0.263282 0.999544
O O11 0.602293 0.686015 0.600289
O O12 0.500000 0.000000 0.500000
O O13 0.070147 0.213808 0.501786
O O14 0.694825 0.429935 0.653389
O O15 0.129389 0.622280 0.189601
O O16 0.000000 0.000000 0.000000
#
# Coordination Sequence:
#
# PCOD9078754 Si02
#       8
#     2   1   2   2   2   2   2   2
#     4   9  19  36  57  81 108 147 193 231 276 337
#     4  10  18  36  58  78 114 152 180 226 290 340
#     4   9  20  37  56  81 114 148 186 235 284 332
#     4   9  19  33  51  78 111 141 180 230 273 326
#     4  10  21  38  58  82 117 151 186 237 284 329
#     4  10  20  37  59  80 109 149 192 232 279 331
#     4  10  20  36  57  82 112 147 189 236 280 329
#     4  10  19  34  56  80 109 145 184 227 276 330
#
# _framework density 27.257307000000001
#
# number of rings (size 3 to 8) (size 9 to 14) (size 15 to 20)
#    0.000    2.400    0.000    2.800    0.000    1.067 
#    0.000   14.000    0.000    0.000    0.000    0.000 
#    0.000    0.000    0.000    0.000    0.000    0.000 
#
# Total GULP energy -83791.537959 kJ/mol
# GULP energy per Si atom -5586.102531 kJ/mol
# Density = 2.719527 g / cm^3
# Si number density = 27.257307 Si / 1000 Ang^3
#
#
#
# Elastic Constant Matrix: (Units=GPa)
#
#
# Indices 1 2 3 4 5 6 
#
# 1 80.3035 21.1861 12.7950 3.6145 -6.6685 -21.4158
# 2 21.1861 99.5755 11.6505 -25.4162 12.7282 -12.4869
# 3 12.7950 11.6505 104.9295 -12.5364 1.8105 -9.6531
# 4 3.6145 -25.4162 -12.5364 45.0158 -15.0659 6.1540
# 5 -6.6685 12.7282 1.8105 -15.0659 55.4452 5.0844
# 6 -21.4158 -12.4869 -9.6531 6.1540 5.0844 45.1816
#
#
#
# Elastic Compliance Matrix: (Units=1/GPa)
#
#
# Indices 1 2 3 4 5 6 
#
# 1 0.015645 -0.003539 -0.001430 -0.004223 0.000988 0.006596
# 2 -0.003539 0.012900 -0.000050 0.006856 -0.001626 0.001126
# 3 -0.001430 -0.000050 0.010143 0.002824 0.000178 0.001071
# 4 -0.004223 0.006856 0.002824 0.029923 0.006351 -0.004294
# 5 0.000988 -0.001626 0.000178 0.006351 0.020534 -0.003119
# 6 0.006596 0.001126 0.001071 -0.004294 -0.003119 0.026736
#
#
# Mechanical properties :
#
#
# Convention : Reuss Voigt Hill
#
# Bulk Modulus (GPa) = 34.90159 41.78575 38.34367
# Shear Modulus (GPa) = 36.90883 45.07364 40.99123
#
# Velocity S-wave (km/s) = 3.68379 4.07090 3.88217
# Velocity P-wave (km/s) = 5.56112 6.12043 5.84747
#
# Compressibility (1/GPa) = 0.02865199
#
# Stress axis : x y z
#
# Youngs Moduli (GPa) = 63.91628 77.51721 98.59030
#
# Poissons Ratio (x) = 0.27431 0.14095
# Poissons Ratio (y) = 0.22618 0.00494
# Poissons Ratio (z) = 0.09138 0.00388
#
# Static dielectric constant tensor:
#      x y z
#    x 71.466720 -8.602630 39.375820 
#    y -8.602630 3.418900 -4.877410 
#    z 39.375820 -4.877410 24.407630 
# 
# From -- ./inp_files/97225.got.cif
#   From: 2010.05.17/outbox.cif.g08.bks.cpg/sg2_49_cif.got.tgz:97225.got - 2010.06.03 11:33:40.
