data_PCOD9078680
_publ_section_title
;
Structure prediction by ZEFSAII (Michael W. Deem and Ramdas Pophale) SiO2 
 PCOD9078680
Probable space group: P -1
;
_chemical_formula_sum "Si O2"
_cell_formula_units_Z 11
_cell_length_a 7.447260
_cell_length_b 9.322609
_cell_length_c 8.979639
_cell_angle_alpha 101.191134
_cell_angle_beta 130.826522
_cell_angle_gamma 58.836816
_cell_volume 393.533502
_symmetry_space_group_name_H-M "P -1"
_symmetry_group_IT_number 2
_symmetry_cell_setting 'triclinic'
loop_
_space_group_symop_operation_xyz
x,y,z
-x,-y,-z
loop_
_atom_site_type_symbol
_atom_site_label
_atom_site_fract_x
_atom_site_fract_y
_atom_site_fract_z
Si Si1 0.896971 0.766519 0.736738
Si Si2 0.500000 0.000000 0.000000
Si Si3 0.905447 0.293304 0.674195
Si Si4 0.392594 0.368141 0.236120
Si Si5 0.313344 0.403403 0.851771
Si Si6 0.576509 0.110863 0.745336
O O1 0.803401 0.688759 0.804071
O O2 0.661559 0.818540 0.494661
O O3 0.192008 0.604496 0.812758
O O4 0.853041 0.948542 0.795187
O O5 0.492125 0.037447 0.824279
O O6 0.154808 0.117970 0.838988
O O7 0.697790 0.268425 0.453929
O O8 0.732024 0.436057 0.736600
O O9 0.047090 0.381813 0.677041
O O10 0.392177 0.338081 0.053076
O O11 0.545016 0.280240 0.835425
#
# Coordination Sequence:
#
# PCOD9078680 Si02
#       6
#     2   1   2   2   2   2
#     4  10  19  34  56  83 115 149 182 232 288 328
#     4  10  18  36  56  74 110 148 178 228 276 318
#     4   9  19  34  58  87 112 144 192 234 271 339
#     4  10  19  35  61  85 110 150 190 228 282 336
#     4  10  19  36  60  82 110 152 187 226 282 335
#     4  10  20  33  55  84 111 146 192 230 274 340
#
# _framework density 27.951874
#
# number of rings (size 3 to 8) (size 9 to 14) (size 15 to 20)
#    0.000    2.182    0.000    6.000    0.000    0.000 
#    0.000   15.455    0.000   40.364    0.000    0.000 
#    0.000    0.000    0.000    0.000    0.000    0.000 
#
# Total GULP energy -61393.851290 kJ/mol
# GULP energy per Si atom -5581.259208 kJ/mol
# Density = 2.788825 g / cm^3
# Si number density = 27.951874 Si / 1000 Ang^3
#
#
#
# Elastic Constant Matrix: (Units=GPa)
#
#
# Indices 1 2 3 4 5 6 
#
# 1 102.1051 14.7678 12.0818 -3.4230 -15.4204 13.5178
# 2 14.7678 217.1112 63.8102 -12.8233 10.7879 -50.8797
# 3 12.0818 63.8102 167.8943 -22.4655 9.7558 -19.0477
# 4 -3.4230 -12.8233 -22.4655 50.5519 3.3603 9.9834
# 5 -15.4204 10.7879 9.7558 3.3603 42.1012 0.2282
# 6 13.5178 -50.8797 -19.0477 9.9834 0.2282 33.6875
#
#
#
# Elastic Compliance Matrix: (Units=1/GPa)
#
#
# Indices 1 2 3 4 5 6 
#
# 1 0.012846 -0.003439 -0.001060 0.001393 0.005783 -0.011400
# 2 -0.003439 0.008615 -0.001426 -0.001233 -0.003114 0.013972
# 3 -0.001060 -0.001426 0.007212 0.002583 -0.001909 0.001597
# 4 0.001393 -0.001233 0.002583 0.022305 -0.001511 -0.007561
# 5 0.005783 -0.003114 -0.001909 -0.001511 0.027274 -0.007840
# 6 -0.011400 0.013972 0.001597 -0.007561 -0.007840 0.058559
#
#
# Mechanical properties :
#
#
# Convention : Reuss Voigt Hill
#
# Bulk Modulus (GPa) = 59.44118 74.27001 66.85560
# Shear Modulus (GPa) = 32.41115 51.69817 42.05466
#
# Velocity S-wave (km/s) = 3.40889 4.30530 3.88305
# Velocity P-wave (km/s) = 6.06677 7.16536 6.63883
#
# Compressibility (1/GPa) = 0.01682335
#
# Stress axis : x y z
#
# Youngs Moduli (GPa) = 77.84570 116.07556 138.65568
#
# Poissons Ratio (x) = 0.39915 0.14703
# Poissons Ratio (y) = 0.26769 0.19769
# Poissons Ratio (z) = 0.08255 0.16550
#
# Static dielectric constant tensor:
#      x y z
#    x 1.784360 0.193550 -0.105760 
#    y 0.193550 2.401680 0.035820 
#    z -0.105760 0.035820 2.047910 
# 
# From -- ./inp_files/171839.got.cif
#   From: 2010.05.17/outbox.cif.g08.bks.cpg/sg2_86_cif.got.tgz:171839.got - 2010.06.03 11:33:40.
