data_PCOD9078590
_publ_section_title
;
Structure prediction by ZEFSAII (Michael W. Deem and Ramdas Pophale) SiO2 
 PCOD9078590
Probable space group: P -1
;
_chemical_formula_sum "Si O2"
_cell_formula_units_Z 16
_cell_length_a 20.766745
_cell_length_b 8.374173
_cell_length_c 9.041785
_cell_angle_alpha 54.603462
_cell_angle_beta 45.720736
_cell_angle_gamma 35.919676
_cell_volume 660.067135
_symmetry_space_group_name_H-M "P -1"
_symmetry_group_IT_number 2
_symmetry_cell_setting 'triclinic'
loop_
_space_group_symop_operation_xyz
x,y,z
-x,-y,-z
loop_
_atom_site_type_symbol
_atom_site_label
_atom_site_fract_x
_atom_site_fract_y
_atom_site_fract_z
Si Si1 0.258841 0.779033 0.407711
Si Si2 0.559768 0.159205 0.846492
Si Si3 0.902375 0.588388 0.244735
Si Si4 0.808730 0.531070 0.730229
Si Si5 0.520893 0.921781 0.259576
Si Si6 0.893496 0.022660 0.736375
Si Si7 0.969632 0.835291 0.206125
Si Si8 0.684979 0.754960 0.344444
O O1 0.281584 0.513559 0.511927
O O2 0.381886 0.718087 0.281618
O O3 0.198321 0.922383 0.270511
O O4 0.152664 0.974079 0.596464
O O5 0.680183 0.830106 0.819775
O O6 0.487125 0.234607 0.768402
O O7 0.484440 0.176965 0.093798
O O8 0.841666 0.572671 0.495657
O O9 0.941976 0.730906 0.174959
O O10 0.797683 0.727885 0.213010
O O11 0.021311 0.278402 0.176046
O O12 0.916145 0.410805 0.742596
O O13 0.817684 0.282191 0.826634
O O14 0.646535 0.784650 0.220262
O O15 0.427920 0.007874 0.495397
O O16 0.000000 0.000000 0.500000
O O17 0.000000 0.000000 0.000000
#
# Coordination Sequence:
#
# PCOD9078590 Si02
#       8
#     2   2   2   2   2   2   2   2
#     4  12  21  39  64  92 123 163 210 247 321 366
#     4  11  23  41  68  90 121 167 214 263 301 375
#     4  11  19  41  65  88 125 173 202 245 313 376
#     4  11  19  40  64  89 122 168 205 250 306 374
#     4  10  24  44  63  91 118 165 216 263 319 356
#     4  10  18  35  66  91 117 162 208 238 300 386
#     4  12  25  37  59 100 132 163 203 253 308 383
#     4  11  22  42  67  89 129 162 202 270 318 365
#
# _framework density 24.239955999999999
#
# number of rings (size 3 to 8) (size 9 to 14) (size 15 to 20)
#    0.000    1.000    7.500    1.125    1.750    1.000 
#    2.250    1.250    0.000    0.000    0.000    0.000 
#    0.000    0.000    0.000    0.000    0.000    0.000 
#
# Total GULP energy -89539.140423 kJ/mol
# GULP energy per Si atom -5596.196276 kJ/mol
# Density = 2.418478 g / cm^3
# Si number density = 24.239956 Si / 1000 Ang^3
#
#
#
# Elastic Constant Matrix: (Units=GPa)
#
#
# Indices 1 2 3 4 5 6 
#
# 1 230.9854 15.3112 39.1028 -11.4230 5.1778 -6.8619
# 2 15.3112 45.2269 -13.8102 2.4736 5.7661 12.7118
# 3 39.1028 -13.8102 63.4881 7.1521 2.0508 -1.6650
# 4 -11.4230 2.4736 7.1521 11.9939 3.3542 3.5941
# 5 5.1778 5.7661 2.0508 3.3542 41.7780 -11.9490
# 6 -6.8619 12.7118 -1.6650 3.5941 -11.9490 40.4285
#
#
#
# Elastic Compliance Matrix: (Units=1/GPa)
#
#
# Indices 1 2 3 4 5 6 
#
# 1 0.006207 -0.004830 -0.005971 0.010127 -0.000235 0.001357
# 2 -0.004830 0.031847 0.011251 -0.012706 -0.006523 -0.011168
# 3 -0.005971 0.011251 0.024300 -0.021720 -0.000792 -0.001854
# 4 0.010127 -0.012706 -0.021720 0.113838 -0.009930 -0.008236
# 5 -0.000235 -0.006523 -0.000792 -0.009930 0.028969 0.011423
# 6 0.001357 -0.011168 -0.001854 -0.008236 0.011423 0.032509
#
#
# Mechanical properties :
#
#
# Convention : Reuss Voigt Hill
#
# Bulk Modulus (GPa) = 15.80900 46.76756 31.28828
# Shear Modulus (GPa) = 19.39089 38.77985 29.08537
#
# Velocity S-wave (km/s) = 2.83142 4.00413 3.46771
# Velocity P-wave (km/s) = 4.15033 6.38066 5.38229
#
# Compressibility (1/GPa) = 0.06325512
#
# Stress axis : x y z
#
# Youngs Moduli (GPa) = 161.11933 31.39996 41.15263
#
# Poissons Ratio (x) = 0.15165 0.24572
# Poissons Ratio (y) = 0.77815 -0.46302
# Poissons Ratio (z) = 0.96203 -0.35329
#
# Static dielectric constant tensor:
#      x y z
#    x 1.917840 -0.021530 -0.016790 
#    y -0.021530 1.951360 0.012810 
#    z -0.016790 0.012810 2.009870 
# 
# From -- ./inp_files/237229.got.cif
#   From: 2010.05.17/outbox.cif.g08.bks.cpg/sg2_119_cif.got.tgz:237229.got - 2010.06.03 11:33:40.
