data_PCOD9078230
_publ_section_title
;
Structure prediction by ZEFSAII (Michael W. Deem and Ramdas Pophale) SiO2 
 PCOD9078230
Probable space group: P -1
;
_chemical_formula_sum "Si O2"
_cell_formula_units_Z 14
_cell_length_a 19.277013
_cell_length_b 13.757488
_cell_length_c 24.478764
_cell_angle_alpha 19.443715
_cell_angle_beta 19.788570
_cell_angle_gamma 28.393894
_cell_volume 729.951431
_symmetry_space_group_name_H-M "P -1"
_symmetry_group_IT_number 2
_symmetry_cell_setting 'triclinic'
loop_
_space_group_symop_operation_xyz
x,y,z
-x,-y,-z
loop_
_atom_site_type_symbol
_atom_site_label
_atom_site_fract_x
_atom_site_fract_y
_atom_site_fract_z
Si Si1 0.669701 0.967474 0.626017
Si Si2 0.090649 0.830285 0.074395
Si Si3 0.957499 0.191775 0.376706
Si Si4 0.618584 0.422513 0.149639
Si Si5 0.488770 0.496265 0.930093
Si Si6 0.348310 0.270576 0.529438
Si Si7 0.372742 0.361635 0.592066
O O1 0.642364 0.742767 0.714090
O O2 0.891087 0.014706 0.465043
O O3 0.584365 0.276319 0.507456
O O4 0.524499 0.798313 0.868908
O O5 0.891095 0.676361 0.331275
O O6 0.260737 0.616389 0.043333
O O7 0.216400 0.094514 0.871040
O O8 0.000000 0.000000 0.000000
O O9 0.750997 0.356966 0.454706
O O10 0.000000 0.000000 0.500000
O O11 0.157247 0.410269 0.104041
O O12 0.492417 0.537736 0.130379
O O13 0.498358 0.440702 0.285797
O O14 0.636547 0.077022 0.307607
O O15 0.397474 0.335195 0.522167
#
# Coordination Sequence:
#
# PCOD9078230 Si02
#       7
#     2   2   2   2   2   2   2
#     4  10  21  34  58  85 114 144 183 241 275 329
#     4   9  14  29  55  84 101 136 189 231 259 319
#     4  12  23  35  59  87 113 145 194 236 271 329
#     4  11  19  35  57  90 109 145 190 230 280 330
#     4  10  18  35  60  82 110 145 194 228 278 329
#     4  10  19  32  62  83 114 143 187 236 273 338
#     4  10  19  37  56  85 110 150 187 227 284 328
#
# _framework density 19.179359000000002
#
# number of rings (size 3 to 8) (size 9 to 14) (size 15 to 20)
#    0.000    1.714    7.143    1.286    0.000    0.000 
#    0.000    1.429    0.000    9.429    0.000    0.000 
#    0.000    0.000    0.000    0.000    0.000    0.000 
#
# Total GULP energy -77993.809779 kJ/mol
# GULP energy per Si atom -5570.986413 kJ/mol
# Density = 1.913571 g / cm^3
# Si number density = 19.179359 Si / 1000 Ang^3
#
#
#
# Elastic Constant Matrix: (Units=GPa)
#
#
# Indices 1 2 3 4 5 6 
#
# 1 132.6769 26.5691 48.0278 7.3555 -8.6418 -3.9451
# 2 26.5691 48.9478 11.1932 -1.5249 10.0799 -3.4551
# 3 48.0278 11.1932 69.8686 4.8195 0.1043 11.8038
# 4 7.3555 -1.5249 4.8195 18.6773 0.7175 7.7989
# 5 -8.6418 10.0799 0.1043 0.7175 31.0793 1.2122
# 6 -3.9451 -3.4551 11.8038 7.7989 1.2122 23.5987
#
#
#
# Elastic Compliance Matrix: (Units=1/GPa)
#
#
# Indices 1 2 3 4 5 6 
#
# 1 0.012757 -0.005699 -0.008685 -0.006605 0.005283 0.007554
# 2 -0.005699 0.026162 -0.000967 0.003945 -0.010259 0.002585
# 3 -0.008685 -0.000967 0.022556 0.003395 -0.001713 -0.013909
# 4 -0.006605 0.003945 0.003395 0.065638 -0.003717 -0.023726
# 5 0.005283 -0.010259 -0.001713 -0.003717 0.037080 -0.000438
# 6 0.007554 0.002585 -0.013909 -0.023726 -0.000438 0.058837
#
#
# Mechanical properties :
#
#
# Convention : Reuss Voigt Hill
#
# Bulk Modulus (GPa) = 32.49568 47.00817 39.75193
# Shear Modulus (GPa) = 18.94008 25.71794 22.32901
#
# Velocity S-wave (km/s) = 3.14590 3.66583 3.41577
# Velocity P-wave (km/s) = 5.49321 6.51772 6.02728
#
# Compressibility (1/GPa) = 0.03077332
#
# Stress axis : x y z
#
# Youngs Moduli (GPa) = 78.38851 38.22268 44.33482
#
# Poissons Ratio (x) = 0.21783 0.38503
# Poissons Ratio (y) = 0.44674 0.04289
# Poissons Ratio (z) = 0.68077 0.03697
#
# Static dielectric constant tensor:
#      x y z
#    x 1.732610 -0.004800 -0.036200 
#    y -0.004800 1.722870 -0.027070 
#    z -0.036200 -0.027070 1.707330 
# 
# From -- ./inp_files/620746.got.cif
#   From: 2010.05.17/outbox.cif.g08.bks.cpg/sg2_311_cif.got.tgz:620746.got - 2010.06.03 11:33:40.
