data_PCOD9078144
_publ_section_title
;
Structure prediction by ZEFSAII (Michael W. Deem and Ramdas Pophale) SiO2 
 PCOD9078144
Probable space group: P -1
;
_chemical_formula_sum "Si O2"
_cell_formula_units_Z 16
_cell_length_a 17.302689
_cell_length_b 15.275648
_cell_length_c 9.210322
_cell_angle_alpha 103.582197
_cell_angle_beta 63.819317
_cell_angle_gamma 157.599829
_cell_volume 718.017004
_symmetry_space_group_name_H-M "P -1"
_symmetry_group_IT_number 2
_symmetry_cell_setting 'triclinic'
loop_
_space_group_symop_operation_xyz
x,y,z
-x,-y,-z
loop_
_atom_site_type_symbol
_atom_site_label
_atom_site_fract_x
_atom_site_fract_y
_atom_site_fract_z
Si Si1 0.251411 0.853892 0.069671
Si Si2 0.519676 0.840367 0.715549
Si Si3 0.733856 0.367761 0.707719
Si Si4 0.254520 0.702512 0.637986
Si Si5 0.110645 0.012432 0.948246
Si Si6 0.888787 0.155492 0.298479
Si Si7 0.910795 0.693252 0.225476
Si Si8 0.415808 0.622076 0.335424
O O1 0.028797 0.561341 0.161045
O O2 0.111666 0.809999 0.123608
O O3 0.393032 0.016305 0.165578
O O4 0.483394 0.069493 0.850114
O O5 0.761481 0.029922 0.514596
O O6 0.383241 0.767181 0.679568
O O7 0.306546 0.554836 0.803419
O O8 0.826448 0.421280 0.498478
O O9 0.949559 0.593430 0.739108
O O10 0.693089 0.435134 0.736603
O O11 0.500000 0.000000 0.500000
O O12 0.013480 0.843518 0.843106
O O13 0.034246 0.900123 0.126239
O O14 0.418066 0.303622 0.796495
O O15 0.000000 0.000000 0.000000
O O16 0.636548 0.912175 0.310431
O O17 0.775362 0.575218 0.447702
#
# Coordination Sequence:
#
# PCOD9078144 Si02
#       8
#     2   2   2   2   2   2   2   2
#     4  11  21  35  64  85 107 154 201 231 280 344
#     4  10  19  39  60  86 109 154 199 232 276 346
#     4  12  19  38  64  83 110 155 197 235 273 351
#     4  11  24  40  58  88 123 147 182 244 298 332
#     4  10  20  35  56  89 124 148 184 247 297 328
#     4   9  18  35  58  82 108 152 196 226 274 345
#     4  10  18  35  59  82 113 151 198 233 279 344
#     4   9  19  35  56  83 111 151 191 238 276 340
#
# _framework density 22.283594999999998
#
# number of rings (size 3 to 8) (size 9 to 14) (size 15 to 20)
#    0.750    1.000    6.250    0.750    0.000    1.500 
#    0.000    1.250    0.000    1.500    0.000    0.000 
#    0.000    0.000    0.000    0.000    0.000    0.000 
#
# Total GULP energy -89068.165113 kJ/mol
# GULP energy per Si atom -5566.760320 kJ/mol
# Density = 2.223288 g / cm^3
# Si number density = 22.283595 Si / 1000 Ang^3
#
#
#
# Elastic Constant Matrix: (Units=GPa)
#
#
# Indices 1 2 3 4 5 6 
#
# 1 50.8576 -1.8445 19.9245 -3.2721 14.1943 -8.5584
# 2 -1.8445 62.9542 28.0924 -8.0470 1.9715 5.8421
# 3 19.9245 28.0924 122.3111 -6.9279 7.1272 -2.1952
# 4 -3.2721 -8.0470 -6.9279 28.0834 0.2604 -4.2421
# 5 14.1943 1.9715 7.1272 0.2604 20.9936 -3.9473
# 6 -8.5584 5.8421 -2.1952 -4.2421 -3.9473 14.2942
#
#
#
# Elastic Compliance Matrix: (Units=1/GPa)
#
#
# Indices 1 2 3 4 5 6 
#
# 1 0.027968 0.002461 -0.003702 0.005062 -0.015623 0.012359
# 2 0.002461 0.019188 -0.004534 0.003657 -0.003266 -0.006882
# 3 -0.003702 -0.004534 0.009908 0.000924 -0.000187 0.001381
# 4 0.005062 0.003657 0.000924 0.039424 -0.002166 0.012780
# 5 -0.015623 -0.003266 -0.000187 -0.002166 0.060079 0.007900
# 6 0.012359 -0.006882 0.001381 0.012780 0.007900 0.086357
#
#
# Mechanical properties :
#
#
# Convention : Reuss Voigt Hill
#
# Bulk Modulus (GPa) = 21.97119 36.49642 29.23380
# Shear Modulus (GPa) = 18.54266 25.33762 21.94014
#
# Velocity S-wave (km/s) = 2.88778 3.37568 3.14122
# Velocity P-wave (km/s) = 4.58260 5.62204 5.12872
#
# Compressibility (1/GPa) = 0.04551416
#
# Stress axis : x y z
#
# Youngs Moduli (GPa) = 35.75458 52.11507 100.92479
#
# Poissons Ratio (x) = -0.12825 0.37366
# Poissons Ratio (y) = -0.08799 0.45760
# Poissons Ratio (z) = 0.13238 0.23630
#
# Static dielectric constant tensor:
#      x y z
#    x 1.829060 0.026830 -0.035380 
#    y 0.026830 1.949970 -0.022590 
#    z -0.035380 -0.022590 1.873560 
# 
# From -- ./inp_files/348480.got.cif
#   From: 2010.05.17/outbox.cif.g08.bks.cpg/sg2_175_cif.got.tgz:348480.got - 2010.06.03 11:33:40.
