data_PCOD9078911
_publ_section_title
;
Structure prediction by ZEFSAII (Michael W. Deem and Ramdas Pophale) SiO2 
 PCOD9078911
Probable space group: P -1
;
_chemical_formula_sum "Si O2"
_cell_formula_units_Z 16
_cell_length_a 23.077187
_cell_length_b 9.609223
_cell_length_c 18.174722
_cell_angle_alpha 34.887690
_cell_angle_beta 160.327779
_cell_angle_gamma 144.096132
_cell_volume 761.082799
_symmetry_space_group_name_H-M "P -1"
_symmetry_group_IT_number 2
_symmetry_cell_setting 'triclinic'
loop_
_space_group_symop_operation_xyz
x,y,z
-x,-y,-z
loop_
_atom_site_type_symbol
_atom_site_label
_atom_site_fract_x
_atom_site_fract_y
_atom_site_fract_z
Si Si1 0.684470 0.728143 0.180577
Si Si2 0.337108 0.431636 0.132114
Si Si3 0.775704 0.975091 0.952159
Si Si4 0.005595 0.235098 0.584474
Si Si5 0.548062 0.146675 0.270792
Si Si6 0.700066 0.061563 0.186116
Si Si7 0.345008 0.746858 0.428574
Si Si8 0.801124 0.986087 0.741745
O O1 0.843012 0.731826 0.311378
O O2 0.595830 0.442922 0.209669
O O3 0.742238 0.852499 0.273097
O O4 0.544127 0.873646 0.910719
O O5 0.251702 0.254040 0.039508
O O6 0.546811 0.467861 0.355022
O O7 0.293684 0.275528 0.222617
O O8 0.272550 0.685150 0.938616
O O9 0.604768 0.953259 0.809355
O O10 0.782717 0.218081 0.805624
O O11 0.936945 0.945485 0.207888
O O12 0.000000 0.500000 0.500000
O O13 0.825235 0.119451 0.380335
O O14 0.717363 0.025509 0.544893
O O15 0.500000 0.000000 0.000000
O O16 0.252823 0.784864 0.377328
O O17 0.500000 0.000000 0.500000
O O18 0.000000 0.000000 0.000000
#
# Coordination Sequence:
#
# PCOD9078911 Si02
#       8
#     2   2   2   2   2   2   2   2
#     4  10  25  38  61  91 126 163 202 260 304 367
#     4  10  18  36  60  86 119 159 203 240 306 366
#     4   9  15  34  60  87 109 154 206 251 293 355
#     4  11  23  39  66  89 120 164 208 256 302 366
#     4  10  18  37  62  87 121 155 212 246 309 357
#     4  12  26  42  60  92 132 162 203 252 323 364
#     4   8  15  30  54  82 113 147 201 240 292 353
#     4  10  19  30  57  94 117 152 199 265 296 354
#
# _framework density 21.022680000000001
#
# number of rings (size 3 to 8) (size 9 to 14) (size 15 to 20)
#    0.000    2.250    5.000    1.125    5.250    0.000 
#    0.000    0.625    0.000    0.750    0.000    0.000 
#    0.000    0.000    0.000    0.000    0.000    0.000 
#
# Total GULP energy -89185.985586 kJ/mol
# GULP energy per Si atom -5574.124099 kJ/mol
# Density = 2.097483 g / cm^3
# Si number density = 21.022680 Si / 1000 Ang^3
#
#
#
# Elastic Constant Matrix: (Units=GPa)
#
#
# Indices 1 2 3 4 5 6 
#
# 1 46.6213 5.7408 23.2829 9.0424 -9.3038 -8.2037
# 2 5.7408 34.9017 23.9542 9.7190 -9.3840 -13.7312
# 3 23.2829 23.9542 167.1242 16.5763 -24.0957 -2.5901
# 4 9.0424 9.7190 16.5763 23.3167 -1.8913 -8.1578
# 5 -9.3038 -9.3840 -24.0957 -1.8913 37.4187 -4.0958
# 6 -8.2037 -13.7312 -2.5901 -8.1578 -4.0958 23.2918
#
#
#
# Elastic Compliance Matrix: (Units=1/GPa)
#
#
# Indices 1 2 3 4 5 6 
#
# 1 0.026803 0.005711 -0.002704 -0.006193 0.007315 0.011624
# 2 0.005711 0.048235 -0.004556 -0.007623 0.013441 0.029635
# 3 -0.002704 -0.004556 0.007679 -0.003557 0.002559 -0.003580
# 4 -0.006193 -0.007623 -0.003557 0.055028 -0.001657 0.011911
# 5 0.007315 0.013441 0.002559 -0.001657 0.035274 0.016408
# 6 0.011624 0.029635 -0.003580 0.011911 0.016408 0.071157
#
#
# Mechanical properties :
#
#
# Convention : Reuss Voigt Hill
#
# Bulk Modulus (GPa) = 12.55956 39.40034 25.97995
# Shear Modulus (GPa) = 18.26059 29.85005 24.05532
#
# Velocity S-wave (km/s) = 2.95042 3.77224 3.38635
# Velocity P-wave (km/s) = 4.19451 6.14456 5.26068
#
# Compressibility (1/GPa) = 0.07962061
#
# Stress axis : x y z
#
# Youngs Moduli (GPa) = 37.30981 20.73177 130.21733
#
# Poissons Ratio (x) = -0.11840 0.35205
# Poissons Ratio (y) = -0.21309 0.59327
# Poissons Ratio (z) = 0.10087 0.09445
#
# Static dielectric constant tensor:
#      x y z
#    x 1.811670 0.011270 -0.011570 
#    y 0.011270 1.750320 0.004420 
#    z -0.011570 0.004420 1.859300 
# 
# From -- ./inp_files/579004.got.cif
#   From: 2010.05.17/outbox.cif.g08.bks.cpg/sg2_290_cif.got.tgz:579004.got - 2010.06.03 11:33:40.
