data_PCOD9078867
_publ_section_title
;
Structure prediction by ZEFSAII (Michael W. Deem and Ramdas Pophale) SiO2 
 PCOD9078867
Probable space group: P -1
;
_chemical_formula_sum "Si O2"
_cell_formula_units_Z 16
_cell_length_a 11.289541
_cell_length_b 6.922047
_cell_length_c 12.533374
_cell_angle_alpha 130.219048
_cell_angle_beta 86.470581
_cell_angle_gamma 104.663937
_cell_volume 716.606444
_symmetry_space_group_name_H-M "P -1"
_symmetry_group_IT_number 2
_symmetry_cell_setting 'triclinic'
loop_
_space_group_symop_operation_xyz
x,y,z
-x,-y,-z
loop_
_atom_site_type_symbol
_atom_site_label
_atom_site_fract_x
_atom_site_fract_y
_atom_site_fract_z
Si Si1 0.396948 0.248025 0.301323
Si Si2 0.132891 0.324040 0.354826
Si Si3 0.238768 0.317264 0.733001
Si Si4 0.689098 0.098292 0.013085
Si Si5 0.935251 0.536712 0.357846
Si Si6 0.034474 0.788522 0.053299
Si Si7 0.580427 0.823306 0.483519
Si Si8 0.802063 0.920901 0.115155
O O1 0.275169 0.352042 0.336889
O O2 0.508655 0.511014 0.379432
O O3 0.392309 0.114568 0.370524
O O4 0.389286 0.040134 0.132428
O O5 0.105752 0.364324 0.493676
O O6 0.074398 0.518247 0.358086
O O7 0.062260 0.025390 0.220781
O O8 0.108163 0.318145 0.686175
O O9 0.302915 0.159216 0.592979
O O10 0.224657 0.209750 0.814830
O O11 0.322165 0.621223 0.848245
O O12 0.835005 0.166755 0.996181
O O13 0.683955 0.895010 0.037564
O O14 0.855908 0.232469 0.243395
O O15 0.908522 0.814167 0.014610
O O16 0.000000 0.500000 0.000000
O O17 0.500000 0.000000 0.500000
#
# Coordination Sequence:
#
# PCOD9078867 Si02
#       8
#     2   2   2   2   2   2   2   2
#     4  10  23  46  66  90 127 169 211 270 318 364
#     4   9  18  37  64  92 129 161 208 253 316 377
#     4  11  22  40  65  96 129 166 213 264 315 373
#     4  10  22  40  67  90 126 168 214 257 312 386
#     4   9  19  37  61  94 128 161 203 254 315 379
#     4  10  18  36  59  92 132 169 202 247 312 380
#     4  11  26  44  68  91 123 168 219 272 321 371
#     4  10  21  35  62  91 132 170 202 255 313 375
#
# _framework density 22.327456999999999
#
# number of rings (size 3 to 8) (size 9 to 14) (size 15 to 20)
#    0.000    2.000    2.500    0.375    1.750    3.500 
#    0.000    8.125    0.000    0.000    0.000    0.000 
#    0.000    0.000    0.000    0.000    0.000    0.000 
#
# Total GULP energy -89356.224175 kJ/mol
# GULP energy per Si atom -5584.764011 kJ/mol
# Density = 2.227664 g / cm^3
# Si number density = 22.327457 Si / 1000 Ang^3
#
#
#
# Elastic Constant Matrix: (Units=GPa)
#
#
# Indices 1 2 3 4 5 6 
#
# 1 46.4932 22.5695 6.1581 -11.9945 -2.6491 -10.0451
# 2 22.5695 97.1540 18.2253 -30.1806 -3.6998 -17.7452
# 3 6.1581 18.2253 108.9806 -17.8391 -0.4597 -16.5039
# 4 -11.9945 -30.1806 -17.8391 34.3238 -10.1812 5.0847
# 5 -2.6491 -3.6998 -0.4597 -10.1812 25.5860 0.3944
# 6 -10.0451 -17.7452 -16.5039 5.0847 0.3944 26.7537
#
#
#
# Elastic Compliance Matrix: (Units=1/GPa)
#
#
# Indices 1 2 3 4 5 6 
#
# 1 0.026613 -0.002069 0.001493 0.008851 0.005885 0.007772
# 2 -0.002069 0.017638 0.001224 0.016834 0.008928 0.008346
# 3 0.001493 0.001224 0.011137 0.007378 0.003363 0.006791
# 4 0.008851 0.016834 0.007378 0.057505 0.026246 0.007724
# 5 0.005885 0.008928 0.003363 0.026246 0.051420 0.004460
# 6 0.007772 0.008346 0.006791 0.007724 0.004460 0.048487
#
#
# Mechanical properties :
#
#
# Convention : Reuss Voigt Hill
#
# Bulk Modulus (GPa) = 17.64177 38.50372 28.07274
# Shear Modulus (GPa) = 21.70148 31.04437 26.37292
#
# Velocity S-wave (km/s) = 3.12102 3.73287 3.44057
# Velocity P-wave (km/s) = 4.57233 5.98845 5.32765
#
# Compressibility (1/GPa) = 0.05668366
#
# Stress axis : x y z
#
# Youngs Moduli (GPa) = 37.57547 56.69634 89.78941
#
# Poissons Ratio (x) = 0.11733 -0.13404
# Poissons Ratio (y) = 0.07776 -0.10994
# Poissons Ratio (z) = -0.05609 -0.06942
#
# Static dielectric constant tensor:
#      x y z
#    x 1.899110 -0.014800 0.020260 
#    y -0.014800 1.825870 -0.035380 
#    z 0.020260 -0.035380 1.839160 
# 
# From -- ./inp_files/108885.got.cif
#   From: 2010.05.17/outbox.cif.g08.bks.cpg/sg2_55_cif.got.tgz:108885.got - 2010.06.03 11:33:40.
