data_PCOD9078034
_publ_section_title
;
Structure prediction by ZEFSAII (Michael W. Deem and Ramdas Pophale) SiO2 
 PCOD9078034
Probable space group: P -1
;
_chemical_formula_sum "Si O2"
_cell_formula_units_Z 16
_cell_length_a 9.399519
_cell_length_b 13.471505
_cell_length_c 9.866839
_cell_angle_alpha 70.900470
_cell_angle_beta 75.730809
_cell_angle_gamma 36.545710
_cell_volume 702.716777
_symmetry_space_group_name_H-M "P -1"
_symmetry_group_IT_number 2
_symmetry_cell_setting 'triclinic'
loop_
_space_group_symop_operation_xyz
x,y,z
-x,-y,-z
loop_
_atom_site_type_symbol
_atom_site_label
_atom_site_fract_x
_atom_site_fract_y
_atom_site_fract_z
Si Si1 0.918445 0.569285 0.778330
Si Si2 0.492107 0.686757 0.746882
Si Si3 0.735717 0.117673 0.560448
Si Si4 0.920031 0.797123 0.623275
Si Si5 0.628448 0.709223 0.050791
Si Si6 0.363084 0.538518 0.817339
Si Si7 0.204546 0.732573 0.334553
Si Si8 0.169142 0.992574 0.899250
O O1 0.768364 0.557851 0.760453
O O2 0.859422 0.710024 0.650112
O O3 0.200072 0.387106 0.814507
O O4 0.798147 0.656453 0.915109
O O5 0.432476 0.740343 0.579421
O O6 0.416500 0.614767 0.849329
O O7 0.327748 0.859666 0.795133
O O8 0.923637 0.250257 0.518121
O O9 0.732246 0.182424 0.673656
O O10 0.000000 0.000000 0.500000
O O11 0.093907 0.694978 0.758101
O O12 0.726148 0.996623 0.612601
O O13 0.589120 0.606184 0.078474
O O14 0.371052 0.908929 0.000118
O O15 0.541570 0.453210 0.686695
O O16 0.023799 0.824015 0.209409
O O17 0.000000 0.000000 0.000000
#
# Coordination Sequence:
#
# PCOD9078034 Si02
#       8
#     2   2   2   2   2   2   2   2
#     4   9  21  37  59  86 121 161 198 236 292 368
#     4  11  21  37  61  92 119 154 203 243 298 357
#     4  10  18  35  57  89 120 144 196 253 297 342
#     4  10  19  36  60  86 115 159 194 242 304 347
#     4   9  20  39  58  84 119 160 200 235 294 355
#     4  11  20  35  64  90 116 155 201 253 291 344
#     4  11  20  35  60  93 120 146 199 259 297 336
#     4  11  20  36  58  88 118 154 192 253 295 338
#
# _framework density 22.768775000000002
#
# number of rings (size 3 to 8) (size 9 to 14) (size 15 to 20)
#    0.000    1.750    6.250    0.375    0.000    2.500 
#    0.000    1.875    0.000    1.500    0.000    0.000 
#    0.000    0.000    0.000    0.000    0.000    0.000 
#
# Total GULP energy -89168.588395 kJ/mol
# GULP energy per Si atom -5573.036775 kJ/mol
# Density = 2.271695 g / cm^3
# Si number density = 22.768775 Si / 1000 Ang^3
#
#
#
# Elastic Constant Matrix: (Units=GPa)
#
#
# Indices 1 2 3 4 5 6 
#
# 1 73.6405 8.4256 14.8123 -19.1688 0.4899 -23.1746
# 2 8.4256 54.2863 7.4983 -15.1675 9.7462 -9.8012
# 3 14.8123 7.4983 67.6949 -23.5807 -8.0319 -2.8468
# 4 -19.1688 -15.1675 -23.5807 32.3728 -8.4125 5.6991
# 5 0.4899 9.7462 -8.0319 -8.4125 37.5385 -12.4841
# 6 -23.1746 -9.8012 -2.8468 5.6991 -12.4841 29.8759
#
#
#
# Elastic Compliance Matrix: (Units=1/GPa)
#
#
# Indices 1 2 3 4 5 6 
#
# 1 0.023068 0.002255 0.001928 0.015090 0.009533 0.019922
# 2 0.002255 0.022426 0.001124 0.011258 -0.000858 0.006707
# 3 0.001928 0.001124 0.022688 0.020134 0.010582 0.004608
# 4 0.015090 0.011258 0.020134 0.062491 0.019729 0.013640
# 5 0.009533 -0.000858 0.010582 0.019729 0.040501 0.021282
# 6 0.019922 0.006707 0.004608 0.013640 0.021282 0.057856
#
#
# Mechanical properties :
#
#
# Convention : Reuss Voigt Hill
#
# Bulk Modulus (GPa) = 12.69090 28.56601 20.62846
# Shear Modulus (GPa) = 20.43484 30.94981 25.69233
#
# Velocity S-wave (km/s) = 2.99907 3.69088 3.36281
# Velocity P-wave (km/s) = 4.19267 5.54408 4.91504
#
# Compressibility (1/GPa) = 0.07879659
#
# Stress axis : x y z
#
# Youngs Moduli (GPa) = 43.35080 44.59119 44.07563
#
# Poissons Ratio (x) = -0.10055 -0.08498
# Poissons Ratio (y) = -0.09775 -0.04956
# Poissons Ratio (z) = -0.08359 -0.05014
#
# Static dielectric constant tensor:
#      x y z
#    x 1.929090 0.038730 0.044820 
#    y 0.038730 1.906810 -0.036430 
#    z 0.044820 -0.036430 1.912370 
# 
# From -- ./inp_files/395743.got.cif
#   From: 2010.05.17/outbox.cif.g08.bks.cpg/sg2_198_cif.got.tgz:395743.got - 2010.06.03 11:33:40.
