data_PCOD9078226
_publ_section_title
;
Structure prediction by ZEFSAII (Michael W. Deem and Ramdas Pophale) SiO2 
 PCOD9078226
Probable space group: P -1
;
_chemical_formula_sum "Si O2"
_cell_formula_units_Z 16
_cell_length_a 16.466360
_cell_length_b 5.385773
_cell_length_c 8.118696
_cell_angle_alpha 105.468816
_cell_angle_beta 76.255367
_cell_angle_gamma 102.413882
_cell_volume 665.150127
_symmetry_space_group_name_H-M "P -1"
_symmetry_group_IT_number 2
_symmetry_cell_setting 'triclinic'
loop_
_space_group_symop_operation_xyz
x,y,z
-x,-y,-z
loop_
_atom_site_type_symbol
_atom_site_label
_atom_site_fract_x
_atom_site_fract_y
_atom_site_fract_z
Si Si1 0.805280 0.208693 0.612518
Si Si2 0.720916 0.776472 0.975236
Si Si3 0.987890 0.287858 0.615352
Si Si4 0.169097 0.372753 0.617554
Si Si5 0.550460 0.223190 0.229459
Si Si6 0.404204 0.200601 0.650879
Si Si7 0.633667 0.899140 0.724170
Si Si8 0.255555 0.668117 0.937417
O O1 0.888768 0.260533 0.696470
O O2 0.811608 0.447904 0.523222
O O3 0.815548 0.925498 0.471088
O O4 0.710012 0.139502 0.715110
O O5 0.665602 0.788639 0.170427
O O6 0.771365 0.546399 0.948945
O O7 0.777057 0.058698 0.988361
O O8 0.664696 0.734478 0.830144
O O9 0.000000 0.500000 0.500000
O O10 0.069425 0.368531 0.706805
O O11 0.000000 0.000000 0.500000
O O12 0.227624 0.525385 0.755509
O O13 0.535317 0.522309 0.303307
O O14 0.461878 0.062355 0.182174
O O15 0.640709 0.245339 0.096477
O O16 0.565858 0.072261 0.364552
O O17 0.374248 0.206328 0.478432
#
# Coordination Sequence:
#
# PCOD9078226 Si02
#       8
#     2   2   2   2   2   2   2   2
#     4  10  20  32  54  87 114 143 187 226 273 339
#     4  10  24  38  56  82 111 148 191 230 272 330
#     4   8  16  30  51  82 111 139 182 225 269 330
#     4  10  18  35  60  81 111 150 181 229 282 319
#     4  10  22  37  58  83 111 148 189 229 274 331
#     4  10  22  40  56  80 111 146 195 230 268 332
#     4  12  24  38  60  82 116 152 180 232 286 318
#     4  10  20  38  55  79 111 144 193 231 268 333
#
# _framework density 24.054721000000001
#
# number of rings (size 3 to 8) (size 9 to 14) (size 15 to 20)
#    0.000    2.000    0.000    4.500    0.000    8.000 
#    0.000    0.000    0.000    1.500    0.000    0.000 
#    0.000    0.000    0.000    0.000    0.000    0.000 
#
# Total GULP energy -89191.255906 kJ/mol
# GULP energy per Si atom -5574.453494 kJ/mol
# Density = 2.399997 g / cm^3
# Si number density = 24.054721 Si / 1000 Ang^3
#
#
#
# Elastic Constant Matrix: (Units=GPa)
#
#
# Indices 1 2 3 4 5 6 
#
# 1 135.4217 21.0931 42.7307 2.6285 1.4416 27.1050
# 2 21.0931 153.3924 24.7760 -5.6538 -5.1841 -12.2064
# 3 42.7307 24.7760 101.1539 -18.5799 1.8517 -0.2444
# 4 2.6285 -5.6538 -18.5799 33.0494 0.7740 4.4379
# 5 1.4416 -5.1841 1.8517 0.7740 26.4580 -5.2987
# 6 27.1050 -12.2064 -0.2444 4.4379 -5.2987 43.6765
#
#
#
# Elastic Compliance Matrix: (Units=1/GPa)
#
#
# Indices 1 2 3 4 5 6 
#
# 1 0.010492 -0.001414 -0.004560 -0.002673 -0.001830 -0.006883
# 2 -0.001414 0.007234 -0.001166 0.000222 0.002198 0.003137
# 3 -0.004560 -0.001166 0.013502 0.007542 -0.000802 0.001716
# 4 -0.002673 0.000222 0.007542 0.035060 -0.001768 -0.002014
# 5 -0.001830 0.002198 -0.000802 -0.001768 0.039786 0.006752
# 6 -0.006883 0.003137 0.001716 -0.002014 0.006752 0.029077
#
#
# Mechanical properties :
#
#
# Convention : Reuss Voigt Hill
#
# Bulk Modulus (GPa) = 59.00676 63.01861 61.01268
# Shear Modulus (GPa) = 32.24089 40.72799 36.48444
#
# Velocity S-wave (km/s) = 3.66500 4.11924 3.89874
# Velocity P-wave (km/s) = 6.51868 6.99136 6.75915
#
# Compressibility (1/GPa) = 0.01694721
#
# Stress axis : x y z
#
# Youngs Moduli (GPa) = 95.30669 138.23237 74.06259
#
# Poissons Ratio (x) = 0.19551 0.33773
# Poissons Ratio (y) = 0.13480 0.08639
# Poissons Ratio (z) = 0.43460 0.16123
#
# Static dielectric constant tensor:
#      x y z
#    x 1.972210 -0.037750 -0.053720 
#    y -0.037750 1.984990 0.036710 
#    z -0.053720 0.036710 2.017320 
# 
# From -- ./inp_files/321863.got.cif
#   From: 2010.05.17/outbox.cif.g08.bks.cpg/sg2_161_cif.got.tgz:321863.got - 2010.06.03 11:33:40.
