data_PCOD9078716
_publ_section_title
;
Structure prediction by ZEFSAII (Michael W. Deem and Ramdas Pophale) SiO2 
 PCOD9078716
Probable space group: P -1
;
_chemical_formula_sum "Si O2"
_cell_formula_units_Z 16
_cell_length_a 17.041209
_cell_length_b 11.999998
_cell_length_c 26.082148
_cell_angle_alpha 31.215907
_cell_angle_beta 19.474512
_cell_angle_gamma 32.747521
_cell_volume 902.712669
_symmetry_space_group_name_H-M "P -1"
_symmetry_group_IT_number 2
_symmetry_cell_setting 'triclinic'
loop_
_space_group_symop_operation_xyz
x,y,z
-x,-y,-z
loop_
_atom_site_type_symbol
_atom_site_label
_atom_site_fract_x
_atom_site_fract_y
_atom_site_fract_z
Si Si1 0.860192 0.440592 0.547346
Si Si2 0.785902 0.183761 0.034665
Si Si3 0.125254 0.412935 0.241387
Si Si4 0.360092 0.260733 0.348286
Si Si5 0.570153 0.026152 0.124569
Si Si6 0.442680 0.109122 0.547840
Si Si7 0.925249 0.255536 0.774680
Si Si8 0.378578 0.602217 0.395034
O O1 0.693128 0.527600 0.664202
O O2 0.719962 0.369013 0.613948
O O3 0.098793 0.266154 0.482644
O O4 0.966200 0.652153 0.378488
O O5 0.567739 0.255018 0.181101
O O6 0.679342 0.084156 0.088911
O O7 0.869431 0.406034 0.877035
O O8 0.000000 0.000000 0.000000
O O9 0.315926 0.188441 0.206618
O O10 0.202871 0.529258 0.199592
O O11 0.859021 0.372597 0.432802
O O12 0.443133 0.051262 0.415312
O O13 0.534021 0.779182 0.242793
O O14 0.751568 0.086754 0.946013
O O15 0.508722 0.347359 0.417720
O O16 0.153056 0.154958 0.709425
O O17 0.500000 0.000000 0.500000
#
# Coordination Sequence:
#
# PCOD9078716 Si02
#       8
#     2   2   2   2   2   2   2   2
#     4   9  19  33  57  84 102 138 187 229 266 317
#     4  11  21  35  56  84 111 144 185 222 270 326
#     4   9  18  34  54  78 108 148 183 214 261 324
#     4  11  18  32  59  82 105 136 188 228 263 319
#     4  11  20  34  57  81 112 146 178 227 267 318
#     4  10  18  36  57  76 103 144 182 218 265 327
#     4   9  17  33  54  80 104 138 192 213 257 324
#     4  10  20  36  55  82 109 142 187 222 269 322
#
# _framework density 17.724356
#
# number of rings (size 3 to 8) (size 9 to 14) (size 15 to 20)
#    0.000    2.250    2.500    6.375    0.000    0.000 
#    0.000    4.375    0.000    8.250    0.000    0.000 
#    0.000    0.000    0.000    0.000    0.000    0.000 
#
# Total GULP energy -89146.218576 kJ/mol
# GULP energy per Si atom -5571.638661 kJ/mol
# Density = 1.768401 g / cm^3
# Si number density = 17.724356 Si / 1000 Ang^3
#
#
#
# Elastic Constant Matrix: (Units=GPa)
#
#
# Indices 1 2 3 4 5 6 
#
# 1 60.6130 15.2112 15.0724 2.7072 10.2627 -10.2273
# 2 15.2112 81.6005 27.9150 0.9315 -1.6208 -7.0843
# 3 15.0724 27.9150 79.0883 -10.8622 1.2421 22.4341
# 4 2.7072 0.9315 -10.8622 31.6771 6.6705 0.1028
# 5 10.2627 -1.6208 1.2421 6.6705 19.8331 2.6798
# 6 -10.2273 -7.0843 22.4341 0.1028 2.6798 30.6835
#
#
#
# Elastic Compliance Matrix: (Units=1/GPa)
#
#
# Indices 1 2 3 4 5 6 
#
# 1 0.023731 -0.000229 -0.008985 -0.002409 -0.013030 0.015573
# 2 -0.000229 0.016469 -0.009307 -0.004118 0.002032 0.010367
# 3 -0.008985 -0.009307 0.025776 0.009461 0.002366 -0.024228
# 4 -0.002409 -0.004118 0.009461 0.037534 -0.011250 -0.007814
# 5 -0.013030 0.002032 0.002366 -0.011250 0.062454 -0.011021
# 6 0.015573 0.010367 -0.024228 -0.007814 -0.011021 0.058878
#
#
# Mechanical properties :
#
#
# Convention : Reuss Voigt Hill
#
# Bulk Modulus (GPa) = 34.56294 37.52211 36.04253
# Shear Modulus (GPa) = 18.41411 27.31231 22.86321
#
# Velocity S-wave (km/s) = 3.22672 3.92975 3.59546
# Velocity P-wave (km/s) = 5.78142 6.46578 6.13316
#
# Compressibility (1/GPa) = 0.02893272
#
# Stress axis : x y z
#
# Youngs Moduli (GPa) = 42.13847 60.72020 38.79517
#
# Poissons Ratio (x) = 0.01392 0.34858
# Poissons Ratio (y) = 0.00966 0.36108
# Poissons Ratio (z) = 0.37862 0.56515
#
# Static dielectric constant tensor:
#      x y z
#    x 1.622820 -0.006630 0.030850 
#    y -0.006630 1.658260 0.048730 
#    z 0.030850 0.048730 1.642400 
# 
# From -- ./inp_files/464679.got.cif
#   From: 2010.05.17/outbox.cif.g08.bks.cpg/sg2_233_cif.got.tgz:464679.got - 2010.06.03 11:33:40.
