data_PCOD9078249
_publ_section_title
;
Structure prediction by ZEFSAII (Michael W. Deem and Ramdas Pophale) SiO2 
 PCOD9078249
Probable space group: P -1
;
_chemical_formula_sum "Si O2"
_cell_formula_units_Z 15
_cell_length_a 15.570957
_cell_length_b 13.161489
_cell_length_c 6.636530
_cell_angle_alpha 41.336485
_cell_angle_beta 52.465657
_cell_angle_gamma 38.532978
_cell_volume 558.816465
_symmetry_space_group_name_H-M "P -1"
_symmetry_group_IT_number 2
_symmetry_cell_setting 'triclinic'
loop_
_space_group_symop_operation_xyz
x,y,z
-x,-y,-z
loop_
_atom_site_type_symbol
_atom_site_label
_atom_site_fract_x
_atom_site_fract_y
_atom_site_fract_z
Si Si1 0.791343 0.119823 0.731899
Si Si2 0.464401 0.830691 0.594216
Si Si3 0.000000 0.000000 0.000000
Si Si4 0.170240 0.426274 0.045400
Si Si5 0.920887 0.242726 0.044480
Si Si6 0.348126 0.491798 0.449949
Si Si7 0.181531 0.084208 0.386910
Si Si8 0.479089 0.154672 0.068945
O O1 0.678980 0.311978 0.730894
O O2 0.778380 0.987441 0.796017
O O3 0.847683 0.202494 0.375783
O O4 0.921584 0.961371 0.927521
O O5 0.579129 0.602467 0.724834
O O6 0.318458 0.934289 0.543970
O O7 0.444922 0.869447 0.800800
O O8 0.524562 0.942700 0.258850
O O9 0.131455 0.758076 0.096998
O O10 0.935914 0.926856 0.358182
O O11 0.316469 0.272083 0.181659
O O12 0.131275 0.299737 0.190551
O O13 0.220469 0.495743 0.692985
O O14 0.076277 0.595256 0.093861
O O15 0.466718 0.305525 0.705531
#
# Coordination Sequence:
#
# PCOD9078249 Si02
#       8
#     2   2   1   2   2   2   2   2
#     4   9  19  36  55  81 118 149 200 237 296 350
#     4  10  18  35  60  85 124 154 197 236 302 348
#     4  10  22  38  56  78 120 154 196 248 308 324
#     4   8  18  35  59  86 117 150 202 238 293 352
#     4   9  18  37  58  77 113 159 192 250 289 349
#     4   9  18  35  59  86 120 160 184 243 296 350
#     4  10  21  37  55  84 117 156 195 250 285 360
#     4   8  18  33  55  91 121 150 195 244 279 361
#
# _framework density 26.842442999999999
#
# number of rings (size 3 to 8) (size 9 to 14) (size 15 to 20)
#    0.800    2.133    0.000    0.400    0.000    2.667 
#    2.400    2.000    0.000    0.000    0.000    0.000 
#    0.000    1.067    0.000    0.000    0.000    0.000 
#
# Total GULP energy -83601.422695 kJ/mol
# GULP energy per Si atom -5573.428180 kJ/mol
# Density = 2.678135 g / cm^3
# Si number density = 26.842443 Si / 1000 Ang^3
#
#
#
# Elastic Constant Matrix: (Units=GPa)
#
#
# Indices 1 2 3 4 5 6 
#
# 1 96.3453 39.7956 21.4632 -17.0047 -17.3932 23.9551
# 2 39.7956 231.4846 36.3942 -32.5029 -16.8543 37.2492
# 3 21.4632 36.3942 77.4211 -13.9177 -21.9047 16.2550
# 4 -17.0047 -32.5029 -13.9177 48.2887 12.9855 -0.6686
# 5 -17.3932 -16.8543 -21.9047 12.9855 35.3471 -12.5123
# 6 23.9551 37.2492 16.2550 -0.6686 -12.5123 49.7502
#
#
#
# Elastic Compliance Matrix: (Units=1/GPa)
#
#
# Indices 1 2 3 4 5 6 
#
# 1 0.013096 -0.000708 -0.000992 0.003060 0.002692 -0.004733
# 2 -0.000708 0.005645 -0.001378 0.003384 -0.001047 -0.003653
# 3 -0.000992 -0.001378 0.016770 0.001360 0.008067 -0.001923
# 4 0.003060 0.003384 0.001360 0.026504 -0.007930 -0.006090
# 5 0.002692 -0.001047 0.008067 -0.007930 0.039383 0.006650
# 6 -0.004733 -0.003653 -0.001923 -0.006090 0.006650 0.027334
#
#
# Mechanical properties :
#
#
# Convention : Reuss Voigt Hill
#
# Bulk Modulus (GPa) = 34.06757 66.72855 50.39806
# Shear Modulus (GPa) = 34.56071 47.18376 40.87223
#
# Velocity S-wave (km/s) = 3.59212 4.19717 3.90638
# Velocity P-wave (km/s) = 5.47026 6.95712 6.25801
#
# Compressibility (1/GPa) = 0.02935343
#
# Stress axis : x y z
#
# Youngs Moduli (GPa) = 76.36106 177.14296 59.63096
#
# Poissons Ratio (x) = 0.12544 0.05917
# Poissons Ratio (y) = 0.05407 0.08219
# Poissons Ratio (z) = 0.07577 0.24415
#
# Static dielectric constant tensor:
#      x y z
#    x 3.125900 0.309470 -0.015540 
#    y 0.309470 2.277690 -0.066170 
#    z -0.015540 -0.066170 2.180590 
# 
# From -- ./inp_files/329869.got.cif
#   From: 2010.05.17/outbox.cif.g08.bks.cpg/sg2_165_cif.got.tgz:329869.got - 2010.06.03 11:33:40.
