data_PCOD9078102
_publ_section_title
;
Structure prediction by ZEFSAII (Michael W. Deem and Ramdas Pophale) SiO2 
 PCOD9078102
Probable space group: P -1
;
_chemical_formula_sum "Si O2"
_cell_formula_units_Z 16
_cell_length_a 12.189886
_cell_length_b 21.525501
_cell_length_c 7.941498
_cell_angle_alpha 63.765504
_cell_angle_beta 43.314503
_cell_angle_gamma 29.614057
_cell_volume 584.286623
_symmetry_space_group_name_H-M "P -1"
_symmetry_group_IT_number 2
_symmetry_cell_setting 'triclinic'
loop_
_space_group_symop_operation_xyz
x,y,z
-x,-y,-z
loop_
_atom_site_type_symbol
_atom_site_label
_atom_site_fract_x
_atom_site_fract_y
_atom_site_fract_z
Si Si1 0.852720 0.414585 0.013640
Si Si2 0.286521 0.944829 0.175845
Si Si3 0.822745 0.341339 0.665770
Si Si4 0.789789 0.596613 0.292560
Si Si5 0.882855 0.904509 0.503233
Si Si6 0.485021 0.894548 0.654075
Si Si7 0.591699 0.718237 0.895228
Si Si8 0.559204 0.394585 0.413522
O O1 0.890768 0.317539 0.115826
O O2 0.600652 0.535429 0.306094
O O3 0.579341 0.532629 0.021086
O O4 0.192953 0.329909 0.764919
O O5 0.589552 0.772950 0.990897
O O6 0.298299 0.997284 0.244449
O O7 0.267644 0.988282 0.959437
O O8 0.000000 0.000000 0.500000
O O9 0.036454 0.207789 0.463985
O O10 0.109489 0.238767 0.614032
O O11 0.717339 0.456024 0.571292
O O12 0.444996 0.683080 0.547543
O O13 0.050517 0.460847 0.298664
O O14 0.000000 0.500000 0.000000
O O15 0.264579 0.794116 0.197324
O O16 0.683715 0.004779 0.437070
O O17 0.503622 0.803606 0.738404
#
# Coordination Sequence:
#
# PCOD9078102 Si02
#       8
#     2   2   2   2   2   2   2   2
#     4   8  15  25  41  66  97 127 154 205 254 285
#     4   8  19  32  48  68  97 129 167 205 238 288
#     4  10  17  28  44  66 102 127 163 208 238 292
#     4  10  15  25  48  71  96 124 162 204 249 296
#     4  11  19  31  49  70  98 134 164 195 246 288
#     4  10  20  31  47  69  99 130 165 201 239 291
#     4   9  16  32  45  68 100 122 160 205 237 285
#     4   8  14  26  40  65 100 122 156 209 246 287
#
# _framework density 27.38382
#
# number of rings (size 3 to 8) (size 9 to 14) (size 15 to 20)
#    1.500    1.250    2.500    0.750    0.000    0.500 
#    0.000    0.000    0.000    0.000    0.000    0.875 
#    7.500   10.750    0.000    0.000    0.000    0.000 
#
# Total GULP energy -89199.252697 kJ/mol
# GULP energy per Si atom -5574.953294 kJ/mol
# Density = 2.732149 g / cm^3
# Si number density = 27.383820 Si / 1000 Ang^3
#
#
#
# Elastic Constant Matrix: (Units=GPa)
#
#
# Indices 1 2 3 4 5 6 
#
# 1 33.1517 24.6280 141.0031 13.6726 -22.6624 -9.1353
# 2 24.6280 79.4135 27.3485 -14.3974 19.4458 -23.4051
# 3 141.0031 27.3485 72.6070 -12.1228 18.7942 9.8824
# 4 13.6726 -14.3974 -12.1228 24.2941 -1.7152 5.4713
# 5 -22.6624 19.4458 18.7942 -1.7152 74.4191 -15.5610
# 6 -9.1353 -23.4051 9.8824 5.4713 -15.5610 32.6611
#
#
#
# Elastic Compliance Matrix: (Units=1/GPa)
#
#
# Indices 1 2 3 4 5 6 
#
# 1 -0.001838 -0.002001 0.006605 0.004301 -0.002867 -0.006033
# 2 -0.002001 0.020110 -0.003406 0.008390 -0.002213 0.012422
# 3 0.006605 -0.003406 0.000217 -0.005812 0.003086 0.001784
# 4 0.004301 0.008390 -0.005812 0.040230 0.002199 0.003282
# 5 -0.002867 -0.002213 0.003086 0.002199 0.012930 0.002471
# 6 -0.006033 0.012422 0.001784 0.003282 0.002471 0.037919
#
#
# Mechanical properties :
#
#
# Convention : Reuss Voigt Hill
#
# Bulk Modulus (GPa) = 47.88267 63.45907 55.67087
# Shear Modulus (GPa) = 43.80787 25.75436 34.78112
#
# Velocity S-wave (km/s) = 4.00405 3.07008 3.56776
# Velocity P-wave (km/s) = 6.23701 5.98259 6.11113
#
# Compressibility (1/GPa) = 0.02088438
#
# Stress axis : x y z
#
# Youngs Moduli (GPa) = -544.00578 49.72652 4604.55308
#
# Poissons Ratio (x) = 0.09949 -30.41263
# Poissons Ratio (y) = -1.08840 15.68531
# Poissons Ratio (z) = 3.59311 0.16939
#
# Static dielectric constant tensor:
#      x y z
#    x 2.236330 -0.039040 -0.056790 
#    y -0.039040 2.121390 -0.124410 
#    z -0.056790 -0.124410 2.268790 
# 
# From -- ./inp_files/284191.got.cif
#   From: 2010.05.17/outbox.cif.g08.bks.cpg/sg2_143_cif.got.tgz:284191.got - 2010.06.03 11:33:40.
