data_PCOD9078750
_publ_section_title
;
Structure prediction by ZEFSAII (Michael W. Deem and Ramdas Pophale) SiO2 
 PCOD9078750
Probable space group: P -1
;
_chemical_formula_sum "Si O2"
_cell_formula_units_Z 14
_cell_length_a 12.025148
_cell_length_b 9.207428
_cell_length_c 9.636998
_cell_angle_alpha 74.509893
_cell_angle_beta 145.273717
_cell_angle_gamma 89.819945
_cell_volume 535.415899
_symmetry_space_group_name_H-M "P -1"
_symmetry_group_IT_number 2
_symmetry_cell_setting 'triclinic'
loop_
_space_group_symop_operation_xyz
x,y,z
-x,-y,-z
loop_
_atom_site_type_symbol
_atom_site_label
_atom_site_fract_x
_atom_site_fract_y
_atom_site_fract_z
Si Si1 0.437032 0.697306 0.237096
Si Si2 0.501299 0.752887 0.901153
Si Si3 0.012689 0.033051 0.246556
Si Si4 0.235674 0.599176 0.830881
Si Si5 0.497835 0.226933 0.424936
Si Si6 0.244590 0.187603 0.629849
Si Si7 0.142332 0.132353 0.067743
O O1 0.468626 0.670788 0.439806
O O2 0.630917 0.734409 0.362967
O O3 0.214660 0.858641 0.945126
O O4 0.389356 0.562506 0.134017
O O5 0.315563 0.720470 0.797875
O O6 0.441433 0.791869 0.669578
O O7 0.694125 0.568574 0.138790
O O8 0.611595 0.854594 0.072587
O O9 0.190579 0.050004 0.525797
O O10 0.028090 0.126541 0.095662
O O11 0.994340 0.870103 0.205950
O O12 0.991133 0.681805 0.602602
O O13 0.247593 0.261323 0.152660
O O14 0.653810 0.043412 0.687609
#
# Coordination Sequence:
#
# PCOD9078750 Si02
#       7
#     2   2   2   2   2   2   2
#     4   9  18  33  60  80 107 139 181 222 266 318
#     4  10  21  37  56  81 111 139 180 222 266 323
#     4   9  17  33  58  78 102 146 181 211 270 316
#     4   9  20  38  58  77 107 149 177 214 271 321
#     4  10  19  35  57  84 109 139 178 227 268 310
#     4  10  18  36  58  78 107 147 176 219 269 323
#     4   9  18  34  57  80 109 142 177 223 270 311
#
# _framework density 26.147897
#
# number of rings (size 3 to 8) (size 9 to 14) (size 15 to 20)
#    0.000    2.571    1.429    0.429    0.000    0.571 
#    7.714    2.143    0.000    0.000    0.000    0.000 
#    0.000    0.000    0.000    0.000    0.000    0.000 
#
# Total GULP energy -78198.283469 kJ/mol
# GULP energy per Si atom -5585.591676 kJ/mol
# Density = 2.608838 g / cm^3
# Si number density = 26.147897 Si / 1000 Ang^3
#
#
#
# Elastic Constant Matrix: (Units=GPa)
#
#
# Indices 1 2 3 4 5 6 
#
# 1 119.1579 16.7909 67.1439 20.7926 13.5749 -16.1015
# 2 16.7909 89.3905 52.5844 49.4184 -6.9893 -17.6704
# 3 67.1439 52.5844 205.0099 61.4081 -4.4978 -1.0187
# 4 20.7926 49.4184 61.4081 50.2441 -6.7421 -9.1525
# 5 13.5749 -6.9893 -4.4978 -6.7421 59.2468 8.9497
# 6 -16.1015 -17.6704 -1.0187 -9.1525 8.9497 25.8530
#
#
#
# Elastic Compliance Matrix: (Units=1/GPa)
#
#
# Indices 1 2 3 4 5 6 
#
# 1 0.012808 0.002528 -0.004678 -0.000718 -0.004720 0.010900
# 2 0.002528 0.027213 -0.000032 -0.025918 -0.002092 0.011722
# 3 -0.004678 -0.000032 0.009695 -0.010937 0.001614 -0.006984
# 4 -0.000718 -0.025918 -0.010937 0.059725 0.002836 0.001569
# 5 -0.004720 -0.002092 0.001614 0.002836 0.019687 -0.010116
# 6 0.010900 0.011722 -0.006984 0.001569 -0.010116 0.057263
#
#
# Mechanical properties :
#
#
# Convention : Reuss Voigt Hill
#
# Bulk Modulus (GPa) = 22.04963 76.28851 49.16907
# Shear Modulus (GPa) = 24.28704 45.53805 34.91255
#
# Velocity S-wave (km/s) = 3.05098 4.17772 3.65800
# Velocity P-wave (km/s) = 4.56753 7.24640 6.05692
#
# Compressibility (1/GPa) = 0.04535224
#
# Stress axis : x y z
#
# Youngs Moduli (GPa) = 78.07905 36.74721 103.14767
#
# Poissons Ratio (x) = -0.09291 0.48248
# Poissons Ratio (y) = -0.19742 0.00335
# Poissons Ratio (z) = 0.36522 0.00119
#
# Static dielectric constant tensor:
#      x y z
#    x 2.052550 -0.007750 0.000170 
#    y -0.007750 2.122390 -0.025190 
#    z 0.000170 -0.025190 2.137640 
# 
# From -- ./inp_files/253283.got.cif
#   From: 2010.05.17/outbox.cif.g08.bks.cpg/sg2_127_cif.got.tgz:253283.got - 2010.06.03 11:33:40.
