data_PCOD9078736
_publ_section_title
;
Structure prediction by ZEFSAII (Michael W. Deem and Ramdas Pophale) SiO2 
 PCOD9078736
Probable space group: P -1
;
_chemical_formula_sum "Si O2"
_cell_formula_units_Z 16
_cell_length_a 17.651807
_cell_length_b 8.137849
_cell_length_c 12.469126
_cell_angle_alpha 110.302046
_cell_angle_beta 24.237063
_cell_angle_gamma 96.802898
_cell_volume 591.507378
_symmetry_space_group_name_H-M "P -1"
_symmetry_group_IT_number 2
_symmetry_cell_setting 'triclinic'
loop_
_space_group_symop_operation_xyz
x,y,z
-x,-y,-z
loop_
_atom_site_type_symbol
_atom_site_label
_atom_site_fract_x
_atom_site_fract_y
_atom_site_fract_z
Si Si1 0.937192 0.223117 0.765375
Si Si2 0.235768 0.596011 0.185440
Si Si3 0.873870 0.323789 0.203329
Si Si4 0.227686 0.209328 0.059929
Si Si5 0.717336 0.119788 0.211325
Si Si6 0.380086 0.035329 0.034018
Si Si7 0.603510 0.644511 0.789520
Si Si8 0.245166 0.383710 0.779175
O O1 0.785813 0.286099 0.871197
O O2 0.168778 0.080402 0.382495
O O3 0.875236 0.123979 0.917407
O O4 0.912338 0.428661 0.894623
O O5 0.299128 0.373740 0.010806
O O6 0.010405 0.685744 0.558443
O O7 0.395447 0.624615 0.059160
O O8 0.801419 0.166245 0.222687
O O9 0.776306 0.430511 0.466973
O O10 0.757868 0.495680 0.297671
O O11 0.121286 0.267507 0.875462
O O12 0.367859 0.027490 0.921359
O O13 0.250697 0.104003 0.893071
O O14 0.475403 0.278488 0.518352
O O15 0.373497 0.249507 0.110740
O O16 0.565583 0.826065 0.796179
#
# Coordination Sequence:
#
# PCOD9078736 Si02
#       8
#     2   2   2   2   2   2   2   2
#     4  10  18  36  57  86 110 149 187 236 283 338
#     4  10  21  37  62  78 113 151 190 233 291 339
#     4  10  20  34  56  87 119 149 187 234 288 342
#     4  10  22  40  54  86 110 151 191 234 284 344
#     4  11  21  36  61  84 118 152 188 235 288 336
#     4  10  21  34  60  84 119 140 190 242 280 340
#     4  11  20  36  57  90 110 150 186 237 291 334
#     4  10  19  33  55  86 119 150 185 235 286 337
#
# _framework density 27.049537000000001
#
# number of rings (size 3 to 8) (size 9 to 14) (size 15 to 20)
#    0.000    1.750    1.250    5.250    0.000    2.500 
#    2.250    2.500    0.000    1.500    0.000    0.000 
#    0.000    0.000    0.000    0.000    0.000    0.000 
#
# Total GULP energy -89565.751769 kJ/mol
# GULP energy per Si atom -5597.859486 kJ/mol
# Density = 2.698797 g / cm^3
# Si number density = 27.049537 Si / 1000 Ang^3
#
#
#
# Elastic Constant Matrix: (Units=GPa)
#
#
# Indices 1 2 3 4 5 6 
#
# 1 111.5452 37.6301 21.4796 3.9688 -4.2374 27.4789
# 2 37.6301 124.6357 16.3061 7.0217 1.8052 43.8669
# 3 21.4796 16.3061 63.9885 -3.8901 -1.9657 13.6418
# 4 3.9688 7.0217 -3.8901 40.2010 10.3113 6.6767
# 5 -4.2374 1.8052 -1.9657 10.3113 38.5697 6.9079
# 6 27.4789 43.8669 13.6418 6.6767 6.9079 58.3194
#
#
#
# Elastic Compliance Matrix: (Units=1/GPa)
#
#
# Indices 1 2 3 4 5 6 
#
# 1 0.010993 -0.001772 -0.002513 -0.000977 0.002031 -0.003387
# 2 -0.001772 0.011336 -0.000715 -0.000832 0.000808 -0.007525
# 3 -0.002513 -0.000715 0.017383 0.002374 0.000487 -0.002673
# 4 -0.000977 -0.000832 0.002374 0.027428 -0.006960 -0.001785
# 5 0.002031 0.000808 0.000487 -0.006960 0.028766 -0.004289
# 6 -0.003387 -0.007525 -0.002673 -0.001785 -0.004289 0.025741
#
#
# Mechanical properties :
#
#
# Convention : Reuss Voigt Hill
#
# Bulk Modulus (GPa) = 33.65904 50.11123 41.88514
# Shear Modulus (GPa) = 35.32264 42.40160 38.86212
#
# Velocity S-wave (km/s) = 3.61757 3.96353 3.79450
# Velocity P-wave (km/s) = 5.46988 6.28586 5.89201
#
# Compressibility (1/GPa) = 0.02970970
#
# Stress axis : x y z
#
# Youngs Moduli (GPa) = 90.96478 88.21780 57.52741
#
# Poissons Ratio (x) = 0.15636 0.14459
# Poissons Ratio (y) = 0.16123 0.04115
# Poissons Ratio (z) = 0.22863 0.06310
#
# Static dielectric constant tensor:
#      x y z
#    x 2.122910 0.017390 -0.030530 
#    y 0.017390 2.172900 0.023740 
#    z -0.030530 0.023740 2.079230 
# 
# From -- ./inp_files/327629.got.cif
#   From: 2010.05.17/outbox.cif.g08.bks.cpg/sg2_164_cif.got.tgz:327629.got - 2010.06.03 11:33:40.
