data_PCOD9078608
_publ_section_title
;
Structure prediction by ZEFSAII (Michael W. Deem and Ramdas Pophale) SiO2 
 PCOD9078608
Probable space group: P -1
;
_chemical_formula_sum "Si O2"
_cell_formula_units_Z 14
_cell_length_a 15.099503
_cell_length_b 8.370776
_cell_length_c 14.722467
_cell_angle_alpha 39.893624
_cell_angle_beta 37.650377
_cell_angle_gamma 44.041079
_cell_volume 698.942332
_symmetry_space_group_name_H-M "P -1"
_symmetry_group_IT_number 2
_symmetry_cell_setting 'triclinic'
loop_
_space_group_symop_operation_xyz
x,y,z
-x,-y,-z
loop_
_atom_site_type_symbol
_atom_site_label
_atom_site_fract_x
_atom_site_fract_y
_atom_site_fract_z
Si Si1 0.255630 0.312999 0.570377
Si Si2 0.770692 0.239085 0.196594
Si Si3 0.935402 0.552231 0.822540
Si Si4 0.478174 0.571660 0.380661
Si Si5 0.986183 0.089578 0.259546
Si Si6 0.759790 0.895538 0.660559
Si Si7 0.830219 0.464520 0.653069
O O1 0.253270 0.354647 0.276274
O O2 0.369439 0.416826 0.492637
O O3 0.291035 0.003325 0.672345
O O4 0.247729 0.425744 0.425823
O O5 0.637275 0.471690 0.244485
O O6 0.894775 0.141147 0.217762
O O7 0.846853 0.342462 0.005927
O O8 0.973200 0.665100 0.838126
O O9 0.836065 0.790577 0.739629
O O10 0.088313 0.425354 0.699071
O O11 0.500000 0.500000 0.500000
O O12 0.393617 0.875791 0.306175
O O13 0.133770 0.844441 0.234586
O O14 0.875203 0.013478 0.457413
O O15 0.000000 0.500000 0.500000
#
# Coordination Sequence:
#
# PCOD9078608 Si02
#       7
#     2   2   2   2   2   2   2
#     4  12  21  40  65  91 119 163 205 250 296 361
#     4  12  25  39  57  95 130 158 193 255 310 357
#     4  12  23  37  64  95 122 154 202 262 307 339
#     4  12  24  41  64  87 122 166 209 239 294 376
#     4  11  19  39  63  89 120 158 208 249 293 358
#     4  11  20  39  64  87 119 158 211 242 294 358
#     4  10  18  35  67  94 112 149 216 258 280 345
#
# _framework density 20.030263999999999
#
# number of rings (size 3 to 8) (size 9 to 14) (size 15 to 20)
#    0.000    0.571    8.571    2.571    0.000    0.571 
#    0.000    0.000    0.000    2.571    0.000    0.000 
#    0.000    0.000    0.000    0.000    0.000    0.000 
#
# Total GULP energy -78277.939390 kJ/mol
# GULP energy per Si atom -5591.281385 kJ/mol
# Density = 1.998467 g / cm^3
# Si number density = 20.030264 Si / 1000 Ang^3
#
#
#
# Elastic Constant Matrix: (Units=GPa)
#
#
# Indices 1 2 3 4 5 6 
#
# 1 85.4988 1.6237 9.8799 1.0028 13.1710 6.3587
# 2 1.6237 119.3143 -3.2864 1.4138 -7.0382 3.9430
# 3 9.8799 -3.2864 37.6394 -4.3922 6.5994 -13.0985
# 4 1.0028 1.4138 -4.3922 15.0823 -4.9659 6.5460
# 5 13.1710 -7.0382 6.5994 -4.9659 12.2179 -0.9781
# 6 6.3587 3.9430 -13.0985 6.5460 -0.9781 30.1043
#
#
#
# Elastic Compliance Matrix: (Units=1/GPa)
#
#
# Indices 1 2 3 4 5 6 
#
# 1 0.015211 -0.001178 -0.002832 -0.006240 -0.018365 -0.003531
# 2 -0.001178 0.008837 -0.000415 0.002114 0.007339 -0.001311
# 3 -0.002832 -0.000415 0.035357 -0.001503 -0.015625 0.015856
# 4 -0.006240 0.002114 -0.001503 0.087761 0.043042 -0.017297
# 5 -0.018365 0.007339 -0.015625 0.043042 0.131088 -0.008981
# 6 -0.003531 -0.001311 0.015856 -0.017297 -0.008981 0.044504
#
#
# Mechanical properties :
#
#
# Convention : Reuss Voigt Hill
#
# Bulk Modulus (GPa) = 19.78095 28.76519 24.27307
# Shear Modulus (GPa) = 14.34887 27.09659 20.72273
#
# Velocity S-wave (km/s) = 2.67939 3.68201 3.21996
# Velocity P-wave (km/s) = 4.41239 5.69810 5.09595
#
# Compressibility (1/GPa) = 0.05055369
#
# Stress axis : x y z
#
# Youngs Moduli (GPa) = 65.74368 113.16074 28.28282
#
# Poissons Ratio (x) = 0.13327 0.08011
# Poissons Ratio (y) = 0.07743 0.01175
# Poissons Ratio (z) = 0.18621 0.04701
#
# Static dielectric constant tensor:
#      x y z
#    x 1.690300 0.022070 -0.009830 
#    y 0.022070 1.759380 -0.033990 
#    z -0.009830 -0.033990 1.724630 
# 
# From -- ./inp_files/418815.got.cif
#   From: 2010.05.17/outbox.cif.g08.bks.cpg/sg2_210_cif.got.tgz:418815.got - 2010.06.03 11:33:40.
