data_PCOD9078885
_publ_section_title
;
Structure prediction by ZEFSAII (Michael W. Deem and Ramdas Pophale) SiO2 
 PCOD9078885
Probable space group: P -1
;
_chemical_formula_sum "Si O2"
_cell_formula_units_Z 10
_cell_length_a 8.691255
_cell_length_b 15.243925
_cell_length_c 9.897233
_cell_angle_alpha 24.484813
_cell_angle_beta 135.548436
_cell_angle_gamma 139.473519
_cell_volume 351.949590
_symmetry_space_group_name_H-M "P -1"
_symmetry_group_IT_number 2
_symmetry_cell_setting 'triclinic'
loop_
_space_group_symop_operation_xyz
x,y,z
-x,-y,-z
loop_
_atom_site_type_symbol
_atom_site_label
_atom_site_fract_x
_atom_site_fract_y
_atom_site_fract_z
Si Si1 0.337503 0.808859 0.269021
Si Si2 0.236359 0.832916 0.471587
Si Si3 0.883916 0.893859 0.788807
Si Si4 0.095314 0.340908 0.127076
Si Si5 0.725737 0.510609 0.542751
O O1 0.375306 0.857176 0.384192
O O2 0.342786 0.576813 0.531337
O O3 0.500000 0.000000 0.000000
O O4 0.071302 0.798348 0.099214
O O5 0.286302 0.053845 0.284923
O O6 0.952620 0.746067 0.374464
O O7 0.231912 0.608097 0.864940
O O8 0.043154 0.150517 0.473879
O O9 0.788795 0.739987 0.812465
O O10 0.839895 0.337382 0.920842
O O11 0.500000 0.500000 0.500000
#
# Coordination Sequence:
#
# PCOD9078885 Si02
#       5
#     2   2   2   2   2
#     4  11  22  36  55  85 114 146 192 231 268 326
#     4  10  20  36  60  83 110 151 185 222 282 331
#     4  10  18  36  60  83 112 144 183 231 281 327
#     4   8  20  34  60  85 111 145 181 228 281 334
#     4   9  19  35  58  81 111 143 185 226 276 329
#
# _framework density 28.413159
#
# number of rings (size 3 to 8) (size 9 to 14) (size 15 to 20)
#    1.200    1.200    0.000    3.000    0.000    0.000 
#    0.000    1.000    0.000    4.800    0.000    0.000 
#    0.000    0.000    0.000    0.000    0.000    0.000 
#
# Total GULP energy -55988.136271 kJ/mol
# GULP energy per Si atom -5598.813627 kJ/mol
# Density = 2.834849 g / cm^3
# Si number density = 28.413159 Si / 1000 Ang^3
#
#
#
# Elastic Constant Matrix: (Units=GPa)
#
#
# Indices 1 2 3 4 5 6 
#
# 1 206.1941 66.5539 41.3104 -5.1760 32.7836 -36.1661
# 2 66.5539 125.7473 15.5719 -25.5419 2.4529 -37.3534
# 3 41.3104 15.5719 53.0490 -12.5065 16.7712 -11.4287
# 4 -5.1760 -25.5419 -12.5065 45.4671 -5.0640 -3.8686
# 5 32.7836 2.4529 16.7712 -5.0640 51.0889 -10.8713
# 6 -36.1661 -37.3534 -11.4287 -3.8686 -10.8713 75.9546
#
#
#
# Elastic Compliance Matrix: (Units=1/GPa)
#
#
# Indices 1 2 3 4 5 6 
#
# 1 0.007463 -0.003806 -0.004178 -0.002783 -0.003421 0.000422
# 2 -0.003806 0.013101 0.001173 0.008119 0.003449 0.005714
# 3 -0.004178 0.001173 0.025249 0.006799 -0.004547 0.002082
# 4 -0.002783 0.008119 0.006799 0.028947 0.003231 0.005628
# 5 -0.003421 0.003449 -0.004547 0.003231 0.024052 0.002990
# 6 0.000422 0.005714 0.002082 0.005628 0.002990 0.017205
#
#
# Mechanical properties :
#
#
# Convention : Reuss Voigt Hill
#
# Bulk Modulus (GPa) = 31.06499 70.20700 50.63600
# Shear Modulus (GPa) = 35.62003 51.93907 43.77955
#
# Velocity S-wave (km/s) = 3.54453 4.28014 3.92959
# Velocity P-wave (km/s) = 5.26390 7.01350 6.20071
#
# Compressibility (1/GPa) = 0.03219058
#
# Stress axis : x y z
#
# Youngs Moduli (GPa) = 133.98658 76.33050 39.60579
#
# Poissons Ratio (x) = 0.29051 0.16549
# Poissons Ratio (y) = 0.50994 -0.04646
# Poissons Ratio (z) = 0.55985 -0.08953
#
# Static dielectric constant tensor:
#      x y z
#    x 2.162070 -0.008980 -0.013530 
#    y -0.008980 2.225990 0.050970 
#    z -0.013530 0.050970 2.222470 
# 
# From -- ./inp_files/24277.got.cif
#   From: 2010.05.17/outbox.cif.g08.bks.cpg/sg2_13_cif.got.tgz:24277.got - 2010.06.03 11:33:40.
