data_PCOD9078557
_publ_section_title
;
Structure prediction by ZEFSAII (Michael W. Deem and Ramdas Pophale) SiO2 
 PCOD9078557
Probable space group: P -1
;
_chemical_formula_sum "Si O2"
_cell_formula_units_Z 16
_cell_length_a 12.205542
_cell_length_b 11.619798
_cell_length_c 11.222901
_cell_angle_alpha 57.499513
_cell_angle_beta 47.445061
_cell_angle_gamma 37.783466
_cell_volume 718.347039
_symmetry_space_group_name_H-M "P -1"
_symmetry_group_IT_number 2
_symmetry_cell_setting 'triclinic'
loop_
_space_group_symop_operation_xyz
x,y,z
-x,-y,-z
loop_
_atom_site_type_symbol
_atom_site_label
_atom_site_fract_x
_atom_site_fract_y
_atom_site_fract_z
Si Si1 0.324183 0.320052 0.289776
Si Si2 0.694882 0.258817 0.114986
Si Si3 0.824336 0.876179 0.836781
Si Si4 0.452311 0.173980 0.807310
Si Si5 0.108987 0.479888 0.734508
Si Si6 0.062834 0.936432 0.192676
Si Si7 0.989553 0.687612 0.457970
Si Si8 0.709170 0.563237 0.000101
O O1 0.503673 0.277899 0.253101
O O2 0.128262 0.542624 0.329197
O O3 0.372218 0.293914 0.129123
O O4 0.239937 0.224957 0.438793
O O5 0.768004 0.203965 0.954326
O O6 0.662526 0.436855 0.073474
O O7 0.868639 0.097864 0.165597
O O8 0.017670 0.659772 0.783089
O O9 0.692303 0.993488 0.749117
O O10 0.880454 0.975282 0.812391
O O11 0.673671 0.878492 0.025950
O O12 0.338328 0.293714 0.705037
O O13 0.397783 0.322662 0.864013
O O14 0.080336 0.556196 0.580988
O O15 0.950174 0.454108 0.888455
O O16 0.014784 0.831871 0.360800
#
# Coordination Sequence:
#
# PCOD9078557 Si02
#       8
#     2   2   2   2   2   2   2   2
#     4  10  21  39  61  88 117 162 202 241 305 372
#     4  11  22  36  64  94 116 155 207 253 307 358
#     4  10  21  38  59  92 123 154 204 258 298 348
#     4  10  20  36  64  93 115 159 207 249 302 358
#     4  10  21  40  60  85 126 166 197 244 303 367
#     4  11  23  39  59  92 127 152 197 265 304 352
#     4  10  23  41  58  84 128 162 196 245 307 367
#     4  10  18  35  65  89 116 152 203 259 296 353
#
# _framework density 22.273354999999999
#
# number of rings (size 3 to 8) (size 9 to 14) (size 15 to 20)
#    0.000    1.750    1.250    4.125    1.750    2.000 
#    2.250    0.625    0.000    0.000    0.000    0.000 
#    0.000    0.000    0.000    0.000    0.000    0.000 
#
# Total GULP energy -89428.114923 kJ/mol
# GULP energy per Si atom -5589.257183 kJ/mol
# Density = 2.222266 g / cm^3
# Si number density = 22.273355 Si / 1000 Ang^3
#
#
#
# Elastic Constant Matrix: (Units=GPa)
#
#
# Indices 1 2 3 4 5 6 
#
# 1 153.1693 52.0312 41.9150 -17.0195 -32.2002 16.6431
# 2 52.0312 67.4028 22.2805 -13.6442 -11.0363 -5.5361
# 3 41.9150 22.2805 59.5242 -12.4625 -10.1098 -3.7404
# 4 -17.0195 -13.6442 -12.4625 18.6018 0.9003 3.0298
# 5 -32.2002 -11.0363 -10.1098 0.9003 30.1594 0.0019
# 6 16.6431 -5.5361 -3.7404 3.0298 0.0019 37.7583
#
#
#
# Elastic Compliance Matrix: (Units=1/GPa)
#
#
# Indices 1 2 3 4 5 6 
#
# 1 0.013874 -0.007033 -0.004788 0.005129 0.010482 -0.008033
# 2 -0.007033 0.022960 -0.001487 0.008485 0.000141 0.005638
# 3 -0.004788 -0.001487 0.023236 0.009447 0.001851 0.003436
# 4 0.005129 0.008485 0.009447 0.071486 0.009614 -0.005817
# 5 0.010482 0.000141 0.001851 0.009614 0.044734 -0.005190
# 6 -0.008033 0.005638 0.003436 -0.005817 -0.005190 0.031659
#
#
# Mechanical properties :
#
#
# Convention : Reuss Voigt Hill
#
# Bulk Modulus (GPa) = 29.89104 56.94994 43.42049
# Shear Modulus (GPa) = 20.34857 28.22856 24.28857
#
# Velocity S-wave (km/s) = 3.02583 3.56387 3.30582
# Velocity P-wave (km/s) = 5.06525 6.52373 5.84020
#
# Compressibility (1/GPa) = 0.03345484
#
# Stress axis : x y z
#
# Youngs Moduli (GPa) = 72.07541 43.55307 43.03620
#
# Poissons Ratio (x) = 0.30630 0.20606
# Poissons Ratio (y) = 0.50689 0.06401
# Poissons Ratio (z) = 0.34510 0.06478
#
# Static dielectric constant tensor:
#      x y z
#    x 1.839720 -0.012880 0.015990 
#    y -0.012880 1.854190 0.031900 
#    z 0.015990 0.031900 1.833930 
# 
# From -- ./inp_files/425439.got.cif
#   From: 2010.05.17/outbox.cif.g08.bks.cpg/sg2_213_cif.got.tgz:425439.got - 2010.06.03 11:33:40.
