data_PCOD9078000
_publ_section_title
;
Structure prediction by ZEFSAII (Michael W. Deem and Ramdas Pophale) SiO2 
 PCOD9078000
Probable space group: P -1
;
_chemical_formula_sum "Si O2"
_cell_formula_units_Z 16
_cell_length_a 23.800525
_cell_length_b 18.911480
_cell_length_c 12.520729
_cell_angle_alpha 162.100965
_cell_angle_beta 143.539479
_cell_angle_gamma 27.989194
_cell_volume 787.092167
_symmetry_space_group_name_H-M "P -1"
_symmetry_group_IT_number 2
_symmetry_cell_setting 'triclinic'
loop_
_space_group_symop_operation_xyz
x,y,z
-x,-y,-z
loop_
_atom_site_type_symbol
_atom_site_label
_atom_site_fract_x
_atom_site_fract_y
_atom_site_fract_z
Si Si1 0.692761 0.269919 0.763170
Si Si2 0.884827 0.837242 0.086109
Si Si3 0.619560 0.391335 0.458842
Si Si4 0.952425 0.152685 0.807240
Si Si5 0.974922 0.727070 0.381457
Si Si6 0.677840 0.641979 0.082038
Si Si7 0.471766 0.275010 0.414012
Si Si8 0.552006 0.675096 0.316745
O O1 0.600103 0.202091 0.528693
O O2 0.831164 0.960423 0.527914
O O3 0.666986 0.450489 0.874611
O O4 0.659217 0.488632 0.125080
O O5 0.944238 0.846128 0.082351
O O6 0.737687 0.044973 0.157980
O O7 0.919865 0.987569 0.440539
O O8 0.945671 0.502433 0.731667
O O9 0.500000 0.500000 0.500000
O O10 0.596926 0.459075 0.396036
O O11 0.660757 0.566859 0.828960
O O12 0.997791 0.946379 0.685189
O O13 0.820637 0.492100 0.101608
O O14 0.000000 0.500000 0.000000
O O15 0.563893 0.993607 0.426508
O O16 0.409498 0.317369 0.493418
O O17 0.500000 0.000000 0.000000
O O18 0.500000 0.500000 0.000000
#
# Coordination Sequence:
#
# PCOD9078000 Si02
#       8
#     2   2   2   2   2   2   2   2
#     4  10  21  36  58  85 120 150 191 245 295 345
#     4   9  18  31  51  78 113 148 181 244 290 332
#     4  11  21  36  55  84 119 153 194 232 296 355
#     4   8  17  30  50  82 110 141 192 240 286 339
#     4   9  18  32  54  85 111 145 189 245 293 333
#     4  10  18  35  57  83 116 152 190 239 294 347
#     4  11  22  35  55  84 118 155 191 236 287 355
#     4  10  22  35  53  87 116 151 193 241 296 344
#
# _framework density 20.327988000000001
#
# number of rings (size 3 to 8) (size 9 to 14) (size 15 to 20)
#    0.000    2.250    2.500    1.125    3.500    2.000 
#    0.000    0.000    0.000    0.750    0.000    7.000 
#    0.000    0.000    0.000    0.000    0.000    0.000 
#
# Total GULP energy -89165.596440 kJ/mol
# GULP energy per Si atom -5572.849778 kJ/mol
# Density = 2.028172 g / cm^3
# Si number density = 20.327988 Si / 1000 Ang^3
#
#
#
# Elastic Constant Matrix: (Units=GPa)
#
#
# Indices 1 2 3 4 5 6 
#
# 1 106.7611 60.1927 27.3250 21.8891 -13.1437 -0.6351
# 2 60.1927 96.6227 49.4845 46.8989 -1.7508 4.3364
# 3 27.3250 49.4845 72.3157 34.6863 -19.7106 -1.6780
# 4 21.8891 46.8989 34.6863 44.6680 2.5996 -6.5943
# 5 -13.1437 -1.7508 -19.7106 2.5996 31.2485 1.8052
# 6 -0.6351 4.3364 -1.6780 -6.5943 1.8052 24.8506
#
#
#
# Elastic Compliance Matrix: (Units=1/GPa)
#
#
# Indices 1 2 3 4 5 6 
#
# 1 0.016631 -0.014230 0.003953 0.003775 0.008170 0.003583
# 2 -0.014230 0.037716 -0.009960 -0.026566 -0.007127 -0.014150
# 3 0.003953 -0.009960 0.036933 -0.022213 0.026450 -0.003483
# 4 0.003775 -0.026566 -0.022213 0.070369 -0.021120 0.023440
# 5 0.008170 -0.007127 0.026450 -0.021120 0.053842 -0.006277
# 6 0.003583 -0.014150 -0.003483 0.023440 -0.006277 0.049242
#
#
# Mechanical properties :
#
#
# Convention : Reuss Voigt Hill
#
# Bulk Modulus (GPa) = 19.68304 61.07821 40.38062
# Shear Modulus (GPa) = 15.52099 29.39989 22.46044
#
# Velocity S-wave (km/s) = 2.76620 3.80712 3.32761
# Velocity P-wave (km/s) = 4.46164 7.03115 5.88827
#
# Compressibility (1/GPa) = 0.05080517
#
# Stress axis : x y z
#
# Youngs Moduli (GPa) = 60.12733 26.51382 27.07598
#
# Poissons Ratio (x) = 0.37730 -0.10702
# Poissons Ratio (y) = 0.85563 0.26968
# Poissons Ratio (z) = -0.23766 0.26408
#
# Static dielectric constant tensor:
#      x y z
#    x 1.813640 0.064770 -0.014000 
#    y 0.064770 1.776040 0.017990 
#    z -0.014000 0.017990 1.753130 
# 
# From -- ./inp_files/261718.got.cif
#   From: 2010.05.17/outbox.cif.g08.bks.cpg/sg2_131_cif.got.tgz:261718.got - 2010.06.03 11:33:40.
