data_PCOD9078578
_publ_section_title
;
Structure prediction by ZEFSAII (Michael W. Deem and Ramdas Pophale) SiO2 
 PCOD9078578
Probable space group: P -1
;
_chemical_formula_sum "Si O2"
_cell_formula_units_Z 15
_cell_length_a 11.110784
_cell_length_b 11.983321
_cell_length_c 9.085175
_cell_angle_alpha 112.920417
_cell_angle_beta 37.738240
_cell_angle_gamma 124.843162
_cell_volume 602.930014
_symmetry_space_group_name_H-M "P -1"
_symmetry_group_IT_number 2
_symmetry_cell_setting 'triclinic'
loop_
_space_group_symop_operation_xyz
x,y,z
-x,-y,-z
loop_
_atom_site_type_symbol
_atom_site_label
_atom_site_fract_x
_atom_site_fract_y
_atom_site_fract_z
Si Si1 0.788946 0.964035 0.856303
Si Si2 0.981899 0.263442 0.684636
Si Si3 0.935180 0.193690 0.387852
Si Si4 0.550824 0.309870 0.486560
Si Si5 0.346599 0.446377 0.976622
Si Si6 0.000000 0.500000 0.000000
Si Si7 0.550682 0.708061 0.766973
Si Si8 0.255119 0.019299 0.764965
O O1 0.956052 0.901123 0.703496
O O2 0.613576 0.851688 0.857398
O O3 0.695619 0.981174 0.111112
O O4 0.905555 0.112706 0.748296
O O5 0.863239 0.242547 0.629953
O O6 0.240191 0.320084 0.422134
O O7 0.963382 0.359904 0.875304
O O8 0.118392 0.324735 0.192230
O O9 0.763598 0.102031 0.383660
O O10 0.446891 0.386921 0.725310
O O11 0.813896 0.403334 0.258858
O O12 0.469577 0.290840 0.386622
O O13 0.431277 0.160308 0.595737
O O14 0.342542 0.575587 0.967664
O O15 0.500000 0.500000 0.000000
O O16 0.000000 0.000000 0.000000
#
# Coordination Sequence:
#
# PCOD9078578 Si02
#       8
#     2   2   2   2   2   1   2   2
#     4  10  19  35  62  95 123 149 209 272 317 354
#     4  11  22  39  62  90 128 165 207 256 314 378
#     4  10  19  35  63 100 122 155 206 273 316 351
#     4  12  23  41  62  93 130 165 214 254 318 376
#     4  12  19  35  62  97 127 155 204 273 315 350
#     4  12  28  42  58  88 136 180 198 244 326 394
#     4  11  21  36  65  98 116 160 218 270 302 358
#     4  10  18  35  65  96 125 154 203 274 316 355
#
# _framework density 24.878509000000001
#
# number of rings (size 3 to 8) (size 9 to 14) (size 15 to 20)
#    0.000    1.067    6.667    4.400    0.000    0.000 
#    0.000    3.333    0.000   11.200    0.000    0.000 
#    0.000    0.000    0.000    0.000    0.000    0.000 
#
# Total GULP energy -83677.328572 kJ/mol
# GULP energy per Si atom -5578.488571 kJ/mol
# Density = 2.482188 g / cm^3
# Si number density = 24.878509 Si / 1000 Ang^3
#
#
#
# Elastic Constant Matrix: (Units=GPa)
#
#
# Indices 1 2 3 4 5 6 
#
# 1 58.0420 39.6900 51.4882 8.3856 21.4265 6.1799
# 2 39.6900 234.9189 88.2055 -10.4826 28.5240 8.4971
# 3 51.4882 88.2055 160.0219 -9.3131 29.8183 -9.4661
# 4 8.3856 -10.4826 -9.3131 60.4279 -3.7039 23.4179
# 5 21.4265 28.5240 29.8183 -3.7039 55.4896 9.4946
# 6 6.1799 8.4971 -9.4661 23.4179 9.4946 20.7632
#
#
#
# Elastic Compliance Matrix: (Units=1/GPa)
#
#
# Indices 1 2 3 4 5 6 
#
# 1 0.028068 -0.001114 -0.007895 -0.003830 -0.005479 -0.004672
# 2 -0.001114 0.006156 -0.003501 0.004229 0.000969 -0.008997
# 3 -0.007895 -0.003501 0.012361 -0.004313 -0.004910 0.016527
# 4 -0.003830 0.004229 -0.004313 0.037669 0.012849 -0.050918
# 5 -0.005479 0.000969 -0.004910 0.012849 0.027975 -0.028289
# 6 -0.004672 -0.008997 0.016527 -0.050918 -0.028289 0.131134
#
#
# Mechanical properties :
#
#
# Convention : Reuss Voigt Hill
#
# Bulk Modulus (GPa) = 46.37523 90.19445 68.28484
# Shear Modulus (GPa) = 18.14400 45.57608 31.86004
#
# Velocity S-wave (km/s) = 2.70349 4.28477 3.58246
# Velocity P-wave (km/s) = 5.33163 7.79818 6.67974
#
# Compressibility (1/GPa) = 0.02156324
#
# Stress axis : x y z
#
# Youngs Moduli (GPa) = 35.62780 162.43753 80.89928
#
# Poissons Ratio (x) = 0.18102 0.63871
# Poissons Ratio (y) = 0.03970 0.28326
# Poissons Ratio (z) = 0.28129 0.56876
#
# Static dielectric constant tensor:
#      x y z
#    x 2.053910 0.056730 -0.041990 
#    y 0.056730 1.970070 0.025050 
#    z -0.041990 0.025050 1.993600 
# 
# From -- ./inp_files/313789.got.cif
#   From: 2010.05.17/outbox.cif.g08.bks.cpg/sg2_157_cif.got.tgz:313789.got - 2010.06.03 11:33:40.
