data_PCOD9078437
_publ_section_title
;
Structure prediction by ZEFSAII (Michael W. Deem and Ramdas Pophale) SiO2 
 PCOD9078437
Probable space group: P -1
;
_chemical_formula_sum "Si O2"
_cell_formula_units_Z 12
_cell_length_a 14.858947
_cell_length_b 9.493267
_cell_length_c 8.012018
_cell_angle_alpha 123.696849
_cell_angle_beta 147.171326
_cell_angle_gamma 47.602859
_cell_volume 452.276437
_symmetry_space_group_name_H-M "P -1"
_symmetry_group_IT_number 2
_symmetry_cell_setting 'triclinic'
loop_
_space_group_symop_operation_xyz
x,y,z
-x,-y,-z
loop_
_atom_site_type_symbol
_atom_site_label
_atom_site_fract_x
_atom_site_fract_y
_atom_site_fract_z
Si Si1 0.064448 0.839322 0.637353
Si Si2 0.727685 0.675653 0.894848
Si Si3 0.621660 0.278705 0.479381
Si Si4 0.281445 0.054788 0.194309
Si Si5 0.330769 0.558743 0.651918
Si Si6 0.990692 0.265234 0.169055
O O1 0.156868 0.639734 0.555620
O O2 0.956257 0.815483 0.613614
O O3 0.236999 0.875998 0.003413
O O4 0.000000 0.000000 0.500000
O O5 0.525477 0.794099 0.746338
O O6 0.692278 0.579627 0.608021
O O7 0.500000 0.000000 0.500000
O O8 0.787970 0.823171 0.004949
O O9 0.500000 0.500000 0.500000
O O10 0.652470 0.283271 0.334689
O O11 0.829994 0.205098 0.824097
O O12 0.128219 0.503526 0.887487
O O13 0.159161 0.180809 0.243169
O O14 0.500000 0.500000 0.000000
#
# Coordination Sequence:
#
# PCOD9078437 Si02
#       6
#     2   2   2   2   2   2
#     4  12  25  42  65  95 127 165 213 270 322 369
#     4  10  21  41  68  95 123 170 221 258 306 385
#     4   8  16  34  63  90 115 162 214 247 296 381
#     4  12  25  42  65  97 131 166 209 267 324 375
#     4  10  18  35  62  93 123 162 209 256 305 376
#     4  10  21  42  65  86 124 179 217 244 309 408
#
# _framework density 26.532446
#
# number of rings (size 3 to 8) (size 9 to 14) (size 15 to 20)
#    0.000    2.000    0.000    8.000    0.000    1.333 
#    0.000    8.333    0.000    0.000    0.000    0.000 
#    0.000    0.000    0.000    0.000    0.000    0.000 
#
# Total GULP energy -67010.919252 kJ/mol
# GULP energy per Si atom -5584.243271 kJ/mol
# Density = 2.647206 g / cm^3
# Si number density = 26.532446 Si / 1000 Ang^3
#
#
#
# Elastic Constant Matrix: (Units=GPa)
#
#
# Indices 1 2 3 4 5 6 
#
# 1 227.4545 42.1212 34.5124 -20.2853 12.1101 29.6836
# 2 42.1212 75.1800 17.8645 -6.4006 1.0760 22.6850
# 3 34.5124 17.8645 88.2611 -26.9039 13.5536 13.6165
# 4 -20.2853 -6.4006 -26.9039 52.3877 12.6483 2.3344
# 5 12.1101 1.0760 13.5536 12.6483 57.9201 -14.4860
# 6 29.6836 22.6850 13.6165 2.3344 -14.4860 53.6518
#
#
#
# Elastic Compliance Matrix: (Units=1/GPa)
#
#
# Indices 1 2 3 4 5 6 
#
# 1 0.005511 -0.001909 -0.000192 0.002501 -0.002353 -0.002937
# 2 -0.001909 0.016620 -0.000988 0.001433 -0.001542 -0.006199
# 3 -0.000192 -0.000988 0.017092 0.010776 -0.007899 -0.006416
# 4 0.002501 0.001433 0.010776 0.028996 -0.011690 -0.009142
# 5 -0.002353 -0.001542 -0.007899 -0.011690 0.024992 0.011215
# 6 -0.002937 -0.006199 -0.006416 -0.009142 0.011215 0.027939
#
#
# Mechanical properties :
#
#
# Convention : Reuss Voigt Hill
#
# Bulk Modulus (GPa) = 30.26040 64.43242 47.34641
# Shear Modulus (GPa) = 36.14225 52.55174 44.34699
#
# Velocity S-wave (km/s) = 3.69479 4.45529 4.09274
# Velocity P-wave (km/s) = 5.44351 7.12764 6.34173
#
# Compressibility (1/GPa) = 0.03304649
#
# Stress axis : x y z
#
# Youngs Moduli (GPa) = 181.46476 60.16742 58.50524
#
# Poissons Ratio (x) = 0.11487 0.01121
# Poissons Ratio (y) = 0.34644 0.05779
# Poissons Ratio (z) = 0.03478 0.05943
#
# Static dielectric constant tensor:
#      x y z
#    x 2.070400 0.050080 0.049970 
#    y 0.050080 2.215910 -0.023030 
#    z 0.049970 -0.023030 2.290940 
# 
# From -- ./inp_files/293118.got.cif
#   From: 2010.05.17/outbox.cif.g08.bks.cpg/sg2_147_cif.got.tgz:293118.got - 2010.06.03 11:33:40.
