data_PCOD9078051
_publ_section_title
;
Structure prediction by ZEFSAII (Michael W. Deem and Ramdas Pophale) SiO2 
 PCOD9078051
Probable space group: P -1
;
_chemical_formula_sum "Si O2"
_cell_formula_units_Z 16
_cell_length_a 14.159532
_cell_length_b 7.477452
_cell_length_c 9.412794
_cell_angle_alpha 81.852393
_cell_angle_beta 142.632026
_cell_angle_gamma 92.665092
_cell_volume 595.124063
_symmetry_space_group_name_H-M "P -1"
_symmetry_group_IT_number 2
_symmetry_cell_setting 'triclinic'
loop_
_space_group_symop_operation_xyz
x,y,z
-x,-y,-z
loop_
_atom_site_type_symbol
_atom_site_label
_atom_site_fract_x
_atom_site_fract_y
_atom_site_fract_z
Si Si1 0.982250 0.170906 0.321141
Si Si2 0.172669 0.576830 0.127008
Si Si3 0.258171 0.057301 0.066886
Si Si4 0.685247 0.159195 0.563063
Si Si5 0.540948 0.925847 0.211320
Si Si6 0.847571 0.394993 0.363795
Si Si7 0.628975 0.570097 0.850171
Si Si8 0.780519 0.625770 0.520689
O O1 0.904957 0.200275 0.380866
O O2 0.160699 0.209864 0.524396
O O3 0.930718 0.352833 0.139921
O O4 0.904190 0.016863 0.161760
O O5 0.171474 0.741325 0.218850
O O6 0.335834 0.543547 0.238804
O O7 0.160119 0.412867 0.240608
O O8 0.323284 0.983294 0.303458
O O9 0.387281 0.975068 0.117770
O O10 0.251987 0.272499 0.037300
O O11 0.539550 0.315775 0.359489
O O12 0.673659 0.040720 0.424031
O O13 0.601099 0.712790 0.316594
O O14 0.500000 0.000000 0.000000
O O15 0.804048 0.448114 0.467484
O O16 0.000000 0.500000 0.500000
O O17 0.694657 0.466176 0.080856
#
# Coordination Sequence:
#
# PCOD9078051 Si02
#       8
#     2   2   2   2   2   2   2   2
#     4   9  21  39  58  82 112 146 186 225 274 337
#     4  10  20  34  58  86 109 139 185 236 274 318
#     4  10  20  38  60  83 112 148 183 224 276 336
#     4  10  20  36  56  84 114 145 182 224 277 337
#     4  11  23  38  56  84 117 145 182 233 276 319
#     4   9  20  37  54  75 110 149 185 223 270 329
#     4  10  18  35  58  80 108 148 186 223 275 335
#     4  11  20  37  58  82 112 148 184 230 278 321
#
# _framework density 26.885151
#
# number of rings (size 3 to 8) (size 9 to 14) (size 15 to 20)
#    0.000    2.000    0.000    5.250    0.000    3.000 
#    0.000   16.875    0.000    0.000    0.000    0.000 
#    0.000    0.000    0.000    0.000    0.000    0.000 
#
# Total GULP energy -89313.498772 kJ/mol
# GULP energy per Si atom -5582.093673 kJ/mol
# Density = 2.682396 g / cm^3
# Si number density = 26.885151 Si / 1000 Ang^3
#
#
#
# Elastic Constant Matrix: (Units=GPa)
#
#
# Indices 1 2 3 4 5 6 
#
# 1 75.9681 -2.8295 23.8409 -1.5342 -42.5712 -22.8302
# 2 -2.8295 47.8863 15.8392 22.4892 -11.4545 -10.9865
# 3 23.8409 15.8392 110.5122 7.1249 -40.0696 -8.1383
# 4 -1.5342 22.4892 7.1249 51.0471 -0.3770 -3.3120
# 5 -42.5712 -11.4545 -40.0696 -0.3770 41.1633 14.9592
# 6 -22.8302 -10.9865 -8.1383 -3.3120 14.9592 37.7741
#
#
#
# Elastic Compliance Matrix: (Units=1/GPa)
#
#
# Indices 1 2 3 4 5 6 
#
# 1 0.049069 0.020935 0.010304 -0.007901 0.061893 0.012762
# 2 0.020935 0.038478 0.003165 -0.015838 0.031405 0.010700
# 3 0.010304 0.003165 0.016675 -0.003246 0.027965 -0.000618
# 4 -0.007901 -0.015838 -0.003246 0.026551 -0.014809 -0.001889
# 5 0.061893 0.031405 0.027965 -0.014809 0.123233 0.002466
# 6 0.012762 0.010700 -0.000618 -0.001889 0.002466 0.036023
#
#
# Mechanical properties :
#
#
# Convention : Reuss Voigt Hill
#
# Bulk Modulus (GPa) = 5.77933 34.22976 20.00455
# Shear Modulus (GPa) = 17.92766 39.16463 28.54614
#
# Velocity S-wave (km/s) = 2.58509 3.82086 3.26203
# Velocity P-wave (km/s) = 3.32635 5.67669 4.65239
#
# Compressibility (1/GPa) = 0.17303038
#
# Stress axis : x y z
#
# Youngs Moduli (GPa) = 20.37950 25.98864 59.96858
#
# Poissons Ratio (x) = -0.54407 -0.61793
# Poissons Ratio (y) = -0.42664 -0.18979
# Poissons Ratio (z) = -0.21000 -0.08225
#
# Static dielectric constant tensor:
#      x y z
#    x 2.169260 0.304600 0.138640 
#    y 0.304600 1.870500 0.170060 
#    z 0.138640 0.170060 2.152720 
# 
# From -- ./inp_files/182593.got.cif
#   From: 2010.05.17/outbox.cif.g08.bks.cpg/sg2_92_cif.got.tgz:182593.got - 2010.06.03 11:33:40.
