data_PCOD9078093
_publ_section_title
;
Structure prediction by ZEFSAII (Michael W. Deem and Ramdas Pophale) SiO2 
 PCOD9078093
Probable space group: P -1
;
_chemical_formula_sum "Si O2"
_cell_formula_units_Z 16
_cell_length_a 7.985634
_cell_length_b 11.173480
_cell_length_c 15.758586
_cell_angle_alpha 151.994815
_cell_angle_beta 88.208691
_cell_angle_gamma 98.274751
_cell_volume 639.321759
_symmetry_space_group_name_H-M "P -1"
_symmetry_group_IT_number 2
_symmetry_cell_setting 'triclinic'
loop_
_space_group_symop_operation_xyz
x,y,z
-x,-y,-z
loop_
_atom_site_type_symbol
_atom_site_label
_atom_site_fract_x
_atom_site_fract_y
_atom_site_fract_z
Si Si1 0.173305 0.074424 0.755497
Si Si2 0.028498 0.461046 0.572578
Si Si3 0.282987 0.967704 0.387087
Si Si4 0.034296 0.470986 0.101878
Si Si5 0.843710 0.748298 0.867195
Si Si6 0.341224 0.918514 0.831574
Si Si7 0.353272 0.843409 0.118362
Si Si8 0.580077 0.700732 0.257707
O O1 0.001020 0.843530 0.597078
O O2 0.127081 0.348113 0.948460
O O3 0.253825 0.980537 0.781826
O O4 0.299029 0.118742 0.701505
O O5 0.000000 0.500000 0.500000
O O6 0.864166 0.545219 0.668616
O O7 0.218295 0.650846 0.704247
O O8 0.401374 0.786291 0.313209
O O9 0.331082 0.229297 0.607485
O O10 0.090114 0.784183 0.289148
O O11 0.338849 0.973154 0.291124
O O12 0.105005 0.382949 0.132079
O O13 0.837072 0.309731 0.002707
O O14 0.678917 0.855561 0.960212
O O15 0.000000 0.000000 0.000000
O O16 0.537659 0.946040 0.817951
O O17 0.444525 0.598048 0.960456
#
# Coordination Sequence:
#
# PCOD9078093 Si02
#       8
#     2   2   2   2   2   2   2   2
#     4  10  18  35  58  86 114 156 206 245 297 347
#     4   9  18  34  61  89 112 145 199 259 296 341
#     4  11  23  39  60  92 121 160 212 241 296 360
#     4  11  23  38  60  87 125 165 192 248 308 363
#     4   9  18  37  61  84 109 149 208 242 289 358
#     4   9  19  36  61  83 117 155 199 253 293 350
#     4  12  23  41  57  89 133 160 196 246 308 357
#     4  11  22  37  65  88 117 160 206 257 290 352
#
# _framework density 25.026523000000001
#
# number of rings (size 3 to 8) (size 9 to 14) (size 15 to 20)
#    0.000    1.750    2.500    3.750    0.000    1.500 
#    2.250    3.125    0.000    0.000    0.000    0.000 
#    0.000    0.000    0.000    0.000    0.000    0.000 
#
# Total GULP energy -89424.289150 kJ/mol
# GULP energy per Si atom -5589.018072 kJ/mol
# Density = 2.496956 g / cm^3
# Si number density = 25.026523 Si / 1000 Ang^3
#
#
#
# Elastic Constant Matrix: (Units=GPa)
#
#
# Indices 1 2 3 4 5 6 
#
# 1 59.0477 22.2032 15.6030 -1.9074 12.1621 30.6746
# 2 22.2032 115.2905 48.2372 0.3582 4.8430 31.4910
# 3 15.6030 48.2372 117.3759 -13.7928 -0.3322 15.1024
# 4 -1.9074 0.3582 -13.7928 48.0129 11.4468 -1.8546
# 5 12.1621 4.8430 -0.3322 11.4468 25.3356 8.3951
# 6 30.6746 31.4910 15.1024 -1.8546 8.3951 37.7543
#
#
#
# Elastic Compliance Matrix: (Units=1/GPa)
#
#
# Indices 1 2 3 4 5 6 
#
# 1 0.030875 0.001529 -0.001471 0.001781 -0.008017 -0.023902
# 2 0.001529 0.013145 -0.004451 -0.002014 0.001179 -0.010787
# 3 -0.001471 -0.004451 0.010815 0.003095 0.000062 0.000719
# 4 0.001781 -0.002014 0.003095 0.024951 -0.012712 0.003047
# 5 -0.008017 0.001179 0.000062 -0.012712 0.050976 -0.006454
# 6 -0.023902 -0.010787 0.000719 0.003047 -0.006454 0.056202
#
#
# Mechanical properties :
#
#
# Convention : Reuss Voigt Hill
#
# Bulk Modulus (GPa) = 21.71502 51.53343 36.62423
# Shear Modulus (GPa) = 23.68563 35.93194 29.80879
#
# Velocity S-wave (km/s) = 3.07973 3.79325 3.45496
# Velocity P-wave (km/s) = 4.61974 6.31040 5.53006
#
# Compressibility (1/GPa) = 0.04605108
#
# Stress axis : x y z
#
# Youngs Moduli (GPa) = 32.38877 76.07732 92.46009
#
# Poissons Ratio (x) = -0.11635 0.13599
# Poissons Ratio (y) = -0.04953 0.41150
# Poissons Ratio (z) = 0.04764 0.33858
#
# Static dielectric constant tensor:
#      x y z
#    x 2.098720 0.001540 0.033210 
#    y 0.001540 1.950040 -0.007450 
#    z 0.033210 -0.007450 2.024630 
# 
# From -- ./inp_files/245999.got.cif
#   From: 2010.05.17/outbox.cif.g08.bks.cpg/sg2_123_cif.got.tgz:245999.got - 2010.06.03 11:33:40.
