data_PCOD9078905
_publ_section_title
;
Structure prediction by ZEFSAII (Michael W. Deem and Ramdas Pophale) SiO2 
 PCOD9078905
Probable space group: P -1
;
_chemical_formula_sum "Si O2"
_cell_formula_units_Z 16
_cell_length_a 14.701087
_cell_length_b 14.838601
_cell_length_c 14.380335
_cell_angle_alpha 30.097758
_cell_angle_beta 144.179607
_cell_angle_gamma 150.479708
_cell_volume 753.470728
_symmetry_space_group_name_H-M "P -1"
_symmetry_group_IT_number 2
_symmetry_cell_setting 'triclinic'
loop_
_space_group_symop_operation_xyz
x,y,z
-x,-y,-z
loop_
_atom_site_type_symbol
_atom_site_label
_atom_site_fract_x
_atom_site_fract_y
_atom_site_fract_z
Si Si1 0.729402 0.658715 0.625696
Si Si2 0.553222 0.887831 0.568699
Si Si3 0.762211 0.022382 0.437853
Si Si4 0.872690 0.239001 0.143289
Si Si5 0.390328 0.201856 0.777487
Si Si6 0.837166 0.537282 0.352678
Si Si7 0.864065 0.820670 0.968760
Si Si8 0.900671 0.888055 0.241705
O O1 0.666658 0.775745 0.539396
O O2 0.614105 0.398165 0.784262
O O3 0.683142 0.703639 0.445028
O O4 0.954954 0.788709 0.702864
O O5 0.647931 0.018851 0.434953
O O6 0.351555 0.667495 0.576791
O O7 0.697805 0.841545 0.777127
O O8 0.500000 0.000000 0.500000
O O9 0.793751 0.171303 0.243217
O O10 0.964400 0.094833 0.580928
O O11 0.702022 0.050236 0.104990
O O12 0.000000 0.500000 0.000000
O O13 0.299167 0.189839 0.811591
O O14 0.898367 0.728141 0.306905
O O15 0.000000 0.500000 0.500000
O O16 0.788624 0.597084 0.159755
O O17 0.995348 0.880028 0.933861
O O18 0.000000 0.000000 0.000000
#
# Coordination Sequence:
#
# PCOD9078905 Si02
#       8
#     2   2   2   2   2   2   2   2
#     4  10  19  36  63  85 117 156 207 247 304 370
#     4  11  22  39  63  89 123 164 213 264 311 377
#     4  10  19  39  61  88 117 166 206 251 314 375
#     4  11  22  39  58  87 132 157 200 260 312 369
#     4  10  19  36  61  87 111 158 204 248 302 373
#     4  11  22  39  58  89 124 164 208 261 319 373
#     4   9  20  37  59  84 120 159 201 258 316 368
#     4  10  18  36  60  85 116 154 207 253 304 373
#
# _framework density 21.235066
#
# number of rings (size 3 to 8) (size 9 to 14) (size 15 to 20)
#    0.000    1.750    2.500    4.125    0.000    0.500 
#    4.500    5.000    0.000    0.000    0.000    0.000 
#    0.000    0.000    0.000    0.000    0.000    0.000 
#
# Total GULP energy -89185.549816 kJ/mol
# GULP energy per Si atom -5574.096864 kJ/mol
# Density = 2.118673 g / cm^3
# Si number density = 21.235066 Si / 1000 Ang^3
#
#
#
# Elastic Constant Matrix: (Units=GPa)
#
#
# Indices 1 2 3 4 5 6 
#
# 1 151.8851 31.1953 45.5253 -7.8311 -15.9141 8.8315
# 2 31.1953 94.9835 21.8841 -16.4331 -3.8978 15.2539
# 3 45.5253 21.8841 65.6624 -20.2761 -10.1240 -5.1279
# 4 -7.8311 -16.4331 -20.2761 35.0696 4.5170 -0.2893
# 5 -15.9141 -3.8978 -10.1240 4.5170 17.0169 0.2867
# 6 8.8315 15.2539 -5.1279 -0.2893 0.2867 38.5009
#
#
#
# Elastic Compliance Matrix: (Units=1/GPa)
#
#
# Indices 1 2 3 4 5 6 
#
# 1 0.009323 -0.001528 -0.006207 -0.002951 0.005500 -0.002423
# 2 -0.001528 0.013168 -0.002508 0.004466 -0.001003 -0.005160
# 3 -0.006207 -0.002508 0.025168 0.011331 0.005488 0.005814
# 4 -0.002951 0.004466 0.011331 0.037132 -0.004864 0.000732
# 5 0.005500 -0.001003 0.005488 -0.004864 0.068247 -0.000678
# 6 -0.002423 -0.005160 0.005814 0.000732 -0.000678 0.029358
#
#
# Mechanical properties :
#
#
# Convention : Reuss Voigt Hill
#
# Bulk Modulus (GPa) = 36.80112 56.63780 46.71946
# Shear Modulus (GPa) = 23.59148 32.37924 27.98536
#
# Velocity S-wave (km/s) = 3.33673 3.90911 3.63421
# Velocity P-wave (km/s) = 5.67565 6.86327 6.29752
#
# Compressibility (1/GPa) = 0.02717308
#
# Stress axis : x y z
#
# Youngs Moduli (GPa) = 107.25797 75.94310 39.73248
#
# Poissons Ratio (x) = 0.11601 0.24664
# Poissons Ratio (y) = 0.16384 0.09965
# Poissons Ratio (z) = 0.66580 0.19047
#
# Static dielectric constant tensor:
#      x y z
#    x 1.748740 0.061970 -0.022070 
#    y 0.061970 1.659240 0.058380 
#    z -0.022070 0.058380 1.764380 
# 
# From -- ./inp_files/453882.got.cif
#   From: 2010.05.17/outbox.cif.g08.bks.cpg/sg2_227_cif.got.tgz:453882.got - 2010.06.03 11:33:40.
