data_PCOD9078277
_publ_section_title
;
Structure prediction by ZEFSAII (Michael W. Deem and Ramdas Pophale) SiO2 
 PCOD9078277
Probable space group: P -1
;
_chemical_formula_sum "Si O2"
_cell_formula_units_Z 12
_cell_length_a 8.465911
_cell_length_b 11.847450
_cell_length_c 6.897630
_cell_angle_alpha 68.719570
_cell_angle_beta 122.805875
_cell_angle_gamma 86.323626
_cell_volume 510.928475
_symmetry_space_group_name_H-M "P -1"
_symmetry_group_IT_number 2
_symmetry_cell_setting 'triclinic'
loop_
_space_group_symop_operation_xyz
x,y,z
-x,-y,-z
loop_
_atom_site_type_symbol
_atom_site_label
_atom_site_fract_x
_atom_site_fract_y
_atom_site_fract_z
Si Si1 0.350843 0.049453 0.552837
Si Si2 0.014406 0.860852 0.014520
Si Si3 0.061221 0.678133 0.495381
Si Si4 0.528953 0.258581 0.570238
Si Si5 0.713389 0.574976 0.415481
Si Si6 0.383257 0.772569 0.808319
O O1 0.428466 0.154172 0.639735
O O2 0.500000 0.000000 0.500000
O O3 0.349874 0.921274 0.741052
O O4 0.134536 0.118817 0.274542
O O5 0.952937 0.784998 0.196638
O O6 0.245834 0.785172 0.174269
O O7 0.000000 0.000000 0.000000
O O8 0.219875 0.564274 0.549047
O O9 0.179761 0.739142 0.682184
O O10 0.909667 0.616648 0.526101
O O11 0.390582 0.397623 0.461983
O O12 0.544305 0.247899 0.355506
O O13 0.548610 0.673247 0.108797
#
# Coordination Sequence:
#
# PCOD9078277 Si02
#       6
#     2   2   2   2   2   2
#     4  10  18  35  60  89 119 154 199 243 298 350
#     4  11  19  38  65  89 119 160 202 245 304 350
#     4  10  22  41  62  86 126 161 197 255 298 357
#     4  10  23  38  62  94 118 162 202 246 298 365
#     4  11  24  41  60  92 124 159 203 244 305 357
#     4  10  21  39  63  85 124 161 197 252 297 355
#
# _framework density 23.486654000000001
#
# number of rings (size 3 to 8) (size 9 to 14) (size 15 to 20)
#    0.000    1.667    5.000    2.500    0.000    4.667 
#    0.000    9.167    0.000    0.000    0.000    0.000 
#    0.000    0.000    0.000    0.000    0.000    0.000 
#
# Total GULP energy -67141.737516 kJ/mol
# GULP energy per Si atom -5595.144793 kJ/mol
# Density = 2.343320 g / cm^3
# Si number density = 23.486654 Si / 1000 Ang^3
#
#
#
# Elastic Constant Matrix: (Units=GPa)
#
#
# Indices 1 2 3 4 5 6 
#
# 1 53.6634 30.8647 -0.1407 5.2083 21.5239 -3.1346
# 2 30.8647 77.6999 0.9707 -3.4785 3.3218 16.9298
# 3 -0.1407 0.9707 77.7413 10.8865 1.6516 2.1101
# 4 5.2083 -3.4785 10.8865 33.8191 0.1469 5.5252
# 5 21.5239 3.3218 1.6516 0.1469 23.7025 -7.3082
# 6 -3.1346 16.9298 2.1101 5.5252 -7.3082 46.9906
#
#
#
# Elastic Compliance Matrix: (Units=1/GPa)
#
#
# Indices 1 2 3 4 5 6 
#
# 1 0.044977 -0.017803 0.002380 -0.010139 -0.036987 0.004747
# 2 -0.017803 0.021538 -0.001238 0.006616 0.010726 -0.008002
# 3 0.002380 -0.001238 0.013625 -0.004887 -0.002870 0.000121
# 4 -0.010139 0.006616 -0.004887 0.034311 0.006605 -0.005848
# 5 -0.036987 0.010726 -0.002870 0.006605 0.075922 0.004828
# 6 0.004747 -0.008002 0.000121 -0.005848 0.004828 0.025913
#
#
# Mechanical properties :
#
#
# Convention : Reuss Voigt Hill
#
# Bulk Modulus (GPa) = 21.35894 30.27710 25.81802
# Shear Modulus (GPa) = 18.85266 32.72976 25.79121
#
# Velocity S-wave (km/s) = 2.83626 3.73707 3.31739
# Velocity P-wave (km/s) = 4.45418 5.61606 5.06852
#
# Compressibility (1/GPa) = 0.04681880
#
# Stress axis : x y z
#
# Youngs Moduli (GPa) = 22.23360 46.42855 73.39437
#
# Poissons Ratio (x) = 0.82656 -0.17471
# Poissons Ratio (y) = 0.39582 0.09089
# Poissons Ratio (z) = -0.05293 0.05750
#
# Static dielectric constant tensor:
#      x y z
#    x 1.962610 0.003090 -0.016000 
#    y 0.003090 1.883830 0.003860 
#    z -0.016000 0.003860 1.826750 
# 
# From -- ./inp_files/164477.got.cif
#   From: 2010.05.17/outbox.cif.g08.bks.cpg/sg2_83_cif.got.tgz:164477.got - 2010.06.03 11:33:40.
