data_PCOD9078861
_publ_section_title
;
Structure prediction by ZEFSAII (Michael W. Deem and Ramdas Pophale) SiO2 
 PCOD9078861
Probable space group: P -1
;
_chemical_formula_sum "Si O2"
_cell_formula_units_Z 16
_cell_length_a 8.089320
_cell_length_b 11.233330
_cell_length_c 20.093979
_cell_angle_alpha 32.253033
_cell_angle_beta 52.008227
_cell_angle_gamma 60.697851
_cell_volume 765.837529
_symmetry_space_group_name_H-M "P -1"
_symmetry_group_IT_number 2
_symmetry_cell_setting 'triclinic'
loop_
_space_group_symop_operation_xyz
x,y,z
-x,-y,-z
loop_
_atom_site_type_symbol
_atom_site_label
_atom_site_fract_x
_atom_site_fract_y
_atom_site_fract_z
Si Si1 0.936332 0.843803 0.473193
Si Si2 0.733246 0.622675 0.759598
Si Si3 0.757898 0.098508 0.824911
Si Si4 0.796431 0.741212 0.411902
Si Si5 0.586353 0.091350 0.609539
Si Si6 0.358919 0.753280 0.355659
Si Si7 0.570942 0.639688 0.133836
Si Si8 0.166856 0.669828 0.689835
O O1 0.829136 0.721124 0.619805
O O2 0.877568 0.724071 0.475670
O O3 0.188850 0.823710 0.421177
O O4 0.884047 0.099887 0.369633
O O5 0.538434 0.460098 0.859371
O O6 0.938315 0.547389 0.784098
O O7 0.654654 0.837417 0.714740
O O8 0.659808 0.101061 0.773420
O O9 0.618082 0.254612 0.829294
O O10 0.996659 0.196410 0.712006
O O11 0.733262 0.849239 0.976952
O O12 0.636281 0.931522 0.366226
O O13 0.685455 0.499767 0.534716
O O14 0.464772 0.186147 0.662969
O O15 0.718274 0.248535 0.446264
O O16 0.685213 0.469769 0.234031
#
# Coordination Sequence:
#
# PCOD9078861 Si02
#       8
#     2   2   2   2   2   2   2   2
#     4  10  18  36  59  90 123 148 198 251 296 347
#     4  11  20  39  64  91 125 159 193 253 297 345
#     4  10  24  44  59  85 120 158 205 251 286 363
#     4  11  22  35  65  89 118 164 192 249 315 342
#     4  11  21  36  60 100 122 147 200 253 303 358
#     4  11  19  37  60  89 125 149 191 253 303 350
#     4  11  24  44  63  84 118 166 209 237 297 363
#     4  11  21  38  65  92 122 157 199 250 296 355
#
# _framework density 20.892160000000001
#
# number of rings (size 3 to 8) (size 9 to 14) (size 15 to 20)
#    0.000    1.250    2.500    6.375    0.000    2.000 
#    2.250    7.500    0.000    0.000    0.000    0.000 
#    0.000    0.000    0.000    0.000    0.000    0.000 
#
# Total GULP energy -89126.663121 kJ/mol
# GULP energy per Si atom -5570.416445 kJ/mol
# Density = 2.084461 g / cm^3
# Si number density = 20.892160 Si / 1000 Ang^3
#
#
#
# Elastic Constant Matrix: (Units=GPa)
#
#
# Indices 1 2 3 4 5 6 
#
# 1 71.2810 19.9831 9.1704 -9.8285 -4.6286 -6.0295
# 2 19.9831 81.7976 13.9249 -7.9333 -0.4394 12.2579
# 3 9.1704 13.9249 48.3691 -6.7880 5.2256 -0.8995
# 4 -9.8285 -7.9333 -6.7880 22.1949 0.0614 1.2367
# 5 -4.6286 -0.4394 5.2256 0.0614 20.3280 -2.0183
# 6 -6.0295 12.2579 -0.8995 1.2367 -2.0183 37.2988
#
#
#
# Elastic Compliance Matrix: (Units=1/GPa)
#
#
# Indices 1 2 3 4 5 6 
#
# 1 0.016687 -0.003846 -0.001737 0.005249 0.004543 0.003991
# 2 -0.003846 0.014847 -0.003205 0.002942 -0.000305 -0.005692
# 3 -0.001737 -0.003205 0.023364 0.005203 -0.006405 0.000817
# 4 0.005249 0.002942 0.005203 0.050117 -0.000397 -0.001676
# 5 0.004543 -0.000305 -0.006405 -0.000397 0.052218 0.003519
# 6 0.003991 -0.005692 0.000817 -0.001676 0.003519 0.029592
#
#
# Mechanical properties :
#
#
# Convention : Reuss Voigt Hill
#
# Bulk Modulus (GPa) = 26.79337 31.95606 29.37471
# Shear Modulus (GPa) = 23.05838 26.52229 24.79034
#
# Velocity S-wave (km/s) = 3.32578 3.56685 3.44842
# Velocity P-wave (km/s) = 5.25359 5.68262 5.47231
#
# Compressibility (1/GPa) = 0.03732267
#
# Stress axis : x y z
#
# Youngs Moduli (GPa) = 59.92746 67.35302 42.80142
#
# Poissons Ratio (x) = 0.25901 0.07433
# Poissons Ratio (y) = 0.23046 0.13719
# Poissons Ratio (z) = 0.10407 0.21589
#
# Static dielectric constant tensor:
#      x y z
#    x 1.912990 -0.017960 -0.027070 
#    y -0.017960 1.771810 0.008050 
#    z -0.027070 0.008050 1.727950 
# 
# From -- ./inp_files/274745.got.cif
#   From: 2010.05.17/outbox.cif.g08.bks.cpg/sg2_138_cif.got.tgz:274745.got - 2010.06.03 11:33:40.
