data_PCOD9078844
_publ_section_title
;
Structure prediction by ZEFSAII (Michael W. Deem and Ramdas Pophale) SiO2 
 PCOD9078844
Probable space group: P -1
;
_chemical_formula_sum "Si O2"
_cell_formula_units_Z 16
_cell_length_a 15.148521
_cell_length_b 7.367839
_cell_length_c 17.603439
_cell_angle_alpha 120.891932
_cell_angle_beta 24.731422
_cell_angle_gamma 109.612345
_cell_volume 656.991147
_symmetry_space_group_name_H-M "P -1"
_symmetry_group_IT_number 2
_symmetry_cell_setting 'triclinic'
loop_
_space_group_symop_operation_xyz
x,y,z
-x,-y,-z
loop_
_atom_site_type_symbol
_atom_site_label
_atom_site_fract_x
_atom_site_fract_y
_atom_site_fract_z
Si Si1 0.643044 0.201325 0.026300
Si Si2 0.837211 0.426681 0.556332
Si Si3 0.627464 0.604963 0.360161
Si Si4 0.981392 0.975185 0.419779
Si Si5 0.913044 0.506357 0.944639
Si Si6 0.750542 0.988860 0.208368
Si Si7 0.097674 0.495561 0.642873
Si Si8 0.399711 0.786208 0.778128
O O1 0.397032 0.361533 0.225189
O O2 0.638378 0.078958 0.083726
O O3 0.771085 0.363501 0.992475
O O4 0.787375 0.057241 0.813700
O O5 0.941367 0.378222 0.379715
O O6 0.000000 0.500000 0.500000
O O7 0.807153 0.205135 0.568287
O O8 0.500000 0.500000 0.500000
O O9 0.409384 0.837216 0.567713
O O10 0.738596 0.377143 0.171416
O O11 0.841611 0.634197 0.241697
O O12 0.936366 0.744574 0.393003
O O13 0.000000 0.000000 0.500000
O O14 0.968400 0.610904 0.843975
O O15 0.782761 0.729555 0.144204
O O16 0.615668 0.060862 0.249636
O O17 0.000000 0.000000 0.000000
O O18 0.361062 0.414106 0.438400
#
# Coordination Sequence:
#
# PCOD9078844 Si02
#       8
#     2   2   2   2   2   2   2   2
#     4  10  27  42  62  99 127 164 218 272 319 389
#     4  11  24  46  67  96 126 166 218 268 332 395
#     4  10  18  36  59  86 130 169 211 261 305 379
#     4  11  24  46  67  94 129 166 210 271 336 388
#     4  11  21  38  60  91 128 166 218 257 317 374
#     4  11  19  33  62  89 113 177 222 242 312 378
#     4  10  21  42  64  92 135 168 207 277 314 380
#     4  10  20  40  59  88 132 166 213 262 312 368
#
# _framework density 24.353449000000001
#
# number of rings (size 3 to 8) (size 9 to 14) (size 15 to 20)
#    0.000    1.500    6.250    0.000    3.500    1.500 
#    0.000    0.625    0.000    0.000    0.000    0.875 
#    0.000    0.000    0.000    0.000    0.000    0.000 
#
# Total GULP energy -89278.465981 kJ/mol
# GULP energy per Si atom -5579.904124 kJ/mol
# Density = 2.429802 g / cm^3
# Si number density = 24.353449 Si / 1000 Ang^3
#
#
#
# Elastic Constant Matrix: (Units=GPa)
#
#
# Indices 1 2 3 4 5 6 
#
# 1 134.1910 -5.5555 34.8520 1.6992 2.6839 -16.7273
# 2 -5.5555 49.1582 -21.8151 19.9029 -8.9844 -3.8363
# 3 34.8520 -21.8151 113.7303 4.7357 4.8951 9.7528
# 4 1.6992 19.9029 4.7357 31.5822 3.8353 -1.0991
# 5 2.6839 -8.9844 4.8951 3.8353 43.5050 -5.8535
# 6 -16.7273 -3.8363 9.7528 -1.0991 -5.8535 43.6108
#
#
#
# Elastic Compliance Matrix: (Units=1/GPa)
#
#
# Indices 1 2 3 4 5 6 
#
# 1 0.008745 -0.000031 -0.003055 0.000108 0.000338 0.004083
# 2 -0.000031 0.035111 0.007196 -0.024208 0.008853 0.002046
# 3 -0.003055 0.007196 0.011627 -0.006285 0.000485 -0.003232
# 4 0.000108 -0.024208 -0.006285 0.048890 -0.008692 -0.000617
# 5 0.000338 0.008853 0.000485 -0.008692 0.026053 0.004078
# 6 0.004083 0.002046 -0.003232 -0.000617 0.004078 0.025931
#
#
# Mechanical properties :
#
#
# Convention : Reuss Voigt Hill
#
# Bulk Modulus (GPa) = 15.69773 34.67136 25.18454
# Shear Modulus (GPa) = 29.52090 43.04613 36.28351
#
# Velocity S-wave (km/s) = 3.48542 4.20879 3.86407
# Velocity P-wave (km/s) = 4.75997 6.15518 5.50198
#
# Compressibility (1/GPa) = 0.06370348
#
# Stress axis : x y z
#
# Youngs Moduli (GPa) = 114.35083 28.48102 86.00549
#
# Poissons Ratio (x) = 0.00088 0.26274
# Poissons Ratio (y) = 0.00352 -0.61888
# Poissons Ratio (z) = 0.34933 -0.20494
#
# Static dielectric constant tensor:
#      x y z
#    x 2.054620 -0.002850 0.072190 
#    y -0.002850 2.186480 -0.166850 
#    z 0.072190 -0.166850 2.109340 
# 
# From -- ./inp_files/572886.got.cif
#   From: 2010.05.17/outbox.cif.g08.bks.cpg/sg2_287_cif.got.tgz:572886.got - 2010.06.03 11:33:40.
