data_PCOD9078179
_publ_section_title
;
Structure prediction by ZEFSAII (Michael W. Deem and Ramdas Pophale) SiO2 
 PCOD9078179
Probable space group: P -1
;
_chemical_formula_sum "Si O2"
_cell_formula_units_Z 16
_cell_length_a 6.785288
_cell_length_b 11.804978
_cell_length_c 11.118713
_cell_angle_alpha 113.236547
_cell_angle_beta 90.588504
_cell_angle_gamma 59.012104
_cell_volume 680.217435
_symmetry_space_group_name_H-M "P -1"
_symmetry_group_IT_number 2
_symmetry_cell_setting 'triclinic'
loop_
_space_group_symop_operation_xyz
x,y,z
-x,-y,-z
loop_
_atom_site_type_symbol
_atom_site_label
_atom_site_fract_x
_atom_site_fract_y
_atom_site_fract_z
Si Si1 0.537232 0.660407 0.609525
Si Si2 0.581039 0.820647 0.207972
Si Si3 0.714349 0.025707 0.243452
Si Si4 0.136930 0.754494 0.850549
Si Si5 0.428583 0.458870 0.858314
Si Si6 0.921211 0.950540 0.594232
Si Si7 0.710882 0.046507 0.968751
Si Si8 0.245196 0.623860 0.397105
O O1 0.513131 0.813726 0.648581
O O2 0.332929 0.702775 0.726476
O O3 0.454432 0.620017 0.472462
O O4 0.759391 0.514142 0.609510
O O5 0.637890 0.661130 0.174663
O O6 0.352661 0.938600 0.334019
O O7 0.751843 0.878960 0.240425
O O8 0.500038 0.854757 0.082351
O O9 0.935101 0.032389 0.289678
O O10 0.668655 0.033775 0.103538
O O11 0.207119 0.607575 0.859009
O O12 0.872732 0.875208 0.854422
O O13 0.169113 0.859382 0.985091
O O14 0.657189 0.397388 0.746082
O O15 0.500000 0.500000 0.000000
O O16 0.014483 0.781063 0.497149
O O17 0.000000 0.000000 0.500000
#
# Coordination Sequence:
#
# PCOD9078179 Si02
#       8
#     2   2   2   2   2   2   2   2
#     4   8  16  33  57  85 112 149 201 245 294 352
#     4  12  23  39  63  92 124 162 203 251 306 362
#     4  10  23  38  61  92 123 157 204 252 302 360
#     4   9  17  32  60  85 114 160 203 246 296 352
#     4  11  21  34  57  91 122 157 202 246 305 368
#     4  11  22  40  63  89 119 161 202 247 303 369
#     4  10  18  35  59  86 121 159 203 249 293 359
#     4   9  17  34  58  84 112 154 197 243 297 352
#
# _framework density 23.521892000000001
#
# number of rings (size 3 to 8) (size 9 to 14) (size 15 to 20)
#    0.000    2.000    2.500    3.375    0.000    0.500 
#    0.000    1.250    2.750    0.000    0.000    0.000 
#    0.000    0.000    0.000    0.000    0.000    0.000 
#
# Total GULP energy -89240.713338 kJ/mol
# GULP energy per Si atom -5577.544584 kJ/mol
# Density = 2.346836 g / cm^3
# Si number density = 23.521892 Si / 1000 Ang^3
#
#
#
# Elastic Constant Matrix: (Units=GPa)
#
#
# Indices 1 2 3 4 5 6 
#
# 1 20.1976 20.6880 2.6098 4.7424 -1.6686 9.5172
# 2 20.6880 183.5517 23.6841 29.7613 -0.9235 25.7837
# 3 2.6098 23.6841 119.1749 -0.0115 -0.1649 1.1469
# 4 4.7424 29.7613 -0.0115 46.2333 0.3610 4.5024
# 5 -1.6686 -0.9235 -0.1649 0.3610 6.4646 -0.4493
# 6 9.5172 25.7837 1.1469 4.5024 -0.4493 25.7722
#
#
#
# Elastic Compliance Matrix: (Units=1/GPa)
#
#
# Indices 1 2 3 4 5 6 
#
# 1 0.064491 -0.004107 -0.000393 -0.002234 0.014851 -0.019040
# 2 -0.004107 0.007438 -0.001339 -0.003860 -0.000177 -0.005194
# 3 -0.000393 -0.001339 0.008657 0.000812 -0.000051 0.000957
# 4 -0.002234 -0.003860 0.000812 0.024328 -0.002441 0.000358
# 5 0.014851 -0.000177 -0.000051 -0.002441 0.158485 -0.002115
# 6 -0.019040 -0.005194 0.000957 0.000358 -0.002115 0.050887
#
#
# Mechanical properties :
#
#
# Convention : Reuss Voigt Hill
#
# Bulk Modulus (GPa) = 14.51172 46.32090 30.41631
# Shear Modulus (GPa) = 14.32941 34.09018 24.20979
#
# Velocity S-wave (km/s) = 2.47086 3.81109 3.21167
# Velocity P-wave (km/s) = 3.78458 6.25310 5.16838
#
# Compressibility (1/GPa) = 0.06890982
#
# Stress axis : x y z
#
# Youngs Moduli (GPa) = 15.50597 134.43914 115.51984
#
# Poissons Ratio (x) = 0.55209 0.04535
# Poissons Ratio (y) = 0.06368 0.15467
# Poissons Ratio (z) = 0.00609 0.18001
#
# Static dielectric constant tensor:
#      x y z
#    x 1.985850 -0.006690 -0.007140 
#    y -0.006690 1.970960 0.016140 
#    z -0.007140 0.016140 1.932350 
# 
# From -- ./inp_files/388031.got.cif
#   From: 2010.05.17/outbox.cif.g08.bks.cpg/sg2_195_cif.got.tgz:388031.got - 2010.06.03 11:33:40.
