data_PCOD9078159
_publ_section_title
;
Structure prediction by ZEFSAII (Michael W. Deem and Ramdas Pophale) SiO2 
 PCOD9078159
Probable space group: P -1
;
_chemical_formula_sum "Si O2"
_cell_formula_units_Z 14
_cell_length_a 9.479372
_cell_length_b 13.887622
_cell_length_c 12.783098
_cell_angle_alpha 47.300271
_cell_angle_beta 142.118624
_cell_angle_gamma 146.703122
_cell_volume 566.416061
_symmetry_space_group_name_H-M "P -1"
_symmetry_group_IT_number 2
_symmetry_cell_setting 'triclinic'
loop_
_space_group_symop_operation_xyz
x,y,z
-x,-y,-z
loop_
_atom_site_type_symbol
_atom_site_label
_atom_site_fract_x
_atom_site_fract_y
_atom_site_fract_z
Si Si1 0.792973 0.051718 0.818866
Si Si2 0.975905 0.237147 0.152949
Si Si3 0.150230 0.391152 0.915179
Si Si4 0.418234 0.566455 0.498895
Si Si5 0.252465 0.106109 0.659327
Si Si6 0.348720 0.703233 0.927858
Si Si7 0.103469 0.231766 0.673201
O O1 0.940801 0.237098 0.820542
O O2 0.811221 0.088620 0.679354
O O3 0.480175 0.882197 0.813584
O O4 0.000000 0.000000 0.000000
O O5 0.847173 0.316947 0.075291
O O6 0.289983 0.323522 0.333860
O O7 0.730052 0.029213 0.181175
O O8 0.063158 0.283597 0.050055
O O9 0.169998 0.549754 0.850173
O O10 0.500000 0.500000 0.000000
O O11 0.500000 0.500000 0.500000
O O12 0.444542 0.717086 0.346070
O O13 0.154401 0.398861 0.538293
O O14 0.126298 0.151319 0.643358
O O15 0.000000 0.000000 0.500000
O O16 0.608901 0.708343 0.129276
#
# Coordination Sequence:
#
# PCOD9078159 Si02
#       7
#     2   2   2   2   2   2   2
#     4  10  20  35  54  86 122 155 191 227 292 367
#     4  11  21  37  56  89 120 146 190 249 296 337
#     4  12  21  35  58  87 123 157 191 223 298 372
#     4   9  18  35  57  80 106 152 201 236 271 339
#     4   9  20  34  57  82 106 155 201 238 273 341
#     4  11  23  36  57  92 126 147 184 245 308 349
#     4  10  18  35  59  84 117 149 193 244 289 346
#
# _framework density 24.716812999999998
#
# number of rings (size 3 to 8) (size 9 to 14) (size 15 to 20)
#    0.000    1.714    4.286    2.143    0.000    2.286 
#    2.571    0.000    0.000    8.571    0.000    0.000 
#    0.000    0.000    0.000    0.000    0.000    0.000 
#
# Total GULP energy -78221.693023 kJ/mol
# GULP energy per Si atom -5587.263787 kJ/mol
# Density = 2.466056 g / cm^3
# Si number density = 24.716813 Si / 1000 Ang^3
#
#
#
# Elastic Constant Matrix: (Units=GPa)
#
#
# Indices 1 2 3 4 5 6 
#
# 1 115.1903 36.4958 40.1809 -12.6810 -33.7263 -6.5885
# 2 36.4958 155.7002 56.6404 -26.0148 -18.4551 -4.1068
# 3 40.1809 56.6404 107.7924 -18.2083 -35.7939 18.4576
# 4 -12.6810 -26.0148 -18.2083 59.8660 9.5001 -16.6150
# 5 -33.7263 -18.4551 -35.7939 9.5001 39.3697 -10.2897
# 6 -6.5885 -4.1068 18.4576 -16.6150 -10.2897 39.2058
#
#
#
# Elastic Compliance Matrix: (Units=1/GPa)
#
#
# Indices 1 2 3 4 5 6 
#
# 1 0.013264 -0.000629 -0.001886 0.002153 0.010596 0.006744
# 2 -0.000629 0.008990 -0.004768 0.003636 -0.000354 0.004529
# 3 -0.001886 -0.004768 0.016737 -0.000727 0.009865 -0.006415
# 4 0.002153 0.003636 -0.000727 0.021288 0.000421 0.010217
# 5 0.010596 -0.000354 0.009865 0.000421 0.045594 0.009244
# 6 0.006744 0.004529 -0.006415 0.010217 0.009244 0.036890
#
#
# Mechanical properties :
#
#
# Convention : Reuss Voigt Hill
#
# Bulk Modulus (GPa) = 40.94431 71.70190 56.32311
# Shear Modulus (GPa) = 30.21698 44.04602 37.13150
#
# Velocity S-wave (km/s) = 3.50026 4.22599 3.88013
# Velocity P-wave (km/s) = 5.73908 7.27216 6.55062
#
# Compressibility (1/GPa) = 0.02442342
#
# Stress axis : x y z
#
# Youngs Moduli (GPa) = 75.39404 111.24038 59.74842
#
# Poissons Ratio (x) = 0.07001 0.11270
# Poissons Ratio (y) = 0.04745 0.28486
# Poissons Ratio (z) = 0.14221 0.53036
#
# Static dielectric constant tensor:
#      x y z
#    x 1.723370 0.186160 0.067280 
#    y 0.186160 1.938680 -0.023960 
#    z 0.067280 -0.023960 1.994240 
# 
# From -- ./inp_files/211661.got.cif
#   From: 2010.05.17/outbox.cif.g08.bks.cpg/sg2_106_cif.got.tgz:211661.got - 2010.06.03 11:33:40.
