data_PCOD9078071
_publ_section_title
;
Structure prediction by ZEFSAII (Michael W. Deem and Ramdas Pophale) SiO2 
 PCOD9078071
Probable space group: P -1
;
_chemical_formula_sum "Si O2"
_cell_formula_units_Z 16
_cell_length_a 9.228821
_cell_length_b 8.235995
_cell_length_c 14.832609
_cell_angle_alpha 128.903535
_cell_angle_beta 45.415097
_cell_angle_gamma 114.289322
_cell_volume 623.973704
_symmetry_space_group_name_H-M "P -1"
_symmetry_group_IT_number 2
_symmetry_cell_setting 'triclinic'
loop_
_space_group_symop_operation_xyz
x,y,z
-x,-y,-z
loop_
_atom_site_type_symbol
_atom_site_label
_atom_site_fract_x
_atom_site_fract_y
_atom_site_fract_z
Si Si1 0.679170 0.515817 0.183827
Si Si2 0.387974 0.682323 0.049733
Si Si3 0.256634 0.414728 0.360968
Si Si4 0.026648 0.440215 0.763911
Si Si5 0.521255 0.032540 0.620737
Si Si6 0.168545 0.863957 0.627426
Si Si7 0.812504 0.866875 0.557011
Si Si8 0.802950 0.779477 0.863566
O O1 0.682700 0.392525 0.045198
O O2 0.493385 0.421147 0.285442
O O3 0.595106 0.747852 0.272427
O O4 0.865463 0.529538 0.176202
O O5 0.569171 0.843884 0.014147
O O6 0.500000 0.500000 0.000000
O O7 0.163570 0.710731 0.199938
O O8 0.154823 0.629086 0.516343
O O9 0.179126 0.215576 0.375088
O O10 0.239560 0.397624 0.255225
O O11 0.928798 0.662043 0.847384
O O12 0.174182 0.335196 0.586359
O O13 0.721118 0.016556 0.461480
O O14 0.355985 0.865523 0.616113
O O15 0.610548 0.005145 0.670255
O O16 0.959700 0.925956 0.793995
O O17 0.000000 0.000000 0.500000
#
# Coordination Sequence:
#
# PCOD9078071 Si02
#       8
#     2   2   2   2   2   2   2   2
#     4  10  22  41  65  90 123 157 206 252 305 362
#     4   9  21  39  65  90 115 157 215 255 291 354
#     4  10  21  35  59  88 124 163 202 248 300 370
#     4  11  22  37  62  94 116 167 206 252 298 355
#     4  10  23  36  57  92 127 159 187 256 310 363
#     4  10  18  35  58  82 126 160 201 234 311 358
#     4  12  25  35  59  95 129 161 200 247 311 369
#     4  10  20  35  61  89 118 160 206 255 293 348
#
# _framework density 25.642108
#
# number of rings (size 3 to 8) (size 9 to 14) (size 15 to 20)
#    0.000    1.750    1.250    3.750    8.750    1.000 
#    0.000    0.000    0.000   16.500    0.000    0.000 
#    0.000    0.000    0.000    0.000    0.000    0.000 
#
# Total GULP energy -89345.537560 kJ/mol
# GULP energy per Si atom -5584.096097 kJ/mol
# Density = 2.558375 g / cm^3
# Si number density = 25.642108 Si / 1000 Ang^3
#
#
#
# Elastic Constant Matrix: (Units=GPa)
#
#
# Indices 1 2 3 4 5 6 
#
# 1 193.3857 39.3581 34.0040 -13.5707 -6.2135 -16.5690
# 2 39.3581 70.4506 14.0938 -16.8687 -4.2231 -7.3743
# 3 34.0040 14.0938 104.6577 -25.7140 -10.2407 3.2053
# 4 -13.5707 -16.8687 -25.7140 30.8885 11.9626 -3.4416
# 5 -6.2135 -4.2231 -10.2407 11.9626 37.0092 -12.5110
# 6 -16.5690 -7.3743 3.2053 -3.4416 -12.5110 35.8914
#
#
#
# Elastic Compliance Matrix: (Units=1/GPa)
#
#
# Indices 1 2 3 4 5 6 
#
# 1 0.006330 -0.002912 -0.001732 -0.000463 0.001387 0.002918
# 2 -0.002912 0.018343 0.000769 0.009844 -0.000283 0.003201
# 3 -0.001732 0.000769 0.012486 0.010073 -0.000307 -0.000898
# 4 -0.000463 0.009844 0.010073 0.050773 -0.012045 0.001579
# 5 0.001387 -0.000283 -0.000307 -0.012045 0.034965 0.011643
# 6 0.002918 0.003201 -0.000898 0.001579 0.011643 0.034157
#
#
# Mechanical properties :
#
#
# Convention : Reuss Voigt Hill
#
# Bulk Modulus (GPa) = 34.00355 60.37842 47.19098
# Shear Modulus (GPa) = 28.63561 39.49370 34.06466
#
# Velocity S-wave (km/s) = 3.34539 3.92878 3.64877
# Velocity P-wave (km/s) = 5.31148 6.64666 6.01623
#
# Compressibility (1/GPa) = 0.02940870
#
# Stress axis : x y z
#
# Youngs Moduli (GPa) = 157.96904 54.51763 80.08726
#
# Poissons Ratio (x) = 0.15878 0.13871
# Poissons Ratio (y) = 0.46007 -0.06159
# Poissons Ratio (z) = 0.27361 -0.04193
#
# Static dielectric constant tensor:
#      x y z
#    x 2.032830 0.041810 -0.041880 
#    y 0.041810 2.029720 -0.033380 
#    z -0.041880 -0.033380 2.098380 
# 
# From -- ./inp_files/346199.got.cif
#   From: 2010.05.17/outbox.cif.g08.bks.cpg/sg2_174_cif.got.tgz:346199.got - 2010.06.03 11:33:40.
