data_PCOD9078973
_publ_section_title
;
Structure prediction by ZEFSAII (Michael W. Deem and Ramdas Pophale) SiO2 
 PCOD9078973
Probable space group: P -1
;
_chemical_formula_sum "Si O2"
_cell_formula_units_Z 16
_cell_length_a 13.929869
_cell_length_b 11.220734
_cell_length_c 19.710170
_cell_angle_alpha 53.633782
_cell_angle_beta 146.309833
_cell_angle_gamma 148.964927
_cell_volume 799.735142
_symmetry_space_group_name_H-M "P -1"
_symmetry_group_IT_number 2
_symmetry_cell_setting 'triclinic'
loop_
_space_group_symop_operation_xyz
x,y,z
-x,-y,-z
loop_
_atom_site_type_symbol
_atom_site_label
_atom_site_fract_x
_atom_site_fract_y
_atom_site_fract_z
Si Si1 0.273748 0.278035 0.197259
Si Si2 0.775998 0.190412 0.508093
Si Si3 0.542324 0.274257 0.836573
Si Si4 0.631928 0.938374 0.917636
Si Si5 0.094819 0.714886 0.748133
Si Si6 0.424728 0.696149 0.739194
Si Si7 0.871994 0.422630 0.851394
Si Si8 0.369139 0.669833 0.507701
O O1 0.432979 0.543466 0.182694
O O2 0.307672 0.187588 0.185405
O O3 0.445811 0.323416 0.345312
O O4 0.927894 0.071474 0.077233
O O5 0.649593 0.189830 0.369241
O O6 0.742411 0.286588 0.517363
O O7 0.125732 0.402475 0.639934
O O8 0.587813 0.915804 0.505611
O O9 0.658372 0.363360 0.796805
O O10 0.234994 0.972135 0.761103
O O11 0.796630 0.354410 0.996719
O O12 0.747474 0.168799 0.870279
O O13 0.380946 0.811037 0.866373
O O14 0.488229 0.739478 0.841195
O O15 0.908984 0.516658 0.767520
O O16 0.897073 0.578827 0.609880
#
# Coordination Sequence:
#
# PCOD9078973 Si02
#       8
#     2   2   2   2   2   2   2   2
#     4  10  22  38  54  82 125 150 174 240 293 327
#     4   9  19  35  59  82 111 150 194 229 276 343
#     4   9  20  38  57  83 117 148 190 233 282 334
#     4  10  20  37  60  89 116 144 193 235 281 339
#     4  11  20  36  65  85 107 154 198 231 272 340
#     4  10  18  36  61  83 111 153 188 230 286 337
#     4   9  19  37  61  85 110 150 192 238 276 329
#     4  10  20  37  56  84 115 146 189 237 280 334
#
# _framework density 20.006625
#
# number of rings (size 3 to 8) (size 9 to 14) (size 15 to 20)
#    0.000    2.250    1.250    2.250    0.000    0.500 
#    6.750    1.250    0.000    0.000    0.000    0.000 
#    0.000    0.000    0.000    0.000    0.000    0.000 
#
# Total GULP energy -89278.281315 kJ/mol
# GULP energy per Si atom -5579.892582 kJ/mol
# Density = 1.996109 g / cm^3
# Si number density = 20.006625 Si / 1000 Ang^3
#
#
#
# Elastic Constant Matrix: (Units=GPa)
#
#
# Indices 1 2 3 4 5 6 
#
# 1 39.1038 -8.0849 14.6859 -5.7128 -3.4796 7.3604
# 2 -8.0849 33.3242 -7.5469 0.6206 2.1980 4.5684
# 3 14.6859 -7.5469 54.8472 0.9759 -0.4616 -3.0480
# 4 -5.7128 0.6206 0.9759 17.2318 -4.0589 -3.6586
# 5 -3.4796 2.1980 -0.4616 -4.0589 22.8434 1.8983
# 6 7.3604 4.5684 -3.0480 -3.6586 1.8983 26.8470
#
#
#
# Elastic Compliance Matrix: (Units=1/GPa)
#
#
# Indices 1 2 3 4 5 6 
#
# 1 0.034776 0.007170 -0.009062 0.011220 0.007313 -0.010771
# 2 0.007170 0.033400 0.002267 -0.000907 -0.001622 -0.007401
# 3 -0.009062 0.002267 0.021252 -0.003933 -0.002211 0.004132
# 4 0.011220 -0.000907 -0.003933 0.066086 0.013068 0.004714
# 5 0.007313 -0.001622 -0.002211 0.013068 0.047620 -0.003566
# 6 -0.010771 -0.007401 0.004132 0.004714 -0.003566 0.042824
#
#
# Mechanical properties :
#
#
# Convention : Reuss Voigt Hill
#
# Bulk Modulus (GPa) = 11.08908 13.93150 12.51029
# Shear Modulus (GPa) = 18.16423 21.93250 20.04836
#
# Velocity S-wave (km/s) = 3.01642 3.31458 3.16901
# Velocity P-wave (km/s) = 4.20553 4.65050 4.43360
#
# Compressibility (1/GPa) = 0.09017879
#
# Stress axis : x y z
#
# Youngs Moduli (GPa) = 28.75547 29.94037 47.05495
#
# Poissons Ratio (x) = -0.21468 0.42640
# Poissons Ratio (y) = -0.20619 -0.10668
# Poissons Ratio (z) = 0.26057 -0.06788
#
# Static dielectric constant tensor:
#      x y z
#    x 1.739950 -0.003650 0.002080 
#    y -0.003650 1.713540 0.015100 
#    z 0.002080 0.015100 1.691840 
# 
# From -- ./inp_files/398157.got.cif
#   From: 2010.05.17/outbox.cif.g08.bks.cpg/sg2_200_cif.got.tgz:398157.got - 2010.06.03 11:33:40.
