data_PCOD9078799
_publ_section_title
;
Structure prediction by ZEFSAII (Michael W. Deem and Ramdas Pophale) SiO2 
 PCOD9078799
Probable space group: P -1
;
_chemical_formula_sum "Si O2"
_cell_formula_units_Z 14
_cell_length_a 10.870597
_cell_length_b 14.864571
_cell_length_c 11.026900
_cell_angle_alpha 140.114773
_cell_angle_beta 150.003977
_cell_angle_gamma 53.486870
_cell_volume 557.619519
_symmetry_space_group_name_H-M "P -1"
_symmetry_group_IT_number 2
_symmetry_cell_setting 'triclinic'
loop_
_space_group_symop_operation_xyz
x,y,z
-x,-y,-z
loop_
_atom_site_type_symbol
_atom_site_label
_atom_site_fract_x
_atom_site_fract_y
_atom_site_fract_z
Si Si1 0.752122 0.489784 0.356216
Si Si2 0.633529 0.155870 0.856247
Si Si3 0.371491 0.057388 0.766358
Si Si4 0.547488 0.557707 0.464927
Si Si5 0.685354 0.206049 0.415217
Si Si6 0.193591 0.235026 0.446594
Si Si7 0.124733 0.315292 0.744629
O O1 0.791921 0.533678 0.577075
O O2 0.658300 0.624124 0.353942
O O3 0.000000 0.500000 0.500000
O O4 0.625814 0.322054 0.060891
O O5 0.547212 0.061117 0.803362
O O6 0.391820 0.133522 0.536229
O O7 0.925871 0.165564 0.081169
O O8 0.200704 0.169560 0.706992
O O9 0.228187 0.901508 0.527742
O O10 0.549283 0.121701 0.096106
O O11 0.500000 0.500000 0.500000
O O12 0.509840 0.717975 0.604070
O O13 0.337288 0.456703 0.097617
O O14 0.900369 0.322738 0.653902
O O15 0.093257 0.284584 0.542542
#
# Coordination Sequence:
#
# PCOD9078799 Si02
#       7
#     2   2   2   2   2   2   2
#     4  10  21  37  63  90 127 167 216 261 316 390
#     4  10  18  36  58  91 117 161 216 267 298 379
#     4  10  20  37  60  85 126 167 212 258 309 406
#     4  12  23  40  61  94 136 159 210 275 330 370
#     4  11  22  37  58  91 125 166 211 256 335 374
#     4  10  20  34  62  93 118 161 224 258 314 374
#     4  11  21  38  63  88 129 164 214 265 320 387
#
# _framework density 25.106722999999999
#
# number of rings (size 3 to 8) (size 9 to 14) (size 15 to 20)
#    0.000    1.429    5.714    1.286    2.000    0.000 
#    0.000    0.000    0.000    6.857    0.000    0.000 
#    0.000    0.000    0.000    0.000    0.000    0.000 
#
# Total GULP energy -78144.889095 kJ/mol
# GULP energy per Si atom -5581.777792 kJ/mol
# Density = 2.504958 g / cm^3
# Si number density = 25.106723 Si / 1000 Ang^3
#
#
#
# Elastic Constant Matrix: (Units=GPa)
#
#
# Indices 1 2 3 4 5 6 
#
# 1 140.7825 35.0785 17.8352 10.7965 -1.3865 7.9175
# 2 35.0785 95.6592 12.9433 -14.0453 -3.1191 28.3286
# 3 17.8352 12.9433 65.5399 -5.4408 1.3897 1.9067
# 4 10.7965 -14.0453 -5.4408 27.5488 -0.3965 13.6339
# 5 -1.3865 -3.1191 1.3897 -0.3965 27.2212 -2.1152
# 6 7.9175 28.3286 1.9067 13.6339 -2.1152 43.8322
#
#
#
# Elastic Compliance Matrix: (Units=1/GPa)
#
#
# Indices 1 2 3 4 5 6 
#
# 1 0.009431 -0.006296 -0.002333 -0.010152 0.000168 0.005633
# 2 -0.006296 0.022615 -0.000139 0.024381 0.001000 -0.021008
# 3 -0.002333 -0.000139 0.016406 0.004957 -0.001040 -0.001794
# 4 -0.010152 0.024381 0.004957 0.071723 0.000237 -0.036437
# 5 0.000168 0.001000 -0.001040 0.000237 0.037000 0.001080
# 6 0.005633 -0.021008 -0.001794 -0.036437 0.001080 0.046838
#
#
# Mechanical properties :
#
#
# Convention : Reuss Voigt Hill
#
# Bulk Modulus (GPa) = 32.34577 48.18841 40.26709
# Shear Modulus (GPa) = 21.56521 35.46206 28.51364
#
# Velocity S-wave (km/s) = 2.93395 3.76234 3.37367
# Velocity P-wave (km/s) = 4.93849 6.17322 5.59005
#
# Compressibility (1/GPa) = 0.03091595
#
# Stress axis : x y z
#
# Youngs Moduli (GPa) = 106.03474 44.21821 60.95331
#
# Poissons Ratio (x) = 0.27839 0.14222
# Poissons Ratio (y) = 0.66757 0.00847
# Poissons Ratio (z) = 0.24740 0.00615
#
# Static dielectric constant tensor:
#      x y z
#    x 2.144240 -0.073980 0.136370 
#    y -0.073980 2.104930 -0.078380 
#    z 0.136370 -0.078380 2.117370 
# 
# From -- ./inp_files/433397.got.cif
#   From: 2010.05.17/outbox.cif.g08.bks.cpg/sg2_217_cif.got.tgz:433397.got - 2010.06.03 11:33:40.
