data_PCOD9078791
_publ_section_title
;
Structure prediction by ZEFSAII (Michael W. Deem and Ramdas Pophale) SiO2 
 PCOD9078791
Probable space group: P -1
;
_chemical_formula_sum "Si O2"
_cell_formula_units_Z 14
_cell_length_a 9.836198
_cell_length_b 9.084563
_cell_length_c 9.892956
_cell_angle_alpha 85.434543
_cell_angle_beta 119.212221
_cell_angle_gamma 59.838818
_cell_volume 602.165305
_symmetry_space_group_name_H-M "P -1"
_symmetry_group_IT_number 2
_symmetry_cell_setting 'triclinic'
loop_
_space_group_symop_operation_xyz
x,y,z
-x,-y,-z
loop_
_atom_site_type_symbol
_atom_site_label
_atom_site_fract_x
_atom_site_fract_y
_atom_site_fract_z
Si Si1 0.717399 0.924450 0.729305
Si Si2 0.730298 0.139740 0.930511
Si Si3 0.663123 0.587375 0.145773
Si Si4 0.265355 0.782290 0.781742
Si Si5 0.598982 0.130397 0.390884
Si Si6 0.669875 0.450896 0.689521
Si Si7 0.023699 0.496523 0.175571
O O1 0.522228 0.949774 0.682224
O O2 0.847606 0.728031 0.726927
O O3 0.807033 0.953630 0.899913
O O4 0.672357 0.073662 0.584208
O O5 0.489941 0.260697 0.828050
O O6 0.738720 0.279928 0.832844
O O7 0.174113 0.885626 0.874348
O O8 0.765737 0.371938 0.254055
O O9 0.823153 0.598879 0.155496
O O10 0.499988 0.649235 0.946577
O O11 0.240862 0.912573 0.638935
O O12 0.439200 0.355508 0.294934
O O13 0.500000 0.500000 0.500000
O O14 0.857373 0.429599 0.724517
O O15 0.000000 0.500000 0.000000
#
# Coordination Sequence:
#
# PCOD9078791 Si02
#       7
#     2   2   2   2   2   2   2
#     4  10  22  34  61  90 123 150 212 254 301 359
#     4  10  19  36  64  94 113 162 212 252 288 373
#     4   9  18  36  63  88 118 156 206 249 299 357
#     4   9  17  34  66  83 119 167 207 238 307 373
#     4  10  18  36  58  88 116 170 198 241 301 383
#     4  11  20  37  69  88 123 167 209 242 307 374
#     4  11  23  41  62  92 125 163 202 256 311 363
#
# _framework density 23.24943
#
# number of rings (size 3 to 8) (size 9 to 14) (size 15 to 20)
#    0.857    1.143    2.857    2.571    0.000    0.571 
#    0.000    4.286    0.000    0.000    0.000    0.000 
#    0.000    0.000    0.000    0.000    0.000    0.000 
#
# Total GULP energy -78058.407578 kJ/mol
# GULP energy per Si atom -5575.600541 kJ/mol
# Density = 2.319651 g / cm^3
# Si number density = 23.249430 Si / 1000 Ang^3
#
#
#
# Elastic Constant Matrix: (Units=GPa)
#
#
# Indices 1 2 3 4 5 6 
#
# 1 160.2285 30.4257 31.6552 5.2096 -0.0183 18.1214
# 2 30.4257 56.6976 18.8721 13.7259 -8.0372 7.3517
# 3 31.6552 18.8721 44.4802 7.8239 -13.1820 14.6835
# 4 5.2096 13.7259 7.8239 14.2745 2.2042 -1.2010
# 5 -0.0183 -8.0372 -13.1820 2.2042 31.4745 -4.5295
# 6 18.1214 7.3517 14.6835 -1.2010 -4.5295 19.2885
#
#
#
# Elastic Compliance Matrix: (Units=1/GPa)
#
#
# Indices 1 2 3 4 5 6 
#
# 1 0.008161 -0.003737 -0.004924 0.003624 -0.003718 -0.003141
# 2 -0.003737 0.028465 0.000506 -0.028209 0.008373 -0.007514
# 3 -0.004924 0.000506 0.044801 -0.028166 0.016911 -0.027454
# 4 0.003624 -0.028209 -0.028166 0.117401 -0.022795 0.030745
# 5 -0.003718 0.008373 0.016911 -0.022795 0.041992 -0.004130
# 6 -0.003141 -0.007514 -0.027454 0.030745 -0.004130 0.079503
#
#
# Mechanical properties :
#
#
# Convention : Reuss Voigt Hill
#
# Bulk Modulus (GPa) = 15.35747 47.03470 31.19608
# Shear Modulus (GPa) = 13.95330 25.03773 19.49552
#
# Velocity S-wave (km/s) = 2.45247 3.28520 2.89889
# Velocity P-wave (km/s) = 3.82614 5.88765 4.96507
#
# Compressibility (1/GPa) = 0.06511491
#
# Stress axis : x y z
#
# Youngs Moduli (GPa) = 122.53984 35.13126 22.32112
#
# Poissons Ratio (x) = 0.13129 0.10992
# Poissons Ratio (y) = 0.45796 -0.01130
# Poissons Ratio (z) = 0.60344 -0.01778
#
# Static dielectric constant tensor:
#      x y z
#    x 2.006840 -0.020470 0.071740 
#    y -0.020470 1.902620 -0.046780 
#    z 0.071740 -0.046780 1.977860 
# 
# From -- ./inp_files/375903.got.cif
#   From: 2010.05.17/outbox.cif.g08.bks.cpg/sg2_188_cif.got.tgz:375903.got - 2010.06.03 11:33:40.
