data_PCOD9078619
_publ_section_title
;
Structure prediction by ZEFSAII (Michael W. Deem and Ramdas Pophale) SiO2 
 PCOD9078619
Probable space group: P -1
;
_chemical_formula_sum "Si O2"
_cell_formula_units_Z 14
_cell_length_a 7.806460
_cell_length_b 13.989259
_cell_length_c 13.862886
_cell_angle_alpha 30.113763
_cell_angle_beta 101.682274
_cell_angle_gamma 82.316101
_cell_volume 578.476641
_symmetry_space_group_name_H-M "P -1"
_symmetry_group_IT_number 2
_symmetry_cell_setting 'triclinic'
loop_
_space_group_symop_operation_xyz
x,y,z
-x,-y,-z
loop_
_atom_site_type_symbol
_atom_site_label
_atom_site_fract_x
_atom_site_fract_y
_atom_site_fract_z
Si Si1 0.505010 0.142272 0.531449
Si Si2 0.553528 0.406880 0.448698
Si Si3 0.822276 0.454112 0.004910
Si Si4 0.902597 0.684415 0.518362
Si Si5 0.620898 0.721993 0.290019
Si Si6 0.323385 0.378846 0.963600
Si Si7 0.782105 0.192154 0.074642
O O1 0.643691 0.207587 0.548652
O O2 0.395987 0.309167 0.279611
O O3 0.297721 0.230329 0.503234
O O4 0.625434 0.861472 0.774380
O O5 0.663550 0.533773 0.377417
O O6 0.540133 0.283710 0.648990
O O7 0.304322 0.636418 0.179383
O O8 0.760847 0.428324 0.127840
O O9 0.905373 0.237864 0.127763
O O10 0.000000 0.500000 0.000000
O O11 0.835629 0.629454 0.459475
O O12 0.892533 0.918336 0.299570
O O13 0.131484 0.475722 0.778884
O O14 0.500000 0.000000 0.000000
O O15 0.547013 0.300965 0.006886
#
# Coordination Sequence:
#
# PCOD9078619 Si02
#       7
#     2   2   2   2   2   2   2
#     4   9  20  39  61  85 129 161 200 260 304 359
#     4   9  19  37  62  92 122 162 201 253 313 362
#     4  11  21  40  62  89 121 166 211 253 308 371
#     4  10  20  38  61  90 120 163 207 252 307 370
#     4  10  18  35  69  93 119 163 208 251 312 368
#     4  11  22  39  60  89 123 169 206 250 313 365
#     4  10  22  40  60  86 128 158 204 261 306 363
#
# _framework density 24.201494
#
# number of rings (size 3 to 8) (size 9 to 14) (size 15 to 20)
#    0.000    2.000    2.857    0.857    0.000    0.571 
#    7.714    1.429    0.000    0.000    0.000    0.000 
#    0.000    0.000    0.000    0.000    0.000    0.000 
#
# Total GULP energy -78292.079624 kJ/mol
# GULP energy per Si atom -5592.291402 kJ/mol
# Density = 2.414641 g / cm^3
# Si number density = 24.201494 Si / 1000 Ang^3
#
#
#
# Elastic Constant Matrix: (Units=GPa)
#
#
# Indices 1 2 3 4 5 6 
#
# 1 87.1190 38.7268 16.9594 3.5596 -0.8214 15.8487
# 2 38.7268 170.2731 35.9223 16.8597 -0.7077 37.6100
# 3 16.9594 35.9223 71.9927 3.5533 -29.5350 12.3752
# 4 3.5596 16.8597 3.5533 42.8154 8.7278 -4.6834
# 5 -0.8214 -0.7077 -29.5350 8.7278 31.5982 -0.2741
# 6 15.8487 37.6100 12.3752 -4.6834 -0.2741 47.2226
#
#
#
# Elastic Compliance Matrix: (Units=1/GPa)
#
#
# Indices 1 2 3 4 5 6 
#
# 1 0.013255 -0.001992 -0.002700 0.000136 -0.002280 -0.002154
# 2 -0.001992 0.008639 -0.003846 -0.002974 -0.002679 -0.005514
# 3 -0.002700 -0.003846 0.029661 -0.007217 0.029523 -0.004348
# 4 0.000136 -0.002974 -0.007217 0.028881 -0.014725 0.006993
# 5 -0.002280 -0.002679 0.029523 -0.014725 0.063140 -0.005932
# 6 -0.002154 -0.005514 -0.004348 0.006993 -0.005932 0.028090
#
#
# Mechanical properties :
#
#
# Convention : Reuss Voigt Hill
#
# Bulk Modulus (GPa) = 29.00399 56.95577 42.97988
# Shear Modulus (GPa) = 24.97085 40.17898 32.57491
#
# Velocity S-wave (km/s) = 3.21563 4.07896 3.67275
# Velocity P-wave (km/s) = 5.07912 6.76527 5.98191
#
# Compressibility (1/GPa) = 0.03447802
#
# Stress axis : x y z
#
# Youngs Moduli (GPa) = 75.44571 115.75897 33.71446
#
# Poissons Ratio (x) = 0.23060 0.09104
# Poissons Ratio (y) = 0.15029 0.12965
# Poissons Ratio (z) = 0.20372 0.44517
#
# Static dielectric constant tensor:
#      x y z
#    x 1.995790 -0.011890 -0.026460 
#    y -0.011890 1.960840 0.000150 
#    z -0.026460 0.000150 1.887530 
# 
# From -- ./inp_files/46942.got.cif
#   From: 2010.05.17/outbox.cif.g08.bks.cpg/sg2_24_cif.got.tgz:46942.got - 2010.06.03 11:33:40.
