data_PCOD9078880
_publ_section_title
;
Structure prediction by ZEFSAII (Michael W. Deem and Ramdas Pophale) SiO2 
 PCOD9078880
Probable space group: P -1
;
_chemical_formula_sum "Si O2"
_cell_formula_units_Z 16
_cell_length_a 14.123240
_cell_length_b 12.666685
_cell_length_c 8.941859
_cell_angle_alpha 45.087482
_cell_angle_beta 136.310046
_cell_angle_gamma 146.356210
_cell_volume 589.118783
_symmetry_space_group_name_H-M "P -1"
_symmetry_group_IT_number 2
_symmetry_cell_setting 'triclinic'
loop_
_space_group_symop_operation_xyz
x,y,z
-x,-y,-z
loop_
_atom_site_type_symbol
_atom_site_label
_atom_site_fract_x
_atom_site_fract_y
_atom_site_fract_z
Si Si1 0.372991 0.038582 0.245231
Si Si2 0.163074 0.524724 0.952613
Si Si3 0.984757 0.671445 0.304369
Si Si4 0.421772 0.260307 0.326124
Si Si5 0.060187 0.861640 0.774547
Si Si6 0.441982 0.953206 0.812293
Si Si7 0.657083 0.533530 0.558529
Si Si8 0.049116 0.950589 0.355398
O O1 0.175196 0.860177 0.261359
O O2 0.500000 0.000000 0.500000
O O3 0.433041 0.237172 0.187281
O O4 0.412934 0.051305 0.103315
O O5 0.238880 0.738965 0.776383
O O6 0.166108 0.429128 0.900241
O O7 0.972254 0.331288 0.005467
O O8 0.304421 0.588323 0.181897
O O9 0.962001 0.761041 0.335317
O O10 0.000000 0.500000 0.500000
O O11 0.584179 0.469822 0.372634
O O12 0.452794 0.120911 0.579882
O O13 0.216069 0.143317 0.260725
O O14 0.849730 0.744912 0.597393
O O15 0.139548 0.940354 0.620222
O O16 0.078358 0.001260 0.784009
O O17 0.500000 0.000000 0.000000
O O18 0.500000 0.500000 0.500000
#
# Coordination Sequence:
#
# PCOD9078880 Si02
#       8
#     2   2   2   2   2   2   2   2
#     4   9  21  36  58  85 116 160 200 231 301 363
#     4  10  22  38  56  91 120 151 204 245 300 359
#     4  11  23  40  62  87 128 160 194 255 304 362
#     4  10  18  36  60  82 116 156 196 245 299 355
#     4   9  21  37  59  89 117 155 205 246 295 360
#     4  11  20  36  57  87 121 155 192 251 298 360
#     4  10  19  37  60  84 116 153 201 252 292 350
#     4  10  20  38  62  85 114 163 198 245 308 357
#
# _framework density 27.159208
#
# number of rings (size 3 to 8) (size 9 to 14) (size 15 to 20)
#    0.750    1.250    2.500    2.250    0.000    5.500 
#    0.000    1.875    0.000    7.500    0.000    0.000 
#    0.000    0.000    0.000    0.000    0.000    0.000 
#
# Total GULP energy -89146.389129 kJ/mol
# GULP energy per Si atom -5571.649321 kJ/mol
# Density = 2.709739 g / cm^3
# Si number density = 27.159208 Si / 1000 Ang^3
#
#
#
# Elastic Constant Matrix: (Units=GPa)
#
#
# Indices 1 2 3 4 5 6 
#
# 1 113.6645 31.4026 16.9275 3.2994 -31.1146 -24.9297
# 2 31.4026 132.4825 26.5091 22.9335 -19.6030 -34.3171
# 3 16.9275 26.5091 65.4388 3.2922 -29.4261 -20.8433
# 4 3.2994 22.9335 3.2922 46.6419 -12.5257 -10.9594
# 5 -31.1146 -19.6030 -29.4261 -12.5257 42.4370 10.9443
# 6 -24.9297 -34.3171 -20.8433 -10.9594 10.9443 42.8146
#
#
#
# Elastic Compliance Matrix: (Units=1/GPa)
#
#
# Indices 1 2 3 4 5 6 
#
# 1 0.012954 -0.001170 0.004139 0.003979 0.011258 0.006760
# 2 -0.001170 0.010302 -0.001788 -0.003458 0.000149 0.005782
# 3 0.004139 -0.001788 0.027084 0.006607 0.020181 0.010695
# 4 0.003979 -0.003458 0.006607 0.027230 0.012235 0.006604
# 5 0.011258 0.000149 0.020181 0.012235 0.047565 0.007472
# 6 0.006760 0.005782 0.010695 0.006604 0.007472 0.036914
#
#
# Mechanical properties :
#
#
# Convention : Reuss Voigt Hill
#
# Bulk Modulus (GPa) = 18.97538 51.25157 35.11347
# Shear Modulus (GPa) = 28.20812 42.16180 35.18496
#
# Velocity S-wave (km/s) = 3.22626 3.94432 3.60322
# Velocity P-wave (km/s) = 4.56949 6.29724 5.50161
#
# Compressibility (1/GPa) = 0.05269988
#
# Stress axis : x y z
#
# Youngs Moduli (GPa) = 77.19824 97.07175 36.92236
#
# Poissons Ratio (x) = 0.11362 -0.15281
# Poissons Ratio (y) = 0.09036 0.06601
# Poissons Ratio (z) = -0.31949 0.17354
#
# Static dielectric constant tensor:
#      x y z
#    x 2.193910 0.009510 -0.005670 
#    y 0.009510 2.231270 -0.001970 
#    z -0.005670 -0.001970 2.369880 
# 
# From -- ./inp_files/282925.got.cif
#   From: 2010.05.17/outbox.cif.g08.bks.cpg/sg2_142_cif.got.tgz:282925.got - 2010.06.03 11:33:40.
