data_PCOD9078149
_publ_section_title
;
Structure prediction by ZEFSAII (Michael W. Deem and Ramdas Pophale) SiO2 
 PCOD9078149
Probable space group: P -1
;
_chemical_formula_sum "Si O2"
_cell_formula_units_Z 14
_cell_length_a 7.062319
_cell_length_b 12.112917
_cell_length_c 14.981441
_cell_angle_alpha 29.516987
_cell_angle_beta 59.299431
_cell_angle_gamma 52.560763
_cell_volume 500.784926
_symmetry_space_group_name_H-M "P -1"
_symmetry_group_IT_number 2
_symmetry_cell_setting 'triclinic'
loop_
_space_group_symop_operation_xyz
x,y,z
-x,-y,-z
loop_
_atom_site_type_symbol
_atom_site_label
_atom_site_fract_x
_atom_site_fract_y
_atom_site_fract_z
Si Si1 0.519731 0.836578 0.974533
Si Si2 0.234884 0.418733 0.620014
Si Si3 0.824332 0.164402 0.176450
Si Si4 0.478946 0.538331 0.629547
Si Si5 0.285249 0.961033 0.526575
Si Si6 0.921108 0.225176 0.927187
Si Si7 0.308231 0.272345 0.163789
O O1 0.542805 0.707532 0.154313
O O2 0.361528 0.698943 0.062223
O O3 0.733623 0.768727 0.900485
O O4 0.393182 0.127299 0.797201
O O5 0.319279 0.587574 0.544134
O O6 0.270692 0.484249 0.462512
O O7 0.994877 0.425959 0.721624
O O8 0.870700 0.062778 0.336328
O O9 0.589832 0.117762 0.229584
O O10 0.003424 0.116288 0.082647
O O11 0.742335 0.451447 0.003017
O O12 0.386164 0.738349 0.588374
O O13 0.500000 0.000000 0.500000
O O14 0.163096 0.188688 0.330271
O O15 0.000000 0.000000 0.000000
#
# Coordination Sequence:
#
# PCOD9078149 Si02
#       7
#     2   2   2   2   2   2   2
#     4  10  18  35  59  83 105 142 189 228 266 319
#     4  10  22  38  53  81 120 145 176 224 277 335
#     4   9  17  31  51  78 103 140 177 225 273 308
#     4  11  21  35  58  84 108 148 185 224 275 320
#     4  10  19  30  53  84 105 134 187 233 261 312
#     4   9  20  36  56  79 115 145 178 225 277 326
#     4   9  16  29  52  80 106 129 181 234 262 305
#
# _framework density 27.956112999999998
#
# number of rings (size 3 to 8) (size 9 to 14) (size 15 to 20)
#    0.000    2.286    2.857    0.429    4.000    0.571 
#    0.000    3.571    0.000    0.857    0.000    0.000 
#    0.000    0.000    0.000    0.000    0.000    0.000 
#
# Total GULP energy -78136.146295 kJ/mol
# GULP energy per Si atom -5581.153307 kJ/mol
# Density = 2.789248 g / cm^3
# Si number density = 27.956113 Si / 1000 Ang^3
#
#
#
# Elastic Constant Matrix: (Units=GPa)
#
#
# Indices 1 2 3 4 5 6 
#
# 1 65.6064 34.7787 26.7779 18.0389 -19.6645 12.0021
# 2 34.7787 180.8327 74.5412 45.0449 8.3832 32.8069
# 3 26.7779 74.5412 197.1399 51.2455 -2.2047 1.3218
# 4 18.0389 45.0449 51.2455 76.9355 1.5517 5.4440
# 5 -19.6645 8.3832 -2.2047 1.5517 40.2259 11.3733
# 6 12.0021 32.8069 1.3218 5.4440 11.3733 35.9730
#
#
#
# Elastic Compliance Matrix: (Units=1/GPa)
#
#
# Indices 1 2 3 4 5 6 
#
# 1 0.024327 -0.002115 -0.001469 -0.003052 0.015346 -0.010524
# 2 -0.002115 0.008766 -0.002316 -0.002614 -0.001057 -0.006474
# 3 -0.001469 -0.002316 0.006931 -0.003117 -0.000585 0.003004
# 4 -0.003052 -0.002614 -0.003117 0.017251 -0.002240 0.001615
# 5 0.015346 -0.001057 -0.000585 -0.002240 0.037018 -0.015500
# 6 -0.010524 -0.006474 0.003004 0.001615 -0.015500 0.041760
#
#
# Mechanical properties :
#
#
# Convention : Reuss Voigt Hill
#
# Bulk Modulus (GPa) = 35.43060 79.53051 57.48055
# Shear Modulus (GPa) = 31.79369 51.12563 41.45966
#
# Velocity S-wave (km/s) = 3.37600 4.28107 3.85519
# Velocity P-wave (km/s) = 5.28183 7.27645 6.35785
#
# Compressibility (1/GPa) = 0.02822419
#
# Stress axis : x y z
#
# Youngs Moduli (GPa) = 41.10597 114.07290 144.26939
#
# Poissons Ratio (x) = 0.24128 0.21196
# Poissons Ratio (y) = 0.08695 0.33415
# Poissons Ratio (z) = 0.06039 0.26421
#
# Static dielectric constant tensor:
#      x y z
#    x 2.477230 -0.113010 -0.046590 
#    y -0.113010 2.308510 0.234050 
#    z -0.046590 0.234050 2.337250 
# 
# From -- ./inp_files/181779.got.cif
#   From: 2010.05.17/outbox.cif.g08.bks.cpg/sg2_91_cif.got.tgz:181779.got - 2010.06.03 11:33:40.
