data_PCOD9078234
_publ_section_title
;
Structure prediction by ZEFSAII (Michael W. Deem and Ramdas Pophale) SiO2 
 PCOD9078234
Probable space group: P -1
;
_chemical_formula_sum "Si O2"
_cell_formula_units_Z 16
_cell_length_a 12.787799
_cell_length_b 12.510964
_cell_length_c 8.821848
_cell_angle_alpha 72.297869
_cell_angle_beta 127.035223
_cell_angle_gamma 129.889244
_cell_volume 856.651979
_symmetry_space_group_name_H-M "P -1"
_symmetry_group_IT_number 2
_symmetry_cell_setting 'triclinic'
loop_
_space_group_symop_operation_xyz
x,y,z
-x,-y,-z
loop_
_atom_site_type_symbol
_atom_site_label
_atom_site_fract_x
_atom_site_fract_y
_atom_site_fract_z
Si Si1 0.644986 0.247248 0.247429
Si Si2 0.658986 0.842582 0.782483
Si Si3 0.878801 0.361235 0.159756
Si Si4 0.827998 0.559142 0.407576
Si Si5 0.484605 0.547695 0.631008
Si Si6 0.793424 0.686254 0.023546
Si Si7 0.043359 0.680838 0.073112
Si Si8 0.689229 0.090462 0.579374
O O1 0.462685 0.177928 0.181032
O O2 0.696570 0.276378 0.105039
O O3 0.752509 0.402808 0.348996
O O4 0.696422 0.151816 0.396485
O O5 0.550387 0.710709 0.627478
O O6 0.736064 0.986522 0.698993
O O7 0.781513 0.814077 0.971232
O O8 0.002122 0.379515 0.388210
O O9 0.944915 0.517575 0.101456
O O10 0.898686 0.295483 0.058168
O O11 0.697565 0.543145 0.420362
O O12 0.839264 0.645966 0.234403
O O13 0.500000 0.500000 0.500000
O O14 0.611606 0.557317 0.858882
O O15 0.920877 0.717631 0.991833
O O16 0.200855 0.775134 0.275686
O O17 0.500000 0.000000 0.500000
#
# Coordination Sequence:
#
# PCOD9078234 Si02
#       8
#     2   2   2   2   2   2   2   2
#     4  10  18  35  60  83 111 146 187 235 270 334
#     4   8  21  35  58  81 110 153 191 218 270 345
#     4  11  22  34  55  92 115 139 187 242 296 309
#     4  11  18  32  55  84 114 142 184 232 283 333
#     4   9  19  34  54  83 115 145 181 236 281 324
#     4  10  20  34  56  85 109 147 186 228 280 331
#     4  11  22  35  58  84 117 146 181 243 283 329
#     4  10  20  40  59  79 110 154 196 217 270 346
#
# _framework density 18.677363
#
# number of rings (size 3 to 8) (size 9 to 14) (size 15 to 20)
#    0.750    1.250    2.500    2.250    0.000    0.500 
#    0.000    2.500    2.750    1.500    0.000    0.000 
#    0.000    0.000    0.000    0.000    0.000    0.000 
#
# Total GULP energy -89106.353233 kJ/mol
# GULP energy per Si atom -5569.147077 kJ/mol
# Density = 1.863485 g / cm^3
# Si number density = 18.677363 Si / 1000 Ang^3
#
#
#
# Elastic Constant Matrix: (Units=GPa)
#
#
# Indices 1 2 3 4 5 6 
#
# 1 127.9153 17.9242 22.6391 -17.7870 -11.4781 9.4069
# 2 17.9242 42.2769 -1.4214 -25.6699 -4.3796 -3.1495
# 3 22.6391 -1.4214 40.4359 -22.8199 4.0990 -9.7764
# 4 -17.7870 -25.6699 -22.8199 27.0036 2.7473 8.6911
# 5 -11.4781 -4.3796 4.0990 2.7473 29.4535 -3.5598
# 6 9.4069 -3.1495 -9.7764 8.6911 -3.5598 16.9947
#
#
#
# Elastic Compliance Matrix: (Units=1/GPa)
#
#
# Indices 1 2 3 4 5 6 
#
# 1 0.009979 0.008993 0.004488 0.022948 0.000912 -0.012820
# 2 0.008993 -0.101242 -0.119945 -0.198864 0.025419 0.014283
# 3 0.004488 -0.119945 -0.087509 -0.196178 0.017898 0.029022
# 4 0.022948 -0.198864 -0.196178 -0.306941 0.035547 0.002006
# 5 0.000912 0.025419 0.017898 0.035547 0.032663 0.003165
# 6 -0.012820 0.014283 0.029022 0.002006 0.003165 0.084917
#
#
# Mechanical properties :
#
#
# Convention : Reuss Voigt Hill
#
# Bulk Modulus (GPa) = -2.55296 32.10132 14.77418
# Shear Modulus (GPa) = -17.49649 26.12277 4.31314
#
# Velocity S-wave (km/s) = -3.06400 3.74389 1.52128
# Velocity P-wave (km/s) = 3.72657 5.99279 3.31860
#
# Compressibility (1/GPa) = -0.39170149
#
# Stress axis : x y z
#
# Youngs Moduli (GPa) = 100.21307 -9.87733 -11.42742
#
# Poissons Ratio (x) = 0.08883 0.05128
# Poissons Ratio (y) = -0.90122 -1.37067
# Poissons Ratio (z) = -0.44973 -1.18474
#
# Static dielectric constant tensor:
#      x y z
#    x 1.672090 0.001580 0.027230 
#    y 0.001580 1.657730 -0.009690 
#    z 0.027230 -0.009690 1.657700 
# 
# From -- ./inp_files/267472.got.cif
#   From: 2010.05.17/outbox.cif.g08.bks.cpg/sg2_134_cif.got.tgz:267472.got - 2010.06.03 11:33:40.
