data_PCOD9078907
_publ_section_title
;
Structure prediction by ZEFSAII (Michael W. Deem and Ramdas Pophale) SiO2 
 PCOD9078907
Probable space group: P -1
;
_chemical_formula_sum "Si O2"
_cell_formula_units_Z 16
_cell_length_a 16.715013
_cell_length_b 4.949256
_cell_length_c 8.804484
_cell_angle_alpha 69.319029
_cell_angle_beta 114.071266
_cell_angle_gamma 109.230772
_cell_volume 607.354478
_symmetry_space_group_name_H-M "P -1"
_symmetry_group_IT_number 2
_symmetry_cell_setting 'triclinic'
loop_
_space_group_symop_operation_xyz
x,y,z
-x,-y,-z
loop_
_atom_site_type_symbol
_atom_site_label
_atom_site_fract_x
_atom_site_fract_y
_atom_site_fract_z
Si Si1 0.796998 0.268562 0.784427
Si Si2 0.538574 0.674688 0.734036
Si Si3 0.040607 0.917283 0.204904
Si Si4 0.916781 0.238765 0.442989
Si Si5 0.421078 0.134127 0.606481
Si Si6 0.708053 0.727810 0.034058
Si Si7 0.132986 0.557783 0.899324
Si Si8 0.260647 0.584821 0.597396
O O1 0.860001 0.107182 0.766762
O O2 0.747086 0.433408 0.590107
O O3 0.869262 0.456662 0.918654
O O4 0.737179 0.044820 0.904917
O O5 0.453807 0.409852 0.687277
O O6 0.587808 0.743230 0.595132
O O7 0.503006 0.963330 0.695397
O O8 0.607290 0.601726 0.924113
O O9 0.062117 0.021069 0.377206
O O10 0.954219 0.643215 0.200665
O O11 0.000000 0.000000 0.000000
O O12 0.880970 0.149988 0.260919
O O13 0.832492 0.356570 0.422954
O O14 0.000000 0.500000 0.500000
O O15 0.334881 0.884230 0.627238
O O16 0.777234 0.544300 0.055597
O O17 0.715149 0.677002 0.229820
#
# Coordination Sequence:
#
# PCOD9078907 Si02
#       8
#     2   2   2   2   2   2   2   2
#     4  11  22  40  62  90 128 164 221 269 325 394
#     4  10  23  41  71  95 137 174 224 285 344 401
#     4  10  18  36  60  85 123 169 209 262 330 389
#     4   8  18  37  62  87 129 166 206 269 319 388
#     4  10  22  44  67 101 131 179 224 280 344 406
#     4  11  23  41  63  93 127 171 210 273 334 394
#     4  10  21  38  62  87 122 170 214 267 325 390
#     4  10  22  42  64  95 130 171 218 269 329 406
#
# _framework density 26.343761000000001
#
# number of rings (size 3 to 8) (size 9 to 14) (size 15 to 20)
#    0.000    2.000    2.500    0.375    1.750    2.000 
#    6.750    0.625    0.000    0.000    0.000    0.000 
#    0.000    0.000    0.000    0.000    0.000    0.000 
#
# Total GULP energy -89078.789053 kJ/mol
# GULP energy per Si atom -5567.424316 kJ/mol
# Density = 2.628380 g / cm^3
# Si number density = 26.343761 Si / 1000 Ang^3
#
#
#
# Elastic Constant Matrix: (Units=GPa)
#
#
# Indices 1 2 3 4 5 6 
#
# 1 95.2293 -18.5583 6.2406 0.8069 34.7403 -1.9732
# 2 -18.5583 116.0553 35.3526 -11.6135 -46.2834 47.6877
# 3 6.2406 35.3526 274.7833 -23.6688 14.6491 5.1732
# 4 0.8069 -11.6135 -23.6688 11.5020 15.1023 -8.2480
# 5 34.7403 -46.2834 14.6491 15.1023 65.7401 -21.0161
# 6 -1.9732 47.6877 5.1732 -8.2480 -21.0161 62.5847
#
#
#
# Elastic Compliance Matrix: (Units=1/GPa)
#
#
# Indices 1 2 3 4 5 6 
#
# 1 0.015352 -0.002153 0.002683 0.022328 -0.015467 -0.000348
# 2 -0.002153 0.018974 -0.004861 -0.020749 0.016756 -0.011232
# 3 0.002683 -0.004861 0.007087 0.026853 -0.011688 0.002817
# 4 0.022328 -0.020749 0.026853 0.240165 -0.081640 0.018531
# 5 -0.015467 0.016756 -0.011688 -0.081640 0.055086 -0.004550
# 6 -0.000348 -0.011232 0.002817 0.018531 -0.004550 0.025207
#
#
# Mechanical properties :
#
#
# Convention : Reuss Voigt Hill
#
# Bulk Modulus (GPa) = 30.53521 59.12642 44.83082
# Shear Modulus (GPa) = 13.10783 58.83423 35.97103
#
# Velocity S-wave (km/s) = 2.23305 4.73094 3.69921
# Velocity P-wave (km/s) = 4.27374 7.23431 5.94139
#
# Compressibility (1/GPa) = 0.03274908
#
# Stress axis : x y z
#
# Youngs Moduli (GPa) = 65.13962 52.70304 141.10770
#
# Poissons Ratio (x) = 0.11348 -0.37856
# Poissons Ratio (y) = 0.14026 0.68597
# Poissons Ratio (z) = -0.17476 0.25621
#
# Static dielectric constant tensor:
#      x y z
#    x 2.065760 0.527490 -0.448080 
#    y 0.527490 4.028980 -1.403610 
#    z -0.448080 -1.403610 3.110560 
# 
# From -- ./inp_files/323470.got.cif
#   From: 2010.05.17/outbox.cif.g08.bks.cpg/sg2_162_cif.got.tgz:323470.got - 2010.06.03 11:33:40.
