data_PCOD9078262
_publ_section_title
;
Structure prediction by ZEFSAII (Michael W. Deem and Ramdas Pophale) SiO2 
 PCOD9078262
Probable space group: P -1
;
_chemical_formula_sum "Si O2"
_cell_formula_units_Z 16
_cell_length_a 29.320703
_cell_length_b 22.684052
_cell_length_c 9.498789
_cell_angle_alpha 35.399753
_cell_angle_beta 27.762390
_cell_angle_gamma 17.650243
_cell_volume 874.449131
_symmetry_space_group_name_H-M "P -1"
_symmetry_group_IT_number 2
_symmetry_cell_setting 'triclinic'
loop_
_space_group_symop_operation_xyz
x,y,z
-x,-y,-z
loop_
_atom_site_type_symbol
_atom_site_label
_atom_site_fract_x
_atom_site_fract_y
_atom_site_fract_z
Si Si1 0.605511 0.807466 0.141444
Si Si2 0.001215 0.758125 0.909379
Si Si3 0.588094 0.176705 0.164476
Si Si4 0.347904 0.571767 0.187552
Si Si5 0.782163 0.232536 0.128778
Si Si6 0.020478 0.449903 0.706648
Si Si7 0.545292 0.625116 0.143520
Si Si8 0.250018 0.427322 0.080823
O O1 0.482378 0.860523 0.490261
O O2 0.649067 0.697686 0.098549
O O3 0.810731 0.654597 0.942437
O O4 0.500000 0.000000 0.000000
O O5 0.177327 0.668175 0.548823
O O6 0.067863 0.656142 0.078183
O O7 0.955299 0.693399 0.075450
O O8 0.809072 0.992499 0.958982
O O9 0.468779 0.374647 0.170485
O O10 0.533681 0.230860 0.044015
O O11 0.500000 0.500000 0.000000
O O12 0.260605 0.716292 0.019243
O O13 0.715681 0.399125 0.059070
O O14 0.633340 0.285356 0.498379
O O15 0.000000 0.000000 0.000000
O O16 0.180974 0.387598 0.430820
O O17 0.000000 0.500000 0.500000
O O18 0.620955 0.619652 0.080838
#
# Coordination Sequence:
#
# PCOD9078262 Si02
#       8
#     2   2   2   2   2   2   2   2
#     4  10  18  35  60  87 117 157 197 235 294 349
#     4  10  19  36  59  83 116 150 192 240 292 341
#     4  11  21  37  61  84 119 155 189 242 299 348
#     4  11  22  36  59  89 114 147 201 249 282 342
#     4  10  22  41  61  79 121 161 191 237 304 354
#     4   8  16  32  54  80 112 147 183 235 282 335
#     4  10  23  40  58  88 120 154 193 245 297 346
#     4  10  19  37  59  86 120 149 199 247 281 351
#
# _framework density 18.297232999999999
#
# number of rings (size 3 to 8) (size 9 to 14) (size 15 to 20)
#    0.000    2.250    2.500    3.750    0.000    1.500 
#    2.250    3.125    0.000    0.000    0.000    0.000 
#    0.000    0.000    0.000    0.000    0.000    0.000 
#
# Total GULP energy -89088.657576 kJ/mol
# GULP energy per Si atom -5568.041098 kJ/mol
# Density = 1.825559 g / cm^3
# Si number density = 18.297233 Si / 1000 Ang^3
#
#
#
# Elastic Constant Matrix: (Units=GPa)
#
#
# Indices 1 2 3 4 5 6 
#
# 1 60.3809 6.8060 53.5170 -8.0953 -8.8061 -16.0773
# 2 6.8060 55.0146 77.3629 1.4534 -11.5969 -27.0510
# 3 53.5170 77.3629 90.6520 6.4141 4.8681 -10.4574
# 4 -8.0953 1.4534 6.4141 32.9399 -9.0669 1.9015
# 5 -8.8061 -11.5969 4.8681 -9.0669 12.9549 -2.0403
# 6 -16.0773 -27.0510 -10.4574 1.9015 -2.0403 17.9806
#
#
#
# Elastic Compliance Matrix: (Units=1/GPa)
#
#
# Indices 1 2 3 4 5 6 
#
# 1 0.010843 -0.013538 0.004431 0.000946 -0.007169 -0.009008
# 2 -0.013538 0.000801 0.008231 -0.009967 -0.019703 -0.007295
# 3 0.004431 0.008231 0.002597 0.003137 0.014620 0.019182
# 4 0.000946 -0.009967 0.003137 0.034713 0.012542 -0.014573
# 5 -0.007169 -0.019703 0.014620 0.012542 0.054387 -0.022705
# 6 -0.009008 -0.007295 0.019182 -0.014573 -0.022705 0.046707
#
#
# Mechanical properties :
#
#
# Convention : Reuss Voigt Hill
#
# Bulk Modulus (GPa) = 80.07548 53.49105 66.78326
# Shear Modulus (GPa) = 32.05883 17.33251 24.69567
#
# Velocity S-wave (km/s) = 4.19037 3.08112 3.67780
# Velocity P-wave (km/s) = 8.20189 6.47732 7.39008
#
# Compressibility (1/GPa) = 0.01248822
#
# Stress axis : x y z
#
# Youngs Moduli (GPa) = 92.22446 1249.17371 385.03348
#
# Poissons Ratio (x) = 16.91081 -1.70596
# Poissons Ratio (y) = 1.24850 -3.16906
# Poissons Ratio (z) = -0.40862 -10.28147
#
# Static dielectric constant tensor:
#      x y z
#    x 1.635910 0.010310 -0.012710 
#    y 0.010310 1.671910 -0.011290 
#    z -0.012710 -0.011290 1.672880 
# 
# From -- ./inp_files/357730.got.cif
#   From: 2010.05.17/outbox.cif.g08.bks.cpg/sg2_179_cif.got.tgz:357730.got - 2010.06.03 11:33:40.
