data_PCOD9078952
_publ_section_title
;
Structure prediction by ZEFSAII (Michael W. Deem and Ramdas Pophale) SiO2 
 PCOD9078952
Probable space group: P -1
;
_chemical_formula_sum "Si O2"
_cell_formula_units_Z 14
_cell_length_a 8.813894
_cell_length_b 6.789187
_cell_length_c 11.438584
_cell_angle_alpha 61.508049
_cell_angle_beta 63.634790
_cell_angle_gamma 79.226806
_cell_volume 538.729672
_symmetry_space_group_name_H-M "P -1"
_symmetry_group_IT_number 2
_symmetry_cell_setting 'triclinic'
loop_
_space_group_symop_operation_xyz
x,y,z
-x,-y,-z
loop_
_atom_site_type_symbol
_atom_site_label
_atom_site_fract_x
_atom_site_fract_y
_atom_site_fract_z
Si Si1 0.577560 0.356594 0.182234
Si Si2 0.742192 0.557414 0.867137
Si Si3 0.465862 0.742168 0.536812
Si Si4 0.982094 0.136672 0.659250
Si Si5 0.259747 0.114869 0.761741
Si Si6 0.092998 0.733191 0.592038
Si Si7 0.696093 0.033861 0.955959
O O1 0.409407 0.306480 0.177413
O O2 0.497427 0.405303 0.320793
O O3 0.699019 0.145187 0.208634
O O4 0.692294 0.543675 0.024645
O O5 0.715840 0.298489 0.907929
O O6 0.928024 0.624088 0.740901
O O7 0.275078 0.672806 0.591220
O O8 0.500000 0.000000 0.500000
O O9 0.579509 0.746260 0.382438
O O10 0.912645 0.299687 0.536835
O O11 0.821625 0.009613 0.810014
O O12 0.103113 0.189634 0.713666
O O13 0.088131 0.986109 0.575639
O O14 0.246180 0.103456 0.909584
O O15 0.500000 0.000000 0.000000
#
# Coordination Sequence:
#
# PCOD9078952 Si02
#       7
#     2   2   2   2   2   2   2
#     4   9  19  36  59  88 124 154 202 253 299 355
#     4  10  23  38  59  92 125 164 203 255 307 362
#     4  10  18  36  60  94 122 153 204 258 298 357
#     4  11  23  39  66  95 123 162 209 251 306 372
#     4  10  20  40  64  92 123 163 205 255 300 367
#     4  11  23  37  66  98 119 163 208 257 305 359
#     4  11  25  43  63  89 127 168 204 250 315 370
#
# _framework density 25.987061000000001
#
# number of rings (size 3 to 8) (size 9 to 14) (size 15 to 20)
#    0.000    1.714    2.857    2.143   12.000    1.143 
#    0.000    1.429    0.000    3.429    0.000    0.000 
#    0.000    0.000    0.000    0.000    0.000    0.000 
#
# Total GULP energy -78221.403739 kJ/mol
# GULP energy per Si atom -5587.243124 kJ/mol
# Density = 2.592791 g / cm^3
# Si number density = 25.987061 Si / 1000 Ang^3
#
#
#
# Elastic Constant Matrix: (Units=GPa)
#
#
# Indices 1 2 3 4 5 6 
#
# 1 164.6839 9.2731 92.1389 -2.8368 -1.7481 13.7451
# 2 9.2731 59.8418 -2.8778 21.6863 15.6847 7.7401
# 3 92.1389 -2.8778 222.2338 11.1807 4.1284 13.9279
# 4 -2.8368 21.6863 11.1807 28.2905 7.7428 -1.6284
# 5 -1.7481 15.6847 4.1284 7.7428 57.3766 1.6889
# 6 13.7451 7.7401 13.9279 -1.6284 1.6889 34.1499
#
#
#
# Elastic Compliance Matrix: (Units=1/GPa)
#
#
# Indices 1 2 3 4 5 6 
#
# 1 0.008527 -0.003236 -0.003759 0.004537 0.000832 -0.000990
# 2 -0.003236 0.027402 0.003322 -0.021768 -0.004683 -0.007069
# 3 -0.003759 0.003322 0.006521 -0.005432 -0.000696 -0.002124
# 4 0.004537 -0.021768 -0.005432 0.055436 -0.001238 0.008028
# 5 0.000832 -0.004683 -0.000696 -0.001238 0.018951 0.000014
# 6 -0.000990 -0.007069 -0.002124 0.008028 0.000014 0.032532
#
#
# Mechanical properties :
#
#
# Convention : Reuss Voigt Hill
#
# Bulk Modulus (GPa) = 28.48722 71.53642 50.01182
# Shear Modulus (GPa) = 29.68826 47.17842 38.43334
#
# Velocity S-wave (km/s) = 3.38364 4.26544 3.84987
# Velocity P-wave (km/s) = 5.12360 7.20043 6.24890
#
# Compressibility (1/GPa) = 0.03510346
#
# Stress axis : x y z
#
# Youngs Moduli (GPa) = 117.27214 36.49335 153.36095
#
# Poissons Ratio (x) = 0.11810 0.57647
# Poissons Ratio (y) = 0.37950 -0.50942
# Poissons Ratio (z) = 0.44082 -0.12122
#
# Static dielectric constant tensor:
#      x y z
#    x 2.001190 0.011950 0.070160 
#    y 0.011950 2.280780 -0.023490 
#    z 0.070160 -0.023490 2.075970 
# 
# From -- ./inp_files/381260.got.cif
#   From: 2010.05.17/outbox.cif.g08.bks.cpg/sg2_191_cif.got.tgz:381260.got - 2010.06.03 11:33:40.
