data_PCOD9078753
_publ_section_title
;
Structure prediction by ZEFSAII (Michael W. Deem and Ramdas Pophale) SiO2 
 PCOD9078753
Probable space group: P -1
;
_chemical_formula_sum "Si O2"
_cell_formula_units_Z 15
_cell_length_a 21.042614
_cell_length_b 6.679716
_cell_length_c 7.191946
_cell_angle_alpha 121.071407
_cell_angle_beta 129.759851
_cell_angle_gamma 92.862950
_cell_volume 543.549804
_symmetry_space_group_name_H-M "P -1"
_symmetry_group_IT_number 2
_symmetry_cell_setting 'triclinic'
loop_
_space_group_symop_operation_xyz
x,y,z
-x,-y,-z
loop_
_atom_site_type_symbol
_atom_site_label
_atom_site_fract_x
_atom_site_fract_y
_atom_site_fract_z
Si Si1 0.840241 0.636100 0.342177
Si Si2 0.000000 0.000000 0.500000
Si Si3 0.422363 0.082548 0.299146
Si Si4 0.027409 0.461859 0.238543
Si Si5 0.120208 0.997951 0.962131
Si Si6 0.644453 0.541763 0.825416
Si Si7 0.292628 0.982997 0.359874
Si Si8 0.619591 0.172308 0.264796
O O1 0.933196 0.881798 0.515918
O O2 0.882081 0.576907 0.577609
O O3 0.748158 0.667388 0.190863
O O4 0.797836 0.342955 0.011939
O O5 0.103255 0.210081 0.924439
O O6 0.544374 0.277518 0.615042
O O7 0.387534 0.259713 0.211626
O O8 0.378053 0.052307 0.404685
O O9 0.374021 0.813346 0.938737
O O10 0.057891 0.748801 0.554768
O O11 0.935569 0.184815 0.044035
O O12 0.000000 0.500000 0.000000
O O13 0.236417 0.128703 0.274188
O O14 0.661973 0.428142 0.611687
O O15 0.337722 0.001255 0.652498
O O16 0.500000 0.000000 0.000000
#
# Coordination Sequence:
#
# PCOD9078753 Si02
#       8
#     2   1   2   2   2   2   2   2
#     4   9  19  34  57  83 112 157 203 248 307 359
#     4  10  18  36  58  78 112 152 196 248 298 358
#     4  10  20  37  61  87 125 163 196 250 305 361
#     4   9  18  35  55  78 108 149 198 245 298 362
#     4   9  19  34  55  79 110 150 191 245 305 354
#     4   9  19  38  60  89 124 159 203 251 301 363
#     4  10  20  36  57  85 118 157 203 250 306 366
#     4   9  20  37  57  85 120 161 204 244 299 364
#
# _framework density 27.596367999999998
#
# number of rings (size 3 to 8) (size 9 to 14) (size 15 to 20)
#    0.000    2.667    0.000    1.600    0.000    6.933 
#    0.000   12.667    0.000    0.000    0.000    0.000 
#    0.000    0.000    0.000    0.000    0.000    0.000 
#
# Total GULP energy -83663.133481 kJ/mol
# GULP energy per Si atom -5577.542232 kJ/mol
# Density = 2.753356 g / cm^3
# Si number density = 27.596368 Si / 1000 Ang^3
#
#
#
# Elastic Constant Matrix: (Units=GPa)
#
#
# Indices 1 2 3 4 5 6 
#
# 1 109.2578 26.3510 71.2275 -28.9868 27.0934 5.9935
# 2 26.3510 102.4250 55.7672 -36.8341 1.9647 29.8625
# 3 71.2275 55.7672 153.9673 -75.4706 7.5057 1.6457
# 4 -28.9868 -36.8341 -75.4706 68.5333 -4.1482 0.8164
# 5 27.0934 1.9647 7.5057 -4.1482 62.7687 -13.7963
# 6 5.9935 29.8625 1.6457 0.8164 -13.7963 38.3866
#
#
#
# Elastic Compliance Matrix: (Units=1/GPa)
#
#
# Indices 1 2 3 4 5 6 
#
# 1 0.015974 0.001721 -0.008706 -0.002281 -0.007392 -0.006068
# 2 0.001721 0.018520 -0.004189 0.006021 -0.003950 -0.016044
# 3 -0.008706 -0.004189 0.019520 0.015725 0.003639 0.004755
# 4 -0.002281 0.006021 0.015725 0.034243 -0.000088 -0.005762
# 5 -0.007392 -0.003950 0.003639 -0.000088 0.021390 0.011761
# 6 -0.006068 -0.016044 0.004755 -0.005762 0.011761 0.043625
#
#
# Mechanical properties :
#
#
# Convention : Reuss Voigt Hill
#
# Bulk Modulus (GPa) = 31.57951 74.70462 53.14207
# Shear Modulus (GPa) = 26.85637 48.09135 37.47386
#
# Velocity S-wave (km/s) = 3.12298 4.17906 3.68900
# Velocity P-wave (km/s) = 4.94694 7.10037 6.11913
#
# Compressibility (1/GPa) = 0.03166610
#
# Stress axis : x y z
#
# Youngs Moduli (GPa) = 62.60120 53.99577 51.23028
#
# Poissons Ratio (x) = -0.09294 0.44602
# Poissons Ratio (y) = -0.10775 0.21460
# Poissons Ratio (z) = 0.54502 0.22618
#
# Static dielectric constant tensor:
#      x y z
#    x 2.123370 0.189960 -0.125880 
#    y 0.189960 1.782490 0.180370 
#    z -0.125880 0.180370 2.129520 
# 
# From -- ./inp_files/116369.got.cif
#   From: 2010.05.17/outbox.cif.g08.bks.cpg/sg2_59_cif.got.tgz:116369.got - 2010.06.03 11:33:40.
