data_PCOD9078382
_publ_section_title
;
Structure prediction by ZEFSAII (Michael W. Deem and Ramdas Pophale) SiO2 
 PCOD9078382
Probable space group: P -1
;
_chemical_formula_sum "Si O2"
_cell_formula_units_Z 16
_cell_length_a 8.017255
_cell_length_b 21.380663
_cell_length_c 10.787123
_cell_angle_alpha 43.420829
_cell_angle_beta 133.401519
_cell_angle_gamma 143.785346
_cell_volume 727.254948
_symmetry_space_group_name_H-M "P -1"
_symmetry_group_IT_number 2
_symmetry_cell_setting 'triclinic'
loop_
_space_group_symop_operation_xyz
x,y,z
-x,-y,-z
loop_
_atom_site_type_symbol
_atom_site_label
_atom_site_fract_x
_atom_site_fract_y
_atom_site_fract_z
Si Si1 0.638529 0.521827 0.675671
Si Si2 0.111631 0.864386 0.253634
Si Si3 0.298369 0.742928 0.348937
Si Si4 0.615875 0.646279 0.705709
Si Si5 0.546116 0.293378 0.939087
Si Si6 0.485029 0.077350 0.978796
Si Si7 0.164188 0.768061 0.652970
Si Si8 0.004237 0.683703 0.046307
O O1 0.500000 0.500000 0.500000
O O2 0.514517 0.554814 0.675191
O O3 0.601268 0.407389 0.855382
O O4 0.970331 0.641065 0.669878
O O5 0.208676 0.802956 0.305217
O O6 0.262058 0.991392 0.092836
O O7 0.217367 0.859961 0.449359
O O8 0.763241 0.785658 0.174290
O O9 0.406410 0.680084 0.560863
O O10 0.037443 0.661094 0.237080
O O11 0.553305 0.842183 0.241918
O O12 0.937469 0.749893 0.666119
O O13 0.697475 0.624798 0.911001
O O14 0.576584 0.221688 0.160785
O O15 0.807035 0.338058 0.911219
O O16 0.804146 0.176183 0.054576
O O17 0.500000 0.000000 0.000000
#
# Coordination Sequence:
#
# PCOD9078382 Si02
#       8
#     2   2   2   2   2   2   2   2
#     4  10  18  35  62  80 113 144 183 221 272 337
#     4  11  20  37  54  81 117 138 185 230 273 320
#     4   9  19  37  57  76 110 149 184 220 270 326
#     4   9  19  36  57  84 106 143 189 222 268 328
#     4  11  20  36  57  86 108 146 179 229 276 315
#     4   8  19  38  55  78 107 152 185 216 274 331
#     4   9  21  34  56  83 110 141 181 227 270 325
#     4   9  19  36  59  80 106 145 189 224 263 331
#
# _framework density 22.000537999999999
#
# number of rings (size 3 to 8) (size 9 to 14) (size 15 to 20)
#    1.500    1.000    1.250    1.875    0.000    1.500 
#    2.250    3.125    0.000    1.500    0.000    0.000 
#    0.000    0.000    0.000    0.000    0.000    0.000 
#
# Total GULP energy -89096.465722 kJ/mol
# GULP energy per Si atom -5568.529108 kJ/mol
# Density = 2.195046 g / cm^3
# Si number density = 22.000538 Si / 1000 Ang^3
#
#
#
# Elastic Constant Matrix: (Units=GPa)
#
#
# Indices 1 2 3 4 5 6 
#
# 1 30.2667 13.9570 19.4716 3.3005 13.9557 -6.8584
# 2 13.9570 55.8140 26.0099 0.8095 6.2465 -3.3837
# 3 19.4716 26.0099 88.4145 25.4015 24.2599 11.9694
# 4 3.3005 0.8095 25.4015 29.4570 -2.3926 -15.3950
# 5 13.9557 6.2465 24.2599 -2.3926 13.5544 -12.1852
# 6 -6.8584 -3.3837 11.9694 -15.3950 -12.1852 23.7315
#
#
#
# Elastic Compliance Matrix: (Units=1/GPa)
#
#
# Indices 1 2 3 4 5 6 
#
# 1 0.053199 -0.005851 -0.009720 0.009392 -0.018697 0.015935
# 2 -0.005851 0.020136 -0.000017 -0.003953 -0.009585 -0.006298
# 3 -0.009720 -0.000017 0.001014 0.011113 0.025365 0.016911
# 4 0.009392 -0.003953 0.011113 0.009473 -0.043922 -0.019861
# 5 -0.018697 -0.009585 0.025365 -0.043922 0.002026 -0.047016
# 6 0.015935 -0.006298 0.016911 -0.019861 -0.047016 0.000291
#
#
# Mechanical properties :
#
#
# Convention : Reuss Voigt Hill
#
# Bulk Modulus (GPa) = 23.16275 32.59692 27.87983
# Shear Modulus (GPa) = 37.96356 21.01901 29.49129
#
# Velocity S-wave (km/s) = 4.15851 3.09429 3.66523
# Velocity P-wave (km/s) = 5.79730 5.25497 5.53279
#
# Compressibility (1/GPa) = 0.04317277
#
# Stress axis : x y z
#
# Youngs Moduli (GPa) = 18.79744 49.66295 986.35194
#
# Poissons Ratio (x) = 0.29058 9.58751
# Poissons Ratio (y) = 0.10998 0.01633
# Poissons Ratio (z) = 0.18271 0.00082
#
# Static dielectric constant tensor:
#      x y z
#    x 1.847910 0.024140 -0.057450 
#    y 0.024140 1.830970 -0.009380 
#    z -0.057450 -0.009380 1.831040 
# 
# From -- ./inp_files/406628.got.cif
#   From: 2010.05.17/outbox.cif.g08.bks.cpg/sg2_204_cif.got.tgz:406628.got - 2010.06.03 11:33:40.
