data_PCOD9078538
_publ_section_title
;
Structure prediction by ZEFSAII (Michael W. Deem and Ramdas Pophale) SiO2 
 PCOD9078538
Probable space group: P -1
;
_chemical_formula_sum "Si O2"
_cell_formula_units_Z 14
_cell_length_a 8.710541
_cell_length_b 10.624331
_cell_length_c 15.721778
_cell_angle_alpha 48.399108
_cell_angle_beta 141.311859
_cell_angle_gamma 137.611266
_cell_volume 599.780770
_symmetry_space_group_name_H-M "P -1"
_symmetry_group_IT_number 2
_symmetry_cell_setting 'triclinic'
loop_
_space_group_symop_operation_xyz
x,y,z
-x,-y,-z
loop_
_atom_site_type_symbol
_atom_site_label
_atom_site_fract_x
_atom_site_fract_y
_atom_site_fract_z
Si Si1 0.220525 0.429906 0.856941
Si Si2 0.767260 0.280389 0.412845
Si Si3 0.376228 0.698383 0.291092
Si Si4 0.411322 0.500764 0.646092
Si Si5 0.756364 0.908612 0.507681
Si Si6 0.391954 0.220928 0.902967
Si Si7 0.779357 0.066107 0.189053
O O1 0.237006 0.592174 0.725762
O O2 0.198843 0.251501 0.873225
O O3 0.946985 0.365726 0.822889
O O4 0.500000 0.500000 0.000000
O O5 0.597385 0.314862 0.400151
O O6 0.684318 0.069146 0.440865
O O7 0.084501 0.364452 0.544476
O O8 0.434767 0.534658 0.351012
O O9 0.557714 0.888442 0.229225
O O10 0.489093 0.753368 0.411482
O O11 0.490708 0.401194 0.802245
O O12 0.921794 0.854452 0.674214
O O13 0.000000 0.000000 0.500000
O O14 0.229914 0.029439 0.863226
O O15 0.655156 0.211341 0.061572
#
# Coordination Sequence:
#
# PCOD9078538 Si02
#       7
#     2   2   2   2   2   2   2
#     4  11  26  39  58  88 121 160 201 251 299 348
#     4  10  19  38  64  84 124 160 194 240 303 354
#     4  10  21  39  61  92 120 152 208 242 298 355
#     4   9  18  37  64  88 118 166 194 236 299 361
#     4  10  18  35  64  94 115 155 195 246 301 348
#     4   9  18  37  60  86 118 159 193 238 298 352
#     4   9  18  36  65  86 122 153 192 244 300 356
#
# _framework density 23.341863
#
# number of rings (size 3 to 8) (size 9 to 14) (size 15 to 20)
#    0.000    2.286    4.286    0.000    4.000    1.143 
#    0.000    7.143    3.143    0.000    0.000    0.000 
#    0.000    0.000    0.000    0.000    0.000    0.000 
#
# Total GULP energy -78271.437824 kJ/mol
# GULP energy per Si atom -5590.816987 kJ/mol
# Density = 2.328874 g / cm^3
# Si number density = 23.341863 Si / 1000 Ang^3
#
#
#
# Elastic Constant Matrix: (Units=GPa)
#
#
# Indices 1 2 3 4 5 6 
#
# 1 125.4898 57.7265 56.5768 4.2338 38.1101 -35.7057
# 2 57.7265 96.0634 53.3615 -9.7615 20.9043 -22.8206
# 3 56.5768 53.3615 175.4963 -6.6978 19.9068 -7.6994
# 4 4.2338 -9.7615 -6.6978 44.0190 -1.7433 12.6560
# 5 38.1101 20.9043 19.9068 -1.7433 40.6795 -9.2554
# 6 -35.7057 -22.8206 -7.6994 12.6560 -9.2554 39.8206
#
#
#
# Elastic Compliance Matrix: (Units=1/GPa)
#
#
# Indices 1 2 3 4 5 6 
#
# 1 0.019155 -0.004904 -0.003120 -0.007768 -0.011126 0.013644
# 2 -0.004904 0.016379 -0.002984 0.002666 -0.001517 0.003212
# 3 -0.003120 -0.002984 0.007518 0.001826 0.000030 -0.003627
# 4 -0.007768 0.002666 0.001826 0.028294 0.003192 -0.013335
# 5 -0.011126 -0.001517 0.000030 0.003192 0.035065 -0.003705
# 6 0.013644 0.003212 -0.003627 -0.013335 -0.003705 0.041864
#
#
# Mechanical properties :
#
#
# Convention : Reuss Voigt Hill
#
# Bulk Modulus (GPa) = 47.53974 81.37546 64.45760
# Shear Modulus (GPa) = 28.20042 40.19614 34.19828
#
# Velocity S-wave (km/s) = 3.47961 4.15428 3.83182
# Velocity P-wave (km/s) = 6.04604 7.61241 6.87399
#
# Compressibility (1/GPa) = 0.02103503
#
# Stress axis : x y z
#
# Youngs Moduli (GPa) = 52.20671 61.05522 133.00651
#
# Poissons Ratio (x) = 0.29943 0.41494
# Poissons Ratio (y) = 0.25604 0.39694
# Poissons Ratio (z) = 0.16287 0.18221
#
# Static dielectric constant tensor:
#      x y z
#    x 1.942230 0.050020 -0.063260 
#    y 0.050020 1.936620 -0.023550 
#    z -0.063260 -0.023550 1.844330 
# 
# From -- ./inp_files/559067.got.cif
#   From: 2010.05.17/outbox.cif.g08.bks.cpg/sg2_280_cif.got.tgz:559067.got - 2010.06.03 11:33:40.
