data_PCOD9078802
_publ_section_title
;
Structure prediction by ZEFSAII (Michael W. Deem and Ramdas Pophale) SiO2 
 PCOD9078802
Probable space group: P -1
;
_chemical_formula_sum "Si O2"
_cell_formula_units_Z 15
_cell_length_a 17.198875
_cell_length_b 9.150364
_cell_length_c 9.224551
_cell_angle_alpha 120.147534
_cell_angle_beta 31.454344
_cell_angle_gamma 125.210798
_cell_volume 618.751679
_symmetry_space_group_name_H-M "P -1"
_symmetry_group_IT_number 2
_symmetry_cell_setting 'triclinic'
loop_
_space_group_symop_operation_xyz
x,y,z
-x,-y,-z
loop_
_atom_site_type_symbol
_atom_site_label
_atom_site_fract_x
_atom_site_fract_y
_atom_site_fract_z
Si Si1 0.935524 0.991340 0.434773
Si Si2 0.704864 0.262567 0.555064
Si Si3 0.231210 0.092961 0.813557
Si Si4 0.731003 0.685422 0.432683
Si Si5 0.494168 0.323791 0.701614
Si Si6 0.838087 0.337117 0.692500
Si Si7 0.000000 0.500000 0.000000
Si Si8 0.221064 0.648730 0.899902
O O1 0.876316 0.161244 0.591505
O O2 0.788965 0.816830 0.538803
O O3 0.000000 0.000000 0.500000
O O4 0.057261 0.012886 0.116690
O O5 0.548430 0.299146 0.764078
O O6 0.735511 0.297874 0.692901
O O7 0.856022 0.396548 0.300134
O O8 0.703031 0.064733 0.416810
O O9 0.250565 0.212662 0.697566
O O10 0.325570 0.217781 0.857144
O O11 0.563171 0.532108 0.649165
O O12 0.841691 0.555639 0.177131
O O13 0.614250 0.246265 0.379839
O O14 0.000000 0.500000 0.500000
O O15 0.754140 0.379563 0.988523
O O16 0.926910 0.312083 0.908023
#
# Coordination Sequence:
#
# PCOD9078802 Si02
#       8
#     2   2   2   2   2   2   1   2
#     4  12  29  40  67 103 137 166 219 283 332 377
#     4  11  23  38  68  97 133 170 225 268 330 385
#     4  12  23  45  67  99 132 174 227 267 328 401
#     4  10  22  46  66 100 128 178 216 269 334 389
#     4   9  24  43  73  91 129 186 218 261 331 409
#     4  12  24  40  64 104 132 168 220 279 327 382
#     4  10  18  36  58  94 120 172 208 266 302 390
#     4   9  21  37  68  87 129 170 218 252 327 383
#
# _framework density 24.242357999999999
#
# number of rings (size 3 to 8) (size 9 to 14) (size 15 to 20)
#    0.800    0.533    2.667    2.800    7.467    0.000 
#    0.000    2.667    0.000    0.000    0.000    0.000 
#    0.000    0.000    0.000    0.000    0.000    0.000 
#
# Total GULP energy -83636.829692 kJ/mol
# GULP energy per Si atom -5575.788646 kJ/mol
# Density = 2.418718 g / cm^3
# Si number density = 24.242358 Si / 1000 Ang^3
#
#
#
# Elastic Constant Matrix: (Units=GPa)
#
#
# Indices 1 2 3 4 5 6 
#
# 1 170.4882 45.3781 28.4681 -3.9664 49.8397 -3.3240
# 2 45.3781 108.8222 14.0907 8.3733 9.5310 -2.5775
# 3 28.4681 14.0907 32.1949 0.2521 18.2950 0.9663
# 4 -3.9664 8.3733 0.2521 18.6511 7.9838 2.2235
# 5 49.8397 9.5310 18.2950 7.9838 45.7058 -3.6925
# 6 -3.3240 -2.5775 0.9663 2.2235 -3.6925 51.4218
#
#
#
# Elastic Compliance Matrix: (Units=1/GPa)
#
#
# Indices 1 2 3 4 5 6 
#
# 1 0.010975 -0.004134 -0.000829 0.009658 -0.012525 -0.000799
# 2 -0.004134 0.011709 -0.004549 -0.008558 0.005477 0.001168
# 3 -0.000829 -0.004549 0.043714 0.009073 -0.017452 -0.002749
# 4 0.009658 -0.008558 0.009073 0.070720 -0.025123 -0.004837
# 5 -0.012525 0.005477 -0.017452 -0.025123 0.046107 0.004190
# 6 -0.000799 0.001168 -0.002749 -0.004837 0.004190 0.020016
#
#
# Mechanical properties :
#
#
# Convention : Reuss Voigt Hill
#
# Bulk Modulus (GPa) = 21.10949 54.15325 37.63137
# Shear Modulus (GPa) = 21.00341 38.06031 29.53186
#
# Velocity S-wave (km/s) = 2.94665 3.96661 3.49405
# Velocity P-wave (km/s) = 4.50595 6.58524 5.64221
#
# Compressibility (1/GPa) = 0.04737206
#
# Stress axis : x y z
#
# Youngs Moduli (GPa) = 91.11569 85.40603 22.87622
#
# Poissons Ratio (x) = 0.35309 0.01897
# Poissons Ratio (y) = 0.37669 0.10407
# Poissons Ratio (z) = 0.07556 0.38853
#
# Static dielectric constant tensor:
#      x y z
#    x 2.050730 0.001040 0.033950 
#    y 0.001040 2.079780 0.173260 
#    z 0.033950 0.173260 2.046930 
# 
# From -- ./inp_files/327764.got.cif
#   From: 2010.05.17/outbox.cif.g08.bks.cpg/sg2_164_cif.got.tgz:327764.got - 2010.06.03 11:33:40.
