data_PCOD9078643
_publ_section_title
;
Structure prediction by ZEFSAII (Michael W. Deem and Ramdas Pophale) SiO2 
 PCOD9078643
Probable space group: P -1
;
_chemical_formula_sum "Si O2"
_cell_formula_units_Z 16
_cell_length_a 7.154087
_cell_length_b 8.513029
_cell_length_c 16.167484
_cell_angle_alpha 108.976151
_cell_angle_beta 98.088945
_cell_angle_gamma 126.254303
_cell_volume 675.490181
_symmetry_space_group_name_H-M "P -1"
_symmetry_group_IT_number 2
_symmetry_cell_setting 'triclinic'
loop_
_space_group_symop_operation_xyz
x,y,z
-x,-y,-z
loop_
_atom_site_type_symbol
_atom_site_label
_atom_site_fract_x
_atom_site_fract_y
_atom_site_fract_z
Si Si1 0.620831 0.214286 0.196511
Si Si2 0.106709 0.778913 0.632317
Si Si3 0.393430 0.452318 0.701478
Si Si4 0.588339 0.250554 0.924170
Si Si5 0.138788 0.132766 0.781714
Si Si6 0.019252 0.423095 0.855550
Si Si7 0.562458 0.375484 0.537821
Si Si8 0.131051 0.900693 0.473109
O O1 0.699200 0.182138 0.283747
O O2 0.473490 0.296852 0.221500
O O3 0.867444 0.415822 0.190339
O O4 0.466600 0.976780 0.100568
O O5 0.202398 0.876675 0.563547
O O6 0.857340 0.514389 0.564038
O O7 0.014431 0.897739 0.689996
O O8 0.338346 0.315999 0.756027
O O9 0.529661 0.421285 0.637110
O O10 0.108846 0.331901 0.625992
O O11 0.316318 0.175360 0.875152
O O12 0.774746 0.359493 0.873657
O O13 0.746981 0.427153 0.038077
O O14 0.973368 0.198965 0.798891
O O15 0.500000 0.500000 0.500000
O O16 0.376062 0.105577 0.470214
O O17 0.000000 0.000000 0.500000
#
# Coordination Sequence:
#
# PCOD9078643 Si02
#       8
#     2   2   2   2   2   2   2   2
#     4  10  24  38  57  86 115 147 190 249 283 340
#     4  11  21  35  57  83 112 151 194 232 286 335
#     4  10  20  37  56  80 116 149 194 236 280 336
#     4  10  22  41  62  86 118 151 186 243 296 348
#     4  10  20  38  62  86 117 151 195 241 281 346
#     4  10  22  41  62  86 117 152 190 233 302 353
#     4  11  19  33  59  78 107 158 193 228 284 336
#     4  10  18  36  53  78 117 150 188 239 280 330
#
# _framework density 23.686502999999998
#
# number of rings (size 3 to 8) (size 9 to 14) (size 15 to 20)
#    0.000    1.750    5.000    0.750    3.500    0.500 
#    0.000    0.625    0.000    7.500    0.000    0.875 
#    0.000    0.000    0.000    0.000    0.000    0.000 
#
# Total GULP energy -89383.011746 kJ/mol
# GULP energy per Si atom -5586.438234 kJ/mol
# Density = 2.363259 g / cm^3
# Si number density = 23.686503 Si / 1000 Ang^3
#
#
#
# Elastic Constant Matrix: (Units=GPa)
#
#
# Indices 1 2 3 4 5 6 
#
# 1 45.6291 9.6019 16.8303 -2.3577 -5.2251 -3.9382
# 2 9.6019 93.2882 20.6319 6.5196 -4.7025 2.0743
# 3 16.8303 20.6319 66.3853 -5.9699 2.4280 -9.5468
# 4 -2.3577 6.5196 -5.9699 38.1029 -1.4020 -3.0504
# 5 -5.2251 -4.7025 2.4280 -1.4020 27.8258 7.0358
# 6 -3.9382 2.0743 -9.5468 -3.0504 7.0358 27.8467
#
#
#
# Elastic Compliance Matrix: (Units=1/GPa)
#
#
# Indices 1 2 3 4 5 6 
#
# 1 0.025030 -0.001064 -0.006052 0.000998 0.005000 0.000390
# 2 -0.001064 0.012263 -0.004458 -0.003047 0.003042 -0.003695
# 3 -0.006052 -0.004458 0.019689 0.003916 -0.005441 0.008030
# 4 0.000998 -0.003047 0.003916 0.027814 -0.000503 0.004884
# 5 0.005000 0.003042 -0.005441 -0.000503 0.040812 -0.011751
# 6 0.000390 -0.003695 0.008030 0.004884 -0.011751 0.042499
#
#
# Mechanical properties :
#
#
# Convention : Reuss Voigt Hill
#
# Bulk Modulus (GPa) = 29.55598 33.27010 31.41304
# Shear Modulus (GPa) = 24.68732 29.30432 26.99582
#
# Velocity S-wave (km/s) = 3.23190 3.52116 3.37963
# Velocity P-wave (km/s) = 5.14120 5.53245 5.34041
#
# Compressibility (1/GPa) = 0.03383410
#
# Stress axis : x y z
#
# Youngs Moduli (GPa) = 39.95235 81.54350 50.78885
#
# Poissons Ratio (x) = 0.08678 0.30737
# Poissons Ratio (y) = 0.04252 0.22642
# Poissons Ratio (z) = 0.24179 0.36353
#
# Static dielectric constant tensor:
#      x y z
#    x 1.937300 0.014220 0.001420 
#    y 0.014220 1.959430 0.033120 
#    z 0.001420 0.033120 1.886110 
# 
# From -- ./inp_files/196750.got.cif
#   From: 2010.05.17/outbox.cif.g08.bks.cpg/sg2_99_cif.got.tgz:196750.got - 2010.06.03 11:33:40.
