data_PCOD9078120
_publ_section_title
;
Structure prediction by ZEFSAII (Michael W. Deem and Ramdas Pophale) SiO2 
 PCOD9078120
Probable space group: P -1
;
_chemical_formula_sum "Si O2"
_cell_formula_units_Z 16
_cell_length_a 8.916068
_cell_length_b 15.196157
_cell_length_c 12.052196
_cell_angle_alpha 55.176668
_cell_angle_beta 135.277776
_cell_angle_gamma 90.013829
_cell_volume 671.800482
_symmetry_space_group_name_H-M "P -1"
_symmetry_group_IT_number 2
_symmetry_cell_setting 'triclinic'
loop_
_space_group_symop_operation_xyz
x,y,z
-x,-y,-z
loop_
_atom_site_type_symbol
_atom_site_label
_atom_site_fract_x
_atom_site_fract_y
_atom_site_fract_z
Si Si1 0.810591 0.145763 0.220270
Si Si2 0.741678 0.726550 0.448682
Si Si3 0.421502 0.953508 0.311335
Si Si4 0.176021 0.815500 0.049618
Si Si5 0.716615 0.759043 0.991785
Si Si6 0.080823 0.319086 0.068894
Si Si7 0.944869 0.391811 0.523911
Si Si8 0.261714 0.580800 0.986477
O O1 0.841790 0.115407 0.127366
O O2 0.488068 0.236650 0.037238
O O3 0.865168 0.252461 0.188880
O O4 0.000000 0.000000 0.500000
O O5 0.534508 0.880203 0.301554
O O6 0.825034 0.724288 0.367887
O O7 0.061379 0.606212 0.763855
O O8 0.520538 0.702331 0.348641
O O9 0.634368 0.818010 0.608846
O O10 0.449551 0.072364 0.250112
O O11 0.077778 0.053780 0.093727
O O12 0.082182 0.728004 0.034473
O O13 0.799351 0.668735 0.988039
O O14 0.996199 0.685864 0.271107
O O15 0.840701 0.447983 0.936926
O O16 0.000000 0.500000 0.500000
O O17 0.615689 0.473319 0.249834
#
# Coordination Sequence:
#
# PCOD9078120 Si02
#       8
#     2   2   2   2   2   2   2   2
#     4  11  19  35  61  94 118 155 200 250 299 354
#     4  11  22  39  62  86 124 164 199 248 306 360
#     4  10  21  38  63  95 124 154 195 254 317 349
#     4  10  18  35  58  90 123 156 193 241 304 369
#     4  11  20  36  65  92 120 153 206 250 297 357
#     4   9  19  38  64  91 119 156 203 249 301 359
#     4  12  23  42  62  87 118 165 212 247 294 359
#     4  10  22  40  60  85 122 164 199 250 301 350
#
# _framework density 23.816595
#
# number of rings (size 3 to 8) (size 9 to 14) (size 15 to 20)
#    0.000    1.500    2.500    6.000    0.000    1.000 
#    2.250    0.000    5.500    6.000    0.000    0.000 
#    0.000    0.000    0.000    0.000    0.000    0.000 
#
# Total GULP energy -89269.684046 kJ/mol
# GULP energy per Si atom -5579.355253 kJ/mol
# Density = 2.376239 g / cm^3
# Si number density = 23.816595 Si / 1000 Ang^3
#
#
#
# Elastic Constant Matrix: (Units=GPa)
#
#
# Indices 1 2 3 4 5 6 
#
# 1 127.0809 43.1468 29.3135 -5.8693 9.8562 -42.1866
# 2 43.1468 60.3438 6.1167 -0.2578 -12.2650 -13.9326
# 3 29.3135 6.1167 106.2059 8.5113 15.4284 -1.0780
# 4 -5.8693 -0.2578 8.5113 25.7151 -2.6487 0.0973
# 5 9.8562 -12.2650 15.4284 -2.6487 30.6665 13.6295
# 6 -42.1866 -13.9326 -1.0780 0.0973 13.6295 41.4807
#
#
#
# Elastic Compliance Matrix: (Units=1/GPa)
#
#
# Indices 1 2 3 4 5 6 
#
# 1 0.026650 -0.017403 -0.002361 0.003749 -0.027437 0.030203
# 2 -0.017403 0.030555 -0.000693 -0.000795 0.025067 -0.015689
# 3 -0.002361 -0.000693 0.011265 -0.004823 -0.005347 -0.000573
# 4 0.003749 -0.000795 -0.004823 0.041689 0.003545 0.002158
# 5 -0.027437 0.025067 -0.005347 0.003545 0.073978 -0.043939
# 6 0.030203 -0.015689 -0.000573 0.002158 -0.043939 0.063973
#
#
# Mechanical properties :
#
#
# Convention : Reuss Voigt Hill
#
# Bulk Modulus (GPa) = 36.29235 50.08717 43.18976
# Shear Modulus (GPa) = 16.76678 33.90938 25.33808
#
# Velocity S-wave (km/s) = 2.65617 3.77738 3.26526
# Velocity P-wave (km/s) = 4.96773 6.33252 5.69118
#
# Compressibility (1/GPa) = 0.02755401
#
# Stress axis : x y z
#
# Youngs Moduli (GPa) = 37.52329 32.72838 88.77144
#
# Poissons Ratio (x) = 0.56957 0.20962
# Poissons Ratio (y) = 0.65302 0.06155
# Poissons Ratio (z) = 0.08861 0.02269
#
# Static dielectric constant tensor:
#      x y z
#    x 1.967680 -0.016470 0.029770 
#    y -0.016470 1.945530 0.032590 
#    z 0.029770 0.032590 2.062000 
# 
# From -- ./inp_files/202985.got.cif
#   From: 2010.05.17/outbox.cif.g08.bks.cpg/sg2_102_cif.got.tgz:202985.got - 2010.06.03 11:33:40.
