data_PCOD9078147
_publ_section_title
;
Structure prediction by ZEFSAII (Michael W. Deem and Ramdas Pophale) SiO2 
 PCOD9078147
Probable space group: P -1
;
_chemical_formula_sum "Si O2"
_cell_formula_units_Z 14
_cell_length_a 16.424896
_cell_length_b 8.935411
_cell_length_c 23.203105
_cell_angle_alpha 132.092881
_cell_angle_beta 14.267321
_cell_angle_gamma 129.262333
_cell_volume 620.135557
_symmetry_space_group_name_H-M "P -1"
_symmetry_group_IT_number 2
_symmetry_cell_setting 'triclinic'
loop_
_space_group_symop_operation_xyz
x,y,z
-x,-y,-z
loop_
_atom_site_type_symbol
_atom_site_label
_atom_site_fract_x
_atom_site_fract_y
_atom_site_fract_z
Si Si1 0.862390 0.510965 0.532026
Si Si2 0.863822 0.340967 0.924054
Si Si3 0.507553 0.990098 0.246013
Si Si4 0.344426 0.216375 0.794543
Si Si5 0.214856 0.879364 0.191745
Si Si6 0.009558 0.740432 0.062084
Si Si7 0.268124 0.797564 0.260209
O O1 0.531753 0.668031 0.798388
O O2 0.707983 0.303002 0.567456
O O3 0.000000 0.500000 0.500000
O O4 0.106389 0.602137 0.343950
O O5 0.894454 0.580232 0.972208
O O6 0.037289 0.220751 0.827582
O O7 0.919840 0.266119 0.801957
O O8 0.636425 0.193938 0.185422
O O9 0.121079 0.989691 0.526137
O O10 0.676965 0.931616 0.175375
O O11 0.553967 0.837890 0.120559
O O12 0.246152 0.155746 0.782301
O O13 0.354486 0.778144 0.128852
O O14 0.500000 0.000000 0.000000
O O15 0.000000 0.500000 0.000000
O O16 0.000000 0.000000 0.500000
#
# Coordination Sequence:
#
# PCOD9078147 Si02
#       7
#     2   2   2   2   2   2   2
#     4  10  18  35  59  82 116 144 193 233 292 331
#     4   9  19  36  56  82 115 147 186 240 278 329
#     4  11  20  37  59  86 112 152 195 234 287 341
#     4   9  21  35  63  80 113 151 193 237 281 336
#     4  11  22  33  57  89 122 149 186 237 292 342
#     4  10  20  38  63  83 108 154 207 233 272 341
#     4  10  19  32  57  83 110 151 189 224 283 353
#
# _framework density 22.575707999999999
#
# number of rings (size 3 to 8) (size 9 to 14) (size 15 to 20)
#    0.857    1.143    1.429    4.714    0.000    0.000 
#    0.000    6.429    3.143    0.000    0.000    0.000 
#    0.000    0.000    0.000    0.000    0.000    0.000 
#
# Total GULP energy -77981.081704 kJ/mol
# GULP energy per Si atom -5570.077265 kJ/mol
# Density = 2.252432 g / cm^3
# Si number density = 22.575708 Si / 1000 Ang^3
#
#
#
# Elastic Constant Matrix: (Units=GPa)
#
#
# Indices 1 2 3 4 5 6 
#
# 1 203.9440 17.0957 28.2465 -0.6000 6.6821 -21.7022
# 2 17.0957 63.0753 20.5230 -24.6591 15.2195 -20.0311
# 3 28.2465 20.5230 27.6806 -17.3125 2.7281 -9.7564
# 4 -0.6000 -24.6591 -17.3125 31.9677 -5.5516 5.5124
# 5 6.6821 15.2195 2.7281 -5.5516 31.8679 -7.5349
# 6 -21.7022 -20.0311 -9.7564 5.5124 -7.5349 36.1956
#
#
#
# Elastic Compliance Matrix: (Units=1/GPa)
#
#
# Indices 1 2 3 4 5 6 
#
# 1 0.006381 0.000029 -0.009021 -0.005266 -0.001024 0.001999
# 2 0.000029 0.029751 -0.008044 0.015367 -0.008433 0.010218
# 3 -0.009021 -0.008044 0.073994 0.033781 0.006786 0.006352
# 4 -0.005266 0.015367 0.033781 0.060827 0.002836 0.005779
# 5 -0.001024 -0.008433 0.006786 0.002836 0.036409 0.003695
# 6 0.001999 0.010218 0.006352 0.005779 0.003695 0.036082
#
#
# Mechanical properties :
#
#
# Convention : Reuss Voigt Hill
#
# Bulk Modulus (GPa) = 13.14855 47.38115 30.26485
# Shear Modulus (GPa) = 16.50887 35.26188 25.88537
#
# Velocity S-wave (km/s) = 2.70713 3.95642 3.38983
# Velocity P-wave (km/s) = 3.95073 6.47335 5.36249
#
# Compressibility (1/GPa) = 0.07605403
#
# Stress axis : x y z
#
# Youngs Moduli (GPa) = 156.71284 33.61241 13.51460
#
# Poissons Ratio (x) = -0.00098 0.12191
# Poissons Ratio (y) = -0.00455 0.10871
# Poissons Ratio (z) = 1.41370 0.27038
#
# Static dielectric constant tensor:
#      x y z
#    x 1.953390 0.036340 -0.017720 
#    y 0.036340 1.862360 0.037680 
#    z -0.017720 0.037680 1.887300 
# 
# From -- ./inp_files/597037.got.cif
#   From: 2010.05.17/outbox.cif.g08.bks.cpg/sg2_299_cif.got.tgz:597037.got - 2010.06.03 11:33:40.
