data_PCOD9078522
_publ_section_title
;
Structure prediction by ZEFSAII (Michael W. Deem and Ramdas Pophale) SiO2 
 PCOD9078522
Probable space group: P -1
;
_chemical_formula_sum "Si O2"
_cell_formula_units_Z 14
_cell_length_a 16.780015
_cell_length_b 7.519977
_cell_length_c 8.872386
_cell_angle_alpha 89.062557
_cell_angle_beta 116.810441
_cell_angle_gamma 43.684407
_cell_volume 573.790826
_symmetry_space_group_name_H-M "P -1"
_symmetry_group_IT_number 2
_symmetry_cell_setting 'triclinic'
loop_
_space_group_symop_operation_xyz
x,y,z
-x,-y,-z
loop_
_atom_site_type_symbol
_atom_site_label
_atom_site_fract_x
_atom_site_fract_y
_atom_site_fract_z
Si Si1 0.411185 0.929241 0.018631
Si Si2 0.082902 0.555813 0.584228
Si Si3 0.246169 0.563949 0.231793
Si Si4 0.463417 0.421711 0.602109
Si Si5 0.476831 0.208914 0.184851
Si Si6 0.806807 0.675200 0.632099
Si Si7 0.872418 0.966184 0.658216
O O1 0.486550 0.986591 0.147527
O O2 0.404050 0.814810 0.159005
O O3 0.246624 0.250964 0.806534
O O4 0.509975 0.706388 0.961701
O O5 0.113795 0.559580 0.437498
O O6 0.000000 0.500000 0.500000
O O7 0.983244 0.829027 0.615369
O O8 0.403090 0.342550 0.468955
O O9 0.312886 0.497200 0.125873
O O10 0.195951 0.445606 0.223148
O O11 0.128840 0.897245 0.202954
O O12 0.500000 0.500000 0.500000
O O13 0.306637 0.728273 0.553237
O O14 0.629815 0.996574 0.418514
O O15 0.887227 0.735350 0.721717
#
# Coordination Sequence:
#
# PCOD9078522 Si02
#       7
#     2   2   2   2   2   2   2
#     4  10  21  37  64  96 125 166 215 265 313 378
#     4   9  20  41  62  90 130 173 212 253 321 389
#     4  10  21  34  62  94 124 167 208 259 327 363
#     4  10  21  38  62  95 126 159 210 266 312 366
#     4  10  19  34  59  97 124 158 215 266 317 374
#     4  10  18  35  64  88 123 172 210 252 319 375
#     4   9  21  37  62  91 125 166 215 252 313 382
#
# _framework density 24.399134
#
# number of rings (size 3 to 8) (size 9 to 14) (size 15 to 20)
#    0.857    1.429    1.429    1.286    2.000    0.571 
#    0.000   12.857    0.000    1.714    0.000    0.000 
#    0.000    0.000    0.000    0.000    0.000    0.000 
#
# Total GULP energy -78096.037129 kJ/mol
# GULP energy per Si atom -5578.288366 kJ/mol
# Density = 2.434360 g / cm^3
# Si number density = 24.399134 Si / 1000 Ang^3
#
#
#
# Elastic Constant Matrix: (Units=GPa)
#
#
# Indices 1 2 3 4 5 6 
#
# 1 66.7144 21.8345 16.0807 10.7895 -11.8545 -2.7952
# 2 21.8345 144.2455 5.4143 32.3304 -19.5235 -32.5767
# 3 16.0807 5.4143 58.7489 5.1671 -9.9203 -3.8638
# 4 10.7895 32.3304 5.1671 15.6414 -5.7151 -1.8798
# 5 -11.8545 -19.5235 -9.9203 -5.7151 35.1438 13.2348
# 6 -2.7952 -32.5767 -3.8638 -1.8798 13.2348 47.8621
#
#
#
# Elastic Compliance Matrix: (Units=1/GPa)
#
#
# Indices 1 2 3 4 5 6 
#
# 1 0.018088 0.000004 -0.003480 -0.010050 0.003731 -0.000648
# 2 0.000004 0.016897 0.002225 -0.034213 0.000625 0.010164
# 3 -0.003480 0.002225 0.019115 -0.006959 0.003744 0.001546
# 4 -0.010050 -0.034213 -0.006959 0.143891 0.006823 -0.020671
# 5 0.003731 0.000625 0.003744 0.006823 0.035463 -0.008593
# 6 -0.000648 0.010164 0.001546 -0.020671 -0.008593 0.029463
#
#
# Mechanical properties :
#
#
# Convention : Reuss Voigt Hill
#
# Bulk Modulus (GPa) = 19.38105 39.59643 29.48874
# Shear Modulus (GPa) = 17.69173 34.82141 26.25657
#
# Velocity S-wave (km/s) = 2.69568 3.78187 3.28400
# Velocity P-wave (km/s) = 4.20113 5.94423 5.14701
#
# Compressibility (1/GPa) = 0.05159680
#
# Stress axis : x y z
#
# Youngs Moduli (GPa) = 55.28516 59.18228 52.31474
#
# Poissons Ratio (x) = -0.00022 0.18206
# Poissons Ratio (y) = -0.00020 -0.11639
# Poissons Ratio (z) = 0.19240 -0.13167
#
# Static dielectric constant tensor:
#      x y z
#    x 2.054300 0.006090 0.087070 
#    y 0.006090 2.036390 0.025470 
#    z 0.087070 0.025470 2.085530 
# 
# From -- ./inp_files/326078.got.cif
#   From: 2010.05.17/outbox.cif.g08.bks.cpg/sg2_164_cif.got.tgz:326078.got - 2010.06.03 11:33:40.
