data_PCOD9078877
_publ_section_title
;
Structure prediction by ZEFSAII (Michael W. Deem and Ramdas Pophale) SiO2 
 PCOD9078877
Probable space group: P -1
;
_chemical_formula_sum "Si O2"
_cell_formula_units_Z 14
_cell_length_a 19.580816
_cell_length_b 9.320152
_cell_length_c 10.941965
_cell_angle_alpha 70.692692
_cell_angle_beta 40.304978
_cell_angle_gamma 37.935956
_cell_volume 581.471069
_symmetry_space_group_name_H-M "P -1"
_symmetry_group_IT_number 2
_symmetry_cell_setting 'triclinic'
loop_
_space_group_symop_operation_xyz
x,y,z
-x,-y,-z
loop_
_atom_site_type_symbol
_atom_site_label
_atom_site_fract_x
_atom_site_fract_y
_atom_site_fract_z
Si Si1 0.926746 0.513956 0.471842
Si Si2 0.762132 0.385543 0.714104
Si Si3 0.865884 0.474827 0.145109
Si Si4 0.675362 0.348895 0.086624
Si Si5 0.202524 0.725900 0.574793
Si Si6 0.793090 0.869155 0.025817
Si Si7 0.263476 0.964142 0.555960
O O1 0.801543 0.512596 0.654596
O O2 0.000000 0.500000 0.500000
O O3 0.145107 0.207307 0.178653
O O4 0.785076 0.816801 0.505906
O O5 0.692386 0.450558 0.650287
O O6 0.625209 0.483153 0.983179
O O7 0.000000 0.000000 0.500000
O O8 0.727441 0.784815 0.183838
O O9 0.083427 0.173955 0.848519
O O10 0.970603 0.402770 0.149792
O O11 0.748082 0.467082 0.338704
O O12 0.525080 0.616503 0.320030
O O13 0.653310 0.194265 0.157383
O O14 0.934235 0.051317 0.837274
O O15 0.234399 0.857611 0.535451
#
# Coordination Sequence:
#
# PCOD9078877 Si02
#       7
#     2   2   2   2   2   2   2
#     4  11  20  36  60  90 118 156 199 244 294 353
#     4  10  18  36  60  81 116 159 192 234 297 351
#     4   9  18  37  62  85 118 158 203 234 296 351
#     4  10  21  38  60  88 123 158 193 242 304 347
#     4  10  20  39  62  85 120 161 196 242 294 352
#     4   9  18  35  61  86 115 164 193 240 298 352
#     4  11  24  35  61  97 117 152 202 247 290 352
#
# _framework density 24.076865000000002
#
# number of rings (size 3 to 8) (size 9 to 14) (size 15 to 20)
#    0.000    2.000    4.286    2.143    0.000    3.429 
#    0.000    0.714    3.143    0.000    0.000    0.000 
#    0.000    0.000    0.000    0.000    0.000    0.000 
#
# Total GULP energy -78255.762333 kJ/mol
# GULP energy per Si atom -5589.697309 kJ/mol
# Density = 2.402206 g / cm^3
# Si number density = 24.076865 Si / 1000 Ang^3
#
#
#
# Elastic Constant Matrix: (Units=GPa)
#
#
# Indices 1 2 3 4 5 6 
#
# 1 94.5817 29.0552 27.1932 -13.5764 19.2326 23.0785
# 2 29.0552 161.6306 63.4101 -25.0783 12.0393 37.5047
# 3 27.1932 63.4101 109.3436 -8.2215 13.4452 8.7486
# 4 -13.5764 -25.0783 -8.2215 51.6709 8.0640 -1.7461
# 5 19.2326 12.0393 13.4452 8.0640 31.9521 -4.7720
# 6 23.0785 37.5047 8.7486 -1.7461 -4.7720 35.4235
#
#
#
# Elastic Compliance Matrix: (Units=1/GPa)
#
#
# Indices 1 2 3 4 5 6 
#
# 1 0.019436 0.004882 -0.003362 0.008990 -0.017212 -0.018877
# 2 0.004882 0.013553 -0.005868 0.007931 -0.010125 -0.017054
# 3 -0.003362 -0.005868 0.012863 -0.001506 -0.000029 0.005149
# 4 0.008990 0.007931 -0.001506 0.027463 -0.016908 -0.014806
# 5 -0.017212 -0.010125 -0.000029 -0.016908 0.053990 0.028380
# 6 -0.018877 -0.017054 0.005149 -0.014806 0.028380 0.060406
#
#
# Mechanical properties :
#
#
# Convention : Reuss Voigt Hill
#
# Bulk Modulus (GPa) = 26.91355 67.20810 47.06083
# Shear Modulus (GPa) = 23.94710 40.20243 32.07476
#
# Velocity S-wave (km/s) = 3.15717 4.09069 3.65387
# Velocity P-wave (km/s) = 4.94901 7.09128 6.11470
#
# Compressibility (1/GPa) = 0.03715600
#
# Stress axis : x y z
#
# Youngs Moduli (GPa) = 51.45070 73.78169 77.74197
#
# Poissons Ratio (x) = -0.36022 0.26139
# Poissons Ratio (y) = -0.25119 0.45621
# Poissons Ratio (z) = 0.17299 0.43297
#
# Static dielectric constant tensor:
#      x y z
#    x 1.987710 -0.054060 -0.067110 
#    y -0.054060 1.951610 0.015740 
#    z -0.067110 0.015740 1.987020 
# 
# From -- ./inp_files/170016.got.cif
#   From: 2010.05.17/outbox.cif.g08.bks.cpg/sg2_86_cif.got.tgz:170016.got - 2010.06.03 11:33:40.
