data_PCOD9078638
_publ_section_title
;
Structure prediction by ZEFSAII (Michael W. Deem and Ramdas Pophale) SiO2 
 PCOD9078638
Probable space group: P -1
;
_chemical_formula_sum "Si O2"
_cell_formula_units_Z 15
_cell_length_a 11.729749
_cell_length_b 6.209289
_cell_length_c 12.459068
_cell_angle_alpha 77.043032
_cell_angle_beta 96.081476
_cell_angle_gamma 66.880803
_cell_volume 794.034001
_symmetry_space_group_name_H-M "P -1"
_symmetry_group_IT_number 2
_symmetry_cell_setting 'triclinic'
loop_
_space_group_symop_operation_xyz
x,y,z
-x,-y,-z
loop_
_atom_site_type_symbol
_atom_site_label
_atom_site_fract_x
_atom_site_fract_y
_atom_site_fract_z
Si Si1 0.776041 0.519474 0.843659
Si Si2 0.100010 0.991547 0.832698
Si Si3 0.715876 0.462303 0.206483
Si Si4 0.000000 0.000000 0.000000
Si Si5 0.555827 0.382687 0.902842
Si Si6 0.915431 0.285959 0.437230
Si Si7 0.235551 0.166535 0.989440
Si Si8 0.909918 0.464020 0.645149
O O1 0.641793 0.507566 0.849678
O O2 0.809352 0.561671 0.720552
O O3 0.785149 0.703555 0.913030
O O4 0.880684 0.250780 0.912138
O O5 0.120849 0.105976 0.937130
O O6 0.022572 0.201977 0.720790
O O7 0.231634 0.791148 0.827543
O O8 0.019334 0.865696 0.890744
O O9 0.565374 0.569459 0.188539
O O10 0.800265 0.374017 0.331419
O O11 0.745131 0.659630 0.118283
O O12 0.500000 0.500000 0.000000
O O13 0.643749 0.094611 0.959936
O O14 0.862612 0.418105 0.530660
O O15 0.017091 0.370375 0.387727
O O16 0.000000 0.000000 0.500000
#
# Coordination Sequence:
#
# PCOD9078638 Si02
#       8
#     2   2   2   1   2   2   2   2
#     4  11  24  38  59  92 132 163 198 254 308 365
#     4  11  20  35  59  92 125 152 201 247 307 374
#     4  12  23  38  62  94 121 165 206 251 304 366
#     4  10  18  36  52  86 130 156 188 248 302 374
#     4  12  23  40  60  92 135 162 205 243 299 386
#     4  11  23  42  67  88 117 161 213 264 308 353
#     4  12  21  37  59  95 124 165 198 238 317 367
#     4  10  24  41  62  92 121 156 209 260 307 362
#
# _framework density 18.890877
#
# number of rings (size 3 to 8) (size 9 to 14) (size 15 to 20)
#    0.000    0.800    8.000    0.400    0.000    4.267 
#    0.000    0.667    0.000    1.600    0.000    0.000 
#    0.000    0.000    0.000    0.000    0.000    0.000 
#
# Total GULP energy -83525.843934 kJ/mol
# GULP energy per Si atom -5568.389596 kJ/mol
# Density = 1.884788 g / cm^3
# Si number density = 18.890877 Si / 1000 Ang^3
#
#
#
# Elastic Constant Matrix: (Units=GPa)
#
#
# Indices 1 2 3 4 5 6 
#
# 1 124.5099 48.4534 74.1486 8.6498 7.4591 -4.8773
# 2 48.4534 47.4886 45.2508 7.9276 5.9036 -13.2228
# 3 74.1486 45.2508 146.7632 9.4430 0.4023 1.2172
# 4 8.6498 7.9276 9.4430 33.7150 -0.6098 -2.4020
# 5 7.4591 5.9036 0.4023 -0.6098 35.8743 -2.3322
# 6 -4.8773 -13.2228 1.2172 -2.4020 -2.3322 26.8859
#
#
#
# Elastic Compliance Matrix: (Units=1/GPa)
#
#
# Indices 1 2 3 4 5 6 
#
# 1 0.015113 -0.012702 -0.003679 -0.000129 -0.001238 -0.003458
# 2 -0.012702 0.049726 -0.008795 -0.004492 -0.004103 0.021793
# 3 -0.003679 -0.008795 0.011460 -0.000552 0.001723 -0.005412
# 4 -0.000129 -0.004492 -0.000552 0.030977 0.001343 0.000676
# 5 -0.001238 -0.004103 0.001723 0.001343 0.028831 0.000300
# 6 -0.003458 0.021793 -0.005412 0.000676 0.000300 0.047616
#
#
# Mechanical properties :
#
#
# Convention : Reuss Voigt Hill
#
# Bulk Modulus (GPa) = 38.53933 72.71861 55.62897
# Shear Modulus (GPa) = 20.59957 29.35562 24.97759
#
# Velocity S-wave (km/s) = 3.30578 3.94630 3.64016
# Velocity P-wave (km/s) = 5.91745 7.70338 6.86871
#
# Compressibility (1/GPa) = 0.02594752
#
# Stress axis : x y z
#
# Youngs Moduli (GPa) = 66.16844 20.11010 87.26226
#
# Poissons Ratio (x) = 0.25544 0.32102
# Poissons Ratio (y) = 0.84047 0.76747
# Poissons Ratio (z) = 0.24342 0.17687
#
# Static dielectric constant tensor:
#      x y z
#    x 1.809050 0.045010 -0.084880 
#    y 0.045010 1.690430 0.044680 
#    z -0.084880 0.044680 1.743590 
# 
# From -- ./inp_files/71032.got.cif
#   From: 2010.05.17/outbox.cif.g08.bks.cpg/sg2_36_cif.got.tgz:71032.got - 2010.06.03 11:33:40.
