data_PCOD9078510
_publ_section_title
;
Structure prediction by ZEFSAII (Michael W. Deem and Ramdas Pophale) SiO2 
 PCOD9078510
Probable space group: P -1
;
_chemical_formula_sum "Si O2"
_cell_formula_units_Z 16
_cell_length_a 11.694149
_cell_length_b 8.964542
_cell_length_c 15.635267
_cell_angle_alpha 148.356239
_cell_angle_beta 59.064115
_cell_angle_gamma 105.655646
_cell_volume 684.401108
_symmetry_space_group_name_H-M "P -1"
_symmetry_group_IT_number 2
_symmetry_cell_setting 'triclinic'
loop_
_space_group_symop_operation_xyz
x,y,z
-x,-y,-z
loop_
_atom_site_type_symbol
_atom_site_label
_atom_site_fract_x
_atom_site_fract_y
_atom_site_fract_z
Si Si1 0.898327 0.705743 0.215065
Si Si2 0.718758 0.645203 0.572373
Si Si3 0.793637 0.469420 0.783175
Si Si4 0.357063 0.344912 0.794745
Si Si5 0.940511 0.358650 0.209142
Si Si6 0.534788 0.809765 0.150769
Si Si7 0.575662 0.623584 0.784339
Si Si8 0.134143 0.913014 0.266666
O O1 0.736053 0.806271 0.295139
O O2 0.910311 0.513761 0.203277
O O3 0.972040 0.946199 0.326721
O O4 0.000000 0.500000 0.000000
O O5 0.802936 0.438576 0.361643
O O6 0.661614 0.518705 0.612305
O O7 0.583596 0.920228 0.720419
O O8 0.826874 0.805663 0.640400
O O9 0.689426 0.499549 0.757901
O O10 0.831600 0.174060 0.688060
O O11 0.938376 0.530533 0.741919
O O12 0.689984 0.742173 0.017056
O O13 0.459185 0.130127 0.722337
O O14 0.450055 0.492937 0.777976
O O15 0.242152 0.623636 0.030304
O O16 0.000000 0.000000 0.000000
O O17 0.500000 0.500000 0.000000
O O18 0.500000 0.000000 0.000000
#
# Coordination Sequence:
#
# PCOD9078510 Si02
#       8
#     2   2   2   2   2   2   2   2
#     4   9  21  40  68  92 124 181 212 267 327 386
#     4  12  23  39  68 101 130 173 219 276 320 387
#     4  10  20  38  65  94 131 171 206 273 327 382
#     4  10  18  35  63  98 137 165 208 268 329 392
#     4  11  28  47  61  89 139 182 219 263 332 390
#     4  11  17  38  67 101 129 160 214 275 331 381
#     4  12  20  33  63 103 129 170 215 268 323 390
#     4   9  17  37  63  98 128 162 219 265 330 389
#
# _framework density 23.378104
#
# number of rings (size 3 to 8) (size 9 to 14) (size 15 to 20)
#    0.000    1.500    6.250    0.750    1.750    2.500 
#    0.000    5.625    0.000    0.000    0.000    0.000 
#    0.000    0.000    0.000    0.000    0.000    0.000 
#
# Total GULP energy -89508.251520 kJ/mol
# GULP energy per Si atom -5594.265720 kJ/mol
# Density = 2.332489 g / cm^3
# Si number density = 23.378104 Si / 1000 Ang^3
#
#
#
# Elastic Constant Matrix: (Units=GPa)
#
#
# Indices 1 2 3 4 5 6 
#
# 1 163.0415 77.4656 7.3710 -6.8073 -4.7781 -3.3872
# 2 77.4656 127.6648 43.4749 -35.4318 -5.8026 9.3632
# 3 7.3710 43.4749 87.6477 -23.4314 -12.7545 -3.5599
# 4 -6.8073 -35.4318 -23.4314 36.2329 7.8520 -2.6472
# 5 -4.7781 -5.8026 -12.7545 7.8520 23.2845 -9.8297
# 6 -3.3872 9.3632 -3.5599 -2.6472 -9.8297 19.6342
#
#
#
# Elastic Compliance Matrix: (Units=1/GPa)
#
#
# Indices 1 2 3 4 5 6 
#
# 1 0.011109 -0.010399 0.004261 -0.006443 0.008948 0.011259
# 2 -0.010399 0.022360 -0.008925 0.015981 -0.015054 -0.019457
# 3 0.004261 -0.008925 0.018943 0.002229 0.015164 0.016318
# 4 -0.006443 0.015981 0.002229 0.046178 -0.015949 -0.010087
# 5 0.008948 -0.015054 0.015164 -0.015949 0.074369 0.046553
# 6 0.011259 -0.019457 0.016318 -0.010087 0.046553 0.087058
#
#
# Mechanical properties :
#
#
# Convention : Reuss Voigt Hill
#
# Bulk Modulus (GPa) = 44.87129 70.55300 57.71215
# Shear Modulus (GPa) = 16.80268 32.49982 24.65125
#
# Velocity S-wave (km/s) = 2.68383 3.73256 3.25077
# Velocity P-wave (km/s) = 5.37023 6.98717 6.23137
#
# Compressibility (1/GPa) = 0.02228597
#
# Stress axis : x y z
#
# Youngs Moduli (GPa) = 90.02009 44.72185 52.78892
#
# Poissons Ratio (x) = 0.46505 -0.22492
# Poissons Ratio (y) = 0.93609 0.47115
# Poissons Ratio (z) = -0.38354 0.39915
#
# Static dielectric constant tensor:
#      x y z
#    x 2.179160 -0.277830 0.579990 
#    y -0.277830 2.110600 -0.576170 
#    z 0.579990 -0.576170 3.069070 
# 
# From -- ./inp_files/516371.got.cif
#   From: 2010.05.17/outbox.cif.g08.bks.cpg/sg2_259_cif.got.tgz:516371.got - 2010.06.03 11:33:40.
