data_PCOD9078668
_publ_section_title
;
Structure prediction by ZEFSAII (Michael W. Deem and Ramdas Pophale) SiO2 
 PCOD9078668
Probable space group: P -1
;
_chemical_formula_sum "Si O2"
_cell_formula_units_Z 16
_cell_length_a 8.724622
_cell_length_b 9.696527
_cell_length_c 13.073344
_cell_angle_alpha 127.714395
_cell_angle_beta 69.853645
_cell_angle_gamma 124.649857
_cell_volume 719.729557
_symmetry_space_group_name_H-M "P -1"
_symmetry_group_IT_number 2
_symmetry_cell_setting 'triclinic'
loop_
_space_group_symop_operation_xyz
x,y,z
-x,-y,-z
loop_
_atom_site_type_symbol
_atom_site_label
_atom_site_fract_x
_atom_site_fract_y
_atom_site_fract_z
Si Si1 0.539071 0.196898 0.686408
Si Si2 0.717832 0.769534 0.890010
Si Si3 0.257503 0.518421 0.392427
Si Si4 0.922319 0.193384 0.220093
Si Si5 0.771422 0.048247 0.826035
Si Si6 0.646059 0.372189 0.960670
Si Si7 0.570194 0.200536 0.342800
Si Si8 0.178885 0.186205 0.795205
O O1 0.691386 0.291727 0.606115
O O2 0.347262 0.191526 0.693214
O O3 0.492490 0.984248 0.646693
O O4 0.617280 0.344083 0.832987
O O5 0.649738 0.597053 0.740823
O O6 0.558693 0.719380 0.984469
O O7 0.913038 0.778152 0.881625
O O8 0.762178 0.967666 0.906458
O O9 0.344700 0.600389 0.519185
O O10 0.039907 0.356338 0.355672
O O11 0.743395 0.213434 0.242644
O O12 0.847977 0.977132 0.187450
O O13 0.973928 0.107141 0.760786
O O14 0.608630 0.870706 0.718797
O O15 0.735387 0.235862 0.914101
O O16 0.758440 0.597655 0.074232
#
# Coordination Sequence:
#
# PCOD9078668 Si02
#       8
#     2   2   2   2   2   2   2   2
#     4  10  21  36  60  85 107 143 189 225 277 324
#     4   9  20  36  57  82 112 141 184 222 279 322
#     4  10  19  37  61  82 111 140 188 231 272 318
#     4   8  19  35  56  84 108 140 186 226 273 322
#     4  10  22  37  52  84 112 150 184 216 277 331
#     4  11  20  37  60  80 113 146 180 232 273 324
#     4  10  20  37  60  82 112 145 181 230 272 324
#     4  10  18  36  55  80 113 145 180 223 274 326
#
# _framework density 22.230574000000001
#
# number of rings (size 3 to 8) (size 9 to 14) (size 15 to 20)
#    0.750    1.500    1.250    1.875    0.000    0.500 
#    0.000   23.750    0.000    0.000    0.000    0.000 
#    0.000    0.000    0.000    0.000    0.000    0.000 
#
# Total GULP energy -89250.431217 kJ/mol
# GULP energy per Si atom -5578.151951 kJ/mol
# Density = 2.217998 g / cm^3
# Si number density = 22.230574 Si / 1000 Ang^3
#
#
#
# Elastic Constant Matrix: (Units=GPa)
#
#
# Indices 1 2 3 4 5 6 
#
# 1 93.0678 24.2962 22.6464 6.8062 14.0712 24.4988
# 2 24.2962 83.7391 8.1173 7.5926 7.8310 16.6871
# 3 22.6464 8.1173 79.3701 18.5489 17.1943 11.3273
# 4 6.8062 7.5926 18.5489 25.3659 7.7053 8.4633
# 5 14.0712 7.8310 17.1943 7.7053 22.0089 12.1277
# 6 24.4988 16.6871 11.3273 8.4633 12.1277 30.5153
#
#
#
# Elastic Compliance Matrix: (Units=1/GPa)
#
#
# Indices 1 2 3 4 5 6 
#
# 1 0.014568 -0.002122 -0.002721 0.002492 -0.002146 -0.009363
# 2 -0.002122 0.013786 0.000498 -0.002056 -0.000275 -0.005340
# 3 -0.002721 0.000498 0.017457 -0.009911 -0.009736 0.002050
# 4 0.002492 -0.002056 -0.009911 0.051506 -0.006176 -0.009028
# 5 -0.002146 -0.000275 -0.009736 -0.006176 0.067486 -0.019621
# 6 -0.009363 -0.005340 0.002050 -0.009028 -0.019621 0.052749
#
#
# Mechanical properties :
#
#
# Convention : Reuss Voigt Hill
#
# Bulk Modulus (GPa) = 26.93951 40.69965 33.81958
# Shear Modulus (GPa) = 20.95421 28.98583 24.97002
#
# Velocity S-wave (km/s) = 3.07349 3.61483 3.35510
# Velocity P-wave (km/s) = 4.97389 5.98084 5.50046
#
# Compressibility (1/GPa) = 0.03712020
#
# Stress axis : x y z
#
# Youngs Moduli (GPa) = 68.64375 72.53938 57.28216
#
# Poissons Ratio (x) = 0.15396 0.15585
# Poissons Ratio (y) = 0.14569 -0.02851
# Poissons Ratio (z) = 0.18676 -0.03610
#
# Static dielectric constant tensor:
#      x y z
#    x 1.827150 0.005400 -0.005120 
#    y 0.005400 1.855030 0.023710 
#    z -0.005120 0.023710 1.882570 
# 
# From -- ./inp_files/499411.got.cif
#   From: 2010.05.17/outbox.cif.g08.bks.cpg/sg2_250_cif.got.tgz:499411.got - 2010.06.03 11:33:40.
