data_PCOD9078521
_publ_section_title
;
Structure prediction by ZEFSAII (Michael W. Deem and Ramdas Pophale) SiO2 
 PCOD9078521
Probable space group: P -1
;
_chemical_formula_sum "Si O2"
_cell_formula_units_Z 14
_cell_length_a 10.823382
_cell_length_b 12.832019
_cell_length_c 8.520773
_cell_angle_alpha 121.118933
_cell_angle_beta 54.610632
_cell_angle_gamma 144.162384
_cell_volume 562.074639
_symmetry_space_group_name_H-M "P -1"
_symmetry_group_IT_number 2
_symmetry_cell_setting 'triclinic'
loop_
_space_group_symop_operation_xyz
x,y,z
-x,-y,-z
loop_
_atom_site_type_symbol
_atom_site_label
_atom_site_fract_x
_atom_site_fract_y
_atom_site_fract_z
Si Si1 0.904800 0.543389 0.983432
Si Si2 0.914579 0.364947 0.597153
Si Si3 0.298901 0.857329 0.709227
Si Si4 0.065119 0.082679 0.259937
Si Si5 0.643074 0.838254 0.145776
Si Si6 0.584440 0.343594 0.519437
Si Si7 0.820382 0.738956 0.363089
O O1 0.793733 0.589120 0.192696
O O2 0.000000 0.500000 0.000000
O O3 0.790317 0.380645 0.821882
O O4 0.090340 0.715400 0.869174
O O5 0.159680 0.472498 0.562235
O O6 0.000000 0.500000 0.500000
O O7 0.769194 0.189616 0.462760
O O8 0.439871 0.817628 0.612294
O O9 0.389217 0.044975 0.806999
O O10 0.094261 0.191668 0.468068
O O11 0.283837 0.202932 0.084930
O O12 0.862845 0.983878 0.210764
O O13 0.002214 0.918121 0.262354
O O14 0.473856 0.677878 0.269457
O O15 0.407917 0.319001 0.535337
#
# Coordination Sequence:
#
# PCOD9078521 Si02
#       7
#     2   2   2   2   2   2   2
#     4  10  20  35  58  81 113 161 193 226 288 354
#     4   8  19  39  57  82 117 152 194 228 291 347
#     4  10  20  40  60  84 120 156 192 240 286 353
#     4   9  20  34  59  90 113 155 187 241 300 340
#     4  10  18  35  64  88 114 147 201 238 286 345
#     4   9  19  36  59  90 116 147 192 248 289 336
#     4  10  19  37  57  84 123 149 193 242 288 345
#
# _framework density 24.907724000000002
#
# number of rings (size 3 to 8) (size 9 to 14) (size 15 to 20)
#    0.000    2.857    1.429    0.429    2.000    0.000 
#    0.000   18.571    3.143    0.000    0.000    0.000 
#    0.000    0.000    0.000    0.000    0.000    0.000 
#
# Total GULP energy -78063.855898 kJ/mol
# GULP energy per Si atom -5575.989707 kJ/mol
# Density = 2.485103 g / cm^3
# Si number density = 24.907724 Si / 1000 Ang^3
#
#
#
# Elastic Constant Matrix: (Units=GPa)
#
#
# Indices 1 2 3 4 5 6 
#
# 1 83.2893 35.3002 43.5678 12.7553 4.6724 -7.2243
# 2 35.3002 100.2798 48.8925 12.1925 -3.7684 -7.3521
# 3 43.5678 48.8925 170.7099 4.9689 -3.7909 -4.5952
# 4 12.7553 12.1925 4.9689 36.7146 0.1900 -4.9727
# 5 4.6724 -3.7684 -3.7909 0.1900 32.5763 -2.0048
# 6 -7.2243 -7.3521 -4.5952 -4.9727 -2.0048 35.2139
#
#
#
# Elastic Compliance Matrix: (Units=1/GPa)
#
#
# Indices 1 2 3 4 5 6 
#
# 1 0.015984 -0.003759 -0.002923 -0.003702 -0.002958 0.001422
# 2 -0.003759 0.013049 -0.002628 -0.002497 0.001841 0.001363
# 3 -0.002923 -0.002628 0.007352 0.000887 0.000965 -0.000009
# 4 -0.003702 -0.002497 0.000887 0.029642 0.000360 0.003041
# 5 -0.002958 0.001841 0.000965 0.000360 0.031552 0.001751
# 6 0.001422 0.001363 -0.000009 0.003041 0.001751 0.029502
#
#
# Mechanical properties :
#
#
# Convention : Reuss Voigt Hill
#
# Bulk Modulus (GPa) = 56.28410 67.75555 62.01983
# Shear Modulus (GPa) = 32.97659 36.00220 34.48939
#
# Velocity S-wave (km/s) = 3.64256 3.80600 3.72517
# Velocity P-wave (km/s) = 6.35115 6.82465 6.59215
#
# Compressibility (1/GPa) = 0.01776701
#
# Stress axis : x y z
#
# Youngs Moduli (GPa) = 62.56122 76.63349 136.02111
#
# Poissons Ratio (x) = 0.28804 0.39754
# Poissons Ratio (y) = 0.23515 0.35744
# Poissons Ratio (z) = 0.18284 0.20138
#
# Static dielectric constant tensor:
#      x y z
#    x 2.247520 0.213370 0.014900 
#    y 0.213370 2.100500 0.027930 
#    z 0.014900 0.027930 2.016000 
# 
# From -- ./inp_files/265621.got.cif
#   From: 2010.05.17/outbox.cif.g08.bks.cpg/sg2_133_cif.got.tgz:265621.got - 2010.06.03 11:33:40.
