data_PCOD9078164
_publ_section_title
;
Structure prediction by ZEFSAII (Michael W. Deem and Ramdas Pophale) SiO2 
 PCOD9078164
Probable space group: P -1
;
_chemical_formula_sum "Si O2"
_cell_formula_units_Z 14
_cell_length_a 12.338014
_cell_length_b 9.035118
_cell_length_c 11.005795
_cell_angle_alpha 126.929153
_cell_angle_beta 40.539573
_cell_angle_gamma 124.193890
_cell_volume 624.201798
_symmetry_space_group_name_H-M "P -1"
_symmetry_group_IT_number 2
_symmetry_cell_setting 'triclinic'
loop_
_space_group_symop_operation_xyz
x,y,z
-x,-y,-z
loop_
_atom_site_type_symbol
_atom_site_label
_atom_site_fract_x
_atom_site_fract_y
_atom_site_fract_z
Si Si1 0.235144 0.502519 0.402746
Si Si2 0.083271 0.296353 0.209038
Si Si3 0.509494 0.198368 0.527994
Si Si4 0.240189 0.125663 0.353380
Si Si5 0.422554 0.673222 0.711964
Si Si6 0.035501 0.932335 0.233761
Si Si7 0.821501 0.649504 0.124080
O O1 0.227974 0.421322 0.232823
O O2 0.406569 0.633846 0.370006
O O3 0.192922 0.319784 0.436916
O O4 0.089182 0.624259 0.591230
O O5 0.054080 0.087655 0.188069
O O6 0.129155 0.318079 0.040882
O O7 0.618843 0.220107 0.321087
O O8 0.320225 0.222725 0.669746
O O9 0.500000 0.000000 0.500000
O O10 0.431553 0.190648 0.269563
O O11 0.201350 0.980475 0.202408
O O12 0.115593 0.048956 0.533093
O O13 0.500000 0.500000 0.500000
O O14 0.272284 0.561693 0.867241
O O15 0.975228 0.730822 0.123265
#
# Coordination Sequence:
#
# PCOD9078164 Si02
#       7
#     2   2   2   2   2   2   2
#     4  10  20  39  55  86 110 156 195 229 288 341
#     4  10  23  36  58  84 122 147 190 242 283 334
#     4  11  21  35  62  85 112 148 196 235 281 340
#     4  10  18  35  59  85 109 156 192 228 275 350
#     4  10  18  36  59  83 114 149 193 228 287 342
#     4  10  19  33  57  86 114 149 190 231 281 333
#     4  11  20  38  60  87 117 151 189 238 283 335
#
# _framework density 22.428644999999999
#
# number of rings (size 3 to 8) (size 9 to 14) (size 15 to 20)
#    0.000    1.714    5.714    1.286    0.000    0.571 
#    0.000    4.286    0.000    0.857    0.000    0.000 
#    0.000    0.000    0.000    0.000    0.000    0.000 
#
# Total GULP energy -78225.557746 kJ/mol
# GULP energy per Si atom -5587.539839 kJ/mol
# Density = 2.237760 g / cm^3
# Si number density = 22.428645 Si / 1000 Ang^3
#
#
#
# Elastic Constant Matrix: (Units=GPa)
#
#
# Indices 1 2 3 4 5 6 
#
# 1 111.3552 49.3997 28.9182 3.8277 25.5404 31.6173
# 2 49.3997 125.6661 39.2220 -20.9244 20.8227 21.9318
# 3 28.9182 39.2220 77.8744 -25.9160 33.0980 9.2104
# 4 3.8277 -20.9244 -25.9160 24.7490 -9.1050 10.8202
# 5 25.5404 20.8227 33.0980 -9.1050 37.2719 13.2513
# 6 31.6173 21.9318 9.2104 10.8202 13.2513 49.3612
#
#
#
# Elastic Compliance Matrix: (Units=1/GPa)
#
#
# Indices 1 2 3 4 5 6 
#
# 1 0.014714 -0.005193 -0.004320 -0.012337 -0.005612 -0.002100
# 2 -0.005193 0.013446 0.000676 0.016653 0.001988 -0.006958
# 3 -0.004320 0.000676 0.032271 0.031829 -0.016090 -0.006212
# 4 -0.012337 0.016653 0.031829 0.105999 0.007709 -0.030741
# 5 -0.005612 0.001988 -0.016090 0.007709 0.048981 -0.009126
# 6 -0.002100 -0.006958 -0.006212 -0.030741 -0.009126 0.035043
#
#
# Mechanical properties :
#
#
# Convention : Reuss Voigt Hill
#
# Bulk Modulus (GPa) = 23.38896 61.10840 42.24868
# Shear Modulus (GPa) = 17.70673 35.43347 26.57010
#
# Velocity S-wave (km/s) = 2.81280 3.97902 3.44561
# Velocity P-wave (km/s) = 4.58257 6.95809 5.89130
#
# Compressibility (1/GPa) = 0.04275522
#
# Stress axis : x y z
#
# Youngs Moduli (GPa) = 67.96474 74.37323 30.98798
#
# Poissons Ratio (x) = 0.38624 0.13387
# Poissons Ratio (y) = 0.35296 -0.02096
# Poissons Ratio (z) = 0.29362 -0.05029
#
# Static dielectric constant tensor:
#      x y z
#    x 1.845510 0.024950 -0.007290 
#    y 0.024950 1.824330 -0.006100 
#    z -0.007290 -0.006100 1.872680 
# 
# From -- ./inp_files/159848.got.cif
#   From: 2010.05.17/outbox.cif.g08.bks.cpg/sg2_80_cif.got.tgz:159848.got - 2010.06.03 11:33:40.
