data_PCOD9078565
_publ_section_title
;
Structure prediction by ZEFSAII (Michael W. Deem and Ramdas Pophale) SiO2 
 PCOD9078565
Probable space group: P -1
;
_chemical_formula_sum "Si O2"
_cell_formula_units_Z 16
_cell_length_a 11.148956
_cell_length_b 12.831934
_cell_length_c 7.735622
_cell_angle_alpha 75.924882
_cell_angle_beta 96.029903
_cell_angle_gamma 52.406784
_cell_volume 803.001463
_symmetry_space_group_name_H-M "P -1"
_symmetry_group_IT_number 2
_symmetry_cell_setting 'triclinic'
loop_
_space_group_symop_operation_xyz
x,y,z
-x,-y,-z
loop_
_atom_site_type_symbol
_atom_site_label
_atom_site_fract_x
_atom_site_fract_y
_atom_site_fract_z
Si Si1 0.391909 0.830825 0.084158
Si Si2 0.062125 0.313171 0.500107
Si Si3 0.737633 0.614406 0.388778
Si Si4 0.138518 0.876822 0.295771
Si Si5 0.888463 0.866103 0.100756
Si Si6 0.335689 0.648841 0.976915
Si Si7 0.015218 0.169531 0.262446
Si Si8 0.321733 0.576723 0.391520
O O1 0.577468 0.728726 0.207005
O O2 0.282776 0.845418 0.218206
O O3 0.369014 0.755782 0.962044
O O4 0.298654 0.994907 0.960796
O O5 0.206446 0.313312 0.529826
O O6 0.060043 0.258700 0.712052
O O7 0.898637 0.476408 0.372826
O O8 0.078508 0.210081 0.403961
O O9 0.700834 0.534852 0.536855
O O10 0.214731 0.720005 0.434394
O O11 0.987641 0.915764 0.151199
O O12 0.078172 0.009834 0.349608
O O13 0.928027 0.824484 0.922499
O O14 0.295292 0.624837 0.170266
O O15 0.500000 0.500000 0.000000
O O16 0.177466 0.719971 0.815012
O O17 0.500000 0.500000 0.500000
#
# Coordination Sequence:
#
# PCOD9078565 Si02
#       8
#     2   2   2   2   2   2   2   2
#     4  10  19  37  62  86 124 158 195 261 316 356
#     4  11  26  40  63  89 125 173 209 243 294 386
#     4  11  22  43  60  90 126 165 210 246 305 367
#     4  10  18  35  65  91 117 159 199 256 319 356
#     4  11  20  42  63  90 124 165 200 252 322 354
#     4  11  20  33  57  97 122 148 200 262 313 359
#     4  11  21  40  62  94 126 153 208 258 305 368
#     4  11  20  37  66  88 118 162 198 256 318 354
#
# _framework density 19.925243999999999
#
# number of rings (size 3 to 8) (size 9 to 14) (size 15 to 20)
#    0.000    1.250    7.500    1.500    0.000    1.000 
#    2.250    9.375    0.000    0.000    0.000    0.000 
#    0.000    0.000    0.000    0.000    0.000    0.000 
#
# Total GULP energy -89227.879671 kJ/mol
# GULP energy per Si atom -5576.742479 kJ/mol
# Density = 1.987989 g / cm^3
# Si number density = 19.925244 Si / 1000 Ang^3
#
#
#
# Elastic Constant Matrix: (Units=GPa)
#
#
# Indices 1 2 3 4 5 6 
#
# 1 91.4816 34.5271 34.5056 -1.7081 17.9610 18.9489
# 2 34.5271 112.0727 42.4989 -3.1945 4.0547 -0.9128
# 3 34.5056 42.4989 81.1353 -3.1341 8.2358 3.0437
# 4 -1.7081 -3.1945 -3.1341 40.1007 -9.7876 13.7202
# 5 17.9610 4.0547 8.2358 -9.7876 21.9346 -2.3141
# 6 18.9489 -0.9128 3.0437 13.7202 -2.3141 26.9506
#
#
#
# Elastic Compliance Matrix: (Units=1/GPa)
#
#
# Indices 1 2 3 4 5 6 
#
# 1 0.020624 -0.004248 -0.004291 0.002141 -0.015284 -0.016562
# 2 -0.004248 0.012041 -0.005030 -0.000269 0.003485 0.004399
# 3 -0.004291 -0.005030 0.016942 0.000037 -0.001822 0.000758
# 4 0.002141 -0.000269 0.000037 0.033914 0.011538 -0.017793
# 5 -0.015284 0.003485 -0.001822 0.011538 0.064425 0.010727
# 6 -0.016562 0.004399 0.000758 -0.017793 0.010727 0.058793
#
#
# Mechanical properties :
#
#
# Convention : Reuss Voigt Hill
#
# Bulk Modulus (GPa) = 44.50179 56.41700 50.45939
# Shear Modulus (GPa) = 20.71551 29.34105 25.02828
#
# Velocity S-wave (km/s) = 3.22788 3.84155 3.54801
# Velocity P-wave (km/s) = 6.02288 6.93199 6.49337
#
# Compressibility (1/GPa) = 0.02247101
#
# Stress axis : x y z
#
# Youngs Moduli (GPa) = 48.48727 83.05128 59.02375
#
# Poissons Ratio (x) = 0.35277 0.25325
# Poissons Ratio (y) = 0.20596 0.29687
# Poissons Ratio (z) = 0.20805 0.41772
#
# Static dielectric constant tensor:
#      x y z
#    x 1.725340 -0.026030 -0.024010 
#    y -0.026030 1.756710 -0.045850 
#    z -0.024010 -0.045850 1.810340 
# 
# From -- ./inp_files/253108.got.cif
#   From: 2010.05.17/outbox.cif.g08.bks.cpg/sg2_127_cif.got.tgz:253108.got - 2010.06.03 11:33:40.
