data_PCOD9078241
_publ_section_title
;
Structure prediction by ZEFSAII (Michael W. Deem and Ramdas Pophale) SiO2 
 PCOD9078241
Probable space group: P -1
;
_chemical_formula_sum "Si O2"
_cell_formula_units_Z 14
_cell_length_a 8.324384
_cell_length_b 7.435839
_cell_length_c 10.340419
_cell_angle_alpha 96.379720
_cell_angle_beta 76.624643
_cell_angle_gamma 57.691292
_cell_volume 504.386471
_symmetry_space_group_name_H-M "P -1"
_symmetry_group_IT_number 2
_symmetry_cell_setting 'triclinic'
loop_
_space_group_symop_operation_xyz
x,y,z
-x,-y,-z
loop_
_atom_site_type_symbol
_atom_site_label
_atom_site_fract_x
_atom_site_fract_y
_atom_site_fract_z
Si Si1 0.460430 0.255835 0.285370
Si Si2 0.647519 0.055892 0.585854
Si Si3 0.779359 0.448079 0.026437
Si Si4 0.934915 0.346293 0.551884
Si Si5 0.351796 0.825483 0.131837
Si Si6 0.696265 0.450738 0.346354
Si Si7 0.151106 0.079622 0.978501
O O1 0.246178 0.482751 0.303188
O O2 0.563681 0.354650 0.351477
O O3 0.418257 0.094613 0.353115
O O4 0.634302 0.101190 0.138583
O O5 0.700966 0.148554 0.706208
O O6 0.446260 0.281509 0.589584
O O7 0.860841 0.885272 0.459592
O O8 0.593028 0.702899 0.063519
O O9 0.781703 0.418282 0.181093
O O10 0.018998 0.308500 0.943427
O O11 0.703946 0.323162 0.945138
O O12 0.839664 0.329254 0.433964
O O13 0.000000 0.500000 0.500000
O O14 0.217138 0.068010 0.112812
O O15 0.000000 0.000000 0.000000
#
# Coordination Sequence:
#
# PCOD9078241 Si02
#       7
#     2   2   2   2   2   2   2
#     4  11  23  41  63  98 122 165 220 249 308 385
#     4  10  24  41  66  94 128 166 204 261 315 364
#     4   9  18  33  61  88 118 164 200 245 308 366
#     4  10  24  44  65  93 128 161 213 266 307 371
#     4   9  17  34  58  88 122 159 201 246 302 371
#     4  11  21  44  67  89 131 165 205 262 315 367
#     4  10  18  35  60  84 124 164 196 254 311 349
#
# _framework density 27.756492000000001
#
# number of rings (size 3 to 8) (size 9 to 14) (size 15 to 20)
#    0.000    2.000    2.857    1.286    2.000    3.429 
#    0.000   10.000    0.000    0.000    0.000    0.000 
#    0.000    0.000    0.000    0.000    0.000    0.000 
#
# Total GULP energy -78141.824755 kJ/mol
# GULP energy per Si atom -5581.558911 kJ/mol
# Density = 2.769332 g / cm^3
# Si number density = 27.756492 Si / 1000 Ang^3
#
#
#
# Elastic Constant Matrix: (Units=GPa)
#
#
# Indices 1 2 3 4 5 6 
#
# 1 57.0660 42.2444 16.0458 14.1558 -9.2192 -15.2313
# 2 42.2444 140.3795 18.3237 26.4858 -5.3575 -9.0302
# 3 16.0458 18.3237 99.5385 23.7896 -8.5349 -13.5286
# 4 14.1558 26.4858 23.7896 45.2839 -5.9913 -11.6768
# 5 -9.2192 -5.3575 -8.5349 -5.9913 38.7653 5.0795
# 6 -15.2313 -9.0302 -13.5286 -11.6768 5.0795 62.1337
#
#
#
# Elastic Compliance Matrix: (Units=1/GPa)
#
#
# Indices 1 2 3 4 5 6 
#
# 1 0.024985 -0.006608 -0.001536 -0.001533 0.003900 0.004223
# 2 -0.006608 0.009777 0.000039 -0.003995 -0.000714 -0.000883
# 3 -0.001536 0.000039 0.011811 -0.005295 0.001278 0.001101
# 4 -0.001533 -0.003995 -0.005295 0.028746 0.001950 0.003134
# 5 0.003900 -0.000714 0.001278 0.001950 0.027304 -0.000735
# 6 0.004223 -0.000883 0.001101 0.003134 -0.000735 0.017890
#
#
# Mechanical properties :
#
#
# Convention : Reuss Voigt Hill
#
# Bulk Modulus (GPa) = 32.93571 50.02354 41.47962
# Shear Modulus (GPa) = 34.04925 43.92793 38.98859
#
# Velocity S-wave (km/s) = 3.50625 3.98253 3.75195
# Velocity P-wave (km/s) = 5.31821 6.26169 5.80914
#
# Compressibility (1/GPa) = 0.03036218
#
# Stress axis : x y z
#
# Youngs Moduli (GPa) = 40.02381 102.28226 84.66330
#
# Poissons Ratio (x) = 0.67593 0.13007
# Poissons Ratio (y) = 0.26450 -0.00331
# Poissons Ratio (z) = 0.06149 -0.00400
#
# Static dielectric constant tensor:
#      x y z
#    x 2.236640 0.017320 -0.013340 
#    y 0.017320 2.241540 -0.002960 
#    z -0.013340 -0.002960 2.296870 
# 
# From -- ./inp_files/379468.got.cif
#   From: 2010.05.17/outbox.cif.g08.bks.cpg/sg2_190_cif.got.tgz:379468.got - 2010.06.03 11:33:40.
