data_PCOD9078687
_publ_section_title
;
Structure prediction by ZEFSAII (Michael W. Deem and Ramdas Pophale) SiO2 
 PCOD9078687
Probable space group: P -1
;
_chemical_formula_sum "Si O2"
_cell_formula_units_Z 13
_cell_length_a 10.538202
_cell_length_b 17.357791
_cell_length_c 7.711067
_cell_angle_alpha 143.164188
_cell_angle_beta 56.547343
_cell_angle_gamma 144.819752
_cell_volume 465.082703
_symmetry_space_group_name_H-M "P -1"
_symmetry_group_IT_number 2
_symmetry_cell_setting 'triclinic'
loop_
_space_group_symop_operation_xyz
x,y,z
-x,-y,-z
loop_
_atom_site_type_symbol
_atom_site_label
_atom_site_fract_x
_atom_site_fract_y
_atom_site_fract_z
Si Si1 0.396156 0.383272 0.149690
Si Si2 0.068318 0.922657 0.929343
Si Si3 0.525085 0.218483 0.977986
Si Si4 0.276860 0.081611 0.440443
Si Si5 0.740325 0.386143 0.494763
Si Si6 0.000000 0.500000 0.000000
Si Si7 0.865928 0.666965 0.169140
O O1 0.310627 0.238921 0.793902
O O2 0.645531 0.598714 0.298595
O O3 0.168321 0.303245 0.261139
O O4 0.461706 0.315743 0.119942
O O5 0.283398 0.996483 0.801576
O O6 0.167218 0.019681 0.219960
O O7 0.000000 0.000000 0.000000
O O8 0.650485 0.320435 0.250331
O O9 0.724146 0.286792 0.835093
O O10 0.535779 0.191104 0.411332
O O11 0.098636 0.889354 0.346066
O O12 0.766385 0.542791 0.841795
O O13 0.000000 0.500000 0.500000
O O14 0.930072 0.585358 0.091661
#
# Coordination Sequence:
#
# PCOD9078687 Si02
#       7
#     2   2   2   2   2   1   2
#     4   9  19  37  59  82 119 151 183 243 290 332
#     4   9  18  36  59  83 115 152 187 237 293 337
#     4   9  18  34  59  81 109 154 190 224 291 340
#     4  10  21  36  59  91 111 151 198 230 285 351
#     4  10  19  37  57  79 120 155 181 238 288 329
#     4  10  18  36  56  78 118 152 178 242 282 328
#     4  10  21  36  59  87 116 150 197 229 288 341
#
# _framework density 27.952017999999999
#
# number of rings (size 3 to 8) (size 9 to 14) (size 15 to 20)
#    0.000    2.462    1.538    0.462    0.000    1.231 
#    0.000   16.154    0.000   16.615    0.000    0.000 
#    0.000    0.000    0.000    0.000    0.000    0.000 
#
# Total GULP energy -72494.953065 kJ/mol
# GULP energy per Si atom -5576.534851 kJ/mol
# Density = 2.788840 g / cm^3
# Si number density = 27.952018 Si / 1000 Ang^3
#
#
#
# Elastic Constant Matrix: (Units=GPa)
#
#
# Indices 1 2 3 4 5 6 
#
# 1 109.0676 92.4061 41.1991 26.2653 25.1294 1.6210
# 2 92.4061 270.1550 79.9969 88.3548 7.1192 37.8937
# 3 41.1991 79.9969 119.1609 11.0912 9.1620 -7.8090
# 4 26.2653 88.3548 11.0912 63.0529 -10.6723 27.5855
# 5 25.1294 7.1192 9.1620 -10.6723 42.1324 5.6837
# 6 1.6210 37.8937 -7.8090 27.5855 5.6837 66.5952
#
#
#
# Elastic Compliance Matrix: (Units=1/GPa)
#
#
# Indices 1 2 3 4 5 6 
#
# 1 0.016805 -0.004067 -0.001472 -0.004951 -0.010906 0.004714
# 2 -0.004067 0.010569 -0.004586 -0.011883 -0.001180 -0.001429
# 3 -0.001472 -0.004586 0.011805 0.003839 -0.000274 0.002463
# 4 -0.004951 -0.011883 0.003839 0.041565 0.016174 -0.011265
# 5 -0.010906 -0.001180 -0.000274 0.016174 0.035789 -0.008849
# 6 0.004714 -0.001429 0.002463 -0.011265 -0.008849 0.021425
#
#
# Mechanical properties :
#
#
# Convention : Reuss Voigt Hill
#
# Bulk Modulus (GPa) = 52.82785 102.84309 77.83547
# Shear Modulus (GPa) = 30.39206 53.34152 41.86679
#
# Velocity S-wave (km/s) = 3.30099 4.37318 3.87435
# Velocity P-wave (km/s) = 5.78526 7.89760 6.92248
#
# Compressibility (1/GPa) = 0.01892941
#
# Stress axis : x y z
#
# Youngs Moduli (GPa) = 59.50502 94.61903 84.71245
#
# Poissons Ratio (x) = 0.38483 0.12466
# Poissons Ratio (y) = 0.24202 0.38848
# Poissons Ratio (z) = 0.08757 0.43391
#
# Static dielectric constant tensor:
#      x y z
#    x 2.324120 -0.103040 0.104840 
#    y -0.103040 2.317190 -0.132960 
#    z 0.104840 -0.132960 2.258310 
# 
# From -- ./inp_files/20327.got.cif
#   From: 2010.05.17/outbox.cif.g08.bks.cpg/sg2_11_cif.got.tgz:20327.got - 2010.06.03 11:33:40.
