data_PCOD9078660
_publ_section_title
;
Structure prediction by ZEFSAII (Michael W. Deem and Ramdas Pophale) SiO2 
 PCOD9078660
Probable space group: P -1
;
_chemical_formula_sum "Si O2"
_cell_formula_units_Z 16
_cell_length_a 10.172055
_cell_length_b 5.314865
_cell_length_c 23.739387
_cell_angle_alpha 61.401348
_cell_angle_beta 128.521001
_cell_angle_gamma 106.396916
_cell_volume 881.382646
_symmetry_space_group_name_H-M "P -1"
_symmetry_group_IT_number 2
_symmetry_cell_setting 'triclinic'
loop_
_space_group_symop_operation_xyz
x,y,z
-x,-y,-z
loop_
_atom_site_type_symbol
_atom_site_label
_atom_site_fract_x
_atom_site_fract_y
_atom_site_fract_z
Si Si1 0.595976 0.798766 0.501698
Si Si2 0.473956 0.620096 0.897515
Si Si3 0.797864 0.516916 0.673150
Si Si4 0.643971 0.147069 0.058316
Si Si5 0.117060 0.317371 0.844311
Si Si6 0.393406 0.077729 0.330223
Si Si7 0.316635 0.277303 0.165880
Si Si8 0.093470 0.808739 0.092641
O O1 0.500000 0.500000 0.500000
O O2 0.769204 0.705544 0.588617
O O3 0.567995 0.972438 0.417660
O O4 0.500000 0.000000 0.500000
O O5 0.420771 0.894434 0.890915
O O6 0.296057 0.463086 0.869126
O O7 0.546193 0.659860 0.851583
O O8 0.618758 0.464414 0.991430
O O9 0.717450 0.208063 0.673318
O O10 0.984957 0.451965 0.751165
O O11 0.698270 0.688249 0.678327
O O12 0.828623 0.015021 0.115137
O O13 0.500000 0.000000 0.000000
O O14 0.034803 0.331250 0.882392
O O15 0.400544 0.193516 0.256688
O O16 0.201196 0.558190 0.117685
O O17 0.207859 0.018093 0.138889
O O18 0.000000 0.000000 0.000000
#
# Coordination Sequence:
#
# PCOD9078660 Si02
#       8
#     2   2   2   2   2   2   2   2
#     4   8  16  29  54  80 113 144 177 222 283 344
#     4  10  24  37  59  76 111 157 199 229 284 346
#     4  10  19  34  56  87 113 143 185 235 286 334
#     4   9  21  39  56  75 106 151 204 232 276 335
#     4  11  22  37  59  81 113 147 194 240 285 329
#     4  10  18  36  54  85 116 146 181 232 286 345
#     4  12  24  41  57  85 117 153 190 235 290 349
#     4  12  27  39  58  85 118 147 191 246 297 326
#
# _framework density 18.153295
#
# number of rings (size 3 to 8) (size 9 to 14) (size 15 to 20)
#    0.000    1.750    2.500    1.125   12.250    0.000 
#    0.000    0.000    0.000    0.750    0.000    0.875 
#    0.000    0.000    0.000    0.000    0.000    0.000 
#
# Total GULP energy -89092.101557 kJ/mol
# GULP energy per Si atom -5568.256347 kJ/mol
# Density = 1.811198 g / cm^3
# Si number density = 18.153295 Si / 1000 Ang^3
#
#
#
# Elastic Constant Matrix: (Units=GPa)
#
#
# Indices 1 2 3 4 5 6 
#
# 1 88.8101 14.5101 44.0910 8.2344 -4.1318 0.6663
# 2 14.5101 72.1062 -1.9503 9.9610 1.8511 -8.5488
# 3 44.0910 -1.9503 171.2542 6.3730 7.3397 2.7393
# 4 8.2344 9.9610 6.3730 20.5078 -5.4190 -1.2543
# 5 -4.1318 1.8511 7.3397 -5.4190 27.9572 0.9467
# 6 0.6663 -8.5488 2.7393 -1.2543 0.9467 24.2178
#
#
#
# Elastic Compliance Matrix: (Units=1/GPa)
#
#
# Indices 1 2 3 4 5 6 
#
# 1 0.013867 -0.002760 -0.003609 -0.002453 0.002744 -0.001182
# 2 -0.002760 0.016263 0.001249 -0.007774 -0.003502 0.005410
# 3 -0.003609 0.001249 0.006987 -0.002096 -0.002848 -0.000247
# 4 -0.002453 -0.007774 -0.002096 0.057298 0.011807 0.000067
# 5 0.002744 -0.003502 -0.002848 0.011807 0.039508 -0.001923
# 6 -0.001182 0.005410 -0.000247 0.000067 -0.001923 0.043341
#
#
# Mechanical properties :
#
#
# Convention : Reuss Voigt Hill
#
# Bulk Modulus (GPa) = 37.20818 49.49691 43.35255
# Shear Modulus (GPa) = 25.45034 32.90454 29.17744
#
# Velocity S-wave (km/s) = 3.74835 4.26207 4.01344
# Velocity P-wave (km/s) = 6.26695 7.17953 6.73870
#
# Compressibility (1/GPa) = 0.02687581
#
# Stress axis : x y z
#
# Youngs Moduli (GPa) = 72.11607 61.49049 143.12928
#
# Poissons Ratio (x) = 0.16970 0.51654
# Poissons Ratio (y) = 0.19902 -0.17871
# Poissons Ratio (z) = 0.26026 -0.07678
#
# Static dielectric constant tensor:
#      x y z
#    x 1.600690 -0.027380 -0.003350 
#    y -0.027380 1.819890 -0.025700 
#    z -0.003350 -0.025700 1.666660 
# 
# From -- ./inp_files/47375.got.cif
#   From: 2010.05.17/outbox.cif.g08.bks.cpg/sg2_24_cif.got.tgz:47375.got - 2010.06.03 11:33:40.
