data_PCOD9078143
_publ_section_title
;
Structure prediction by ZEFSAII (Michael W. Deem and Ramdas Pophale) SiO2 
 PCOD9078143
Probable space group: P -1
;
_chemical_formula_sum "Si O2"
_cell_formula_units_Z 14
_cell_length_a 8.356785
_cell_length_b 10.290917
_cell_length_c 12.047434
_cell_angle_alpha 137.689913
_cell_angle_beta 115.657182
_cell_angle_gamma 62.952684
_cell_volume 613.010153
_symmetry_space_group_name_H-M "P -1"
_symmetry_group_IT_number 2
_symmetry_cell_setting 'triclinic'
loop_
_space_group_symop_operation_xyz
x,y,z
-x,-y,-z
loop_
_atom_site_type_symbol
_atom_site_label
_atom_site_fract_x
_atom_site_fract_y
_atom_site_fract_z
Si Si1 0.161559 0.307764 0.939187
Si Si2 0.464428 0.844528 0.555738
Si Si3 0.789064 0.369645 0.525298
Si Si4 0.842751 0.687930 0.606493
Si Si5 0.467789 0.899206 0.044246
Si Si6 0.862566 0.866886 0.415258
Si Si7 0.133551 0.926057 0.833924
O O1 0.371671 0.300866 0.030757
O O2 0.179028 0.237683 0.773808
O O3 0.111972 0.137532 0.897964
O O4 0.000000 0.500000 0.000000
O O5 0.348909 0.686949 0.463329
O O6 0.664684 0.741138 0.510047
O O7 0.503492 0.973625 0.757602
O O8 0.327144 0.985136 0.519202
O O9 0.765181 0.600093 0.638183
O O10 0.763975 0.239648 0.328145
O O11 0.002444 0.286782 0.565620
O O12 0.000000 0.500000 0.500000
O O13 0.942245 0.867091 0.760014
O O14 0.259125 0.890516 0.958091
O O15 0.500000 0.000000 0.000000
O O16 0.000000 0.000000 0.500000
#
# Coordination Sequence:
#
# PCOD9078143 Si02
#       7
#     2   2   2   2   2   2   2
#     4  10  19  34  58  87 108 144 192 236 279 332
#     4  10  18  35  59  82 109 153 188 229 283 332
#     4  10  18  36  60  82 111 146 194 233 272 338
#     4  10  23  36  52  84 118 147 188 233 283 332
#     4   9  17  34  58  78 110 146 183 228 281 332
#     4   9  17  35  58  81 109 144 191 235 276 327
#     4  10  19  38  53  81 121 142 181 238 282 333
#
# _framework density 22.838121000000001
#
# number of rings (size 3 to 8) (size 9 to 14) (size 15 to 20)
#    0.000    2.286    5.714    0.429    0.000    2.857 
#   10.286    4.286    0.000    3.429    0.000    0.000 
#    0.000    0.000    0.000    0.000    0.000    0.000 
#
# Total GULP energy -77939.924005 kJ/mol
# GULP energy per Si atom -5567.137429 kJ/mol
# Density = 2.278614 g / cm^3
# Si number density = 22.838121 Si / 1000 Ang^3
#
#
#
# Elastic Constant Matrix: (Units=GPa)
#
#
# Indices 1 2 3 4 5 6 
#
# 1 89.6420 45.1481 10.7946 6.7484 26.9749 -26.1130
# 2 45.1481 159.3720 16.8401 -1.4834 23.7435 -24.4653
# 3 10.7946 16.8401 31.2553 -10.5045 6.4146 -0.5286
# 4 6.7484 -1.4834 -10.5045 34.4377 -3.3036 5.4317
# 5 26.9749 23.7435 6.4146 -3.3036 34.2086 -0.5351
# 6 -26.1130 -24.4653 -0.5286 5.4317 -0.5351 50.1365
#
#
#
# Elastic Compliance Matrix: (Units=1/GPa)
#
#
# Indices 1 2 3 4 5 6 
#
# 1 0.021173 -0.001436 -0.006373 -0.009369 -0.015235 0.011112
# 2 -0.001436 0.008125 -0.003462 -0.001319 -0.003933 0.003281
# 3 -0.006373 -0.003462 0.040623 0.014568 0.001122 -0.006147
# 4 -0.009369 -0.001319 0.014568 0.037604 0.009057 -0.009347
# 5 -0.015235 -0.003933 0.001122 0.009057 0.044478 -0.010349
# 6 0.011112 0.003281 -0.006147 -0.009347 -0.010349 0.028172
#
#
# Mechanical properties :
#
#
# Convention : Reuss Voigt Hill
#
# Bulk Modulus (GPa) = 21.10681 47.31499 34.21090
# Shear Modulus (GPa) = 22.88227 37.58900 30.23564
#
# Velocity S-wave (km/s) = 3.16877 4.06136 3.64251
# Velocity P-wave (km/s) = 4.75921 6.53876 5.71863
#
# Compressibility (1/GPa) = 0.04737807
#
# Stress axis : x y z
#
# Youngs Moduli (GPa) = 47.22986 123.08040 24.61668
#
# Poissons Ratio (x) = 0.17679 0.15688
# Poissons Ratio (y) = 0.06784 0.08523
# Poissons Ratio (z) = 0.30099 0.42613
#
# Static dielectric constant tensor:
#      x y z
#    x 2.791890 -0.992730 -0.355960 
#    y -0.992730 3.072330 0.400950 
#    z -0.355960 0.400950 2.047780 
# 
# From -- ./inp_files/163329.got.cif
#   From: 2010.05.17/outbox.cif.g08.bks.cpg/sg2_82_cif.got.tgz:163329.got - 2010.06.03 11:33:40.
