data_PCOD9078988
_publ_section_title
;
Structure prediction by ZEFSAII (Michael W. Deem and Ramdas Pophale) SiO2 
 PCOD9078988
Probable space group: P -1
;
_chemical_formula_sum "Si O2"
_cell_formula_units_Z 13
_cell_length_a 11.267989
_cell_length_b 9.018855
_cell_length_c 11.076468
_cell_angle_alpha 91.187921
_cell_angle_beta 42.218723
_cell_angle_gamma 118.743474
_cell_volume 545.228349
_symmetry_space_group_name_H-M "P -1"
_symmetry_group_IT_number 2
_symmetry_cell_setting 'triclinic'
loop_
_space_group_symop_operation_xyz
x,y,z
-x,-y,-z
loop_
_atom_site_type_symbol
_atom_site_label
_atom_site_fract_x
_atom_site_fract_y
_atom_site_fract_z
Si Si1 0.797601 0.741458 0.912212
Si Si2 0.856705 0.195512 0.670846
Si Si3 0.500000 0.000000 0.500000
Si Si4 0.700035 0.434245 0.828497
Si Si5 0.776530 0.677675 0.419876
Si Si6 0.334335 0.095292 0.403272
Si Si7 0.347859 0.222992 0.722753
O O1 0.773529 0.549988 0.903180
O O2 0.057099 0.929212 0.661600
O O3 0.570290 0.676078 0.008476
O O4 0.778571 0.799499 0.059519
O O5 0.729010 0.276447 0.793641
O O6 0.692472 0.992050 0.709383
O O7 0.102154 0.378833 0.410978
O O8 0.960473 0.188947 0.715903
O O9 0.489056 0.087990 0.380068
O O10 0.641584 0.941734 0.324928
O O11 0.633483 0.439063 0.523151
O O12 0.761829 0.737959 0.299527
O O13 0.618006 0.701711 0.620419
#
# Coordination Sequence:
#
# PCOD9078988 Si02
#       7
#     2   2   1   2   2   2   2
#     4  10  19  36  59  86 115 148 190 244 282 337
#     4  10  18  36  61  86 113 154 195 232 269 360
#     4  10  22  38  60  88 104 154 202 228 268 360
#     4   9  19  32  60  89 111 148 199 232 283 330
#     4  10  21  36  59  86 114 156 188 233 288 343
#     4  10  22  36  63  86 117 150 193 234 290 328
#     4  10  21  39  62  80 118 151 196 234 284 337
#
# _framework density 23.843221
#
# number of rings (size 3 to 8) (size 9 to 14) (size 15 to 20)
#    0.000    2.154    1.538    1.385    4.308    2.462 
#    0.000    1.538   10.154    0.000    0.000    0.000 
#    0.000    0.000    0.000    0.000    0.000    0.000 
#
# Total GULP energy -72438.699318 kJ/mol
# GULP energy per Si atom -5572.207640 kJ/mol
# Density = 2.378895 g / cm^3
# Si number density = 23.843221 Si / 1000 Ang^3
#
#
#
# Elastic Constant Matrix: (Units=GPa)
#
#
# Indices 1 2 3 4 5 6 
#
# 1 82.8776 12.9362 2.9587 26.1496 -3.1718 2.6257
# 2 12.9362 56.3156 30.2144 29.1054 2.0497 11.1375
# 3 2.9587 30.2144 101.3836 22.4338 17.0442 2.8209
# 4 26.1496 29.1054 22.4338 41.9507 3.8897 -1.3722
# 5 -3.1718 2.0497 17.0442 3.8897 30.7504 16.4435
# 6 2.6257 11.1375 2.8209 -1.3722 16.4435 28.9754
#
#
#
# Elastic Compliance Matrix: (Units=1/GPa)
#
#
# Indices 1 2 3 4 5 6 
#
# 1 0.016593 0.005390 0.000197 -0.015204 0.007858 -0.008774
# 2 0.005390 0.042751 -0.008977 -0.031354 0.023004 -0.030587
# 3 0.000197 -0.008977 0.014349 -0.000160 -0.012058 0.008871
# 4 -0.015204 -0.031354 -0.000160 0.058144 -0.022119 0.028751
# 5 0.007858 0.023004 -0.012058 -0.022119 0.066501 -0.047167
# 6 -0.008774 -0.030587 0.008871 0.028751 -0.047167 0.074329
#
#
# Mechanical properties :
#
#
# Convention : Reuss Voigt Hill
#
# Bulk Modulus (GPa) = 14.94475 36.97726 25.96101
# Shear Modulus (GPa) = 16.56988 33.29980 24.93484
#
# Velocity S-wave (km/s) = 2.63905 3.74119 3.23737
# Velocity P-wave (km/s) = 3.94559 5.84843 4.98858
#
# Compressibility (1/GPa) = 0.06691311
#
# Stress axis : x y z
#
# Youngs Moduli (GPa) = 60.26469 23.39107 69.69311
#
# Poissons Ratio (x) = -0.12607 -0.01371
# Poissons Ratio (y) = -0.32480 0.62560
# Poissons Ratio (z) = -0.01186 0.20997
#
# Static dielectric constant tensor:
#      x y z
#    x 1.847280 -0.052220 0.179430 
#    y -0.052220 1.968800 0.147870 
#    z 0.179430 0.147870 1.469090 
# 
# From -- ./inp_files/162981.got.cif
#   From: 2010.05.17/outbox.cif.g08.bks.cpg/sg2_82_cif.got.tgz:162981.got - 2010.06.03 11:33:40.
