data_PCOD9078137
_publ_section_title
;
Structure prediction by ZEFSAII (Michael W. Deem and Ramdas Pophale) SiO2 
 PCOD9078137
Probable space group: P -1
;
_chemical_formula_sum "Si O2"
_cell_formula_units_Z 16
_cell_length_a 9.417748
_cell_length_b 12.365778
_cell_length_c 11.655696
_cell_angle_alpha 53.424360
_cell_angle_beta 108.587315
_cell_angle_gamma 130.877135
_cell_volume 818.540694
_symmetry_space_group_name_H-M "P -1"
_symmetry_group_IT_number 2
_symmetry_cell_setting 'triclinic'
loop_
_space_group_symop_operation_xyz
x,y,z
-x,-y,-z
loop_
_atom_site_type_symbol
_atom_site_label
_atom_site_fract_x
_atom_site_fract_y
_atom_site_fract_z
Si Si1 0.363382 0.324614 0.144602
Si Si2 0.372974 0.220701 0.583901
Si Si3 0.737799 0.818353 0.168419
Si Si4 0.194507 0.538062 0.375531
Si Si5 0.142039 0.729764 0.409004
Si Si6 0.331386 0.458128 0.274280
Si Si7 0.830201 0.989307 0.862621
Si Si8 0.489724 0.840158 0.557079
O O1 0.274333 0.367079 0.195169
O O2 0.221439 0.175133 0.114218
O O3 0.466419 0.256338 0.281444
O O4 0.500000 0.500000 0.000000
O O5 0.266568 0.136378 0.729204
O O6 0.591082 0.358451 0.591172
O O7 0.309989 0.325387 0.443883
O O8 0.376759 0.114406 0.548947
O O9 0.553406 0.623600 0.224569
O O10 0.732744 0.930552 0.998646
O O11 0.943254 0.868229 0.162354
O O12 0.124142 0.643085 0.338090
O O13 0.209513 0.512842 0.261436
O O14 0.053803 0.361748 0.517511
O O15 0.276499 0.713314 0.533954
O O16 0.238515 0.923493 0.285017
O O17 0.500000 0.000000 0.500000
#
# Coordination Sequence:
#
# PCOD9078137 Si02
#       8
#     2   2   2   2   2   2   2   2
#     4  11  22  39  58  83 113 152 189 231 286 342
#     4   9  18  33  57  82 108 144 188 229 275 327
#     4  10  20  35  55  85 113 146 185 241 272 327
#     4   9  18  33  55  84 109 140 186 230 277 327
#     4  10  19  35  57  85 112 147 187 233 276 341
#     4  10  18  35  59  81 111 147 189 231 279 330
#     4  11  21  35  57  86 118 145 190 230 286 331
#     4  10  20  37  57  79 111 148 187 229 281 336
#
# _framework density 19.546982
#
# number of rings (size 3 to 8) (size 9 to 14) (size 15 to 20)
#    0.000    2.000    2.500    3.000    0.000    1.000 
#    2.250    8.750    0.000    0.750    0.000    0.000 
#    0.000    0.000    0.000    0.000    0.000    0.000 
#
# Total GULP energy -89068.955148 kJ/mol
# GULP energy per Si atom -5566.809697 kJ/mol
# Density = 1.950249 g / cm^3
# Si number density = 19.546982 Si / 1000 Ang^3
#
#
#
# Elastic Constant Matrix: (Units=GPa)
#
#
# Indices 1 2 3 4 5 6 
#
# 1 63.4921 22.6469 33.5823 4.1656 -24.6114 -18.4594
# 2 22.6469 73.7541 34.9577 -3.0295 -15.7144 -27.5433
# 3 33.5823 34.9577 104.2637 5.9957 -24.8915 -10.0082
# 4 4.1656 -3.0295 5.9957 21.5489 -4.4329 -1.5785
# 5 -24.6114 -15.7144 -24.8915 -4.4329 29.6451 9.3460
# 6 -18.4594 -27.5433 -10.0082 -1.5785 9.3460 29.9868
#
#
#
# Elastic Compliance Matrix: (Units=1/GPa)
#
#
# Indices 1 2 3 4 5 6 
#
# 1 0.027060 0.001493 -0.004291 0.000323 0.016041 0.011615
# 2 0.001493 0.025086 -0.006433 0.007309 0.003582 0.021082
# 3 -0.004291 -0.006433 0.014272 -0.003162 0.006415 -0.005953
# 4 0.000323 0.007309 -0.003162 0.050153 0.006996 0.006317
# 5 0.016041 0.003582 0.006415 0.006996 0.055936 -0.001759
# 6 0.011615 0.021082 -0.005953 0.006317 -0.001759 0.058756
#
#
# Mechanical properties :
#
#
# Convention : Reuss Voigt Hill
#
# Bulk Modulus (GPa) = 20.85211 47.09816 33.97513
# Shear Modulus (GPa) = 18.81752 26.25768 22.53760
#
# Velocity S-wave (km/s) = 3.10608 3.66910 3.39926
# Velocity P-wave (km/s) = 4.85329 6.48821 5.72937
#
# Compressibility (1/GPa) = 0.04795678
#
# Stress axis : x y z
#
# Youngs Moduli (GPa) = 36.95425 39.86329 70.06768
#
# Poissons Ratio (x) = -0.05952 0.30063
# Poissons Ratio (y) = -0.05518 0.45076
# Poissons Ratio (z) = 0.15856 0.25645
#
# Static dielectric constant tensor:
#      x y z
#    x 1.711370 -0.007960 0.015060 
#    y -0.007960 1.761410 0.032930 
#    z 0.015060 0.032930 1.723840 
# 
# From -- ./inp_files/283103.got.cif
#   From: 2010.05.17/outbox.cif.g08.bks.cpg/sg2_142_cif.got.tgz:283103.got - 2010.06.03 11:33:40.
