data_PCOD9078542
_publ_section_title
;
Structure prediction by ZEFSAII (Michael W. Deem and Ramdas Pophale) SiO2 
 PCOD9078542
Probable space group: P -1
;
_chemical_formula_sum "Si O2"
_cell_formula_units_Z 16
_cell_length_a 10.202086
_cell_length_b 14.325567
_cell_length_c 14.195805
_cell_angle_alpha 20.737812
_cell_angle_beta 98.133134
_cell_angle_gamma 101.024425
_cell_volume 716.907895
_symmetry_space_group_name_H-M "P -1"
_symmetry_group_IT_number 2
_symmetry_cell_setting 'triclinic'
loop_
_space_group_symop_operation_xyz
x,y,z
-x,-y,-z
loop_
_atom_site_type_symbol
_atom_site_label
_atom_site_fract_x
_atom_site_fract_y
_atom_site_fract_z
Si Si1 0.411096 0.514202 0.154851
Si Si2 0.113945 0.813082 0.459308
Si Si3 0.360203 0.922782 0.193532
Si Si4 0.281651 0.340233 0.946218
Si Si5 0.068069 0.790921 0.259912
Si Si6 0.489612 0.546657 0.340977
Si Si7 0.941243 0.252218 0.291818
Si Si8 0.638657 0.043513 0.410094
O O1 0.570023 0.532016 0.127184
O O2 0.393543 0.503398 0.277585
O O3 0.339187 0.247736 0.347897
O O4 0.378950 0.780217 0.850873
O O5 0.206154 0.580244 0.681841
O O6 0.054490 0.830155 0.333484
O O7 0.015301 0.708112 0.632526
O O8 0.186727 0.115478 0.210281
O O9 0.224658 0.826271 0.214664
O O10 0.413253 0.664458 0.479888
O O11 0.313907 0.128702 0.069981
O O12 0.473030 0.133544 0.958080
O O13 0.000000 0.500000 0.500000
O O14 0.000000 0.000000 0.000000
O O15 0.500000 0.500000 0.500000
O O16 0.776889 0.196088 0.327008
O O17 0.000000 0.000000 0.500000
O O18 0.000000 0.500000 0.000000
O O19 0.500000 0.000000 0.500000
#
# Coordination Sequence:
#
# PCOD9078542 Si02
#       8
#     2   2   2   2   2   2   2   2
#     4  11  21  38  63  97 128 154 205 280 325 368
#     4  11  22  40  64  90 123 170 211 256 325 405
#     4  10  20  36  57  87 123 163 207 261 312 374
#     4  10  18  35  64  94 122 156 201 269 339 378
#     4  11  21  37  60  91 120 152 208 273 319 363
#     4  11  22  39  60  88 128 175 208 241 317 404
#     4  12  27  48  67  93 136 185 220 257 327 412
#     4  12  25  43  70 102 127 163 223 287 330 368
#
# _framework density 22.318068
#
# number of rings (size 3 to 8) (size 9 to 14) (size 15 to 20)
#    0.000    1.000    0.000   11.250    0.000    0.000 
#    0.000    7.500    0.000    0.000    0.000    0.000 
#    0.000    0.000    0.000    0.000    0.000    0.000 
#
# Total GULP energy -89079.644698 kJ/mol
# GULP energy per Si atom -5567.477794 kJ/mol
# Density = 2.226727 g / cm^3
# Si number density = 22.318068 Si / 1000 Ang^3
#
#
#
# Elastic Constant Matrix: (Units=GPa)
#
#
# Indices 1 2 3 4 5 6 
#
# 1 29.0647 21.0003 17.2311 -0.9889 1.9567 3.4330
# 2 21.0003 107.8277 34.5111 15.5095 -16.0799 -11.6367
# 3 17.2311 34.5111 148.3507 3.8087 6.8425 3.3547
# 4 -0.9889 15.5095 3.8087 52.6246 4.0908 -5.8229
# 5 1.9567 -16.0799 6.8425 4.0908 38.1160 -0.8425
# 6 3.4330 -11.6367 3.3547 -5.8229 -0.8425 41.4143
#
#
#
# Elastic Compliance Matrix: (Units=1/GPa)
#
#
# Indices 1 2 3 4 5 6 
#
# 1 0.044390 -0.010021 -0.002485 0.003829 -0.006601 -0.005890
# 2 -0.010021 0.014261 -0.002495 -0.004289 0.007540 0.004590
# 3 -0.002485 -0.002495 0.007740 0.000185 -0.002360 -0.001144
# 4 0.003829 -0.004289 0.000185 0.020799 -0.004243 0.001301
# 5 -0.006601 0.007540 -0.002360 -0.004243 0.030698 0.002885
# 6 -0.005890 0.004590 -0.001144 0.001301 0.002885 0.026258
#
#
# Mechanical properties :
#
#
# Convention : Reuss Voigt Hill
#
# Bulk Modulus (GPa) = 27.48113 47.85866 37.66990
# Shear Modulus (GPa) = 26.84154 40.59767 33.71960
#
# Velocity S-wave (km/s) = 3.47173 4.26966 3.89120
# Velocity P-wave (km/s) = 5.33017 6.76736 6.09130
#
# Compressibility (1/GPa) = 0.03638861
#
# Stress axis : x y z
#
# Youngs Moduli (GPa) = 22.52753 70.12150 129.20111
#
# Poissons Ratio (x) = 0.70266 0.32113
# Poissons Ratio (y) = 0.22574 0.32237
# Poissons Ratio (z) = 0.05599 0.17496
#
# Static dielectric constant tensor:
#      x y z
#    x 2.008560 -0.006880 -0.129670 
#    y -0.006880 1.966320 0.007720 
#    z -0.129670 0.007720 1.859800 
# 
# From -- ./inp_files/522090.got.cif
#   From: 2010.05.17/outbox.cif.g08.bks.cpg/sg2_262_cif.got.tgz:522090.got - 2010.06.03 11:33:40.
