data_PCOD9078191
_publ_section_title
;
Structure prediction by ZEFSAII (Michael W. Deem and Ramdas Pophale) SiO2 
 PCOD9078191
Probable space group: P -1
;
_chemical_formula_sum "Si O2"
_cell_formula_units_Z 14
_cell_length_a 8.943294
_cell_length_b 8.998087
_cell_length_c 11.438524
_cell_angle_alpha 126.095217
_cell_angle_beta 67.459423
_cell_angle_gamma 87.505262
_cell_volume 640.664667
_symmetry_space_group_name_H-M "P -1"
_symmetry_group_IT_number 2
_symmetry_cell_setting 'triclinic'
loop_
_space_group_symop_operation_xyz
x,y,z
-x,-y,-z
loop_
_atom_site_type_symbol
_atom_site_label
_atom_site_fract_x
_atom_site_fract_y
_atom_site_fract_z
Si Si1 0.344035 0.859516 0.011727
Si Si2 0.507072 0.811672 0.482859
Si Si3 0.737858 0.710261 0.779527
Si Si4 0.924791 0.659427 0.930125
Si Si5 0.268271 0.485960 0.890379
Si Si6 0.310849 0.474887 0.527422
Si Si7 0.780625 0.111503 0.202438
O O1 0.549648 0.790015 0.936339
O O2 0.276444 0.699273 0.014007
O O3 0.320745 0.857784 0.876480
O O4 0.247570 0.086926 0.179986
O O5 0.557470 0.637050 0.290285
O O6 0.657771 0.716828 0.490782
O O7 0.332847 0.875592 0.641056
O O8 0.500000 0.000000 0.500000
O O9 0.876671 0.615590 0.794154
O O10 0.731005 0.571169 0.611235
O O11 0.105175 0.524493 0.870055
O O12 0.774490 0.628748 0.042350
O O13 0.912093 0.887519 0.051800
O O14 0.500000 0.500000 0.500000
O O15 0.179011 0.688775 0.705389
#
# Coordination Sequence:
#
# PCOD9078191 Si02
#       7
#     2   2   2   2   2   2   2
#     4  10  19  35  63  86 123 153 205 250 292 358
#     4  11  19  32  61  89 113 151 204 243 290 354
#     4  10  20  36  60  92 122 154 201 256 293 353
#     4  10  24  39  62  88 128 159 202 247 303 362
#     4  11  22  41  60  90 124 165 197 246 310 366
#     4  10  18  35  59  88 118 152 195 250 295 351
#     4  10  18  36  61  90 113 159 201 246 292 362
#
# _framework density 21.852305999999999
#
# number of rings (size 3 to 8) (size 9 to 14) (size 15 to 20)
#    0.000    1.714    5.714    0.857    0.000    2.857 
#    0.000    3.571    0.000    1.714    0.000    0.000 
#    0.000    0.000    0.000    0.000    0.000    0.000 
#
# Total GULP energy -78083.285687 kJ/mol
# GULP energy per Si atom -5577.377549 kJ/mol
# Density = 2.180257 g / cm^3
# Si number density = 21.852306 Si / 1000 Ang^3
#
#
#
# Elastic Constant Matrix: (Units=GPa)
#
#
# Indices 1 2 3 4 5 6 
#
# 1 68.3435 29.7462 31.3291 -5.4055 13.8583 -4.9880
# 2 29.7462 124.4683 26.6492 3.8940 14.9187 -8.6371
# 3 31.3291 26.6492 123.5205 11.3075 17.7397 -6.5488
# 4 -5.4055 3.8940 11.3075 27.6967 4.2511 -2.8744
# 5 13.8583 14.9187 17.7397 4.2511 34.7502 -1.8615
# 6 -4.9880 -8.6371 -6.5488 -2.8744 -1.8615 26.7062
#
#
#
# Elastic Compliance Matrix: (Units=1/GPa)
#
#
# Indices 1 2 3 4 5 6 
#
# 1 0.019663 -0.003295 -0.004076 0.006954 -0.005090 0.002001
# 2 -0.003295 0.009395 -0.000675 -0.001156 -0.002127 0.001985
# 3 -0.004076 -0.000675 0.010099 -0.004327 -0.002666 0.000845
# 4 0.006954 -0.001156 -0.004327 0.040535 -0.004818 0.003891
# 5 -0.005090 -0.002127 -0.002666 -0.004818 0.033645 -0.000466
# 6 0.002001 0.001985 0.000845 0.003891 -0.000466 0.039054
#
#
# Mechanical properties :
#
#
# Convention : Reuss Voigt Hill
#
# Bulk Modulus (GPa) = 43.35479 54.64236 48.99857
# Shear Modulus (GPa) = 28.38176 33.07113 30.72644
#
# Velocity S-wave (km/s) = 3.60780 3.89446 3.75386
# Velocity P-wave (km/s) = 6.10229 6.72919 6.42339
#
# Compressibility (1/GPa) = 0.02306550
#
# Stress axis : x y z
#
# Youngs Moduli (GPa) = 50.85809 106.43999 99.02093
#
# Poissons Ratio (x) = 0.35073 0.40358
# Poissons Ratio (y) = 0.16758 0.06680
# Poissons Ratio (z) = 0.20728 0.07181
#
# Static dielectric constant tensor:
#      x y z
#    x 1.845150 0.047890 -0.062000 
#    y 0.047890 1.867960 -0.000810 
#    z -0.062000 -0.000810 1.843540 
# 
# From -- ./inp_files/380583.got.cif
#   From: 2010.05.17/outbox.cif.g08.bks.cpg/sg2_191_cif.got.tgz:380583.got - 2010.06.03 11:33:40.
