data_PCOD9078725
_publ_section_title
;
Structure prediction by ZEFSAII (Michael W. Deem and Ramdas Pophale) SiO2 
 PCOD9078725
Probable space group: P -1
;
_chemical_formula_sum "Si O2"
_cell_formula_units_Z 16
_cell_length_a 10.094200
_cell_length_b 16.226162
_cell_length_c 7.324543
_cell_angle_alpha 96.444408
_cell_angle_beta 84.739930
_cell_angle_gamma 34.405251
_cell_volume 636.277646
_symmetry_space_group_name_H-M "P -1"
_symmetry_group_IT_number 2
_symmetry_cell_setting 'triclinic'
loop_
_space_group_symop_operation_xyz
x,y,z
-x,-y,-z
loop_
_atom_site_type_symbol
_atom_site_label
_atom_site_fract_x
_atom_site_fract_y
_atom_site_fract_z
Si Si1 0.852102 0.145972 0.803476
Si Si2 0.230783 0.533050 0.315646
Si Si3 0.735488 0.342649 0.132365
Si Si4 0.088958 0.862641 0.619610
Si Si5 0.130806 0.550065 0.724624
Si Si6 0.321191 0.348537 0.981403
Si Si7 0.721428 0.814973 0.589312
Si Si8 0.469243 0.908411 0.286583
O O1 0.602511 0.235610 0.933881
O O2 0.801262 0.190159 0.608578
O O3 0.073899 0.962268 0.736201
O O4 0.883825 0.212694 0.929896
O O5 0.439657 0.481892 0.188520
O O6 0.295851 0.470038 0.499013
O O7 0.966717 0.717287 0.421363
O O8 0.195859 0.467813 0.187275
O O9 0.820316 0.391515 0.154652
O O10 0.798417 0.264691 0.295630
O O11 0.801734 0.988827 0.662057
O O12 0.199440 0.443519 0.830675
O O13 0.858191 0.692487 0.700716
O O14 0.358084 0.231652 0.910858
O O15 0.566536 0.848031 0.466413
O O16 0.565858 0.975404 0.716315
#
# Coordination Sequence:
#
# PCOD9078725 Si02
#       8
#     2   2   2   2   2   2   2   2
#     4   9  21  32  54  90 114 146 190 229 284 347
#     4   9  21  37  58  88 116 149 186 236 285 336
#     4  11  19  33  58  85 115 148 186 232 285 339
#     4  10  18  36  57  80 119 154 180 234 289 330
#     4  10  21  35  57  87 114 147 189 230 283 342
#     4  10  21  37  61  85 118 145 189 238 287 332
#     4   9  21  39  61  83 112 152 199 227 283 338
#     4  10  20  39  63  80 112 160 188 235 282 333
#
# _framework density 25.146255
#
# number of rings (size 3 to 8) (size 9 to 14) (size 15 to 20)
#    0.750    1.500    1.250    1.500    0.000    6.000 
#    0.000    0.000    5.500    2.250    0.000    0.000 
#    0.000    0.000    0.000    0.000    0.000    0.000 
#
# Total GULP energy -89465.653809 kJ/mol
# GULP energy per Si atom -5591.603363 kJ/mol
# Density = 2.508902 g / cm^3
# Si number density = 25.146255 Si / 1000 Ang^3
#
#
#
# Elastic Constant Matrix: (Units=GPa)
#
#
# Indices 1 2 3 4 5 6 
#
# 1 39.8173 17.7474 24.2193 4.7195 8.0600 5.6319
# 2 17.7474 63.1910 -1.6556 2.4254 6.0139 -4.7806
# 3 24.2193 -1.6556 89.2764 10.2664 12.4644 5.7584
# 4 4.7195 2.4254 10.2664 27.7729 4.6224 12.6432
# 5 8.0600 6.0139 12.4644 4.6224 25.9078 0.0735
# 6 5.6319 -4.7806 5.7584 12.6432 0.0735 27.1774
#
#
#
# Elastic Compliance Matrix: (Units=1/GPa)
#
#
# Indices 1 2 3 4 5 6 
#
# 1 0.037893 -0.011224 -0.009535 0.003129 -0.005128 -0.009248
# 2 -0.011224 0.019965 0.003743 -0.003989 -0.002251 0.006907
# 3 -0.009535 0.003743 0.014842 -0.004121 -0.004312 0.001418
# 4 0.003129 -0.003989 -0.004121 0.049071 -0.006754 -0.023287
# 5 -0.005128 -0.002251 -0.004312 -0.006754 0.043982 0.004603
# 6 -0.009248 0.006907 0.001418 -0.023287 0.004603 0.050447
#
#
# Mechanical properties :
#
#
# Convention : Reuss Voigt Hill
#
# Bulk Modulus (GPa) = 25.86205 30.32298 28.09252
# Shear Modulus (GPa) = 19.00257 26.30320 22.65289
#
# Velocity S-wave (km/s) = 2.75195 3.23771 3.00466
# Velocity P-wave (km/s) = 4.51715 5.10508 4.82009
#
# Compressibility (1/GPa) = 0.03866669
#
# Stress axis : x y z
#
# Youngs Moduli (GPa) = 26.39042 50.08704 67.37764
#
# Poissons Ratio (x) = 0.56217 0.64246
# Poissons Ratio (y) = 0.29620 -0.25217
# Poissons Ratio (z) = 0.25164 -0.18746
#
# Static dielectric constant tensor:
#      x y z
#    x 2.027520 -0.028420 -0.028700 
#    y -0.028420 2.014490 0.017900 
#    z -0.028700 0.017900 1.982430 
# 
# From -- ./inp_files/281213.got.cif
#   From: 2010.05.17/outbox.cif.g08.bks.cpg/sg2_141_cif.got.tgz:281213.got - 2010.06.03 11:33:40.
