data_PCOD9078997
_publ_section_title
;
Structure prediction by ZEFSAII (Michael W. Deem and Ramdas Pophale) SiO2 
 PCOD9078997
Probable space group: P -1
;
_chemical_formula_sum "Si O2"
_cell_formula_units_Z 16
_cell_length_a 10.609760
_cell_length_b 17.000969
_cell_length_c 10.635146
_cell_angle_alpha 148.560638
_cell_angle_beta 108.695201
_cell_angle_gamma 85.368989
_cell_volume 872.705980
_symmetry_space_group_name_H-M "P -1"
_symmetry_group_IT_number 2
_symmetry_cell_setting 'triclinic'
loop_
_space_group_symop_operation_xyz
x,y,z
-x,-y,-z
loop_
_atom_site_type_symbol
_atom_site_label
_atom_site_fract_x
_atom_site_fract_y
_atom_site_fract_z
Si Si1 0.907833 0.605774 0.468126
Si Si2 0.336307 0.296989 0.781400
Si Si3 0.125648 0.733518 0.943713
Si Si4 0.054185 0.034283 0.421876
Si Si5 0.421649 0.063916 0.167304
Si Si6 0.077586 0.920754 0.816093
Si Si7 0.394782 0.403342 0.663599
Si Si8 0.414697 0.989001 0.330557
O O1 0.887570 0.419536 0.183450
O O2 0.754536 0.610556 0.465087
O O3 0.013063 0.670584 0.708919
O O4 0.986431 0.728425 0.548003
O O5 0.185209 0.213244 0.691299
O O6 0.345453 0.387013 0.773418
O O7 0.360873 0.136396 0.527654
O O8 0.470202 0.424938 0.075615
O O9 0.285636 0.812728 0.046230
O O10 0.104368 0.885029 0.207753
O O11 0.946139 0.029239 0.264983
O O12 0.000000 0.000000 0.500000
O O13 0.441319 0.254765 0.436810
O O14 0.483590 0.023619 0.262823
O O15 0.500000 0.000000 0.000000
O O16 0.245867 0.972872 0.976035
O O17 0.000000 0.000000 0.000000
O O18 0.500000 0.000000 0.500000
#
# Coordination Sequence:
#
# PCOD9078997 Si02
#       8
#     2   2   2   2   2   2   2   2
#     4  11  19  35  66  89 110 151 218 257 282 344
#     4   9  19  34  58  84 112 157 206 242 290 365
#     4  10  21  35  58  93 114 149 211 257 286 351
#     4  11  22  39  60  89 129 160 196 248 317 365
#     4  11  23  37  58  91 122 157 199 252 309 365
#     4  12  19  42  68  84 113 171 217 239 291 373
#     4  10  18  36  61  87 114 156 207 251 295 359
#     4  10  19  36  57  80 116 156 195 245 299 356
#
# _framework density 18.333781999999999
#
# number of rings (size 3 to 8) (size 9 to 14) (size 15 to 20)
#    0.000    1.500    5.000    1.500    0.000    2.000 
#    2.250    0.625    0.000    3.000    0.000    0.000 
#    0.000    0.000    0.000    0.000    0.000    0.000 
#
# Total GULP energy -89071.659903 kJ/mol
# GULP energy per Si atom -5566.978744 kJ/mol
# Density = 1.829205 g / cm^3
# Si number density = 18.333782 Si / 1000 Ang^3
#
#
#
# Elastic Constant Matrix: (Units=GPa)
#
#
# Indices 1 2 3 4 5 6 
#
# 1 67.4570 25.1650 34.2134 -8.5143 5.3867 9.0185
# 2 25.1650 102.5284 34.3758 -3.8736 -5.1131 9.4898
# 3 34.2134 34.3758 85.8278 11.7957 13.6048 14.2220
# 4 -8.5143 -3.8736 11.7957 43.0213 1.3217 -0.4537
# 5 5.3867 -5.1131 13.6048 1.3217 31.8199 -2.8099
# 6 9.0185 9.4898 14.2220 -0.4537 -2.8099 19.5441
#
#
#
# Elastic Compliance Matrix: (Units=1/GPa)
#
#
# Indices 1 2 3 4 5 6 
#
# 1 0.020685 -0.002096 -0.007539 0.005975 -0.001134 -0.003065
# 2 -0.002096 0.012261 -0.004882 0.001888 0.004265 -0.000776
# 3 -0.007539 -0.004882 0.020873 -0.007490 -0.009077 -0.010818
# 4 0.005975 0.001888 -0.007490 0.026628 0.001620 0.002628
# 5 -0.001134 0.004265 -0.009077 0.001620 0.037038 0.010420
# 6 -0.003065 -0.000776 -0.010818 0.002628 0.010420 0.062389
#
#
# Mechanical properties :
#
#
# Convention : Reuss Voigt Hill
#
# Bulk Modulus (GPa) = 40.35080 49.25795 44.80437
# Shear Modulus (GPa) = 23.02349 29.68098 26.35224
#
# Velocity S-wave (km/s) = 3.54757 4.02795 3.79537
# Velocity P-wave (km/s) = 6.23194 6.96837 6.61042
#
# Compressibility (1/GPa) = 0.02478266
#
# Stress axis : x y z
#
# Youngs Moduli (GPa) = 48.34527 81.56162 47.90931
#
# Poissons Ratio (x) = 0.17097 0.36121
# Poissons Ratio (y) = 0.10134 0.23390
# Poissons Ratio (z) = 0.36449 0.39819
#
# Static dielectric constant tensor:
#      x y z
#    x 1.658620 -0.015940 0.031810 
#    y -0.015940 1.626740 0.017180 
#    z 0.031810 0.017180 1.644570 
# 
# From -- ./inp_files/274725.got.cif
#   From: 2010.05.17/outbox.cif.g08.bks.cpg/sg2_138_cif.got.tgz:274725.got - 2010.06.03 11:33:40.
