data_PCOD9078837
_publ_section_title
;
Structure prediction by ZEFSAII (Michael W. Deem and Ramdas Pophale) SiO2 
 PCOD9078837
Probable space group: P -1
;
_chemical_formula_sum "Si O2"
_cell_formula_units_Z 14
_cell_length_a 14.430576
_cell_length_b 7.633908
_cell_length_c 17.696195
_cell_angle_alpha 74.942572
_cell_angle_beta 153.604200
_cell_angle_gamma 123.900378
_cell_volume 546.704061
_symmetry_space_group_name_H-M "P -1"
_symmetry_group_IT_number 2
_symmetry_cell_setting 'triclinic'
loop_
_space_group_symop_operation_xyz
x,y,z
-x,-y,-z
loop_
_atom_site_type_symbol
_atom_site_label
_atom_site_fract_x
_atom_site_fract_y
_atom_site_fract_z
Si Si1 0.535504 0.217628 0.668651
Si Si2 0.640364 0.292679 0.069296
Si Si3 0.875780 0.966720 0.163077
Si Si4 0.670137 0.682184 0.779700
Si Si5 0.075865 0.703431 0.471056
Si Si6 0.690403 0.449112 0.609905
Si Si7 0.538093 0.535501 0.186837
O O1 0.729374 0.516964 0.809195
O O2 0.674672 0.280535 0.678893
O O3 0.180479 0.061209 0.406787
O O4 0.437550 0.003652 0.682583
O O5 0.955998 0.541434 0.320869
O O6 0.609613 0.369847 0.957691
O O7 0.500000 0.000000 0.000000
O O8 0.394905 0.233740 0.951301
O O9 0.967917 0.236618 0.189471
O O10 0.729316 0.782793 0.002481
O O11 0.480037 0.679409 0.580301
O O12 0.449538 0.495199 0.712202
O O13 0.000000 0.000000 0.000000
O O14 0.867343 0.721484 0.360476
O O15 0.000000 0.500000 0.500000
O O16 0.500000 0.500000 0.500000
#
# Coordination Sequence:
#
# PCOD9078837 Si02
#       7
#     2   2   2   2   2   2   2
#     4  10  18  36  59  85 118 158 192 237 296 352
#     4  11  23  37  60  86 119 158 197 242 290 348
#     4   9  16  37  59  82 110 158 191 229 297 354
#     4  10  20  31  58  92 115 147 204 242 287 345
#     4  11  24  39  60  88 122 157 195 240 296 350
#     4   8  17  31  57  86 109 152 194 233 287 353
#     4  11  20  38  62  85 120 154 193 244 297 344
#
# _framework density 25.608004000000001
#
# number of rings (size 3 to 8) (size 9 to 14) (size 15 to 20)
#    0.000    2.286    2.857    3.429    2.000    2.857 
#    0.000    0.000    3.143    4.286    0.000    0.000 
#    0.000    0.000    0.000    0.000    0.000    0.000 
#
# Total GULP energy -78101.258699 kJ/mol
# GULP energy per Si atom -5578.661336 kJ/mol
# Density = 2.554972 g / cm^3
# Si number density = 25.608004 Si / 1000 Ang^3
#
#
#
# Elastic Constant Matrix: (Units=GPa)
#
#
# Indices 1 2 3 4 5 6 
#
# 1 71.1407 36.7019 12.9169 -10.9694 -15.7975 29.7447
# 2 36.7019 186.1971 45.3693 13.3893 -20.0068 30.4165
# 3 12.9169 45.3693 49.7025 11.6294 -17.9832 10.1049
# 4 -10.9694 13.3893 11.6294 44.9768 6.3306 -3.9339
# 5 -15.7975 -20.0068 -17.9832 6.3306 26.3617 -2.6790
# 6 29.7447 30.4165 10.1049 -3.9339 -2.6790 43.5292
#
#
#
# Elastic Compliance Matrix: (Units=1/GPa)
#
#
# Indices 1 2 3 4 5 6 
#
# 1 0.023785 -0.001712 0.002131 0.002760 0.012267 -0.014547
# 2 -0.001712 0.007744 -0.004929 -0.001956 0.001636 -0.003173
# 3 0.002131 -0.004929 0.037093 -0.011662 0.025017 -0.006137
# 4 0.002760 -0.001956 -0.011662 0.028862 -0.014319 0.003915
# 5 0.012267 0.001636 0.025017 -0.014319 0.065753 -0.012580
# 6 -0.014547 -0.003173 -0.006137 0.003915 -0.012580 0.036135
#
#
# Mechanical properties :
#
#
# Convention : Reuss Voigt Hill
#
# Bulk Modulus (GPa) = 16.77784 55.22404 36.00094
# Shear Modulus (GPa) = 21.90499 37.11035 29.50767
#
# Velocity S-wave (km/s) = 2.92789 3.81093 3.39821
# Velocity P-wave (km/s) = 4.24218 6.40126 5.43011
#
# Compressibility (1/GPa) = 0.05960242
#
# Stress axis : x y z
#
# Youngs Moduli (GPa) = 42.04406 129.13310 26.95916
#
# Poissons Ratio (x) = 0.22103 -0.05745
# Poissons Ratio (y) = 0.07196 0.13288
# Poissons Ratio (z) = -0.08960 0.63651
#
# Static dielectric constant tensor:
#      x y z
#    x 2.169070 0.059160 0.026280 
#    y 0.059160 2.272080 -0.031830 
#    z 0.026280 -0.031830 2.083090 
# 
# From -- ./inp_files/575250.got.cif
#   From: 2010.05.17/outbox.cif.g08.bks.cpg/sg2_288_cif.got.tgz:575250.got - 2010.06.03 11:33:40.
