data_PCOD9078851
_publ_section_title
;
Structure prediction by ZEFSAII (Michael W. Deem and Ramdas Pophale) SiO2 
 PCOD9078851
Probable space group: P -1
;
_chemical_formula_sum "Si O2"
_cell_formula_units_Z 12
_cell_length_a 5.332821
_cell_length_b 10.748250
_cell_length_c 14.499555
_cell_angle_alpha 50.901210
_cell_angle_beta 121.339438
_cell_angle_gamma 110.904284
_cell_volume 550.355827
_symmetry_space_group_name_H-M "P -1"
_symmetry_group_IT_number 2
_symmetry_cell_setting 'triclinic'
loop_
_space_group_symop_operation_xyz
x,y,z
-x,-y,-z
loop_
_atom_site_type_symbol
_atom_site_label
_atom_site_fract_x
_atom_site_fract_y
_atom_site_fract_z
Si Si1 0.651162 0.031131 0.915574
Si Si2 0.919954 0.520676 0.112906
Si Si3 0.445907 0.598950 0.290549
Si Si4 0.728597 0.101786 0.434316
Si Si5 0.469397 0.769993 0.856014
Si Si6 0.931505 0.450682 0.355745
O O1 0.500669 0.908468 0.872039
O O2 0.599813 0.214149 0.791352
O O3 0.500000 0.000000 0.000000
O O4 0.000000 0.000000 0.000000
O O5 0.810244 0.354232 0.124118
O O6 0.262709 0.551680 0.183158
O O7 0.813024 0.506592 0.206019
O O8 0.754200 0.663291 0.968370
O O9 0.273730 0.494632 0.384169
O O10 0.773415 0.550749 0.356268
O O11 0.565149 0.157495 0.285220
O O12 0.852403 0.262330 0.434923
O O13 0.500000 0.000000 0.500000
O O14 0.000000 0.000000 0.500000
#
# Coordination Sequence:
#
# PCOD9078851 Si02
#       6
#     2   2   2   2   2   2
#     4  12  23  38  57  93 135 165 190 245 313 385
#     4   8  18  36  60  93 119 153 196 250 315 369
#     4  10  18  36  59  87 126 158 188 239 312 378
#     4  11  24  42  63  90 122 160 213 264 299 342
#     4  10  20  40  61  95 123 162 202 254 304 371
#     4   9  19  37  62  87 114 161 199 247 308 366
#
# _framework density 21.804075999999998
#
# number of rings (size 3 to 8) (size 9 to 14) (size 15 to 20)
#    1.000    1.000    1.667    3.000    0.000    1.333 
#    6.000    3.333    0.000    6.000    0.000    0.000 
#    0.000    0.000    0.000    0.000    0.000    0.000 
#
# Total GULP energy -67010.375194 kJ/mol
# GULP energy per Si atom -5584.197933 kJ/mol
# Density = 2.175445 g / cm^3
# Si number density = 21.804076 Si / 1000 Ang^3
#
#
#
# Elastic Constant Matrix: (Units=GPa)
#
#
# Indices 1 2 3 4 5 6 
#
# 1 123.4028 35.4558 27.2422 -18.0136 -4.7635 -13.2737
# 2 35.4558 132.2086 24.7099 -2.5848 -12.8113 -0.7405
# 3 27.2422 24.7099 91.0961 -6.7073 2.0424 5.2183
# 4 -18.0136 -2.5848 -6.7073 36.5856 9.6672 3.2556
# 5 -4.7635 -12.8113 2.0424 9.6672 21.8124 -7.3247
# 6 -13.2737 -0.7405 5.2183 3.2556 -7.3247 18.9087
#
#
#
# Elastic Compliance Matrix: (Units=1/GPa)
#
#
# Indices 1 2 3 4 5 6 
#
# 1 0.010892 -0.001904 -0.003127 0.002952 0.003342 0.009221
# 2 -0.001904 0.009250 -0.002524 -0.003069 0.007699 0.003233
# 3 -0.003127 -0.002524 0.013656 0.003946 -0.008572 -0.010062
# 4 0.002952 -0.003069 0.003946 0.036475 -0.022429 -0.014106
# 5 0.003342 0.007699 -0.008572 -0.022429 0.074513 0.037739
# 6 0.009221 0.003233 -0.010062 -0.014106 0.037739 0.079310
#
#
# Mechanical properties :
#
#
# Convention : Reuss Voigt Hill
#
# Bulk Modulus (GPa) = 53.50234 57.94702 55.72468
# Shear Modulus (GPa) = 20.37197 32.74800 26.55999
#
# Velocity S-wave (km/s) = 3.05998 3.87967 3.49394
# Velocity P-wave (km/s) = 6.08898 6.83396 6.47220
#
# Compressibility (1/GPa) = 0.01869077
#
# Stress axis : x y z
#
# Youngs Moduli (GPa) = 91.80645 108.10614 73.22700
#
# Poissons Ratio (x) = 0.20579 0.22897
# Poissons Ratio (y) = 0.17476 0.18480
# Poissons Ratio (z) = 0.28706 0.27282
#
# Static dielectric constant tensor:
#      x y z
#    x 1.802500 0.015400 0.004330 
#    y 0.015400 1.796270 0.031010 
#    z 0.004330 0.031010 1.805580 
# 
# From -- ./inp_files/63652.got.cif
#   From: 2010.05.17/outbox.cif.g08.bks.cpg/sg2_32_cif.got.tgz:63652.got - 2010.06.03 11:33:40.
