data_PCOD9078027
_publ_section_title
;
Structure prediction by ZEFSAII (Michael W. Deem and Ramdas Pophale) SiO2 
 PCOD9078027
Probable space group: P -1
;
_chemical_formula_sum "Si O2"
_cell_formula_units_Z 10
_cell_length_a 10.396736
_cell_length_b 9.428475
_cell_length_c 11.109572
_cell_angle_alpha 90.675623
_cell_angle_beta 39.342126
_cell_angle_gamma 62.065727
_cell_volume 453.947382
_symmetry_space_group_name_H-M "P -1"
_symmetry_group_IT_number 2
_symmetry_cell_setting 'triclinic'
loop_
_space_group_symop_operation_xyz
x,y,z
-x,-y,-z
loop_
_atom_site_type_symbol
_atom_site_label
_atom_site_fract_x
_atom_site_fract_y
_atom_site_fract_z
Si Si1 0.611366 0.317663 0.745204
Si Si2 0.061049 0.306852 0.488871
Si Si3 0.705778 0.353604 0.233135
Si Si4 0.629807 0.078815 0.188772
Si Si5 0.260456 0.966355 0.172247
O O1 0.383419 0.501432 0.814037
O O2 0.756623 0.371875 0.716891
O O3 0.906149 0.099848 0.455037
O O4 0.479064 0.757742 0.098067
O O5 0.295876 0.179641 0.429612
O O6 0.225309 0.142212 0.254692
O O7 0.000000 0.500000 0.500000
O O8 0.500000 0.500000 0.500000
O O9 0.627205 0.231183 0.257624
O O10 0.072579 0.165980 0.988434
O O11 0.682589 0.080091 0.008863
#
# Coordination Sequence:
#
# PCOD9078027 Si02
#       5
#     2   2   2   2   2
#     4   9  19  37  58  79 117 145 178 234 283 319
#     4  10  18  35  57  87 110 144 188 234 268 322
#     4  11  21  36  55  85 116 147 184 228 282 329
#     4  11  21  34  62  85 107 149 193 226 270 337
#     4   9  19  35  60  83 111 144 189 224 281 331
#
# _framework density 22.028984999999999
#
# number of rings (size 3 to 8) (size 9 to 14) (size 15 to 20)
#    1.200    0.800    4.000    0.600    0.000    0.800 
#    0.000    1.000    0.000   10.800    0.000    0.000 
#    0.000    0.000    0.000    0.000    0.000    0.000 
#
# Total GULP energy -55767.869008 kJ/mol
# GULP energy per Si atom -5576.786901 kJ/mol
# Density = 2.197885 g / cm^3
# Si number density = 22.028985 Si / 1000 Ang^3
#
#
#
# Elastic Constant Matrix: (Units=GPa)
#
#
# Indices 1 2 3 4 5 6 
#
# 1 124.9567 59.7206 47.6552 19.6681 -4.5405 -19.1422
# 2 59.7206 143.0843 41.1823 33.2472 -6.6536 -21.9475
# 3 47.6552 41.1823 72.4677 20.9516 11.8795 -9.1473
# 4 19.6681 33.2472 20.9516 31.5041 -1.4302 -9.5482
# 5 -4.5405 -6.6536 11.8795 -1.4302 33.0840 24.5767
# 6 -19.1422 -21.9475 -9.1473 -9.5482 24.5767 42.0450
#
#
#
# Elastic Compliance Matrix: (Units=1/GPa)
#
#
# Indices 1 2 3 4 5 6 
#
# 1 0.012192 -0.002954 -0.006807 0.000461 0.002806 0.000992
# 2 -0.002954 0.010887 -0.001943 -0.007835 0.000983 0.001561
# 3 -0.006807 -0.001943 0.026506 -0.008887 -0.019364 0.010954
# 4 0.000461 -0.007835 -0.008887 0.047091 0.000156 0.004789
# 5 0.002806 0.000983 -0.019364 0.000156 0.069889 -0.043239
# 6 0.000992 0.001561 0.010954 0.004789 -0.043239 0.053796
#
#
# Mechanical properties :
#
#
# Convention : Reuss Voigt Hill
#
# Bulk Modulus (GPa) = 38.20173 70.84722 54.52448
# Shear Modulus (GPa) = 19.80237 34.12333 26.96285
#
# Velocity S-wave (km/s) = 3.00146 3.94003 3.50233
# Velocity P-wave (km/s) = 5.42134 7.27524 6.41561
#
# Compressibility (1/GPa) = 0.02617682
#
# Stress axis : x y z
#
# Youngs Moduli (GPa) = 82.02152 91.85416 37.72728
#
# Poissons Ratio (x) = 0.27133 0.25680
# Poissons Ratio (y) = 0.24229 0.07331
# Poissons Ratio (z) = 0.55830 0.17849
#
# Static dielectric constant tensor:
#      x y z
#    x 1.835650 0.041660 -0.102260 
#    y 0.041660 1.852480 -0.054690 
#    z -0.102260 -0.054690 1.991800 
# 
# From -- ./inp_files/61620.got.cif
#   From: 2010.05.17/outbox.cif.g08.bks.cpg/sg2_31_cif.got.tgz:61620.got - 2010.06.03 11:33:40.
