data_PCOD9078831
_publ_section_title
;
Structure prediction by ZEFSAII (Michael W. Deem and Ramdas Pophale) SiO2 
 PCOD9078831
Probable space group: P -1
;
_chemical_formula_sum "Si O2"
_cell_formula_units_Z 12
_cell_length_a 7.399606
_cell_length_b 12.529985
_cell_length_c 11.815021
_cell_angle_alpha 146.738808
_cell_angle_beta 93.932393
_cell_angle_gamma 101.563867
_cell_volume 528.692569
_symmetry_space_group_name_H-M "P -1"
_symmetry_group_IT_number 2
_symmetry_cell_setting 'triclinic'
loop_
_space_group_symop_operation_xyz
x,y,z
-x,-y,-z
loop_
_atom_site_type_symbol
_atom_site_label
_atom_site_fract_x
_atom_site_fract_y
_atom_site_fract_z
Si Si1 0.839278 0.770738 0.410128
Si Si2 0.515294 0.743092 0.232614
Si Si3 0.853472 0.403054 0.751866
Si Si4 0.898969 0.848257 0.071692
Si Si5 0.971370 0.402104 0.288700
Si Si6 0.559855 0.308775 0.066335
O O1 0.746498 0.873649 0.406248
O O2 0.641428 0.570670 0.283697
O O3 0.964431 0.652473 0.256425
O O4 0.969469 0.933443 0.658949
O O5 0.351013 0.736326 0.310011
O O6 0.500000 0.500000 0.000000
O O7 0.462840 0.795641 0.152736
O O8 0.894502 0.655790 0.984815
O O9 0.868844 0.401637 0.613938
O O10 0.669821 0.804110 0.999536
O O11 0.982575 0.799274 0.915679
O O12 0.740569 0.312674 0.152421
O O13 0.000000 0.500000 0.500000
#
# Coordination Sequence:
#
# PCOD9078831 Si02
#       6
#     2   2   2   2   2   2
#     4  10  20  36  59  83 122 157 188 230 294 345
#     4  10  18  36  59  84 123 156 184 239 289 339
#     4   9  20  37  58  84 120 148 194 239 281 340
#     4  10  21  38  59  86 119 154 193 234 290 348
#     4   9  20  39  62  84 114 154 194 244 292 334
#     4  10  21  39  58  87 122 149 196 240 283 345
#
# _framework density 22.697500999999999
#
# number of rings (size 3 to 8) (size 9 to 14) (size 15 to 20)
#    1.000    1.333    3.333    0.000    0.000   10.000 
#    0.000    5.000    0.000    8.000    0.000    0.000 
#    0.000    0.000    0.000    0.000    0.000    0.000 
#
# Total GULP energy -66860.080575 kJ/mol
# GULP energy per Si atom -5571.673381 kJ/mol
# Density = 2.264584 g / cm^3
# Si number density = 22.697501 Si / 1000 Ang^3
#
#
#
# Elastic Constant Matrix: (Units=GPa)
#
#
# Indices 1 2 3 4 5 6 
#
# 1 156.8483 21.9555 70.0269 -41.6177 1.6021 -3.7805
# 2 21.9555 36.3937 21.1781 -24.5169 -6.9739 -0.0501
# 3 70.0269 21.1781 107.1984 -24.1849 0.1356 7.3668
# 4 -41.6177 -24.5169 -24.1849 43.1886 1.1528 -1.3302
# 5 1.6021 -6.9739 0.1356 1.1528 26.3954 -0.2129
# 6 -3.7805 -0.0501 7.3668 -1.3302 -0.2129 10.5310
#
#
#
# Elastic Compliance Matrix: (Units=1/GPa)
#
#
# Indices 1 2 3 4 5 6 
#
# 1 0.011833 0.003512 -0.006913 0.009847 -0.000101 0.010342
# 2 0.003512 0.050679 -0.006587 0.028450 0.012048 0.009947
# 3 -0.006913 -0.006587 0.015633 -0.002032 -0.001423 -0.013734
# 4 0.009847 0.028450 -0.002032 0.047870 0.004929 0.011238
# 5 -0.000101 0.012048 -0.001423 0.004929 0.040887 0.002466
# 6 0.010342 0.009947 -0.013734 0.011238 0.002466 0.109794
#
#
# Mechanical properties :
#
#
# Convention : Reuss Voigt Hill
#
# Bulk Modulus (GPa) = 17.19083 58.52906 37.85995
# Shear Modulus (GPa) = 15.81965 28.50834 22.16400
#
# Velocity S-wave (km/s) = 2.64290 3.54787 3.12828
# Velocity P-wave (km/s) = 4.11139 6.52884 5.45570
#
# Compressibility (1/GPa) = 0.05817054
#
# Stress axis : x y z
#
# Youngs Moduli (GPa) = 84.50622 19.73186 63.96717
#
# Poissons Ratio (x) = -0.06930 0.44221
# Poissons Ratio (y) = -0.29680 0.42134
# Poissons Ratio (z) = 0.58420 0.12997
#
# Static dielectric constant tensor:
#      x y z
#    x 1.873880 -0.014190 -0.006240 
#    y -0.014190 1.985340 0.041630 
#    z -0.006240 0.041630 1.864160 
# 
# From -- ./inp_files/394963.got.cif
#   From: 2010.05.17/outbox.cif.g08.bks.cpg/sg2_198_cif.got.tgz:394963.got - 2010.06.03 11:33:40.
