data_PCOD9078640
_publ_section_title
;
Structure prediction by ZEFSAII (Michael W. Deem and Ramdas Pophale) SiO2 
 PCOD9078640
Probable space group: P -1
;
_chemical_formula_sum "Si O2"
_cell_formula_units_Z 14
_cell_length_a 9.866334
_cell_length_b 8.698454
_cell_length_c 9.388869
_cell_angle_alpha 131.319468
_cell_angle_beta 77.230377
_cell_angle_gamma 106.372565
_cell_volume 579.943376
_symmetry_space_group_name_H-M "P -1"
_symmetry_group_IT_number 2
_symmetry_cell_setting 'triclinic'
loop_
_space_group_symop_operation_xyz
x,y,z
-x,-y,-z
loop_
_atom_site_type_symbol
_atom_site_label
_atom_site_fract_x
_atom_site_fract_y
_atom_site_fract_z
Si Si1 0.546479 0.165200 0.431167
Si Si2 0.828900 0.079143 0.934024
Si Si3 0.150700 0.669839 0.479984
Si Si4 0.720196 0.411077 0.311565
Si Si5 0.148140 0.262505 0.040606
Si Si6 0.573233 0.722867 0.182558
Si Si7 0.895826 0.843672 0.528223
O O1 0.700248 0.175744 0.479969
O O2 0.580490 0.323280 0.385820
O O3 0.457653 0.252904 0.627616
O O4 0.513110 0.921271 0.251689
O O5 0.212633 0.360927 0.621340
O O6 0.728370 0.240800 0.087079
O O7 0.180473 0.092824 0.044479
O O8 0.803079 0.968399 0.721956
O O9 0.163890 0.614608 0.608506
O O10 0.014444 0.769190 0.553838
O O11 0.155794 0.478367 0.256158
O O12 0.264652 0.265156 0.893874
O O13 0.991380 0.198654 0.975405
O O14 0.500000 0.500000 0.000000
O O15 0.000000 0.000000 0.500000
#
# Coordination Sequence:
#
# PCOD9078640 Si02
#       7
#     2   2   2   2   2   2   2
#     4   9  20  30  52  78 112 143 167 221 274 314
#     4  11  20  33  57  76 109 145 179 214 279 325
#     4  10  18  36  53  77 110 143 179 212 274 324
#     4  10  19  36  56  77 109 142 182 212 274 329
#     4  11  18  31  58  84 107 145 173 225 269 322
#     4  11  18  29  47  88 118 126 176 225 271 311
#     4  12  24  35  51  80 113 145 182 228 267 318
#
# _framework density 24.140288000000002
#
# number of rings (size 3 to 8) (size 9 to 14) (size 15 to 20)
#    0.857    0.571    5.714    3.000    0.000    0.571 
#    0.000    0.000    0.000    0.000    0.000   13.000 
#    0.000    0.000    0.000    0.000    0.000    0.000 
#
# Total GULP energy -78153.924719 kJ/mol
# GULP energy per Si atom -5582.423194 kJ/mol
# Density = 2.408534 g / cm^3
# Si number density = 24.140288 Si / 1000 Ang^3
#
#
#
# Elastic Constant Matrix: (Units=GPa)
#
#
# Indices 1 2 3 4 5 6 
#
# 1 48.7710 25.3965 21.4110 -6.9701 -17.1010 2.0935
# 2 25.3965 125.8091 56.6947 9.9427 -16.0709 29.5775
# 3 21.4110 56.6947 156.6583 27.1683 -54.2957 6.7845
# 4 -6.9701 9.9427 27.1683 45.5216 13.9860 -11.6954
# 5 -17.1010 -16.0709 -54.2957 13.9860 27.7093 -16.2274
# 6 2.0935 29.5775 6.7845 -11.6954 -16.2274 25.8196
#
#
#
# Elastic Compliance Matrix: (Units=1/GPa)
#
#
# Indices 1 2 3 4 5 6 
#
# 1 0.022844 -0.003184 -0.012210 0.017845 -0.020599 0.000140
# 2 -0.003184 0.011298 0.007290 -0.016221 0.022481 -0.007819
# 3 -0.012210 0.007290 -0.009728 0.008352 -0.043015 -0.028056
# 4 0.017845 -0.016221 0.008352 0.025270 0.032707 0.046943
# 5 -0.020599 0.022481 -0.043015 0.032707 -0.099993 -0.060809
# 6 0.000140 -0.007819 -0.028056 0.046943 -0.060809 0.038094
#
#
# Mechanical properties :
#
#
# Convention : Reuss Voigt Hill
#
# Bulk Modulus (GPa) = 121.86701 59.80476 90.83588
# Shear Modulus (GPa) = 743.08604 34.99251 389.03928
#
# Velocity S-wave (km/s) = 17.56383 3.81142 12.70856
# Velocity P-wave (km/s) = 21.49209 6.64807 15.90765
#
# Compressibility (1/GPa) = 0.00820567
#
# Stress axis : x y z
#
# Youngs Moduli (GPa) = 43.77572 88.51124 -102.79728
#
# Poissons Ratio (x) = 0.28178 -1.25517
# Poissons Ratio (y) = 0.13936 0.74936
# Poissons Ratio (z) = 0.53451 -0.64522
#
# Static dielectric constant tensor:
#      x y z
#    x 1.909340 -0.044920 -0.015900 
#    y -0.044920 1.950600 0.009520 
#    z -0.015900 0.009520 1.928820 
# 
# From -- ./inp_files/301872.got.cif
#   From: 2010.05.17/outbox.cif.g08.bks.cpg/sg2_151_cif.got.tgz:301872.got - 2010.06.03 11:33:40.
