data_PCOD9078100
_publ_section_title
;
Structure prediction by ZEFSAII (Michael W. Deem and Ramdas Pophale) SiO2 
 PCOD9078100
Probable space group: P -1
;
_chemical_formula_sum "Si O2"
_cell_formula_units_Z 14
_cell_length_a 10.860721
_cell_length_b 10.853432
_cell_length_c 13.275159
_cell_angle_alpha 74.595670
_cell_angle_beta 148.074728
_cell_angle_gamma 85.830506
_cell_volume 647.115203
_symmetry_space_group_name_H-M "P -1"
_symmetry_group_IT_number 2
_symmetry_cell_setting 'triclinic'
loop_
_space_group_symop_operation_xyz
x,y,z
-x,-y,-z
loop_
_atom_site_type_symbol
_atom_site_label
_atom_site_fract_x
_atom_site_fract_y
_atom_site_fract_z
Si Si1 0.767678 0.140694 0.877202
Si Si2 0.571536 0.855374 0.009870
Si Si3 0.806491 0.413572 0.594270
Si Si4 0.662625 0.603166 0.639785
Si Si5 0.203451 0.155882 0.304791
Si Si6 0.754965 0.651547 0.353823
Si Si7 0.292396 0.101086 0.613579
O O1 0.567531 0.272747 0.628550
O O2 0.592181 0.085631 0.823229
O O3 0.937529 0.175227 0.063106
O O4 0.000000 0.000000 0.000000
O O5 0.534400 0.754753 0.087974
O O6 0.897279 0.735556 0.216730
O O7 0.500000 0.000000 0.000000
O O8 0.359578 0.946463 0.748651
O O9 0.853406 0.448097 0.735336
O O10 0.538471 0.402405 0.417709
O O11 0.695625 0.570798 0.418740
O O12 0.808409 0.687555 0.757482
O O13 0.197956 0.130166 0.426421
O O14 0.500000 0.000000 0.500000
O O15 0.877163 0.744160 0.467338
O O16 0.000000 0.500000 0.500000
#
# Coordination Sequence:
#
# PCOD9078100 Si02
#       7
#     2   2   2   2   2   2   2
#     4  11  19  34  57  87 124 153 190 237 297 363
#     4   9  19  32  61  93 110 157 215 242 289 353
#     4  10  18  35  58  87 127 155 195 244 298 364
#     4  10  21  35  58  91 124 159 191 238 309 366
#     4  11  21  34  58  91 126 155 194 245 300 360
#     4   9  17  34  61  87 110 162 200 241 294 346
#     4  10  19  36  58  90 115 153 202 242 294 350
#
# _framework density 21.634478999999999
#
# number of rings (size 3 to 8) (size 9 to 14) (size 15 to 20)
#    0.000    2.000    5.714    0.857    0.000    0.000 
#    0.000    2.857    0.000    8.571    0.000    0.000 
#    0.000    0.000    0.000    0.000    0.000    0.000 
#
# Total GULP energy -77964.098251 kJ/mol
# GULP energy per Si atom -5568.864161 kJ/mol
# Density = 2.158524 g / cm^3
# Si number density = 21.634479 Si / 1000 Ang^3
#
#
#
# Elastic Constant Matrix: (Units=GPa)
#
#
# Indices 1 2 3 4 5 6 
#
# 1 88.7839 22.7631 12.1893 -9.6856 -11.7501 -3.5552
# 2 22.7631 83.6552 27.3176 2.9041 -1.3121 -13.7656
# 3 12.1893 27.3176 48.8860 6.0216 -2.5360 -1.7854
# 4 -9.6856 2.9041 6.0216 46.1476 -3.7860 -1.0613
# 5 -11.7501 -1.3121 -2.5360 -3.7860 37.9971 -18.1256
# 6 -3.5552 -13.7656 -1.7854 -1.0613 -18.1256 40.6958
#
#
#
# Elastic Compliance Matrix: (Units=1/GPa)
#
#
# Indices 1 2 3 4 5 6 
#
# 1 0.013478 -0.002597 -0.001977 0.003781 0.005678 0.002840
# 2 -0.002597 0.016306 -0.008124 -0.000217 0.001964 0.005801
# 3 -0.001977 -0.008124 0.025799 -0.003360 -0.000508 -0.002103
# 4 0.003781 -0.000217 -0.003360 0.023355 0.004581 0.002759
# 5 0.005678 0.001964 -0.000508 0.004581 0.037032 0.017751
# 6 0.002840 0.005801 -0.002103 0.002759 0.017751 0.034669
#
#
# Mechanical properties :
#
#
# Convention : Reuss Voigt Hill
#
# Bulk Modulus (GPa) = 33.12601 38.42947 35.77774
# Shear Modulus (GPa) = 26.86765 35.57177 31.21971
#
# Velocity S-wave (km/s) = 3.52787 4.05929 3.80288
# Velocity P-wave (km/s) = 5.65150 6.30651 5.98797
#
# Compressibility (1/GPa) = 0.03018776
#
# Stress axis : x y z
#
# Youngs Moduli (GPa) = 74.19395 61.32595 38.76081
#
# Poissons Ratio (x) = 0.15925 0.07663
# Poissons Ratio (y) = 0.19267 0.31490
# Poissons Ratio (z) = 0.14669 0.49822
#
# Static dielectric constant tensor:
#      x y z
#    x 1.895520 -0.059400 0.011720 
#    y -0.059400 1.910430 -0.098220 
#    z 0.011720 -0.098220 1.839330 
# 
# From -- ./inp_files/267240.got.cif
#   From: 2010.05.17/outbox.cif.g08.bks.cpg/sg2_134_cif.got.tgz:267240.got - 2010.06.03 11:33:40.
