data_PCOD9078162
_publ_section_title
;
Structure prediction by ZEFSAII (Michael W. Deem and Ramdas Pophale) SiO2 
 PCOD9078162
Probable space group: P -1
;
_chemical_formula_sum "Si O2"
_cell_formula_units_Z 16
_cell_length_a 12.800000
_cell_length_b 12.181667
_cell_length_c 8.053777
_cell_angle_alpha 117.831058
_cell_angle_beta 98.130977
_cell_angle_gamma 45.560358
_cell_volume 757.935058
_symmetry_space_group_name_H-M "P -1"
_symmetry_group_IT_number 2
_symmetry_cell_setting 'triclinic'
loop_
_space_group_symop_operation_xyz
x,y,z
-x,-y,-z
loop_
_atom_site_type_symbol
_atom_site_label
_atom_site_fract_x
_atom_site_fract_y
_atom_site_fract_z
Si Si1 0.988590 0.130673 0.965338
Si Si2 0.249328 0.037570 0.140508
Si Si3 0.781404 0.127017 0.446412
Si Si4 0.708712 0.532570 0.231803
Si Si5 0.402999 0.710272 0.147123
Si Si6 0.535639 0.156410 0.225999
Si Si7 0.642757 0.842264 0.535738
Si Si8 0.360482 0.522155 0.463367
O O1 0.825781 0.334499 0.040371
O O2 0.085965 0.150347 0.103950
O O3 0.067584 0.040635 0.740187
O O4 0.000000 0.000000 0.000000
O O5 0.320355 0.841690 0.064093
O O6 0.262661 0.118400 0.355390
O O7 0.360267 0.996348 0.994255
O O8 0.729387 0.173820 0.659804
O O9 0.652804 0.144777 0.348543
O O10 0.767466 0.283408 0.504347
O O11 0.542799 0.678582 0.212207
O O12 0.748757 0.643437 0.340638
O O13 0.683859 0.493221 0.379614
O O14 0.500000 0.500000 0.000000
O O15 0.440700 0.150901 0.321388
O O16 0.417713 0.354949 0.256934
O O17 0.500000 0.000000 0.500000
O O18 0.500000 0.500000 0.500000
#
# Coordination Sequence:
#
# PCOD9078162 Si02
#       8
#     2   2   2   2   2   2   2   2
#     4  11  23  39  62  88 129 162 201 245 317 367
#     4  11  23  37  60  92 120 161 203 252 302 369
#     4  10  18  35  59  84 124 163 193 251 312 361
#     4  11  21  37  60  89 118 164 198 252 305 358
#     4  12  22  36  63  93 119 155 214 255 302 358
#     4   9  18  32  58  89 114 151 207 253 296 350
#     4  11  20  39  63  89 122 157 207 257 299 353
#     4   9  14  28  56  84 111 149 202 243 296 351
#
# _framework density 21.109987
#
# number of rings (size 3 to 8) (size 9 to 14) (size 15 to 20)
#    0.000    1.500    6.250    1.875    1.750    0.500 
#    0.000    2.500    0.000    6.750    0.000    0.000 
#    0.000    0.000    0.000    0.000    0.000    0.000 
#
# Total GULP energy -89119.475702 kJ/mol
# GULP energy per Si atom -5569.967231 kJ/mol
# Density = 2.106194 g / cm^3
# Si number density = 21.109987 Si / 1000 Ang^3
#
#
#
# Elastic Constant Matrix: (Units=GPa)
#
#
# Indices 1 2 3 4 5 6 
#
# 1 50.6458 13.7576 28.3264 14.7947 4.6724 -0.2543
# 2 13.7576 57.8544 10.9456 11.8493 -5.2379 4.8872
# 3 28.3264 10.9456 95.2389 14.0538 -12.9894 4.5193
# 4 14.7947 11.8493 14.0538 26.4873 -0.4622 4.0176
# 5 4.6724 -5.2379 -12.9894 -0.4622 36.3810 7.9153
# 6 -0.2543 4.8872 4.5193 4.0176 7.9153 23.0931
#
#
#
# Elastic Compliance Matrix: (Units=1/GPa)
#
#
# Indices 1 2 3 4 5 6 
#
# 1 0.030007 -0.004725 -0.008345 -0.011632 -0.009451 0.008226
# 2 -0.004725 0.020364 0.000872 -0.006067 0.004895 -0.005155
# 3 -0.008345 0.000872 0.014523 -0.002508 0.007493 -0.005251
# 4 -0.011632 -0.006067 -0.002508 0.049492 0.002020 -0.007656
# 5 -0.009451 0.004895 0.007493 0.002020 0.035389 -0.015087
# 6 0.008226 -0.005155 -0.005251 -0.007656 -0.015087 0.052015
#
#
# Mechanical properties :
#
#
# Convention : Reuss Voigt Hill
#
# Bulk Modulus (GPa) = 24.69180 34.42201 29.55690
# Shear Modulus (GPa) = 20.86077 27.23958 24.05017
#
# Velocity S-wave (km/s) = 3.14697 3.59606 3.37898
# Velocity P-wave (km/s) = 4.99266 5.79514 5.40880
#
# Compressibility (1/GPa) = 0.04049928
#
# Stress axis : x y z
#
# Youngs Moduli (GPa) = 33.32574 49.10525 68.85773
#
# Poissons Ratio (x) = 0.23202 0.57459
# Poissons Ratio (y) = 0.15746 -0.06006
# Poissons Ratio (z) = 0.27809 -0.04283
#
# Static dielectric constant tensor:
#      x y z
#    x 1.820410 0.020740 0.013010 
#    y 0.020740 1.784900 0.021160 
#    z 0.013010 0.021160 1.869810 
# 
# From -- ./inp_files/303914.got.cif
#   From: 2010.05.17/outbox.cif.g08.bks.cpg/sg2_152_cif.got.tgz:303914.got - 2010.06.03 11:33:40.
