data_PCOD9078828
_publ_section_title
;
Structure prediction by ZEFSAII (Michael W. Deem and Ramdas Pophale) SiO2 
 PCOD9078828
Probable space group: P -1
;
_chemical_formula_sum "Si O2"
_cell_formula_units_Z 14
_cell_length_a 19.633829
_cell_length_b 10.120782
_cell_length_c 7.108678
_cell_angle_alpha 76.797956
_cell_angle_beta 68.413117
_cell_angle_gamma 23.876986
_cell_volume 509.291882
_symmetry_space_group_name_H-M "P -1"
_symmetry_group_IT_number 2
_symmetry_cell_setting 'triclinic'
loop_
_space_group_symop_operation_xyz
x,y,z
-x,-y,-z
loop_
_atom_site_type_symbol
_atom_site_label
_atom_site_fract_x
_atom_site_fract_y
_atom_site_fract_z
Si Si1 0.644871 0.492208 0.506739
Si Si2 0.263913 0.487419 0.288337
Si Si3 0.022306 0.510258 0.756487
Si Si4 0.987579 0.854844 0.771098
Si Si5 0.919545 0.877307 0.206294
Si Si6 0.528262 0.487885 0.191864
Si Si7 0.632909 0.973713 0.665592
O O1 0.596086 0.656323 0.691980
O O2 0.852527 0.095591 0.362758
O O3 0.551460 0.504314 0.616707
O O4 0.555576 0.728365 0.353457
O O5 0.315987 0.256706 0.220458
O O6 0.138682 0.655246 0.540638
O O7 0.162305 0.772651 0.177456
O O8 0.219521 0.228542 0.575406
O O9 0.915177 0.836232 0.755455
O O10 0.001303 0.400627 0.708075
O O11 0.000000 0.500000 0.000000
O O12 0.050230 0.713050 0.964033
O O13 0.730864 0.167844 0.181919
O O14 0.408725 0.826624 0.230671
O O15 0.500000 0.500000 0.000000
#
# Coordination Sequence:
#
# PCOD9078828 Si02
#       7
#     2   2   2   2   2   2   2
#     4  11  20  35  59  87 113 147 193 239 286 341
#     4  10  21  37  57  83 120 154 186 231 289 343
#     4   9  16  32  62  81 107 150 190 231 279 331
#     4   9  20  36  58  77 118 158 190 228 281 338
#     4  10  18  36  59  84 113 148 195 240 281 332
#     4  11  21  35  60  88 115 147 190 243 290 333
#     4  10  19  38  58  86 116 151 189 233 288 342
#
# _framework density 27.489148
#
# number of rings (size 3 to 8) (size 9 to 14) (size 15 to 20)
#    0.000    2.000    2.857    2.143    0.000    0.571 
#    0.000    8.571   25.143    0.000    0.000    0.000 
#    0.000    0.000    0.000    0.000    0.000    0.000 
#
# Total GULP energy -78234.623731 kJ/mol
# GULP energy per Si atom -5588.187409 kJ/mol
# Density = 2.742658 g / cm^3
# Si number density = 27.489148 Si / 1000 Ang^3
#
#
#
# Elastic Constant Matrix: (Units=GPa)
#
#
# Indices 1 2 3 4 5 6 
#
# 1 118.3726 55.2325 14.6595 -0.4964 10.7326 42.2756
# 2 55.2325 166.6777 23.9020 -17.7392 -0.1887 61.6128
# 3 14.6595 23.9020 98.0850 -4.0941 -6.6038 0.4090
# 4 -0.4964 -17.7392 -4.0941 42.9654 10.7790 -5.0116
# 5 10.7326 -0.1887 -6.6038 10.7790 33.3762 -2.3799
# 6 42.2756 61.6128 0.4090 -5.0116 -2.3799 59.9925
#
#
#
# Elastic Compliance Matrix: (Units=1/GPa)
#
#
# Indices 1 2 3 4 5 6 
#
# 1 0.012415 -0.000883 -0.001942 -0.000109 -0.004919 -0.008032
# 2 -0.000883 0.010800 -0.002445 0.003525 -0.002007 -0.010238
# 3 -0.001942 -0.002445 0.011269 -0.000310 0.003219 0.003905
# 4 -0.000109 0.003525 -0.000310 0.026700 -0.008748 -0.001658
# 5 -0.004919 -0.002007 0.003219 -0.008748 0.035435 0.006181
# 6 -0.008032 -0.010238 0.003905 -0.001658 0.006181 0.032924
#
#
# Mechanical properties :
#
#
# Convention : Reuss Voigt Hill
#
# Bulk Modulus (GPa) = 41.76762 63.41371 52.59067
# Shear Modulus (GPa) = 33.76883 46.55623 40.16253
#
# Velocity S-wave (km/s) = 3.50872 4.11983 3.82649
# Velocity P-wave (km/s) = 5.62512 6.76383 6.22059
#
# Compressibility (1/GPa) = 0.02394199
#
# Stress axis : x y z
#
# Youngs Moduli (GPa) = 80.54885 92.58871 88.73977
#
# Poissons Ratio (x) = 0.08180 0.17237
# Poissons Ratio (y) = 0.07116 0.21699
# Poissons Ratio (z) = 0.15646 0.22640
#
# Static dielectric constant tensor:
#      x y z
#    x 2.277230 -0.067210 0.025990 
#    y -0.067210 2.156220 0.064030 
#    z 0.025990 0.064030 2.171910 
# 
# From -- ./inp_files/161562.got.cif
#   From: 2010.05.17/outbox.cif.g08.bks.cpg/sg2_81_cif.got.tgz:161562.got - 2010.06.03 11:33:40.
