data_PCOD9078010
_publ_section_title
;
Structure prediction by ZEFSAII (Michael W. Deem and Ramdas Pophale) SiO2 
 PCOD9078010
Probable space group: P -1
;
_chemical_formula_sum "Si O2"
_cell_formula_units_Z 14
_cell_length_a 5.121517
_cell_length_b 5.569031
_cell_length_c 18.678036
_cell_angle_alpha 78.626211
_cell_angle_beta 114.877095
_cell_angle_gamma 96.047376
_cell_volume 473.660264
_symmetry_space_group_name_H-M "P -1"
_symmetry_group_IT_number 2
_symmetry_cell_setting 'triclinic'
loop_
_space_group_symop_operation_xyz
x,y,z
-x,-y,-z
loop_
_atom_site_type_symbol
_atom_site_label
_atom_site_fract_x
_atom_site_fract_y
_atom_site_fract_z
Si Si1 0.098816 0.377454 0.822062
Si Si2 0.370737 0.589162 0.335693
Si Si3 0.876978 0.997830 0.374144
Si Si4 0.297896 0.724565 0.942964
Si Si5 0.784929 0.982126 0.905192
Si Si6 0.458566 0.674131 0.769032
Si Si7 0.259574 0.701289 0.515959
O O1 0.125921 0.629589 0.857710
O O2 0.417011 0.418594 0.822556
O O3 0.929545 0.308934 0.732097
O O4 0.974552 0.197957 0.878025
O O5 0.403487 0.400630 0.284681
O O6 0.441830 0.434341 0.424759
O O7 0.628203 0.789955 0.347239
O O8 0.839467 0.201782 0.297409
O O9 0.797935 0.130461 0.431514
O O10 0.185225 0.871252 0.429155
O O11 0.520259 0.943087 0.932173
O O12 0.049312 0.797512 0.965941
O O13 0.500000 0.500000 0.000000
O O14 0.625162 0.866956 0.824160
O O15 0.000000 0.500000 0.500000
#
# Coordination Sequence:
#
# PCOD9078010 Si02
#       7
#     2   2   2   2   2   2   2
#     4  11  24  38  64  94 130 166 219 263 328 386
#     4  10  18  35  57  85 122 165 214 268 319 385
#     4   9  16  32  56  84 120 169 212 268 324 378
#     4  11  26  46  69  99 133 170 217 266 323 395
#     4  11  24  42  69  97 132 173 214 268 327 386
#     4  10  21  36  58  90 125 166 217 267 320 385
#     4   8  16  29  55  85 119 165 212 266 323 381
#
# _framework density 29.55705
#
# number of rings (size 3 to 8) (size 9 to 14) (size 15 to 20)
#    0.000    2.000    2.857    0.429    2.000    1.143 
#    0.000    0.714    0.000   29.143    0.000    0.000 
#    0.000    0.000    0.000    0.000    0.000    0.000 
#
# Total GULP energy -78212.349643 kJ/mol
# GULP energy per Si atom -5586.596403 kJ/mol
# Density = 2.948978 g / cm^3
# Si number density = 29.557050 Si / 1000 Ang^3
#
#
#
# Elastic Constant Matrix: (Units=GPa)
#
#
# Indices 1 2 3 4 5 6 
#
# 1 137.7371 32.0218 11.6083 -11.5157 6.0337 13.9548
# 2 32.0218 111.8105 35.7534 2.3824 0.5237 45.9127
# 3 11.6083 35.7534 125.4066 9.0959 -2.5942 30.8168
# 4 -11.5157 2.3824 9.0959 62.9012 -0.3852 -4.8013
# 5 6.0337 0.5237 -2.5942 -0.3852 35.3469 -8.5434
# 6 13.9548 45.9127 30.8168 -4.8013 -8.5434 43.5247
#
#
#
# Elastic Compliance Matrix: (Units=1/GPa)
#
#
# Indices 1 2 3 4 5 6 
#
# 1 0.007992 -0.002143 -0.000206 0.001546 -0.001393 -0.000259
# 2 -0.002143 0.017328 -0.000058 -0.002495 -0.004441 -0.018697
# 3 -0.000206 -0.000058 0.009939 -0.002039 -0.001030 -0.007337
# 4 0.001546 -0.002495 -0.002039 0.017012 0.001184 0.005689
# 5 -0.001393 -0.004441 -0.001030 0.001184 0.031473 0.012169
# 6 -0.000259 -0.018697 -0.007337 0.005689 0.012169 0.050992
#
#
# Mechanical properties :
#
#
# Convention : Reuss Voigt Hill
#
# Bulk Modulus (GPa) = 32.84714 59.30236 46.07475
# Shear Modulus (GPa) = 33.40026 48.05929 40.72977
#
# Velocity S-wave (km/s) = 3.36523 4.03672 3.71618
# Velocity P-wave (km/s) = 5.12221 6.46793 5.83400
#
# Compressibility (1/GPa) = 0.03044405
#
# Stress axis : x y z
#
# Youngs Moduli (GPa) = 125.11968 57.71162 100.61092
#
# Poissons Ratio (x) = 0.12369 0.02074
# Poissons Ratio (y) = 0.26816 0.00585
# Poissons Ratio (z) = 0.02580 0.00336
#
# Static dielectric constant tensor:
#      x y z
#    x 2.396950 -0.161820 0.176350 
#    y -0.161820 2.464960 -0.326170 
#    z 0.176350 -0.326170 2.913910 
# 
# From -- ./inp_files/9648.got.cif
#   From: 2010.05.17/outbox.cif.g08.bks.cpg/sg2_5_cif.got.tgz:9648.got - 2010.06.03 11:33:40.
