data_PCOD9078939
_publ_section_title
;
Structure prediction by ZEFSAII (Michael W. Deem and Ramdas Pophale) SiO2 
 PCOD9078939
Probable space group: P -1
;
_chemical_formula_sum "Si O2"
_cell_formula_units_Z 16
_cell_length_a 9.879535
_cell_length_b 9.017125
_cell_length_c 11.197910
_cell_angle_alpha 125.438794
_cell_angle_beta 53.891854
_cell_angle_gamma 101.124333
_cell_volume 639.637931
_symmetry_space_group_name_H-M "P -1"
_symmetry_group_IT_number 2
_symmetry_cell_setting 'triclinic'
loop_
_space_group_symop_operation_xyz
x,y,z
-x,-y,-z
loop_
_atom_site_type_symbol
_atom_site_label
_atom_site_fract_x
_atom_site_fract_y
_atom_site_fract_z
Si Si1 0.410093 0.964800 0.869207
Si Si2 0.847007 0.170646 0.603087
Si Si3 0.859387 0.010022 0.177903
Si Si4 0.682858 0.882861 0.403568
Si Si5 0.644968 0.612376 0.497734
Si Si6 0.877543 0.881916 0.731428
Si Si7 0.556759 0.331741 0.984762
Si Si8 0.257463 0.483774 0.362189
O O1 0.579071 0.800557 0.699635
O O2 0.310636 0.921130 0.781990
O O3 0.463672 0.161868 0.925110
O O4 0.287608 0.975882 0.054916
O O5 0.744677 0.027885 0.528732
O O6 0.758132 0.250434 0.812277
O O7 0.805764 0.356597 0.626664
O O8 0.052768 0.103129 0.434028
O O9 0.807971 0.845930 0.206152
O O10 0.955798 0.100038 0.271495
O O11 0.000000 0.000000 0.000000
O O12 0.500000 0.000000 0.500000
O O13 0.690174 0.695992 0.388320
O O14 0.500000 0.500000 0.500000
O O15 0.770527 0.480683 0.464478
O O16 0.836987 0.683398 0.688764
O O17 0.500000 0.500000 0.000000
O O18 0.464208 0.420371 0.195761
#
# Coordination Sequence:
#
# PCOD9078939 Si02
#       8
#     2   2   2   2   2   2   2   2
#     4  10  19  38  58  92 119 156 205 252 306 359
#     4  10  18  36  60  90 115 153 210 253 298 360
#     4   9  18  34  62  89 113 153 201 253 297 353
#     4  11  19  35  61  86 111 157 211 251 288 360
#     4  12  25  38  61  92 126 165 204 256 313 362
#     4   9  20  34  62  89 116 159 199 250 309 360
#     4   9  18  34  61  90 119 150 203 261 299 351
#     4  10  22  37  58  90 128 155 200 255 314 365
#
# _framework density 25.014151999999999
#
# number of rings (size 3 to 8) (size 9 to 14) (size 15 to 20)
#    0.000    2.000    2.500    1.125    1.750    3.000 
#    0.000    2.500    2.750    6.750    0.000    0.000 
#    0.000    0.000    0.000    0.000    0.000    0.000 
#
# Total GULP energy -89106.224685 kJ/mol
# GULP energy per Si atom -5569.139043 kJ/mol
# Density = 2.495722 g / cm^3
# Si number density = 25.014152 Si / 1000 Ang^3
#
#
#
# Elastic Constant Matrix: (Units=GPa)
#
#
# Indices 1 2 3 4 5 6 
#
# 1 91.4182 13.4960 -11.0261 -5.3949 5.4326 -0.4211
# 2 13.4960 115.8913 25.6739 -43.7710 -1.2714 14.2237
# 3 -11.0261 25.6739 128.5626 -51.9442 -19.8738 -2.4247
# 4 -5.3949 -43.7710 -51.9442 62.9353 -4.6661 4.6658
# 5 5.4326 -1.2714 -19.8738 -4.6661 40.6504 3.4616
# 6 -0.4211 14.2237 -2.4247 4.6658 3.4616 27.2917
#
#
#
# Elastic Compliance Matrix: (Units=1/GPa)
#
#
# Indices 1 2 3 4 5 6 
#
# 1 0.011463 -0.001306 0.001718 0.001380 -0.000647 0.000856
# 2 -0.001306 0.014540 0.002952 0.013528 0.004496 -0.010218
# 3 0.001718 0.002952 0.014987 0.015560 0.009319 -0.004023
# 4 0.001380 0.013528 0.015560 0.040332 0.013691 -0.014278
# 5 -0.000647 0.004496 0.009319 0.013691 0.031625 -0.007877
# 6 0.000856 -0.010218 -0.004023 -0.014278 -0.007877 0.045063
#
#
# Mechanical properties :
#
#
# Convention : Reuss Voigt Hill
#
# Bulk Modulus (GPa) = 20.95665 43.57329 32.26497
# Shear Modulus (GPa) = 29.90646 46.69071 38.29859
#
# Velocity S-wave (km/s) = 3.46147 4.32507 3.91714
# Velocity P-wave (km/s) = 4.93678 6.51145 5.77801
#
# Compressibility (1/GPa) = 0.04771755
#
# Stress axis : x y z
#
# Youngs Moduli (GPa) = 87.23988 68.77734 66.72260
#
# Poissons Ratio (x) = 0.08984 -0.11461
# Poissons Ratio (y) = 0.11396 -0.19700
# Poissons Ratio (z) = -0.14985 -0.20306
#
# Static dielectric constant tensor:
#      x y z
#    x 1.692900 -0.396970 0.379450 
#    y -0.396970 1.782700 0.286820 
#    z 0.379450 0.286820 1.852180 
# 
# From -- ./inp_files/418022.got.cif
#   From: 2010.05.17/outbox.cif.g08.bks.cpg/sg2_210_cif.got.tgz:418022.got - 2010.06.03 11:33:40.
