data_PCOD9078904
_publ_section_title
;
Structure prediction by ZEFSAII (Michael W. Deem and Ramdas Pophale) SiO2 
 PCOD9078904
Probable space group: P -1
;
_chemical_formula_sum "Si O2"
_cell_formula_units_Z 14
_cell_length_a 18.004397
_cell_length_b 6.795548
_cell_length_c 11.536071
_cell_angle_alpha 138.840038
_cell_angle_beta 138.055667
_cell_angle_gamma 56.355347
_cell_volume 620.864690
_symmetry_space_group_name_H-M "P -1"
_symmetry_group_IT_number 2
_symmetry_cell_setting 'triclinic'
loop_
_space_group_symop_operation_xyz
x,y,z
-x,-y,-z
loop_
_atom_site_type_symbol
_atom_site_label
_atom_site_fract_x
_atom_site_fract_y
_atom_site_fract_z
Si Si1 0.327344 0.139786 0.145803
Si Si2 0.593037 0.372032 0.137830
Si Si3 0.739908 0.291452 0.904934
Si Si4 0.962921 0.350826 0.272618
Si Si5 0.499025 0.352987 0.616086
Si Si6 0.113735 0.327053 0.067307
Si Si7 0.192219 0.314973 0.394013
O O1 0.297733 0.875614 0.091775
O O2 0.417427 0.344209 0.408239
O O3 0.380306 0.959172 0.021485
O O4 0.207373 0.296008 0.063253
O O5 0.548585 0.441480 0.245812
O O6 0.712659 0.541661 0.352759
O O7 0.500000 0.500000 0.000000
O O8 0.628770 0.431117 0.787311
O O9 0.777108 0.030158 0.744229
O O10 0.849239 0.483459 0.148561
O O11 0.000000 0.500000 0.500000
O O12 0.069367 0.356959 0.317441
O O13 0.929824 0.006547 0.102687
O O14 0.500000 0.000000 0.500000
O O15 0.184467 0.445791 0.312727
O O16 0.000000 0.500000 0.000000
#
# Coordination Sequence:
#
# PCOD9078904 Si02
#       7
#     2   2   2   2   2   2   2
#     4   9  17  29  43  73 103 132 175 221 264 310
#     4  12  17  25  51  78 110 136 169 229 282 314
#     4   9  15  27  43  68 103 133 166 213 270 315
#     4  10  20  33  50  80 111 136 179 232 274 322
#     4  10  15  27  41  72 108 129 172 218 278 311
#     4  10  20  37  55  74 110 153 185 219 267 327
#     4  10  18  32  51  77 108 139 178 223 273 318
#
# _framework density 22.549195000000001
#
# number of rings (size 3 to 8) (size 9 to 14) (size 15 to 20)
#    0.000    2.286    7.143    3.429    0.000    0.000 
#    0.000    2.857    0.000    0.000    0.000   13.000 
#    0.000    0.000    0.000    0.000    0.000    0.000 
#
# Total GULP energy -78116.334100 kJ/mol
# GULP energy per Si atom -5579.738150 kJ/mol
# Density = 2.249787 g / cm^3
# Si number density = 22.549195 Si / 1000 Ang^3
#
#
#
# Elastic Constant Matrix: (Units=GPa)
#
#
# Indices 1 2 3 4 5 6 
#
# 1 114.8246 37.1945 55.1764 -2.3328 6.1827 -49.3291
# 2 37.1945 102.4047 59.3278 -19.6180 -0.2825 -34.1833
# 3 55.1764 59.3278 190.0287 -28.1119 0.0704 -31.3138
# 4 -2.3328 -19.6180 -28.1119 33.1348 -23.1009 3.4929
# 5 6.1827 -0.2825 0.0704 -23.1009 45.8443 -3.8506
# 6 -49.3291 -34.1833 -31.3138 3.4929 -3.8506 47.7574
#
#
#
# Elastic Compliance Matrix: (Units=1/GPa)
#
#
# Indices 1 2 3 4 5 6 
#
# 1 0.017100 -0.000444 -0.003238 -0.006369 -0.004224 0.015347
# 2 -0.000444 0.016613 -0.001541 0.012547 0.007335 0.010097
# 3 -0.003238 -0.001541 0.008167 0.009323 0.005166 0.000642
# 4 -0.006369 0.012547 0.009323 0.070009 0.036733 0.006357
# 5 -0.004224 0.007335 0.005166 0.036733 0.041343 0.004921
# 6 0.015347 0.010097 0.000642 0.006357 0.004921 0.044371
#
#
# Mechanical properties :
#
#
# Convention : Reuss Voigt Hill
#
# Bulk Modulus (GPa) = 31.81202 78.96171 55.38686
# Shear Modulus (GPa) = 22.88057 42.38459 32.63258
#
# Velocity S-wave (km/s) = 3.18888 4.34020 3.80830
# Velocity P-wave (km/s) = 5.26280 7.75951 6.62975
#
# Compressibility (1/GPa) = 0.03143466
#
# Stress axis : x y z
#
# Youngs Moduli (GPa) = 58.47965 60.19335 122.44996
#
# Poissons Ratio (x) = 0.02670 0.39652
# Poissons Ratio (y) = 0.02594 0.18866
# Poissons Ratio (z) = 0.18937 0.09274
#
# Static dielectric constant tensor:
#      x y z
#    x 1.967160 0.072060 0.010180 
#    y 0.072060 1.934010 -0.044470 
#    z 0.010180 -0.044470 1.852990 
# 
# From -- ./inp_files/460890.got.cif
#   From: 2010.05.17/outbox.cif.g08.bks.cpg/sg2_231_cif.got.tgz:460890.got - 2010.06.03 11:33:40.
