data_PCOD9078198
_publ_section_title
;
Structure prediction by ZEFSAII (Michael W. Deem and Ramdas Pophale) SiO2 
 PCOD9078198
Probable space group: P -1
;
_chemical_formula_sum "Si O2"
_cell_formula_units_Z 14
_cell_length_a 15.643383
_cell_length_b 9.966593
_cell_length_c 10.736150
_cell_angle_alpha 137.759706
_cell_angle_beta 143.476363
_cell_angle_gamma 35.877199
_cell_volume 564.426138
_symmetry_space_group_name_H-M "P -1"
_symmetry_group_IT_number 2
_symmetry_cell_setting 'triclinic'
loop_
_space_group_symop_operation_xyz
x,y,z
-x,-y,-z
loop_
_atom_site_type_symbol
_atom_site_label
_atom_site_fract_x
_atom_site_fract_y
_atom_site_fract_z
Si Si1 0.887003 0.967132 0.503061
Si Si2 0.040382 0.554097 0.736318
Si Si3 0.397783 0.746842 0.471751
Si Si4 0.243710 0.904992 0.825329
Si Si5 0.869115 0.667541 0.857365
Si Si6 0.690956 0.762725 0.332705
Si Si7 0.589724 0.617161 0.357574
O O1 0.794243 0.137272 0.627489
O O2 0.755065 0.061153 0.297704
O O3 0.944366 0.696364 0.397513
O O4 0.053914 0.966249 0.668934
O O5 0.220924 0.461452 0.815026
O O6 0.984286 0.674354 0.887297
O O7 0.869289 0.715655 0.567223
O O8 0.500000 0.500000 0.500000
O O9 0.441725 0.714118 0.354057
O O10 0.409268 0.980232 0.673949
O O11 0.372511 0.632676 0.816782
O O12 0.254578 0.085239 0.050027
O O13 0.751554 0.579848 0.602384
O O14 0.000000 0.500000 0.000000
O O15 0.592503 0.752368 0.330824
#
# Coordination Sequence:
#
# PCOD9078198 Si02
#       7
#     2   2   2   2   2   2   2
#     4  10  18  35  59  89 118 156 197 244 298 347
#     4   9  17  35  59  89 115 154 204 246 291 350
#     4  11  22  35  63  92 119 158 203 243 306 364
#     4  11  19  34  62  88 119 155 199 249 290 347
#     4  11  20  33  61  94 122 154 203 253 296 346
#     4   9  19  36  63  83 119 164 196 243 304 354
#     4  11  22  41  60  89 124 162 197 243 307 359
#
# _framework density 24.803953
#
# number of rings (size 3 to 8) (size 9 to 14) (size 15 to 20)
#    0.000    1.714    5.714    1.286    0.000    0.000 
#    0.000    1.429    6.286    4.286    0.000    0.000 
#    0.000    0.000    0.000    0.000    0.000    0.000 
#
# Total GULP energy -78083.380105 kJ/mol
# GULP energy per Si atom -5577.384293 kJ/mol
# Density = 2.474750 g / cm^3
# Si number density = 24.803953 Si / 1000 Ang^3
#
#
#
# Elastic Constant Matrix: (Units=GPa)
#
#
# Indices 1 2 3 4 5 6 
#
# 1 170.2908 45.4514 23.8218 1.7796 -26.7439 -20.2853
# 2 45.4514 132.6091 29.4663 14.3127 0.8345 3.6799
# 3 23.8218 29.4663 75.4989 2.7153 -5.7038 -9.5015
# 4 1.7796 14.3127 2.7153 29.6730 -2.2072 -13.1667
# 5 -26.7439 0.8345 -5.7038 -2.2072 14.9990 5.0164
# 6 -20.2853 3.6799 -9.5015 -13.1667 5.0164 56.7632
#
#
#
# Elastic Compliance Matrix: (Units=1/GPa)
#
#
# Indices 1 2 3 4 5 6 
#
# 1 0.010107 -0.004121 0.000025 0.004155 0.017776 0.003276
# 2 -0.004121 0.010684 -0.003767 -0.006828 -0.009187 -0.003568
# 3 0.000025 -0.003767 0.015402 0.002068 0.005470 0.002828
# 4 0.004155 -0.006828 0.002068 0.042309 0.011087 0.011108
# 5 0.017776 -0.009187 0.005470 0.011087 0.102118 0.001411
# 6 0.003276 -0.003568 0.002828 0.011108 0.001411 0.021944
#
#
# Mechanical properties :
#
#
# Convention : Reuss Voigt Hill
#
# Bulk Modulus (GPa) = 48.85738 63.98643 56.42190
# Shear Modulus (GPa) = 22.21094 38.93101 30.57097
#
# Velocity S-wave (km/s) = 2.99567 3.96605 3.51451
# Velocity P-wave (km/s) = 5.63077 6.84292 6.26623
#
# Compressibility (1/GPa) = 0.02046774
#
# Stress axis : x y z
#
# Youngs Moduli (GPa) = 98.93798 93.59483 64.92536
#
# Poissons Ratio (x) = 0.38572 -0.00163
# Poissons Ratio (y) = 0.40774 0.24458
# Poissons Ratio (z) = -0.00249 0.35258
#
# Static dielectric constant tensor:
#      x y z
#    x 2.106900 -0.033820 -0.009790 
#    y -0.033820 2.011170 0.001930 
#    z -0.009790 0.001930 1.989300 
# 
# From -- ./inp_files/464139.got.cif
#   From: 2010.05.17/outbox.cif.g08.bks.cpg/sg2_233_cif.got.tgz:464139.got - 2010.06.03 11:33:40.
