data_PCOD9078279
_publ_section_title
;
Structure prediction by ZEFSAII (Michael W. Deem and Ramdas Pophale) SiO2 
 PCOD9078279
Probable space group: P -1
;
_chemical_formula_sum "Si O2"
_cell_formula_units_Z 14
_cell_length_a 7.478103
_cell_length_b 11.882896
_cell_length_c 8.240861
_cell_angle_alpha 80.703634
_cell_angle_beta 55.624655
_cell_angle_gamma 100.483613
_cell_volume 561.923581
_symmetry_space_group_name_H-M "P -1"
_symmetry_group_IT_number 2
_symmetry_cell_setting 'triclinic'
loop_
_space_group_symop_operation_xyz
x,y,z
-x,-y,-z
loop_
_atom_site_type_symbol
_atom_site_label
_atom_site_fract_x
_atom_site_fract_y
_atom_site_fract_z
Si Si1 0.629140 0.623511 0.303243
Si Si2 0.734036 0.152228 0.884494
Si Si3 0.528734 0.323763 0.103843
Si Si4 0.147658 0.412909 0.118225
Si Si5 0.558863 0.005020 0.699080
Si Si6 0.843469 0.367036 0.561918
Si Si7 0.594516 0.820829 0.484320
O O1 0.500000 0.500000 0.500000
O O2 0.418210 0.637176 0.303249
O O3 0.724000 0.749737 0.324698
O O4 0.816997 0.611338 0.082446
O O5 0.687474 0.054703 0.788405
O O6 0.895461 0.270905 0.677296
O O7 0.538611 0.211221 0.019354
O O8 0.702638 0.077753 0.088368
O O9 0.313626 0.361348 0.153122
O O10 0.525102 0.283181 0.300532
O O11 0.750831 0.442702 0.945131
O O12 0.907089 0.356534 0.343431
O O13 0.537643 0.119222 0.585593
O O14 0.684562 0.934313 0.537353
O O15 0.000000 0.500000 0.500000
#
# Coordination Sequence:
#
# PCOD9078279 Si02
#       7
#     2   2   2   2   2   2   2
#     4  12  24  41  62  95 132 164 202 258 320 371
#     4  10  18  36  61  90 121 163 215 255 306 369
#     4  10  18  35  60  89 127 166 202 249 313 377
#     4  11  21  36  60  93 129 163 198 247 315 384
#     4   9  19  34  62  92 114 167 223 252 295 372
#     4  12  23  38  65  97 128 165 206 253 317 380
#     4  10  19  35  63  89 120 167 214 257 308 361
#
# _framework density 24.91442
#
# number of rings (size 3 to 8) (size 9 to 14) (size 15 to 20)
#    0.000    1.429    5.714    0.857    0.000    0.571 
#    0.000    0.000    0.000   15.429    0.000    0.000 
#    0.000    0.000    0.000    0.000    0.000    0.000 
#
# Total GULP energy -77962.018144 kJ/mol
# GULP energy per Si atom -5568.715582 kJ/mol
# Density = 2.485771 g / cm^3
# Si number density = 24.914420 Si / 1000 Ang^3
#
#
#
# Elastic Constant Matrix: (Units=GPa)
#
#
# Indices 1 2 3 4 5 6 
#
# 1 54.6115 9.8112 0.5258 -0.0131 16.3336 -15.4168
# 2 9.8112 170.8531 40.8855 9.4195 16.4743 12.1781
# 3 0.5258 40.8855 119.0656 -3.7938 26.3746 -1.9616
# 4 -0.0131 9.4195 -3.7938 62.9775 -3.2298 21.5152
# 5 16.3336 16.4743 26.3746 -3.2298 27.8720 -4.2100
# 6 -15.4168 12.1781 -1.9616 21.5152 -4.2100 22.4950
#
#
#
# Elastic Compliance Matrix: (Units=1/GPa)
#
#
# Indices 1 2 3 4 5 6 
#
# 1 0.033793 -0.003037 0.005392 -0.011291 -0.019523 0.032420
# 2 -0.003037 0.007166 -0.002232 0.001356 -0.001351 -0.007706
# 3 0.005392 -0.002232 0.011970 -0.001213 -0.012591 0.004752
# 4 -0.011291 0.001356 -0.001213 0.027430 0.005025 -0.033873
# 5 -0.019523 -0.001351 -0.012591 0.005025 0.059493 -0.007418
# 6 0.032420 -0.007706 0.004752 -0.033873 -0.007418 0.102269
#
#
# Mechanical properties :
#
#
# Convention : Reuss Voigt Hill
#
# Bulk Modulus (GPa) = 18.80523 49.66392 34.23457
# Shear Modulus (GPa) = 19.26041 42.22274 30.74157
#
# Velocity S-wave (km/s) = 2.78342 4.12115 3.51648
# Velocity P-wave (km/s) = 4.23015 6.52857 5.50075
#
# Compressibility (1/GPa) = 0.05317670
#
# Stress axis : x y z
#
# Youngs Moduli (GPa) = 29.59181 139.54444 83.54273
#
# Poissons Ratio (x) = 0.42378 -0.45050
# Poissons Ratio (y) = 0.08987 0.18646
# Poissons Ratio (z) = -0.15957 0.31144
#
# Static dielectric constant tensor:
#      x y z
#    x 2.067800 0.083220 0.023540 
#    y 0.083220 2.002820 -0.019690 
#    z 0.023540 -0.019690 2.086920 
# 
# From -- ./inp_files/177269.got.cif
#   From: 2010.05.17/outbox.cif.g08.bks.cpg/sg2_89_cif.got.tgz:177269.got - 2010.06.03 11:33:40.
