data_PCOD9078728
_publ_section_title
;
Structure prediction by ZEFSAII (Michael W. Deem and Ramdas Pophale) SiO2 
 PCOD9078728
Probable space group: P -1
;
_chemical_formula_sum "Si O2"
_cell_formula_units_Z 16
_cell_length_a 11.954584
_cell_length_b 10.482561
_cell_length_c 8.495059
_cell_angle_alpha 66.914314
_cell_angle_beta 67.771553
_cell_angle_gamma 96.327418
_cell_volume 863.733415
_symmetry_space_group_name_H-M "P -1"
_symmetry_group_IT_number 2
_symmetry_cell_setting 'triclinic'
loop_
_space_group_symop_operation_xyz
x,y,z
-x,-y,-z
loop_
_atom_site_type_symbol
_atom_site_label
_atom_site_fract_x
_atom_site_fract_y
_atom_site_fract_z
Si Si1 0.334861 0.072914 0.745099
Si Si2 0.485359 0.055376 0.155344
Si Si3 0.142420 0.200100 0.885321
Si Si4 0.759033 0.010795 0.514808
Si Si5 0.000389 0.563211 0.142605
Si Si6 0.252286 0.765022 0.068691
Si Si7 0.006727 0.055751 0.704145
Si Si8 0.132204 0.727799 0.474416
O O1 0.287706 0.203437 0.773554
O O2 0.303826 0.035136 0.598641
O O3 0.476344 0.066531 0.702156
O O4 0.249244 0.930178 0.956415
O O5 0.346814 0.061414 0.264486
O O6 0.597935 0.204670 0.058628
O O7 0.500000 0.000000 0.000000
O O8 0.097948 0.342691 0.850076
O O9 0.074851 0.121844 0.799482
O O10 0.087223 0.099775 0.115204
O O11 0.885937 0.964904 0.459915
O O12 0.799652 0.181456 0.453875
O O13 0.953044 0.429635 0.353127
O O14 0.140710 0.661476 0.074134
O O15 0.000000 0.500000 0.000000
O O16 0.226018 0.721682 0.285290
O O17 0.944771 0.170571 0.609041
#
# Coordination Sequence:
#
# PCOD9078728 Si02
#       8
#     2   2   2   2   2   2   2   2
#     4   9  19  35  59  85 113 144 192 244 284 332
#     4  10  20  37  57  86 113 148 195 243 287 327
#     4  10  18  36  57  81 121 147 184 238 298 333
#     4  11  20  33  57  91 113 149 189 244 285 339
#     4  12  24  37  55  87 121 157 185 231 293 352
#     4  10  20  37  58  82 114 152 187 236 279 343
#     4  10  19  33  57  89 115 146 189 243 288 336
#     4  12  21  35  58  88 120 149 191 230 296 348
#
# _framework density 18.524232999999999
#
# number of rings (size 3 to 8) (size 9 to 14) (size 15 to 20)
#    0.750    0.750    3.750    4.125    0.000    0.000 
#    0.000    0.000    0.000    1.500    0.000    0.000 
#    0.000    0.000    0.000    0.000    0.000    0.000 
#
# Total GULP energy -89078.763356 kJ/mol
# GULP energy per Si atom -5567.422710 kJ/mol
# Density = 1.848207 g / cm^3
# Si number density = 18.524233 Si / 1000 Ang^3
#
#
#
# Elastic Constant Matrix: (Units=GPa)
#
#
# Indices 1 2 3 4 5 6 
#
# 1 52.1341 19.0240 20.4237 3.6187 -9.7532 -6.5934
# 2 19.0240 73.7998 27.7300 7.1527 -10.0221 -5.5428
# 3 20.4237 27.7300 86.0754 0.7423 -5.9769 -14.3413
# 4 3.6187 7.1527 0.7423 32.0913 -3.4588 -1.7251
# 5 -9.7532 -10.0221 -5.9769 -3.4588 29.4853 1.3224
# 6 -6.5934 -5.5428 -14.3413 -1.7251 1.3224 17.9092
#
#
#
# Elastic Compliance Matrix: (Units=1/GPa)
#
#
# Indices 1 2 3 4 5 6 
#
# 1 0.023448 -0.003645 -0.003264 -0.000922 0.005550 0.004392
# 2 -0.003645 0.016835 -0.004324 -0.002891 0.003306 -0.000116
# 3 -0.003264 -0.004324 0.015453 0.001544 0.000318 0.009960
# 4 -0.000922 -0.002891 0.001544 0.032320 0.002686 0.002917
# 5 0.005550 0.003306 0.000318 0.002686 0.037217 0.000832
# 6 0.004392 -0.000116 0.009960 0.002917 0.000832 0.065614
#
#
# Mechanical properties :
#
#
# Convention : Reuss Voigt Hill
#
# Bulk Modulus (GPa) = 30.05652 38.48498 34.27075
# Shear Modulus (GPa) = 22.27741 25.55258 23.91500
#
# Velocity S-wave (km/s) = 3.47163 3.71807 3.59696
# Velocity P-wave (km/s) = 5.68598 6.26520 5.98260
#
# Compressibility (1/GPa) = 0.03327065
#
# Stress axis : x y z
#
# Youngs Moduli (GPa) = 42.64763 59.40097 64.71086
#
# Poissons Ratio (x) = 0.21651 0.21124
# Poissons Ratio (y) = 0.15545 0.27978
# Poissons Ratio (z) = 0.13922 0.25682
#
# Static dielectric constant tensor:
#      x y z
#    x 1.705960 0.003960 -0.004630 
#    y 0.003960 1.650140 0.024980 
#    z -0.004630 0.024980 1.665580 
# 
# From -- ./inp_files/297592.got.cif
#   From: 2010.05.17/outbox.cif.g08.bks.cpg/sg2_149_cif.got.tgz:297592.got - 2010.06.03 11:33:40.
