data_PCOD9078384
_publ_section_title
;
Structure prediction by ZEFSAII (Michael W. Deem and Ramdas Pophale) SiO2 
 PCOD9078384
Probable space group: P -1
;
_chemical_formula_sum "Si O2"
_cell_formula_units_Z 16
_cell_length_a 9.862356
_cell_length_b 12.404040
_cell_length_c 12.126344
_cell_angle_alpha 131.120105
_cell_angle_beta 125.039056
_cell_angle_gamma 72.666658
_cell_volume 907.332798
_symmetry_space_group_name_H-M "P -1"
_symmetry_group_IT_number 2
_symmetry_cell_setting 'triclinic'
loop_
_space_group_symop_operation_xyz
x,y,z
-x,-y,-z
loop_
_atom_site_type_symbol
_atom_site_label
_atom_site_fract_x
_atom_site_fract_y
_atom_site_fract_z
Si Si1 0.394084 0.334456 0.960878
Si Si2 0.434334 0.779124 0.395242
Si Si3 0.804767 0.729595 0.574893
Si Si4 0.516974 0.087186 0.732678
Si Si5 0.043204 0.343322 0.168422
Si Si6 0.815922 0.504740 0.868304
Si Si7 0.748035 0.515456 0.214499
Si Si8 0.894762 0.038924 0.872068
O O1 0.427903 0.172120 0.840851
O O2 0.307275 0.391722 0.850433
O O3 0.280266 0.376301 0.035526
O O4 0.577673 0.425412 0.118546
O O5 0.605840 0.730126 0.486464
O O6 0.460237 0.813267 0.300041
O O7 0.288810 0.650939 0.263386
O O8 0.417874 0.933359 0.547276
O O9 0.874131 0.687833 0.697134
O O10 0.835153 0.618332 0.419140
O O11 0.877592 0.895773 0.693127
O O12 0.705823 0.060655 0.832195
O O13 0.160407 0.450762 0.217946
O O14 0.874260 0.410375 0.159731
O O15 0.987442 0.191514 0.977335
O O16 0.000000 0.500000 0.000000
O O17 0.000000 0.000000 0.000000
#
# Coordination Sequence:
#
# PCOD9078384 Si02
#       8
#     2   2   2   2   2   2   2   2
#     4  11  20  35  59  83 115 147 190 236 277 336
#     4  10  20  35  57  87 109 147 193 233 279 334
#     4  10  20  36  60  85 112 144 196 240 270 330
#     4  10  18  35  62  81 109 149 193 237 272 323
#     4  11  22  36  58  84 119 152 180 232 296 333
#     4  12  23  38  55  83 121 151 183 232 291 346
#     4  11  19  36  57  88 110 142 196 238 277 324
#     4   9  19  35  57  86 112 144 191 234 275 332
#
# _framework density 17.634103
#
# number of rings (size 3 to 8) (size 9 to 14) (size 15 to 20)
#    0.000    1.500    5.000    1.875    0.000    0.500 
#    0.000    1.875    0.000    6.750    0.000    0.000 
#    0.000    0.000    0.000    0.000    0.000    0.000 
#
# Total GULP energy -89240.896748 kJ/mol
# GULP energy per Si atom -5577.556047 kJ/mol
# Density = 1.759397 g / cm^3
# Si number density = 17.634103 Si / 1000 Ang^3
#
#
#
# Elastic Constant Matrix: (Units=GPa)
#
#
# Indices 1 2 3 4 5 6 
#
# 1 76.8032 33.9052 27.8301 2.2076 -3.1389 -6.6875
# 2 33.9052 75.0010 33.4129 6.9409 0.1344 -9.3789
# 3 27.8301 33.4129 98.5513 17.1075 0.0358 4.6450
# 4 2.2076 6.9409 17.1075 31.6456 -3.2286 9.0691
# 5 -3.1389 0.1344 0.0358 -3.2286 27.9848 2.0214
# 6 -6.6875 -9.3789 4.6450 9.0691 2.0214 24.4942
#
#
#
# Elastic Compliance Matrix: (Units=1/GPa)
#
#
# Indices 1 2 3 4 5 6 
#
# 1 0.017112 -0.006229 -0.003068 0.001404 0.001957 0.002187
# 2 -0.006229 0.019599 -0.004591 -0.003945 -0.001841 0.008287
# 3 -0.003068 -0.004591 0.013643 -0.005326 -0.000726 -0.003151
# 4 0.001404 -0.003945 -0.005326 0.040305 0.005955 -0.015532
# 5 0.001957 -0.001841 -0.000726 0.005955 0.037032 -0.005294
# 6 0.002187 0.008287 -0.003151 -0.015532 -0.005294 0.051381
#
#
# Mechanical properties :
#
#
# Convention : Reuss Voigt Hill
#
# Bulk Modulus (GPa) = 44.28987 48.96132 46.62560
# Shear Modulus (GPa) = 23.32372 27.17208 25.24790
#
# Velocity S-wave (km/s) = 3.64077 3.92967 3.78797
# Velocity P-wave (km/s) = 6.54554 6.95810 6.75497
#
# Compressibility (1/GPa) = 0.02257853
#
# Stress axis : x y z
#
# Youngs Moduli (GPa) = 58.43930 51.02324 73.29690
#
# Poissons Ratio (x) = 0.31781 0.22487
# Poissons Ratio (y) = 0.36400 0.33651
# Poissons Ratio (z) = 0.17929 0.23425
#
# Static dielectric constant tensor:
#      x y z
#    x 1.570840 -0.018260 -0.008730 
#    y -0.018260 1.612860 0.022490 
#    z -0.008730 0.022490 1.638870 
# 
# From -- ./inp_files/256964.got.cif
#   From: 2010.05.17/outbox.cif.g08.bks.cpg/sg2_129_cif.got.tgz:256964.got - 2010.06.03 11:33:40.
