data_PCOD9078360
_publ_section_title
;
Structure prediction by ZEFSAII (Michael W. Deem and Ramdas Pophale) SiO2 
 PCOD9078360
Probable space group: P -1
;
_chemical_formula_sum "Si O2"
_cell_formula_units_Z 16
_cell_length_a 11.765427
_cell_length_b 11.794105
_cell_length_c 9.671056
_cell_angle_alpha 56.776575
_cell_angle_beta 140.293685
_cell_angle_gamma 127.388060
_cell_volume 672.505686
_symmetry_space_group_name_H-M "P -1"
_symmetry_group_IT_number 2
_symmetry_cell_setting 'triclinic'
loop_
_space_group_symop_operation_xyz
x,y,z
-x,-y,-z
loop_
_atom_site_type_symbol
_atom_site_label
_atom_site_fract_x
_atom_site_fract_y
_atom_site_fract_z
Si Si1 0.044075 0.241524 0.990541
Si Si2 0.269044 0.426302 0.340619
Si Si3 0.769284 0.374027 0.508474
Si Si4 0.987184 0.968721 0.279040
Si Si5 0.722151 0.847439 0.344039
Si Si6 0.915694 0.307167 0.417830
Si Si7 0.585883 0.556262 0.893931
Si Si8 0.311479 0.672810 0.055439
O O1 0.150102 0.325145 0.172412
O O2 0.213249 0.315120 0.991575
O O3 0.992968 0.074292 0.088596
O O4 0.863394 0.280775 0.749430
O O5 0.500000 0.500000 0.500000
O O6 0.238823 0.305886 0.511473
O O7 0.220505 0.571359 0.169680
O O8 0.765657 0.320487 0.382843
O O9 0.568275 0.382821 0.359100
O O10 0.920321 0.536896 0.540572
O O11 0.019700 0.820275 0.381690
O O12 0.794307 0.926672 0.215035
O O13 0.155343 0.054931 0.484993
O O14 0.498695 0.802340 0.185735
O O15 0.828030 0.276877 0.202374
O O16 0.624048 0.431601 0.921459
O O17 0.500000 0.500000 0.000000
#
# Coordination Sequence:
#
# PCOD9078360 Si02
#       8
#     2   2   2   2   2   2   2   2
#     4  10  21  39  59  88 124 157 195 253 294 354
#     4   8  15  32  61  83 113 150 193 251 293 336
#     4  11  21  38  63  90 120 155 208 242 295 357
#     4  10  22  40  59  83 124 159 199 244 305 355
#     4   9  19  37  62  80 115 165 200 240 304 365
#     4  11  21  37  59  91 119 157 198 251 295 356
#     4  11  19  36  64  92 117 161 198 250 296 351
#     4  10  18  35  61  91 120 152 200 252 299 345
#
# _framework density 23.791620999999999
#
# number of rings (size 3 to 8) (size 9 to 14) (size 15 to 20)
#    0.000    2.000    3.750    1.500    0.000    1.000 
#    2.250    1.250   35.750    0.000    0.000    0.000 
#    0.000    0.000    0.000    0.000    0.000    0.000 
#
# Total GULP energy -89360.294718 kJ/mol
# GULP energy per Si atom -5585.018420 kJ/mol
# Density = 2.373747 g / cm^3
# Si number density = 23.791621 Si / 1000 Ang^3
#
#
#
# Elastic Constant Matrix: (Units=GPa)
#
#
# Indices 1 2 3 4 5 6 
#
# 1 40.2495 5.6608 22.3158 -7.6403 -1.2444 -1.3671
# 2 5.6608 94.7787 43.0494 -22.2873 -8.2430 17.4014
# 3 22.3158 43.0494 144.4584 -17.5343 5.7940 7.3925
# 4 -7.6403 -22.2873 -17.5343 40.8577 7.3964 2.4127
# 5 -1.2444 -8.2430 5.7940 7.3964 34.8191 -3.5008
# 6 -1.3671 17.4014 7.3925 2.4127 -3.5008 21.8840
#
#
#
# Elastic Compliance Matrix: (Units=1/GPa)
#
#
# Indices 1 2 3 4 5 6 
#
# 1 0.027895 0.000759 -0.004308 0.003380 0.001422 0.002449
# 2 0.000759 0.016387 -0.003445 0.008065 0.001513 -0.012466
# 3 -0.004308 -0.003445 0.009016 0.001798 -0.002977 -0.001250
# 4 0.003380 0.008065 0.001798 0.032074 -0.006223 -0.011341
# 5 0.001422 0.001513 -0.002977 -0.006223 0.031511 0.005618
# 6 0.002449 -0.012466 -0.001250 -0.011341 0.005618 0.058333
#
#
# Mechanical properties :
#
#
# Convention : Reuss Voigt Hill
#
# Bulk Modulus (GPa) = 25.43716 46.83762 36.13739
# Shear Modulus (GPa) = 24.71507 33.40952 29.06229
#
# Velocity S-wave (km/s) = 3.22656 3.75141 3.49884
# Velocity P-wave (km/s) = 4.95941 6.20430 5.61646
#
# Compressibility (1/GPa) = 0.03931257
#
# Stress axis : x y z
#
# Youngs Moduli (GPa) = 35.84836 61.02399 110.91498
#
# Poissons Ratio (x) = -0.04634 0.47778
# Poissons Ratio (y) = -0.02722 0.38205
# Poissons Ratio (z) = 0.15442 0.21020
#
# Static dielectric constant tensor:
#      x y z
#    x 2.026740 -0.020830 -0.034070 
#    y -0.020830 1.874420 -0.014200 
#    z -0.034070 -0.014200 1.960970 
# 
# From -- ./inp_files/314986.got.cif
#   From: 2010.05.17/outbox.cif.g08.bks.cpg/sg2_158_cif.got.tgz:314986.got - 2010.06.03 11:33:40.
