data_PCOD9078467
_publ_section_title
;
Structure prediction by ZEFSAII (Michael W. Deem and Ramdas Pophale) SiO2 
 PCOD9078467
Probable space group: P -1
;
_chemical_formula_sum "Si O2"
_cell_formula_units_Z 16
_cell_length_a 11.688781
_cell_length_b 15.174382
_cell_length_c 14.314607
_cell_angle_alpha 41.054086
_cell_angle_beta 56.604501
_cell_angle_gamma 27.356832
_cell_volume 703.831578
_symmetry_space_group_name_H-M "P -1"
_symmetry_group_IT_number 2
_symmetry_cell_setting 'triclinic'
loop_
_space_group_symop_operation_xyz
x,y,z
-x,-y,-z
loop_
_atom_site_type_symbol
_atom_site_label
_atom_site_fract_x
_atom_site_fract_y
_atom_site_fract_z
Si Si1 0.846940 0.608825 0.755489
Si Si2 0.701652 0.036880 0.249887
Si Si3 0.350509 0.753797 0.089258
Si Si4 0.202925 0.449201 0.876250
Si Si5 0.644304 0.964519 0.822172
Si Si6 0.925563 0.879267 0.913645
Si Si7 0.398286 0.647446 0.829463
Si Si8 0.099845 0.499155 0.542888
O O1 0.536424 0.873727 0.716644
O O2 0.041567 0.536895 0.788330
O O3 0.914218 0.601573 0.628856
O O4 0.931049 0.381321 0.912661
O O5 0.677060 0.136156 0.082715
O O6 0.637358 0.171008 0.267906
O O7 0.002753 0.729509 0.376239
O O8 0.612463 0.578108 0.171268
O O9 0.407008 0.558854 0.177683
O O10 0.123172 0.987901 0.078840
O O11 0.953041 0.688577 0.867651
O O12 0.405125 0.152078 0.043691
O O13 0.670276 0.039644 0.840377
O O14 0.410317 0.216950 0.658977
O O15 0.114028 0.809352 0.817236
O O16 0.500000 0.500000 0.000000
O O17 0.000000 0.500000 0.500000
#
# Coordination Sequence:
#
# PCOD9078467 Si02
#       8
#     2   2   2   2   2   2   2   2
#     4  11  21  37  61  88 118 156 197 250 306 351
#     4  11  23  40  56  84 128 163 193 242 297 361
#     4  11  20  37  64  91 119 153 201 254 299 347
#     4  10  18  35  63  88 118 149 195 258 307 339
#     4  10  20  35  59  89 121 153 194 254 302 348
#     4  11  20  37  65  94 115 152 204 254 302 339
#     4  10  21  40  59  88 123 156 201 252 290 347
#     4  12  24  38  56  90 125 159 199 237 300 376
#
# _framework density 22.732710999999998
#
# number of rings (size 3 to 8) (size 9 to 14) (size 15 to 20)
#    0.000    1.250    3.750    5.625    0.000    4.000 
#    2.250    0.625    0.000    1.500    0.000    0.000 
#    0.000    0.000    0.000    0.000    0.000    0.000 
#
# Total GULP energy -89239.798188 kJ/mol
# GULP energy per Si atom -5577.487387 kJ/mol
# Density = 2.268097 g / cm^3
# Si number density = 22.732711 Si / 1000 Ang^3
#
#
#
# Elastic Constant Matrix: (Units=GPa)
#
#
# Indices 1 2 3 4 5 6 
#
# 1 112.4228 30.6066 26.5077 -15.0420 21.6332 31.6738
# 2 30.6066 94.8548 25.4058 -2.9936 11.4254 23.2510
# 3 26.5077 25.4058 70.9846 -18.3957 20.0204 13.0846
# 4 -15.0420 -2.9936 -18.3957 35.3143 -0.8327 3.8304
# 5 21.6332 11.4254 20.0204 -0.8327 16.2618 1.5105
# 6 31.6738 23.2510 13.0846 3.8304 1.5105 51.9624
#
#
#
# Elastic Compliance Matrix: (Units=1/GPa)
#
#
# Indices 1 2 3 4 5 6 
#
# 1 0.019021 -0.000682 0.008362 0.013070 -0.033206 -0.013393
# 2 -0.000682 0.013133 -0.001978 0.000187 -0.005427 -0.004819
# 3 0.008362 -0.001978 0.032946 0.020795 -0.048056 -0.012644
# 4 0.013070 0.000187 0.020795 0.045485 -0.039350 -0.015496
# 5 -0.033206 -0.005427 -0.048056 -0.039350 0.163571 0.032916
# 6 -0.013393 -0.004819 -0.012644 -0.015496 0.032916 0.032934
#
#
# Mechanical properties :
#
#
# Convention : Reuss Voigt Hill
#
# Bulk Modulus (GPa) = 13.07132 49.25581 31.16356
# Shear Modulus (GPa) = 15.56722 33.75717 24.66220
#
# Velocity S-wave (km/s) = 2.61970 3.85770 3.29732
# Velocity P-wave (km/s) = 3.86172 6.44646 5.31365
#
# Compressibility (1/GPa) = 0.07650337
#
# Stress axis : x y z
#
# Youngs Moduli (GPa) = 52.57449 76.14320 30.35253
#
# Poissons Ratio (x) = 0.05193 -0.25382
# Poissons Ratio (y) = 0.03586 0.06005
# Poissons Ratio (z) = -0.43964 0.15065
#
# Static dielectric constant tensor:
#      x y z
#    x 1.925550 0.007510 -0.026690 
#    y 0.007510 1.965660 -0.043080 
#    z -0.026690 -0.043080 1.857670 
# 
# From -- ./inp_files/522347.got.cif
#   From: 2010.05.17/outbox.cif.g08.bks.cpg/sg2_262_cif.got.tgz:522347.got - 2010.06.03 11:33:40.
