data_PCOD9078790
_publ_section_title
;
Structure prediction by ZEFSAII (Michael W. Deem and Ramdas Pophale) SiO2 
 PCOD9078790
Probable space group: P -1
;
_chemical_formula_sum "Si O2"
_cell_formula_units_Z 12
_cell_length_a 8.332567
_cell_length_b 6.955164
_cell_length_c 11.295093
_cell_angle_alpha 61.692121
_cell_angle_beta 83.573357
_cell_angle_gamma 123.959488
_cell_volume 409.455011
_symmetry_space_group_name_H-M "P -1"
_symmetry_group_IT_number 2
_symmetry_cell_setting 'triclinic'
loop_
_space_group_symop_operation_xyz
x,y,z
-x,-y,-z
loop_
_atom_site_type_symbol
_atom_site_label
_atom_site_fract_x
_atom_site_fract_y
_atom_site_fract_z
Si Si1 0.536908 0.634346 0.728017
Si Si2 0.867644 0.344318 0.870059
Si Si3 0.121938 0.276564 0.040613
Si Si4 0.691416 0.027417 0.397533
Si Si5 0.388699 0.754892 0.288552
Si Si6 0.959355 0.834472 0.368468
O O1 0.350595 0.459229 0.895864
O O2 0.509190 0.790531 0.581393
O O3 0.541900 0.402013 0.736599
O O4 0.790320 0.924547 0.667411
O O5 0.938648 0.220909 0.988693
O O6 0.091378 0.622929 0.696955
O O7 0.679188 0.150677 0.840520
O O8 0.829700 0.516604 0.911764
O O9 0.012231 0.949946 0.195166
O O10 0.585360 0.003811 0.289157
O O11 0.805730 0.896528 0.402152
O O12 0.181845 0.497125 0.468278
#
# Coordination Sequence:
#
# PCOD9078790 Si02
#       6
#     2   2   2   2   2   2
#     4  11  18  35  63  90 109 152 199 238 282 340
#     4  10  21  43  58  83 119 158 186 236 297 345
#     4  10  22  35  63  84 121 152 187 240 298 340
#     4  10  20  37  63  86 113 153 199 232 285 343
#     4  11  20  38  67  82 113 155 200 234 281 347
#     4  10  18  36  58  88 111 150 189 239 285 333
#
# _framework density 29.307247
#
# number of rings (size 3 to 8) (size 9 to 14) (size 15 to 20)
#    0.000    1.667    5.000    3.500    0.000    0.667 
#    0.000   15.833    3.667    0.000    0.000    0.000 
#    0.000    0.000    0.000    0.000    0.000    0.000 
#
# Total GULP energy -67397.891982 kJ/mol
# GULP energy per Si atom -5616.490998 kJ/mol
# Density = 2.924054 g / cm^3
# Si number density = 29.307247 Si / 1000 Ang^3
#
#
#
# Elastic Constant Matrix: (Units=GPa)
#
#
# Indices 1 2 3 4 5 6 
#
# 1 99.7710 31.7739 54.9238 16.2772 9.3072 5.9123
# 2 31.7739 109.2949 45.4113 9.8437 2.4290 24.6030
# 3 54.9238 45.4113 239.3733 -13.4003 -12.0391 15.7987
# 4 16.2772 9.8437 -13.4003 64.6443 16.0328 7.3752
# 5 9.3072 2.4290 -12.0391 16.0328 66.5047 17.4392
# 6 5.9123 24.6030 15.7987 7.3752 17.4392 37.0697
#
#
#
# Elastic Compliance Matrix: (Units=1/GPa)
#
#
# Indices 1 2 3 4 5 6 
#
# 1 0.013129 -0.002872 -0.002941 -0.003245 -0.002203 0.002748
# 2 -0.002872 0.012285 -0.001092 -0.000978 0.002095 -0.008021
# 3 -0.002941 -0.001092 0.005389 0.001892 0.001550 -0.002209
# 4 -0.003245 -0.000978 0.001892 0.017770 -0.002988 -0.001769
# 5 -0.002203 0.002095 0.001550 -0.002988 0.018889 -0.009992
# 6 0.002748 -0.008021 -0.002209 -0.001769 -0.009992 0.037855
#
#
# Mechanical properties :
#
#
# Convention : Reuss Voigt Hill
#
# Bulk Modulus (GPa) = 58.84669 79.18414 69.01541
# Shear Modulus (GPa) = 40.06625 54.73241 47.39933
#
# Velocity S-wave (km/s) = 3.70146 4.32619 4.02596
# Velocity P-wave (km/s) = 6.19601 7.21331 6.72393
#
# Compressibility (1/GPa) = 0.01699331
#
# Stress axis : x y z
#
# Youngs Moduli (GPa) = 76.16728 81.39833 185.55556
#
# Poissons Ratio (x) = 0.23378 0.54580
# Poissons Ratio (y) = 0.21875 0.20256
# Poissons Ratio (z) = 0.22404 0.08886
#
# Static dielectric constant tensor:
#      x y z
#    x 2.379400 -0.029670 -0.085050 
#    y -0.029670 2.177260 0.019330 
#    z -0.085050 0.019330 2.297390 
# 
# From -- ./inp_files/155293.got.cif
#   From: 2010.05.17/outbox.cif.g08.bks.cpg/sg2_78_cif.got.tgz:155293.got - 2010.06.03 11:33:40.
