data_PCOD9078298
_publ_section_title
;
Structure prediction by ZEFSAII (Michael W. Deem and Ramdas Pophale) SiO2 
 PCOD9078298
Probable space group: P -1
;
_chemical_formula_sum "Si O2"
_cell_formula_units_Z 14
_cell_length_a 10.000987
_cell_length_b 8.414597
_cell_length_c 9.218714
_cell_angle_alpha 120.509798
_cell_angle_beta 65.926874
_cell_angle_gamma 119.181640
_cell_volume 570.131620
_symmetry_space_group_name_H-M "P -1"
_symmetry_group_IT_number 2
_symmetry_cell_setting 'triclinic'
loop_
_space_group_symop_operation_xyz
x,y,z
-x,-y,-z
loop_
_atom_site_type_symbol
_atom_site_label
_atom_site_fract_x
_atom_site_fract_y
_atom_site_fract_z
Si Si1 0.541788 0.024562 0.759994
Si Si2 0.953022 0.919632 0.823794
Si Si3 0.114875 0.900638 0.334607
Si Si4 0.753199 0.159135 0.375142
Si Si5 0.298803 0.470406 0.342524
Si Si6 0.849525 0.509265 0.289043
Si Si7 0.584726 0.341026 0.126135
O O1 0.409471 0.991501 0.682134
O O2 0.473595 0.834049 0.808513
O O3 0.711899 0.025368 0.642782
O O4 0.571144 0.224401 0.929011
O O5 0.827777 0.697890 0.771921
O O6 0.114321 0.924415 0.679690
O O7 0.838368 0.301607 0.266448
O O8 0.000000 0.000000 0.000000
O O9 0.021802 0.667704 0.280470
O O10 0.125256 0.958899 0.186139
O O11 0.000000 0.000000 0.500000
O O12 0.717621 0.317657 0.567414
O O13 0.248772 0.420995 0.511766
O O14 0.467823 0.461105 0.236788
O O15 0.757240 0.476202 0.164049
#
# Coordination Sequence:
#
# PCOD9078298 Si02
#       7
#     2   2   2   2   2   2   2
#     4  10  21  36  64  93 124 166 214 259 304 381
#     4  12  24  40  64  95 131 168 206 260 319 376
#     4  12  23  40  66  96 129 161 212 262 318 368
#     4   9  22  40  65  92 124 169 218 251 309 382
#     4  10  19  36  66  89 121 164 216 253 300 378
#     4   9  21  35  65  92 126 157 215 260 309 360
#     4  10  18  35  60  95 122 159 215 261 299 364
#
# _framework density 24.555730000000001
#
# number of rings (size 3 to 8) (size 9 to 14) (size 15 to 20)
#    0.857    0.857    2.857    1.714    6.000    0.571 
#    0.000    0.714    3.143    1.714    0.000    0.000 
#    0.000    0.000    0.000    0.000    0.000    0.000 
#
# Total GULP energy -78323.539244 kJ/mol
# GULP energy per Si atom -5594.538517 kJ/mol
# Density = 2.449984 g / cm^3
# Si number density = 24.555730 Si / 1000 Ang^3
#
#
#
# Elastic Constant Matrix: (Units=GPa)
#
#
# Indices 1 2 3 4 5 6 
#
# 1 110.5001 22.4521 6.9183 12.6426 -5.6022 20.2268
# 2 22.4521 78.9992 -5.0365 13.8110 5.2886 27.1602
# 3 6.9183 -5.0365 58.5189 16.2729 -5.2193 -6.4056
# 4 12.6426 13.8110 16.2729 27.8413 15.9815 7.8518
# 5 -5.6022 5.2886 -5.2193 15.9815 36.9974 -0.9513
# 6 20.2268 27.1602 -6.4056 7.8518 -0.9513 38.1479
#
#
#
# Elastic Compliance Matrix: (Units=1/GPa)
#
#
# Indices 1 2 3 4 5 6 
#
# 1 0.010814 -0.001057 0.000316 -0.006069 0.004363 -0.003570
# 2 -0.001057 0.017888 0.002671 -0.007433 0.000609 -0.010182
# 3 0.000316 0.002671 0.028287 -0.030425 0.017040 0.009367
# 4 -0.006069 -0.007433 -0.030425 0.089492 -0.043219 -0.016097
# 5 0.004363 0.000609 0.017040 -0.043219 0.048939 0.010231
# 6 -0.003570 -0.010182 0.009367 -0.016097 0.010231 0.040497
#
#
# Mechanical properties :
#
#
# Convention : Reuss Voigt Hill
#
# Bulk Modulus (GPa) = 16.43374 32.96510 24.69942
# Shear Modulus (GPa) = 19.81467 35.50961 27.66214
#
# Velocity S-wave (km/s) = 2.84373 3.80686 3.35999
# Velocity P-wave (km/s) = 4.18202 5.72509 5.01328
#
# Compressibility (1/GPa) = 0.06085042
#
# Stress axis : x y z
#
# Youngs Moduli (GPa) = 92.47523 55.90229 35.35237
#
# Poissons Ratio (x) = 0.05908 -0.01119
# Poissons Ratio (y) = 0.09773 -0.09443
# Poissons Ratio (z) = -0.02927 -0.14933
#
# Static dielectric constant tensor:
#      x y z
#    x 1.932430 -0.064100 0.031090 
#    y -0.064100 1.950940 -0.045890 
#    z 0.031090 -0.045890 1.982790 
# 
# From -- ./inp_files/382594.got.cif
#   From: 2010.05.17/outbox.cif.g08.bks.cpg/sg2_192_cif.got.tgz:382594.got - 2010.06.03 11:33:40.
