data_PCOD9078693
_publ_section_title
;
Structure prediction by ZEFSAII (Michael W. Deem and Ramdas Pophale) SiO2 
 PCOD9078693
Probable space group: P -1
;
_chemical_formula_sum "Si O2"
_cell_formula_units_Z 15
_cell_length_a 15.401611
_cell_length_b 7.812672
_cell_length_c 12.301805
_cell_angle_alpha 51.881098
_cell_angle_beta 29.493603
_cell_angle_gamma 53.305935
_cell_volume 566.365580
_symmetry_space_group_name_H-M "P -1"
_symmetry_group_IT_number 2
_symmetry_cell_setting 'triclinic'
loop_
_space_group_symop_operation_xyz
x,y,z
-x,-y,-z
loop_
_atom_site_type_symbol
_atom_site_label
_atom_site_fract_x
_atom_site_fract_y
_atom_site_fract_z
Si Si1 0.910056 0.724492 0.877483
Si Si2 0.536068 0.680816 0.740698
Si Si3 0.000000 0.000000 0.000000
Si Si4 0.293271 0.535064 0.631589
Si Si5 0.418160 0.842371 0.544298
Si Si6 0.697057 0.621898 0.811401
Si Si7 0.058015 0.387047 0.721459
Si Si8 0.976471 0.189997 0.666646
O O1 0.116865 0.645480 0.718320
O O2 0.920622 0.608368 0.792979
O O3 0.888088 0.983762 0.809505
O O4 0.775701 0.614098 0.140109
O O5 0.550249 0.707216 0.847339
O O6 0.743032 0.588625 0.529179
O O7 0.496770 0.933410 0.644408
O O8 0.407119 0.498969 0.937604
O O9 0.221466 0.907774 0.782436
O O10 0.043016 0.240540 0.901478
O O11 0.379096 0.733224 0.513573
O O12 0.444964 0.360859 0.474575
O O13 0.829690 0.803726 0.599392
O O14 0.843463 0.411231 0.697265
O O15 0.006423 0.202659 0.762407
#
# Coordination Sequence:
#
# PCOD9078693 Si02
#       8
#     2   2   1   2   2   2   2   2
#     4  11  21  38  58  86 124 161 191 247 291 358
#     4   9  18  35  59  81 116 150 199 248 297 342
#     4  10  18  36  56  80 124 158 182 246 288 336
#     4  10  21  34  56  87 124 160 200 229 299 363
#     4  10  19  36  58  88 119 160 194 242 294 363
#     4   9  18  37  59  84 109 155 201 253 293 350
#     4  10  21  36  57  85 117 156 193 239 294 354
#     4  10  21  37  62  83 115 155 201 243 302 346
#
# _framework density 26.484659000000001
#
# number of rings (size 3 to 8) (size 9 to 14) (size 15 to 20)
#    0.000    2.133    1.333    3.200    1.867    0.000 
#    2.400    8.000    0.000    0.000    0.000    0.000 
#    0.000    0.000    0.000    0.000    0.000    0.000 
#
# Total GULP energy -83575.134475 kJ/mol
# GULP energy per Si atom -5571.675632 kJ/mol
# Density = 2.642438 g / cm^3
# Si number density = 26.484659 Si / 1000 Ang^3
#
#
#
# Elastic Constant Matrix: (Units=GPa)
#
#
# Indices 1 2 3 4 5 6 
#
# 1 46.5167 21.0083 17.2950 10.4654 -9.7301 -5.9929
# 2 21.0083 123.5746 36.7938 0.7402 3.4806 15.6993
# 3 17.2950 36.7938 161.8724 -10.2044 -9.9755 3.1967
# 4 10.4654 0.7402 -10.2044 40.7172 -7.7967 -12.4245
# 5 -9.7301 3.4806 -9.9755 -7.7967 30.0650 1.4294
# 6 -5.9929 15.6993 3.1967 -12.4245 1.4294 47.3159
#
#
#
# Elastic Compliance Matrix: (Units=1/GPa)
#
#
# Indices 1 2 3 4 5 6 
#
# 1 0.027434 -0.004785 -0.001766 -0.004865 0.007410 0.003680
# 2 -0.004785 0.010135 -0.002018 -0.001389 -0.003558 -0.004090
# 3 -0.001766 -0.002018 0.007175 0.003030 0.002796 0.000672
# 4 -0.004865 -0.001389 0.003030 0.030193 0.007072 0.007355
# 5 0.007410 -0.003558 0.002796 0.007072 0.038709 0.002618
# 6 0.003680 -0.004090 0.000672 0.007355 0.002618 0.024764
#
#
# Mechanical properties :
#
#
# Convention : Reuss Voigt Hill
#
# Bulk Modulus (GPa) = 36.22589 53.57310 44.89950
# Shear Modulus (GPa) = 30.34873 40.74405 35.54639
#
# Velocity S-wave (km/s) = 3.38878 3.92650 3.66751
# Velocity P-wave (km/s) = 5.38698 6.38971 5.90965
#
# Compressibility (1/GPa) = 0.02760457
#
# Stress axis : x y z
#
# Youngs Moduli (GPa) = 36.45087 98.66918 139.36798
#
# Poissons Ratio (x) = 0.47215 0.24615
# Poissons Ratio (y) = 0.17443 0.28131
# Poissons Ratio (z) = 0.06438 0.19916
#
# Static dielectric constant tensor:
#      x y z
#    x 2.354440 0.269870 0.013510 
#    y 0.269870 1.990170 0.153360 
#    z 0.013510 0.153360 1.922260 
# 
# From -- ./inp_files/294582.got.cif
#   From: 2010.05.17/outbox.cif.g08.bks.cpg/sg2_148_cif.got.tgz:294582.got - 2010.06.03 11:33:40.
