data_PCOD9078029
_publ_section_title
;
Structure prediction by ZEFSAII (Michael W. Deem and Ramdas Pophale) SiO2 
 PCOD9078029
Probable space group: P -1
;
_chemical_formula_sum "Si O2"
_cell_formula_units_Z 16
_cell_length_a 13.171949
_cell_length_b 12.513537
_cell_length_c 9.835447
_cell_angle_alpha 128.800414
_cell_angle_beta 130.501776
_cell_angle_gamma 54.888020
_cell_volume 921.170283
_symmetry_space_group_name_H-M "P -1"
_symmetry_group_IT_number 2
_symmetry_cell_setting 'triclinic'
loop_
_space_group_symop_operation_xyz
x,y,z
-x,-y,-z
loop_
_atom_site_type_symbol
_atom_site_label
_atom_site_fract_x
_atom_site_fract_y
_atom_site_fract_z
Si Si1 0.403463 0.323043 0.836476
Si Si2 0.011787 0.860809 0.805760
Si Si3 0.669543 0.834088 0.115396
Si Si4 0.308218 0.648544 0.962394
Si Si5 0.334006 0.819863 0.373114
Si Si6 0.427334 0.111872 0.221798
Si Si7 0.904921 0.978369 0.521548
Si Si8 0.293216 0.108902 0.388800
O O1 0.340798 0.298056 0.907275
O O2 0.331311 0.479940 0.839781
O O3 0.375200 0.204046 0.615759
O O4 0.567145 0.311449 0.977609
O O5 0.997200 0.907627 0.673762
O O6 0.871725 0.817255 0.683065
O O7 0.156028 0.743022 0.863552
O O8 0.000000 0.000000 0.000000
O O9 0.804474 0.883098 0.312592
O O10 0.535332 0.961962 0.150275
O O11 0.657455 0.822444 0.933728
O O12 0.330663 0.690434 0.171006
O O13 0.473518 0.796430 0.562493
O O14 0.201048 0.874368 0.398321
O O15 0.322736 0.957673 0.373578
O O16 0.338285 0.089328 0.255809
O O17 0.000000 0.000000 0.500000
#
# Coordination Sequence:
#
# PCOD9078029 Si02
#       8
#     2   2   2   2   2   2   2   2
#     4  11  22  40  59  84 121 157 189 243 283 347
#     4  11  22  36  60  91 111 150 195 244 287 338
#     4  10  21  35  53  88 114 153 193 240 287 337
#     4  11  23  36  62  87 119 152 197 235 294 335
#     4  10  18  35  57  88 110 149 194 244 280 335
#     4  10  19  31  61  84 109 147 200 238 278 340
#     4  10  21  35  56  85 120 144 186 248 294 333
#     4  11  19  36  62  83 114 147 197 243 285 337
#
# _framework density 17.369209000000001
#
# number of rings (size 3 to 8) (size 9 to 14) (size 15 to 20)
#    0.000    1.500    7.500    1.125    1.750    2.500 
#    0.000    0.625    2.750    1.500    0.000    0.000 
#    0.000    0.000    0.000    0.000    0.000    0.000 
#
# Total GULP energy -89283.144693 kJ/mol
# GULP energy per Si atom -5580.196543 kJ/mol
# Density = 1.732968 g / cm^3
# Si number density = 17.369209 Si / 1000 Ang^3
#
#
#
# Elastic Constant Matrix: (Units=GPa)
#
#
# Indices 1 2 3 4 5 6 
#
# 1 130.7045 39.0280 30.5491 -11.5992 -7.7561 16.2050
# 2 39.0280 51.9435 28.3713 -8.9973 7.1143 -0.1274
# 3 30.5491 28.3713 76.9251 -22.0573 -9.4623 10.0497
# 4 -11.5992 -8.9973 -22.0573 29.3714 3.5839 0.0125
# 5 -7.7561 7.1143 -9.4623 3.5839 31.6929 -9.7361
# 6 16.2050 -0.1274 10.0497 0.0125 -9.7361 28.0562
#
#
#
# Elastic Compliance Matrix: (Units=1/GPa)
#
#
# Indices 1 2 3 4 5 6 
#
# 1 0.011188 -0.008709 0.000330 0.001650 0.002878 -0.005622
# 2 -0.008709 0.033293 -0.010897 -0.000052 -0.011262 0.005177
# 3 0.000330 -0.010897 0.022020 0.012625 0.005793 -0.006123
# 4 0.001650 -0.000052 0.012625 0.044512 -0.002840 -0.006481
# 5 0.002878 -0.011262 0.005793 -0.002840 0.039929 0.010069
# 6 -0.005622 0.005177 -0.006123 -0.006481 0.010069 0.044604
#
#
# Mechanical properties :
#
#
# Convention : Reuss Voigt Hill
#
# Bulk Modulus (GPa) = 35.77789 50.60777 43.19283
# Shear Modulus (GPa) = 20.54102 28.59909 24.57006
#
# Velocity S-wave (km/s) = 3.44264 4.06216 3.76516
# Velocity P-wave (km/s) = 6.03702 7.15551 6.61992
#
# Compressibility (1/GPa) = 0.02795022
#
# Stress axis : x y z
#
# Youngs Moduli (GPa) = 89.37837 30.03599 45.41346
#
# Poissons Ratio (x) = 0.26159 -0.01501
# Poissons Ratio (y) = 0.77841 0.49488
# Poissons Ratio (z) = -0.02954 0.32731
#
# Static dielectric constant tensor:
#      x y z
#    x 1.611040 -0.003630 0.007620 
#    y -0.003630 1.582900 -0.007760 
#    z 0.007620 -0.007760 1.606390 
# 
# From -- ./inp_files/260320.got.cif
#   From: 2010.05.17/outbox.cif.g08.bks.cpg/sg2_131_cif.got.tgz:260320.got - 2010.06.03 11:33:40.
