data_PCOD9078730
_publ_section_title
;
Structure prediction by ZEFSAII (Michael W. Deem and Ramdas Pophale) SiO2 
 PCOD9078730
Probable space group: P -1
;
_chemical_formula_sum "Si O2"
_cell_formula_units_Z 14
_cell_length_a 16.985535
_cell_length_b 6.850394
_cell_length_c 12.253139
_cell_angle_alpha 53.273897
_cell_angle_beta 29.057050
_cell_angle_gamma 57.784120
_cell_volume 554.808718
_symmetry_space_group_name_H-M "P -1"
_symmetry_group_IT_number 2
_symmetry_cell_setting 'triclinic'
loop_
_space_group_symop_operation_xyz
x,y,z
-x,-y,-z
loop_
_atom_site_type_symbol
_atom_site_label
_atom_site_fract_x
_atom_site_fract_y
_atom_site_fract_z
Si Si1 0.223402 0.911057 0.173328
Si Si2 0.448549 0.354195 0.468806
Si Si3 0.895546 0.728821 0.616830
Si Si4 0.461678 0.884265 0.330289
Si Si5 0.894446 0.992862 0.302618
Si Si6 0.860019 0.676302 0.040993
Si Si7 0.801447 0.316077 0.027841
O O1 0.176423 0.056419 0.290754
O O2 0.169441 0.079426 0.079826
O O3 0.417496 0.910376 0.926481
O O4 0.091871 0.701933 0.402845
O O5 0.459773 0.645332 0.333942
O O6 0.472203 0.255490 0.596836
O O7 0.256513 0.313227 0.714631
O O8 0.615644 0.234074 0.260291
O O9 0.863721 0.830091 0.501529
O O10 0.824265 0.495044 0.838012
O O11 0.283089 0.984022 0.541460
O O12 0.044860 0.867768 0.098644
O O13 0.956160 0.265643 0.165305
O O14 0.818570 0.471677 0.068067
#
# Coordination Sequence:
#
# PCOD9078730 Si02
#       7
#     2   2   2   2   2   2   2
#     4   8  15  32  61  76 103 156 181 208 278 332
#     4  10  18  39  62  73 111 156 180 214 285 331
#     4   9  17  34  55  82 109 145 184 220 265 333
#     4  10  18  36  57  84 108 145 184 228 272 325
#     4  11  24  31  58  91 109 135 190 233 266 313
#     4   9  18  38  58  79 109 146 184 223 269 329
#     4  11  19  38  60  78 113 151 177 221 278 328
#
# _framework density 25.233920999999999
#
# number of rings (size 3 to 8) (size 9 to 14) (size 15 to 20)
#    0.000    2.286    5.714    1.286    0.000    2.286 
#    0.000    0.714    9.429    0.000    0.000    0.000 
#    0.000    0.000    0.000    0.000    0.000    0.000 
#
# Total GULP energy -77964.865616 kJ/mol
# GULP energy per Si atom -5568.918973 kJ/mol
# Density = 2.517649 g / cm^3
# Si number density = 25.233921 Si / 1000 Ang^3
#
#
#
# Elastic Constant Matrix: (Units=GPa)
#
#
# Indices 1 2 3 4 5 6 
#
# 1 30.3565 10.8486 23.9535 3.3840 3.9903 0.2820
# 2 10.8486 53.2967 36.2447 19.4150 3.0607 -0.5300
# 3 23.9535 36.2447 204.9578 5.1643 -14.4760 -8.3620
# 4 3.3840 19.4150 5.1643 52.7128 -6.9785 1.3819
# 5 3.9903 3.0607 -14.4760 -6.9785 35.9795 10.1111
# 6 0.2820 -0.5300 -8.3620 1.3819 10.1111 18.7546
#
#
#
# Elastic Compliance Matrix: (Units=1/GPa)
#
#
# Indices 1 2 3 4 5 6 
#
# 1 0.038651 -0.004202 -0.004136 -0.001357 -0.006093 0.000841
# 2 -0.004202 0.026566 -0.004276 -0.010012 -0.006313 0.003049
# 3 -0.004136 -0.004276 0.006354 0.001659 0.003483 0.000774
# 4 -0.001357 -0.010012 0.001659 0.023762 0.007821 -0.005491
# 5 -0.006093 -0.006313 0.003483 0.007821 0.037331 -0.019236
# 6 0.000841 0.003049 0.000774 -0.005491 -0.019236 0.064514
#
#
# Mechanical properties :
#
#
# Convention : Reuss Voigt Hill
#
# Bulk Modulus (GPa) = 21.57804 47.85608 34.71706
# Shear Modulus (GPa) = 21.02116 35.99365 28.50741
#
# Velocity S-wave (km/s) = 2.88939 3.78087 3.36479
# Velocity P-wave (km/s) = 4.43861 6.16977 5.37435
#
# Compressibility (1/GPa) = 0.04634341
#
# Stress axis : x y z
#
# Youngs Moduli (GPa) = 25.87223 37.64182 157.37091
#
# Poissons Ratio (x) = 0.15819 0.65087
# Poissons Ratio (y) = 0.10872 0.67293
# Poissons Ratio (z) = 0.10700 0.16096
#
# Static dielectric constant tensor:
#      x y z
#    x 2.094370 0.078410 -0.090100 
#    y 0.078410 2.108230 0.046640 
#    z -0.090100 0.046640 2.046280 
# 
# From -- ./inp_files/177531.got.cif
#   From: 2010.05.17/outbox.cif.g08.bks.cpg/sg2_89_cif.got.tgz:177531.got - 2010.06.03 11:33:40.
