data_PCOD9078302
_publ_section_title
;
Structure prediction by ZEFSAII (Michael W. Deem and Ramdas Pophale) SiO2 
 PCOD9078302
Probable space group: P -1
;
_chemical_formula_sum "Si O2"
_cell_formula_units_Z 12
_cell_length_a 15.879546
_cell_length_b 7.518484
_cell_length_c 15.437905
_cell_angle_alpha 51.973216
_cell_angle_beta 18.421153
_cell_angle_gamma 55.043855
_cell_volume 458.301386
_symmetry_space_group_name_H-M "P -1"
_symmetry_group_IT_number 2
_symmetry_cell_setting 'triclinic'
loop_
_space_group_symop_operation_xyz
x,y,z
-x,-y,-z
loop_
_atom_site_type_symbol
_atom_site_label
_atom_site_fract_x
_atom_site_fract_y
_atom_site_fract_z
Si Si1 0.809161 0.398601 0.452850
Si Si2 0.400218 0.829353 0.895355
Si Si3 0.941580 0.769108 0.478529
Si Si4 0.952513 0.928910 0.167107
Si Si5 0.745709 0.354966 0.326937
Si Si6 0.324987 0.312374 0.064489
O O1 0.734300 0.338679 0.446382
O O2 0.609413 0.282012 0.752628
O O3 0.824159 0.672372 0.369129
O O4 0.106397 0.325120 0.199763
O O5 0.223571 0.877965 0.138828
O O6 0.711261 0.838231 0.615865
O O7 0.359537 0.564689 0.993295
O O8 0.225845 0.936971 0.955568
O O9 0.000000 0.500000 0.500000
O O10 0.815684 0.819507 0.679173
O O11 0.763294 0.114231 0.335742
O O12 0.000000 0.000000 0.000000
O O13 0.500000 0.500000 0.500000
O O14 0.000000 0.500000 0.000000
#
# Coordination Sequence:
#
# PCOD9078302 Si02
#       6
#     2   2   2   2   2   2
#     4  11  23  41  67  99 132 170 225 263 338 392
#     4  10  20  34  60  96 134 170 222 271 330 391
#     4  10  18  35  60  98 134 168 220 276 326 394
#     4  11  25  46  69  99 137 181 225 281 331 403
#     4  12  27  46  67  96 135 179 225 281 335 391
#     4  10  19  36  64  95 131 172 213 273 323 399
#
# _framework density 26.183644000000001
#
# number of rings (size 3 to 8) (size 9 to 14) (size 15 to 20)
#    0.000    1.333    1.667    7.000    2.333    4.667 
#    0.000    0.000    0.000    6.000    0.000    0.000 
#    0.000    0.000    0.000    0.000    0.000    0.000 
#
# Total GULP energy -67186.173591 kJ/mol
# GULP energy per Si atom -5598.847799 kJ/mol
# Density = 2.612405 g / cm^3
# Si number density = 26.183644 Si / 1000 Ang^3
#
#
#
# Elastic Constant Matrix: (Units=GPa)
#
#
# Indices 1 2 3 4 5 6 
#
# 1 122.8274 56.2265 27.5294 9.6409 18.7372 -4.8899
# 2 56.2265 194.0044 53.0215 38.9289 0.5858 18.1586
# 3 27.5294 53.0215 166.6926 26.9876 3.4007 -5.7583
# 4 9.6409 38.9289 26.9876 25.4340 -11.5597 5.0012
# 5 18.7372 0.5858 3.4007 -11.5597 54.1730 7.7792
# 6 -4.8899 18.1586 -5.7583 5.0012 7.7792 32.8780
#
#
#
# Elastic Compliance Matrix: (Units=1/GPa)
#
#
# Indices 1 2 3 4 5 6 
#
# 1 0.010662 -0.002986 -0.000154 -0.002438 -0.004844 0.004725
# 2 -0.002986 0.008810 -0.000531 -0.011580 -0.001011 -0.003402
# 3 -0.000154 -0.000531 0.007968 -0.009743 -0.003077 0.003876
# 4 -0.002438 -0.011580 -0.009743 0.080122 0.020502 -0.012712
# 5 -0.004844 -0.001011 -0.003077 0.020502 0.026151 -0.010007
# 6 0.004725 -0.003402 0.003876 -0.012712 -0.010007 0.037978
#
#
# Mechanical properties :
#
#
# Convention : Reuss Voigt Hill
#
# Bulk Modulus (GPa) = 49.76087 84.11990 66.94039
# Shear Modulus (GPa) = 26.92047 45.61345 36.26696
#
# Velocity S-wave (km/s) = 3.20994 4.17833 3.72573
# Velocity P-wave (km/s) = 5.72574 7.44812 6.64299
#
# Compressibility (1/GPa) = 0.02009611
#
# Stress axis : x y z
#
# Youngs Moduli (GPa) = 93.79521 113.50269 125.50805
#
# Poissons Ratio (x) = 0.33895 0.01935
# Poissons Ratio (y) = 0.28010 0.06668
# Poissons Ratio (z) = 0.01446 0.06031
#
# Static dielectric constant tensor:
#      x y z
#    x 2.035360 -0.019480 0.044660 
#    y -0.019480 2.134870 -0.145720 
#    z 0.044660 -0.145720 2.161390 
# 
# From -- ./inp_files/526330.got.cif
#   From: 2010.05.17/outbox.cif.g08.bks.cpg/sg2_264_cif.got.tgz:526330.got - 2010.06.03 11:33:40.
