data_PCOD9078228
_publ_section_title
;
Structure prediction by ZEFSAII (Michael W. Deem and Ramdas Pophale) SiO2 
 PCOD9078228
Probable space group: P -1
;
_chemical_formula_sum "Si O2"
_cell_formula_units_Z 14
_cell_length_a 5.181313
_cell_length_b 20.818573
_cell_length_c 8.776650
_cell_angle_alpha 56.331777
_cell_angle_beta 118.253082
_cell_angle_gamma 135.581258
_cell_volume 546.569205
_symmetry_space_group_name_H-M "P -1"
_symmetry_group_IT_number 2
_symmetry_cell_setting 'triclinic'
loop_
_space_group_symop_operation_xyz
x,y,z
-x,-y,-z
loop_
_atom_site_type_symbol
_atom_site_label
_atom_site_fract_x
_atom_site_fract_y
_atom_site_fract_z
Si Si1 0.539231 0.582703 0.504567
Si Si2 0.306606 0.050216 0.385810
Si Si3 0.252726 0.780992 0.307255
Si Si4 0.789916 0.329259 0.848632
Si Si5 0.960715 0.861512 0.964622
Si Si6 0.398532 0.213242 0.328996
Si Si7 0.950838 0.583411 0.881245
O O1 0.500000 0.500000 0.500000
O O2 0.910037 0.693847 0.426425
O O3 0.233039 0.594383 0.351817
O O4 0.609543 0.562588 0.718495
O O5 0.120212 0.060176 0.172235
O O6 0.574646 0.162872 0.371235
O O7 0.500000 0.000000 0.500000
O O8 0.000000 0.000000 0.500000
O O9 0.162802 0.726470 0.193466
O O10 0.606062 0.805653 0.467535
O O11 0.265031 0.873454 0.145114
O O12 0.405107 0.240787 0.938034
O O13 0.056572 0.384015 0.993797
O O14 0.964132 0.838792 0.813804
O O15 0.673558 0.326185 0.217150
O O16 0.000000 0.500000 0.000000
#
# Coordination Sequence:
#
# PCOD9078228 Si02
#       7
#     2   2   2   2   2   2   2
#     4  10  20  35  52  78 121 152 204 261 301 368
#     4  10  22  42  69  96 129 169 212 266 328 387
#     4  10  20  37  58  85 116 159 208 252 317 370
#     4  10  20  35  57  83 112 161 201 251 309 367
#     4   8  20  37  61  82 119 155 197 251 313 368
#     4   8  20  39  59  88 122 160 203 258 316 371
#     4  10  18  35  60  81 120 163 200 251 312 376
#
# _framework density 25.614321
#
# number of rings (size 3 to 8) (size 9 to 14) (size 15 to 20)
#    0.857    1.714    1.429    0.000    2.000    1.714 
#    7.714    2.143    0.000    0.000    0.000    0.000 
#    0.000    0.000    0.000    0.000    0.000    0.000 
#
# Total GULP energy -78058.583160 kJ/mol
# GULP energy per Si atom -5575.613083 kJ/mol
# Density = 2.555602 g / cm^3
# Si number density = 25.614321 Si / 1000 Ang^3
#
#
#
# Elastic Constant Matrix: (Units=GPa)
#
#
# Indices 1 2 3 4 5 6 
#
# 1 60.4390 18.8410 46.5906 -5.2413 12.4091 -8.0469
# 2 18.8410 65.8771 39.1730 -10.2985 12.5988 -5.8140
# 3 46.5906 39.1730 230.2926 -8.4921 19.5866 -6.5583
# 4 -5.2413 -10.2985 -8.4921 64.9929 -12.7277 5.5654
# 5 12.4091 12.5988 19.5866 -12.7277 32.2559 -4.7958
# 6 -8.0469 -5.8140 -6.5583 5.5654 -4.7958 33.5650
#
#
#
# Elastic Compliance Matrix: (Units=1/GPa)
#
#
# Indices 1 2 3 4 5 6 
#
# 1 0.021440 -0.003009 -0.003345 -0.000392 -0.004697 0.003359
# 2 -0.003009 0.018389 -0.002090 0.001514 -0.003975 0.001237
# 3 -0.003345 -0.002090 0.005474 -0.000119 -0.001307 -0.000261
# 4 -0.000392 0.001514 -0.000119 0.016916 0.006039 -0.001797
# 5 -0.004697 -0.003975 -0.001307 0.006039 0.037886 0.002342
# 6 0.003359 0.001237 -0.000261 -0.001797 0.002342 0.031394
#
#
# Mechanical properties :
#
#
# Convention : Reuss Voigt Hill
#
# Bulk Modulus (GPa) = 35.19400 62.86866 49.03133
# Shear Modulus (GPa) = 31.67390 42.96304 37.31847
#
# Velocity S-wave (km/s) = 3.52030 4.09994 3.82113
# Velocity P-wave (km/s) = 5.50393 6.85640 6.21705
#
# Compressibility (1/GPa) = 0.02841393
#
# Stress axis : x y z
#
# Youngs Moduli (GPa) = 46.64226 54.37958 182.68743
#
# Poissons Ratio (x) = 0.16365 0.61107
# Poissons Ratio (y) = 0.14037 0.38184
# Poissons Ratio (z) = 0.15601 0.11366
#
# Static dielectric constant tensor:
#      x y z
#    x 2.115030 0.046800 0.042020 
#    y 0.046800 2.096960 0.024160 
#    z 0.042020 0.024160 2.143940 
# 
# From -- ./inp_files/141998.got.cif
#   From: 2010.05.17/outbox.cif.g08.bks.cpg/sg2_71_cif.got.tgz:141998.got - 2010.06.03 11:33:40.
