data_PCOD9078032
_publ_section_title
;
Structure prediction by ZEFSAII (Michael W. Deem and Ramdas Pophale) SiO2 
 PCOD9078032
Probable space group: P -1
;
_chemical_formula_sum "Si O2"
_cell_formula_units_Z 14
_cell_length_a 14.391723
_cell_length_b 22.234632
_cell_length_c 8.484023
_cell_angle_alpha 151.360950
_cell_angle_beta 45.167876
_cell_angle_gamma 152.281054
_cell_volume 572.886538
_symmetry_space_group_name_H-M "P -1"
_symmetry_group_IT_number 2
_symmetry_cell_setting 'triclinic'
loop_
_space_group_symop_operation_xyz
x,y,z
-x,-y,-z
loop_
_atom_site_type_symbol
_atom_site_label
_atom_site_fract_x
_atom_site_fract_y
_atom_site_fract_z
Si Si1 0.234866 0.605887 0.242637
Si Si2 0.653480 0.729738 0.389045
Si Si3 0.979781 0.333346 0.664892
Si Si4 0.064521 0.942656 0.480491
Si Si5 0.542097 0.178477 0.205980
Si Si6 0.652319 0.008070 0.524051
Si Si7 0.940377 0.270066 0.228755
O O1 0.360743 0.691935 0.452281
O O2 0.062061 0.582680 0.438611
O O3 0.411268 0.786594 0.322906
O O4 0.118180 0.411415 0.835226
O O5 0.507395 0.734992 0.635989
O O6 0.847331 0.853524 0.563449
O O7 0.784525 0.871196 0.398480
O O8 0.500000 0.500000 0.000000
O O9 0.746212 0.111655 0.480405
O O10 0.031487 0.308724 0.380723
O O11 0.000000 0.500000 0.000000
O O12 0.209643 0.997258 0.570461
O O13 0.971069 0.749139 0.056781
O O14 0.664882 0.151315 0.930207
O O15 0.309286 0.947913 0.985167
#
# Coordination Sequence:
#
# PCOD9078032 Si02
#       7
#     2   2   2   2   2   2   2
#     4  10  18  35  57  89 118 145 195 245 284 346
#     4  10  22  35  55  92 120 146 192 255 287 339
#     4  10  24  34  52  94 130 148 186 243 307 348
#     4  10  20  38  63  85 112 159 199 233 298 345
#     4  10  19  36  64  90 115 149 201 245 288 343
#     4  11  20  37  66  88 115 158 193 246 295 344
#     4   9  17  37  56  84 123 150 184 246 287 349
#
# _framework density 24.437649
#
# number of rings (size 3 to 8) (size 9 to 14) (size 15 to 20)
#    0.000    2.000    4.286    0.857    2.000    8.000 
#    0.000    1.429    0.000    8.571    0.000    0.000 
#    0.000    0.000    0.000    0.000    0.000    0.000 
#
# Total GULP energy -78086.652494 kJ/mol
# GULP energy per Si atom -5577.618035 kJ/mol
# Density = 2.438203 g / cm^3
# Si number density = 24.437649 Si / 1000 Ang^3
#
#
#
# Elastic Constant Matrix: (Units=GPa)
#
#
# Indices 1 2 3 4 5 6 
#
# 1 99.3254 13.7784 8.0860 -3.6344 0.3697 19.4035
# 2 13.7784 58.8857 8.8384 32.2645 -7.0090 -12.1325
# 3 8.0860 8.8384 59.7201 23.1786 16.3885 7.4255
# 4 -3.6344 32.2645 23.1786 41.5469 -9.7819 -2.3185
# 5 0.3697 -7.0090 16.3885 -9.7819 39.8604 -0.7983
# 6 19.4035 -12.1325 7.4255 -2.3185 -0.7983 20.8216
#
#
#
# Elastic Compliance Matrix: (Units=1/GPa)
#
#
# Indices 1 2 3 4 5 6 
#
# 1 0.017844 -0.016905 -0.003649 0.015842 0.001782 -0.023345
# 2 -0.016905 0.051848 0.009196 -0.045974 -0.005041 0.037373
# 3 -0.003649 0.009196 0.035324 -0.032581 -0.021034 -0.008273
# 4 0.015842 -0.045974 -0.032581 0.084233 0.025444 -0.019577
# 5 0.001782 -0.005041 -0.021034 0.025444 0.039222 0.007240
# 6 -0.023345 0.037373 -0.008273 -0.019577 0.007240 0.092608
#
#
# Mechanical properties :
#
#
# Convention : Reuss Voigt Hill
#
# Bulk Modulus (GPa) = 12.15092 31.03742 21.59417
# Shear Modulus (GPa) = 13.46882 32.92766 23.19824
#
# Velocity S-wave (km/s) = 2.35021 3.67470 3.08439
# Velocity P-wave (km/s) = 3.51392 5.54371 4.64114
#
# Compressibility (1/GPa) = 0.08229828
#
# Stress axis : x y z
#
# Youngs Moduli (GPa) = 56.04232 19.28725 28.30907
#
# Poissons Ratio (x) = 0.32606 0.10330
# Poissons Ratio (y) = 0.94741 -0.26032
# Poissons Ratio (z) = 0.20450 -0.17736
#
# Static dielectric constant tensor:
#      x y z
#    x 2.086680 -0.003020 -0.045400 
#    y -0.003020 1.999800 0.017740 
#    z -0.045400 0.017740 1.976080 
# 
# From -- ./inp_files/199678.got.cif
#   From: 2010.05.17/outbox.cif.g08.bks.cpg/sg2_100_cif.got.tgz:199678.got - 2010.06.03 11:33:40.
