data_PCOD9078961
_publ_section_title
;
Structure prediction by ZEFSAII (Michael W. Deem and Ramdas Pophale) SiO2 
 PCOD9078961
Probable space group: P -1
;
_chemical_formula_sum "Si O2"
_cell_formula_units_Z 13
_cell_length_a 14.628764
_cell_length_b 6.875814
_cell_length_c 8.561032
_cell_angle_alpha 80.422901
_cell_angle_beta 133.772604
_cell_angle_gamma 71.799463
_cell_volume 490.360496
_symmetry_space_group_name_H-M "P -1"
_symmetry_group_IT_number 2
_symmetry_cell_setting 'triclinic'
loop_
_space_group_symop_operation_xyz
x,y,z
-x,-y,-z
loop_
_atom_site_type_symbol
_atom_site_label
_atom_site_fract_x
_atom_site_fract_y
_atom_site_fract_z
Si Si1 0.026299 0.533441 0.761765
Si Si2 0.396591 0.682548 0.492236
Si Si3 0.500000 0.000000 0.000000
Si Si4 0.731394 0.571147 0.445976
Si Si5 0.896714 0.937689 0.795789
Si Si6 0.308267 0.449883 0.960182
Si Si7 0.779789 0.046676 0.295962
O O1 0.916396 0.444689 0.663118
O O2 0.202956 0.387686 0.930597
O O3 0.007338 0.666757 0.886207
O O4 0.924658 0.759094 0.484423
O O5 0.500000 0.500000 0.500000
O O6 0.315941 0.563056 0.486328
O O7 0.246321 0.969825 0.264838
O O8 0.524616 0.662525 0.755531
O O9 0.624176 0.858564 0.321737
O O10 0.618904 0.079771 0.069040
O O11 0.662041 0.639982 0.173499
O O12 0.810084 0.080745 0.509190
O O13 0.000000 0.000000 0.000000
O O14 0.219947 0.745387 0.820083
#
# Coordination Sequence:
#
# PCOD9078961 Si02
#       7
#     2   2   1   2   2   2   2
#     4   9  22  37  64  93 127 159 211 258 327 371
#     4  12  25  40  65  94 126 173 219 260 318 382
#     4  10  18  36  60  98 118 162 200 280 310 360
#     4  11  21  39  65  93 132 160 212 269 319 371
#     4  10  21  42  59  87 132 172 206 253 322 390
#     4  12  20  39  67  99 120 165 220 268 313 384
#     4   9  19  34  66  87 124 159 211 250 323 362
#
# _framework density 26.511106999999999
#
# number of rings (size 3 to 8) (size 9 to 14) (size 15 to 20)
#    0.923    0.615    3.077    3.231    0.000    0.000 
#    0.000    3.846    0.000    0.000    0.000    0.000 
#    0.000    0.000    0.000    0.000    0.000    0.000 
#
# Total GULP energy -72391.746741 kJ/mol
# GULP energy per Si atom -5568.595903 kJ/mol
# Density = 2.645077 g / cm^3
# Si number density = 26.511107 Si / 1000 Ang^3
#
#
#
# Elastic Constant Matrix: (Units=GPa)
#
#
# Indices 1 2 3 4 5 6 
#
# 1 176.6656 54.2715 68.3096 9.8044 53.8458 3.9685
# 2 54.2715 69.5412 22.8703 22.7810 3.7424 -12.0140
# 3 68.3096 22.8703 132.1295 26.6635 43.8625 1.0213
# 4 9.8044 22.7810 26.6635 45.6834 4.9836 -6.9969
# 5 53.8458 3.7424 43.8625 4.9836 47.2767 2.0471
# 6 3.9685 -12.0140 1.0213 -6.9969 2.0471 42.9308
#
#
#
# Elastic Compliance Matrix: (Units=1/GPa)
#
#
# Indices 1 2 3 4 5 6 
#
# 1 0.013828 -0.011645 -0.001477 0.004739 -0.013824 -0.003070
# 2 -0.011645 0.027869 -0.000779 -0.011342 0.012697 0.006440
# 3 -0.001477 -0.000779 0.012805 -0.005871 -0.009479 -0.000891
# 4 0.004739 -0.011342 -0.005871 0.030455 -0.002333 0.001602
# 5 -0.013824 0.012697 -0.009479 -0.002333 0.044823 0.002539
# 6 -0.003070 0.006440 -0.000891 0.001602 0.002539 0.025541
#
#
# Mechanical properties :
#
#
# Convention : Reuss Voigt Hill
#
# Bulk Modulus (GPa) = 37.45327 74.35991 55.90659
# Shear Modulus (GPa) = 26.03840 42.70385 34.37112
#
# Velocity S-wave (km/s) = 3.13736 4.01782 3.60457
# Velocity P-wave (km/s) = 5.22322 7.04509 6.20143
#
# Compressibility (1/GPa) = 0.02669994
#
# Stress axis : x y z
#
# Youngs Moduli (GPa) = 72.31532 35.88166 78.09418
#
# Poissons Ratio (x) = 0.41785 0.11533
# Poissons Ratio (y) = 0.84213 0.06086
# Poissons Ratio (z) = 0.10680 0.02796
#
# Static dielectric constant tensor:
#      x y z
#    x 1.867150 1.437010 -0.503320 
#    y 1.437010 -5.770650 2.487300 
#    z -0.503320 2.487300 1.282080 
# 
# From -- ./inp_files/290471.got.cif
#   From: 2010.05.17/outbox.cif.g08.bks.cpg/sg2_146_cif.got.tgz:290471.got - 2010.06.03 11:33:40.
