data_PCOD9078556
_publ_section_title
;
Structure prediction by ZEFSAII (Michael W. Deem and Ramdas Pophale) SiO2 
 PCOD9078556
Probable space group: P -1
;
_chemical_formula_sum "Si O2"
_cell_formula_units_Z 14
_cell_length_a 17.990618
_cell_length_b 15.605756
_cell_length_c 7.634164
_cell_angle_alpha 133.708253
_cell_angle_beta 135.103706
_cell_angle_gamma 22.859937
_cell_volume 581.960312
_symmetry_space_group_name_H-M "P -1"
_symmetry_group_IT_number 2
_symmetry_cell_setting 'triclinic'
loop_
_space_group_symop_operation_xyz
x,y,z
-x,-y,-z
loop_
_atom_site_type_symbol
_atom_site_label
_atom_site_fract_x
_atom_site_fract_y
_atom_site_fract_z
Si Si1 0.503481 0.355613 0.797033
Si Si2 0.884608 0.017546 0.161554
Si Si3 0.399164 0.055265 0.191959
Si Si4 0.994882 0.349752 0.057267
Si Si5 0.577899 0.756673 0.750078
Si Si6 0.290756 0.640539 0.368657
Si Si7 0.705691 0.586299 0.173593
O O1 0.464105 0.335917 0.515682
O O2 0.343490 0.447867 0.791020
O O3 0.500000 0.500000 0.000000
O O4 0.723411 0.120964 0.905521
O O5 0.794299 0.214555 0.393760
O O6 0.936829 0.853259 0.138819
O O7 0.102045 0.847157 0.216404
O O8 0.180992 0.251505 0.181462
O O9 0.423087 0.953644 0.910558
O O10 0.448901 0.137060 0.318230
O O11 0.557727 0.838009 0.272895
O O12 0.804283 0.561854 0.918418
O O13 0.921033 0.425834 0.244626
O O14 0.500000 0.500000 0.500000
O O15 0.335060 0.463643 0.130706
#
# Coordination Sequence:
#
# PCOD9078556 Si02
#       7
#     2   2   2   2   2   2   2
#     4  12  26  43  60 100 146 170 210 289 337 381
#     4  10  22  36  64  91 124 179 220 254 332 389
#     4  10  20  45  72  93 125 178 228 264 325 402
#     4  10  20  42  70  94 125 172 236 262 317 411
#     4  10  25  41  69 101 132 167 220 283 329 380
#     4  10  18  35  65  87 120 169 232 254 294 404
#     4  10  22  39  66  94 127 175 217 264 328 397
#
# _framework density 24.056623999999999
#
# number of rings (size 3 to 8) (size 9 to 14) (size 15 to 20)
#    0.000    1.714    2.857    0.429    8.000    1.714 
#    5.143    3.571    0.000    0.000    0.000    0.000 
#    0.000    0.000    0.000    0.000    0.000    0.000 
#
# Total GULP energy -78067.744726 kJ/mol
# GULP energy per Si atom -5576.267480 kJ/mol
# Density = 2.400187 g / cm^3
# Si number density = 24.056624 Si / 1000 Ang^3
#
#
#
# Elastic Constant Matrix: (Units=GPa)
#
#
# Indices 1 2 3 4 5 6 
#
# 1 98.9215 20.6718 4.7646 8.7948 -1.5103 -17.4131
# 2 20.6718 113.6749 17.3434 7.8173 1.1082 -25.4021
# 3 4.7646 17.3434 91.3707 18.2695 -9.4741 -11.6315
# 4 8.7948 7.8173 18.2695 39.8880 10.0442 14.7589
# 5 -1.5103 1.1082 -9.4741 10.0442 30.1418 -1.7855
# 6 -17.4131 -25.4021 -11.6315 14.7589 -1.7855 49.1424
#
#
#
# Elastic Compliance Matrix: (Units=1/GPa)
#
#
# Indices 1 2 3 4 5 6 
#
# 1 0.011994 -0.000563 0.002164 -0.007035 0.004045 0.006731
# 2 -0.000563 0.010770 0.000037 -0.004988 0.001660 0.006935
# 3 0.002164 0.000037 0.015711 -0.013524 0.010081 0.008933
# 4 -0.007035 -0.004988 -0.013524 0.047965 -0.021794 -0.023469
# 5 0.004045 0.001660 0.010081 -0.021794 0.044510 0.012840
# 6 0.006731 0.006935 0.008933 -0.023469 0.012840 0.035948
#
#
# Mechanical properties :
#
#
# Convention : Reuss Voigt Hill
#
# Bulk Modulus (GPa) = 23.95036 43.28075 33.61555
# Shear Modulus (GPa) = 28.16284 41.24693 34.70489
#
# Velocity S-wave (km/s) = 3.42525 4.14524 3.80232
# Velocity P-wave (km/s) = 5.06167 6.39851 5.76894
#
# Compressibility (1/GPa) = 0.04175303
#
# Stress axis : x y z
#
# Youngs Moduli (GPa) = 83.37183 92.84873 63.64925
#
# Poissons Ratio (x) = 0.05227 -0.13775
# Poissons Ratio (y) = 0.04693 -0.00238
# Poissons Ratio (z) = -0.18043 -0.00347
#
# Static dielectric constant tensor:
#      x y z
#    x 2.100750 0.079750 0.015490 
#    y 0.079750 1.981670 -0.011450 
#    z 0.015490 -0.011450 2.012970 
# 
# From -- ./inp_files/348723.got.cif
#   From: 2010.05.17/outbox.cif.g08.bks.cpg/sg2_175_cif.got.tgz:348723.got - 2010.06.03 11:33:40.
