data_PCOD9078762
_publ_section_title
;
Structure prediction by ZEFSAII (Michael W. Deem and Ramdas Pophale) SiO2 
 PCOD9078762
Probable space group: P -1
;
_chemical_formula_sum "Si O2"
_cell_formula_units_Z 15
_cell_length_a 6.075627
_cell_length_b 10.629758
_cell_length_c 18.178238
_cell_angle_alpha 39.051530
_cell_angle_beta 123.034108
_cell_angle_gamma 126.116763
_cell_volume 588.617935
_symmetry_space_group_name_H-M "P -1"
_symmetry_group_IT_number 2
_symmetry_cell_setting 'triclinic'
loop_
_space_group_symop_operation_xyz
x,y,z
-x,-y,-z
loop_
_atom_site_type_symbol
_atom_site_label
_atom_site_fract_x
_atom_site_fract_y
_atom_site_fract_z
Si Si1 0.963438 0.611755 0.061113
Si Si2 0.311309 0.365576 0.719741
Si Si3 0.282940 0.732473 0.357175
Si Si4 0.157467 0.275207 0.164467
Si Si5 0.277058 0.654218 0.717908
Si Si6 0.544575 0.004104 0.146001
Si Si7 0.746383 0.675146 0.551077
Si Si8 0.500000 0.000000 0.000000
O O1 0.129056 0.470026 0.116868
O O2 0.171744 0.834317 0.019450
O O3 0.822695 0.474225 0.167314
O O4 0.781334 0.658846 0.939740
O O5 0.269928 0.483310 0.731029
O O6 0.408198 0.158213 0.837340
O O7 0.548167 0.529341 0.642346
O O8 0.017922 0.281202 0.661979
O O9 0.348600 0.876557 0.230925
O O10 0.557427 0.803981 0.424285
O O11 0.238217 0.491595 0.433638
O O12 0.405782 0.206220 0.274854
O O13 0.846162 0.115332 0.182364
O O14 0.052239 0.764635 0.599889
O O15 0.442893 0.132414 0.009719
#
# Coordination Sequence:
#
# PCOD9078762 Si02
#       8
#     2   2   2   2   2   2   2   1
#     4  10  21  38  58  81 111 146 187 227 274 326
#     4  10  19  34  58  84 110 141 183 235 278 323
#     4   9  18  34  55  82 111 144 182 231 281 323
#     4  10  22  38  56  79 116 153 182 224 271 329
#     4  11  20  35  57  83 111 148 185 223 277 332
#     4  10  21  36  55  83 114 145 183 226 274 329
#     4   9  18  32  55  83 111 141 185 232 277 327
#     4  10  18  36  58  82 110 134 176 234 270 312
#
# _framework density 25.483423999999999
#
# number of rings (size 3 to 8) (size 9 to 14) (size 15 to 20)
#    0.000    2.133    0.000    4.800    0.000    2.133 
#    0.000   15.333    0.000    4.000    0.000    0.000 
#    0.000    0.000    0.000    0.000    0.000    0.000 
#
# Total GULP energy -83673.123597 kJ/mol
# GULP energy per Si atom -5578.208240 kJ/mol
# Density = 2.542542 g / cm^3
# Si number density = 25.483424 Si / 1000 Ang^3
#
#
#
# Elastic Constant Matrix: (Units=GPa)
#
#
# Indices 1 2 3 4 5 6 
#
# 1 57.7282 43.0773 28.8794 19.1472 20.7212 8.2161
# 2 43.0773 94.3531 17.7448 30.4338 7.9922 16.5615
# 3 28.8794 17.7448 71.3822 28.3725 22.6276 6.4618
# 4 19.1472 30.4338 28.3725 39.6541 19.7736 19.5745
# 5 20.7212 7.9922 22.6276 19.7736 40.0928 8.6924
# 6 8.2161 16.5615 6.4618 19.5745 8.6924 40.3119
#
#
#
# Elastic Compliance Matrix: (Units=1/GPa)
#
#
# Indices 1 2 3 4 5 6 
#
# 1 0.037043 -0.016871 -0.009954 0.009939 -0.014930 -0.000630
# 2 -0.016871 0.022140 0.005060 -0.017392 0.010070 -0.000195
# 3 -0.009954 0.005060 0.023975 -0.017965 -0.001660 0.005188
# 4 0.009939 -0.017392 -0.017965 0.066424 -0.019966 -0.019950
# 5 -0.014930 0.010070 -0.001660 -0.019966 0.041450 -0.000071
# 6 -0.000630 -0.000195 0.005188 -0.019950 -0.000071 0.033886
#
#
# Mechanical properties :
#
#
# Convention : Reuss Voigt Hill
#
# Bulk Modulus (GPa) = 25.23381 44.76296 34.99838
# Shear Modulus (GPa) = 17.75196 32.92924 25.34060
#
# Velocity S-wave (km/s) = 2.64220 3.59859 3.15682
# Velocity P-wave (km/s) = 4.38541 5.90510 5.20106
#
# Compressibility (1/GPa) = 0.03962937
#
# Stress axis : x y z
#
# Youngs Moduli (GPa) = 26.99539 45.16645 41.70943
#
# Poissons Ratio (x) = 0.76200 0.41517
# Poissons Ratio (y) = 0.45544 -0.21105
# Poissons Ratio (z) = 0.26871 -0.22854
#
# Static dielectric constant tensor:
#      x y z
#    x 2.081720 -0.015410 0.048390 
#    y -0.015410 2.030740 0.053330 
#    z 0.048390 0.053330 2.071850 
# 
# From -- ./inp_files/39417.got.cif
#   From: 2010.05.17/outbox.cif.g08.bks.cpg/sg2_20_cif.got.tgz:39417.got - 2010.06.03 11:33:40.
