data_PCOD9078122
_publ_section_title
;
Structure prediction by ZEFSAII (Michael W. Deem and Ramdas Pophale) SiO2 
 PCOD9078122
Probable space group: P -1
;
_chemical_formula_sum "Si O2"
_cell_formula_units_Z 16
_cell_length_a 15.701637
_cell_length_b 8.503265
_cell_length_c 19.947753
_cell_angle_alpha 41.396591
_cell_angle_beta 24.748056
_cell_angle_gamma 54.692680
_cell_volume 684.029579
_symmetry_space_group_name_H-M "P -1"
_symmetry_group_IT_number 2
_symmetry_cell_setting 'triclinic'
loop_
_space_group_symop_operation_xyz
x,y,z
-x,-y,-z
loop_
_atom_site_type_symbol
_atom_site_label
_atom_site_fract_x
_atom_site_fract_y
_atom_site_fract_z
Si Si1 0.114231 0.804453 0.458991
Si Si2 0.275850 0.118066 0.119321
Si Si3 0.054275 0.935673 0.069541
Si Si4 0.929687 0.245867 0.735789
Si Si5 0.324453 0.866165 0.724834
Si Si6 0.604052 0.683588 0.685997
Si Si7 0.911834 0.582497 0.161236
Si Si8 0.804704 0.155994 0.466956
O O1 0.276876 0.947817 0.237657
O O2 0.943685 0.537079 0.637993
O O3 0.214733 0.750370 0.474184
O O4 0.000000 0.000000 0.500000
O O5 0.234768 0.941608 0.139446
O O6 0.055136 0.181626 0.266386
O O7 0.472670 0.387271 0.888281
O O8 0.104680 0.867920 0.128589
O O9 0.047242 0.732759 0.082573
O O10 0.810179 0.944370 0.235532
O O11 0.197105 0.228826 0.852392
O O12 0.170090 0.276131 0.526738
O O13 0.464572 0.799305 0.702702
O O14 0.500000 0.000000 0.500000
O O15 0.104935 0.598425 0.965474
O O16 0.659772 0.858243 0.656682
O O17 0.760854 0.316261 0.385389
#
# Coordination Sequence:
#
# PCOD9078122 Si02
#       8
#     2   2   2   2   2   2   2   2
#     4  10  22  41  66  87 116 160 206 254 316 368
#     4  10  22  40  60  89 122 157 203 261 304 361
#     4   9  18  33  62  87 124 167 199 244 305 365
#     4  11  21  39  64  89 122 159 203 253 311 362
#     4  10  18  35  58  90 127 161 202 247 296 369
#     4  11  22  38  59  91 126 157 204 254 302 362
#     4   9  17  35  60  86 124 166 198 246 301 359
#     4  10  20  38  64  87 121 165 201 250 305 363
#
# _framework density 23.390802000000001
#
# number of rings (size 3 to 8) (size 9 to 14) (size 15 to 20)
#    0.750    1.250    3.750    0.375    0.000    1.000 
#    2.250    6.875    0.000    0.000    0.000    0.000 
#    0.000    0.000    0.000    0.000    0.000    0.000 
#
# Total GULP energy -89207.545191 kJ/mol
# GULP energy per Si atom -5575.471574 kJ/mol
# Density = 2.333756 g / cm^3
# Si number density = 23.390802 Si / 1000 Ang^3
#
#
#
# Elastic Constant Matrix: (Units=GPa)
#
#
# Indices 1 2 3 4 5 6 
#
# 1 70.1442 28.4321 73.5803 -8.4257 24.0707 18.7719
# 2 28.4321 77.1494 38.3459 -17.1748 -2.3676 5.4624
# 3 73.5803 38.3459 145.4473 -33.0544 23.2446 15.0382
# 4 -8.4257 -17.1748 -33.0544 34.8244 -0.3810 -3.4589
# 5 24.0707 -2.3676 23.2446 -0.3810 38.5096 -0.0454
# 6 18.7719 5.4624 15.0382 -3.4589 -0.0454 36.9291
#
#
#
# Elastic Compliance Matrix: (Units=1/GPa)
#
#
# Indices 1 2 3 4 5 6 
#
# 1 0.050018 -0.010722 -0.021079 -0.015064 -0.019368 -0.016690
# 2 -0.010722 0.018183 0.000846 0.007568 0.007388 0.003134
# 3 -0.021079 0.000846 0.020078 0.014765 0.001259 0.003798
# 4 -0.015064 0.007568 0.014765 0.043288 0.001402 0.004581
# 5 -0.019368 0.007388 0.001259 0.001402 0.037792 0.008418
# 6 -0.016690 0.003134 0.003798 0.004581 0.008418 0.033992
#
#
# Mechanical properties :
#
#
# Convention : Reuss Voigt Hill
#
# Bulk Modulus (GPa) = 37.92638 63.71748 50.82193
# Shear Modulus (GPa) = 18.24485 32.21147 25.22816
#
# Velocity S-wave (km/s) = 2.79588 3.71496 3.28769
# Velocity P-wave (km/s) = 5.16450 6.76023 6.01551
#
# Compressibility (1/GPa) = 0.02636687
#
# Stress axis : x y z
#
# Youngs Moduli (GPa) = 19.99296 54.99767 49.80687
#
# Poissons Ratio (x) = 0.58970 1.04987
# Poissons Ratio (y) = 0.21437 -0.04212
# Poissons Ratio (z) = 0.42143 -0.04651
#
# Static dielectric constant tensor:
#      x y z
#    x 1.910260 -0.004260 0.044870 
#    y -0.004260 1.923510 -0.016270 
#    z 0.044870 -0.016270 1.939830 
# 
# From -- ./inp_files/599175.got.cif
#   From: 2010.05.17/outbox.cif.g08.bks.cpg/sg2_300_cif.got.tgz:599175.got - 2010.06.03 11:33:40.
