data_PCOD9078095
_publ_section_title
;
Structure prediction by ZEFSAII (Michael W. Deem and Ramdas Pophale) SiO2 
 PCOD9078095
Probable space group: P -1
;
_chemical_formula_sum "Si O2"
_cell_formula_units_Z 16
_cell_length_a 13.780871
_cell_length_b 11.823610
_cell_length_c 9.549293
_cell_angle_alpha 45.728021
_cell_angle_beta 70.277147
_cell_angle_gamma 107.646500
_cell_volume 630.298798
_symmetry_space_group_name_H-M "P -1"
_symmetry_group_IT_number 2
_symmetry_cell_setting 'triclinic'
loop_
_space_group_symop_operation_xyz
x,y,z
-x,-y,-z
loop_
_atom_site_type_symbol
_atom_site_label
_atom_site_fract_x
_atom_site_fract_y
_atom_site_fract_z
Si Si1 0.450625 0.008076 0.666268
Si Si2 0.620357 0.725593 0.916147
Si Si3 0.163307 0.670880 0.309670
Si Si4 0.887532 0.855912 0.817974
Si Si5 0.257542 0.611146 0.588627
Si Si6 0.164336 0.992777 0.021112
Si Si7 0.709072 0.851608 0.467491
Si Si8 0.472157 0.308926 0.717177
O O1 0.619867 0.182915 0.524750
O O2 0.389341 0.112284 0.569680
O O3 0.500000 0.000000 0.500000
O O4 0.288706 0.750108 0.060076
O O5 0.701850 0.672671 0.000482
O O6 0.737352 0.915280 0.564054
O O7 0.427160 0.457839 0.193217
O O8 0.600179 0.807395 0.990259
O O9 0.179688 0.628773 0.496388
O O10 0.024359 0.658244 0.362917
O O11 0.298071 0.002819 0.984789
O O12 0.886312 0.677835 0.027708
O O13 0.915854 0.010309 0.802742
O O14 0.000000 0.000000 0.500000
O O15 0.385427 0.647745 0.417102
O O16 0.160358 0.030006 0.824276
O O17 0.377382 0.348277 0.637626
#
# Coordination Sequence:
#
# PCOD9078095 Si02
#       8
#     2   2   2   2   2   2   2   2
#     4  11  24  41  66 101 131 173 237 284 322 409
#     4  10  19  32  58  95 128 155 205 272 338 380
#     4  11  27  46  66  95 141 188 229 275 349 409
#     4  11  23  40  65  99 129 172 224 278 341 413
#     4  12  22  44  71  97 132 181 231 279 334 412
#     4  10  20  41  64  89 129 171 220 271 339 395
#     4  10  18  35  58  86 126 158 205 269 330 378
#     4  11  16  35  68  98 122 163 220 283 331 392
#
# _framework density 25.384785999999998
#
# number of rings (size 3 to 8) (size 9 to 14) (size 15 to 20)
#    0.000    1.250    7.500    0.375    1.750    4.000 
#    0.000    2.500    0.000    0.000    0.000    0.000 
#    0.000    0.000    0.000    0.000    0.000    0.000 
#
# Total GULP energy -89087.781346 kJ/mol
# GULP energy per Si atom -5567.986334 kJ/mol
# Density = 2.532701 g / cm^3
# Si number density = 25.384786 Si / 1000 Ang^3
#
#
#
# Elastic Constant Matrix: (Units=GPa)
#
#
# Indices 1 2 3 4 5 6 
#
# 1 83.1102 41.3114 43.3282 5.1864 22.9033 24.5871
# 2 41.3114 146.9948 96.9427 39.3041 -2.7971 19.4357
# 3 43.3282 96.9427 197.8995 46.2654 11.8652 9.2528
# 4 5.1864 39.3041 46.2654 69.3566 6.1323 4.8549
# 5 22.9033 -2.7971 11.8652 6.1323 51.2184 7.0823
# 6 24.5871 19.4357 9.2528 4.8549 7.0823 29.1944
#
#
#
# Elastic Compliance Matrix: (Units=1/GPa)
#
#
# Indices 1 2 3 4 5 6 
#
# 1 0.020949 -0.003539 -0.002673 0.003818 -0.007568 -0.013238
# 2 -0.003539 0.012433 -0.004468 -0.003886 0.004355 -0.004291
# 3 -0.002673 -0.004468 0.008448 -0.003039 -0.001101 0.003320
# 4 0.003818 -0.003886 -0.003039 0.018785 -0.003186 -0.002016
# 5 -0.007568 0.004355 -0.001101 -0.003186 0.023985 -0.001465
# 6 -0.013238 -0.004291 0.003320 -0.002016 -0.001465 0.047897
#
#
# Mechanical properties :
#
#
# Convention : Reuss Voigt Hill
#
# Bulk Modulus (GPa) = 48.85063 87.90766 68.37914
# Shear Modulus (GPa) = 31.11778 46.38203 38.74991
#
# Velocity S-wave (km/s) = 3.50500 4.27916 3.91129
# Velocity P-wave (km/s) = 5.97209 7.68897 6.88426
#
# Compressibility (1/GPa) = 0.02047057
#
# Stress axis : x y z
#
# Youngs Moduli (GPa) = 47.73609 80.42920 118.37199
#
# Poissons Ratio (x) = 0.28466 0.31635
# Poissons Ratio (y) = 0.16895 0.52886
# Poissons Ratio (z) = 0.12758 0.35934
#
# Static dielectric constant tensor:
#      x y z
#    x 2.085080 0.036620 -0.129390 
#    y 0.036620 2.262940 -0.244440 
#    z -0.129390 -0.244440 2.178630 
# 
# From -- ./inp_files/332872.got.cif
#   From: 2010.05.17/outbox.cif.g08.bks.cpg/sg2_167_cif.got.tgz:332872.got - 2010.06.03 11:33:40.
