data_PCOD9078452
_publ_section_title
;
Structure prediction by ZEFSAII (Michael W. Deem and Ramdas Pophale) SiO2 
 PCOD9078452
Probable space group: P -1
;
_chemical_formula_sum "Si O2"
_cell_formula_units_Z 14
_cell_length_a 13.408321
_cell_length_b 10.494486
_cell_length_c 8.730105
_cell_angle_alpha 117.311612
_cell_angle_beta 60.747085
_cell_angle_gamma 145.909947
_cell_volume 597.035596
_symmetry_space_group_name_H-M "P -1"
_symmetry_group_IT_number 2
_symmetry_cell_setting 'triclinic'
loop_
_space_group_symop_operation_xyz
x,y,z
-x,-y,-z
loop_
_atom_site_type_symbol
_atom_site_label
_atom_site_fract_x
_atom_site_fract_y
_atom_site_fract_z
Si Si1 0.946000 0.532080 0.249706
Si Si2 0.785596 0.494436 0.660986
Si Si3 0.369512 0.183418 0.789615
Si Si4 0.638681 0.056833 0.550507
Si Si5 0.782416 0.650617 0.047865
Si Si6 0.581156 0.216417 0.146221
Si Si7 0.108774 0.827594 0.023652
O O1 0.896556 0.561965 0.461732
O O2 0.768737 0.372699 0.184439
O O3 0.965109 0.379057 0.137670
O O4 0.104376 0.767464 0.167365
O O5 0.584166 0.364661 0.703712
O O6 0.755745 0.306500 0.652409
O O7 0.848835 0.663744 0.837869
O O8 0.308330 0.283919 0.861251
O O9 0.269001 0.975649 0.635452
O O10 0.300281 0.064226 0.941995
O O11 0.500000 0.000000 0.500000
O O12 0.551777 0.894072 0.670375
O O13 0.634708 0.396562 0.091263
O O14 0.962760 0.812223 0.105291
O O15 0.500000 0.000000 0.000000
#
# Coordination Sequence:
#
# PCOD9078452 Si02
#       7
#     2   2   2   2   2   2   2
#     4  10  20  40  63  88 116 163 202 250 299 354
#     4  11  20  40  66  89 116 158 210 250 288 353
#     4  11  21  40  63  86 124 166 195 243 310 357
#     4  10  18  35  63  83 115 153 197 238 300 343
#     4  11  25  36  60  93 127 155 199 250 302 360
#     4  11  20  35  60  95 117 145 205 258 289 344
#     4  10  22  39  62  84 125 162 197 242 307 363
#
# _framework density 23.449186999999998
#
# number of rings (size 3 to 8) (size 9 to 14) (size 15 to 20)
#    0.000    1.429    5.714    1.714    0.000    1.143 
#    0.000    0.714    0.000    0.000    0.000    0.000 
#    0.000    0.000    0.000    0.000    0.000    0.000 
#
# Total GULP energy -78178.182481 kJ/mol
# GULP energy per Si atom -5584.155892 kJ/mol
# Density = 2.339582 g / cm^3
# Si number density = 23.449187 Si / 1000 Ang^3
#
#
#
# Elastic Constant Matrix: (Units=GPa)
#
#
# Indices 1 2 3 4 5 6 
#
# 1 94.7398 34.8271 49.8957 0.6020 -19.4882 -12.0209
# 2 34.8271 57.2450 44.8693 -15.8143 4.3796 -24.8904
# 3 49.8957 44.8693 141.3068 -38.7102 -12.1999 -26.3103
# 4 0.6020 -15.8143 -38.7102 45.9720 -9.1841 6.7080
# 5 -19.4882 4.3796 -12.1999 -9.1841 33.7518 7.5957
# 6 -12.0209 -24.8904 -26.3103 6.7080 7.5957 36.0822
#
#
#
# Elastic Compliance Matrix: (Units=1/GPa)
#
#
# Indices 1 2 3 4 5 6 
#
# 1 0.019597 -0.014531 -0.004196 -0.005182 0.012106 -0.008139
# 2 -0.014531 0.043713 -0.004898 0.003251 -0.020685 0.025492
# 3 -0.004196 -0.004898 0.014046 0.011036 0.005799 0.002193
# 4 -0.005182 0.003251 0.011036 0.034178 0.009844 0.000137
# 5 0.012106 -0.020685 0.005799 0.009844 0.048120 -0.017967
# 6 -0.008139 0.025492 0.002193 0.000137 -0.017967 0.047943
#
#
# Mechanical properties :
#
#
# Convention : Reuss Voigt Hill
#
# Bulk Modulus (GPa) = 33.21553 61.38617 47.30085
# Shear Modulus (GPa) = 18.87640 34.07449 26.47544
#
# Velocity S-wave (km/s) = 2.84032 3.81612 3.36379
# Velocity P-wave (km/s) = 4.99521 6.75664 5.94156
#
# Compressibility (1/GPa) = 0.03010640
#
# Stress axis : x y z
#
# Youngs Moduli (GPa) = 51.02868 22.87660 71.19579
#
# Poissons Ratio (x) = 0.33241 0.29871
# Poissons Ratio (y) = 0.74147 0.34874
# Poissons Ratio (z) = 0.21410 0.11206
#
# Static dielectric constant tensor:
#      x y z
#    x 1.980780 0.075080 0.061460 
#    y 0.075080 1.968580 -0.017980 
#    z 0.061460 -0.017980 1.912870 
# 
# From -- ./inp_files/303839.got.cif
#   From: 2010.05.17/outbox.cif.g08.bks.cpg/sg2_152_cif.got.tgz:303839.got - 2010.06.03 11:33:40.
