data_PCOD9078041
_publ_section_title
;
Structure prediction by ZEFSAII (Michael W. Deem and Ramdas Pophale) SiO2 
 PCOD9078041
Probable space group: P -1
;
_chemical_formula_sum "Si O2"
_cell_formula_units_Z 16
_cell_length_a 10.320794
_cell_length_b 19.973022
_cell_length_c 19.486984
_cell_angle_alpha 156.286233
_cell_angle_beta 25.480458
_cell_angle_gamma 142.993489
_cell_volume 685.871561
_symmetry_space_group_name_H-M "P -1"
_symmetry_group_IT_number 2
_symmetry_cell_setting 'triclinic'
loop_
_space_group_symop_operation_xyz
x,y,z
-x,-y,-z
loop_
_atom_site_type_symbol
_atom_site_label
_atom_site_fract_x
_atom_site_fract_y
_atom_site_fract_z
Si Si1 0.228758 0.085624 0.109096
Si Si2 0.121309 0.678359 0.614404
Si Si3 0.389963 0.621383 0.102907
Si Si4 0.181983 0.310616 0.476280
Si Si5 0.671661 0.429641 0.444329
Si Si6 0.755516 0.608410 0.169632
Si Si7 0.238692 0.106816 0.775987
Si Si8 0.802508 0.225523 0.971146
O O1 0.213204 0.172869 0.273930
O O2 0.597716 0.079267 0.917326
O O3 0.106649 0.190077 0.197466
O O4 0.962202 0.977569 0.152272
O O5 0.178584 0.687074 0.676160
O O6 0.449575 0.674179 0.418573
O O7 0.000000 0.500000 0.500000
O O8 0.592372 0.766838 0.142569
O O9 0.058797 0.707413 0.367938
O O10 0.500000 0.500000 0.000000
O O11 0.348608 0.509011 0.951208
O O12 0.487260 0.327137 0.385996
O O13 0.106741 0.479867 0.624091
O O14 0.429714 0.592224 0.741626
O O15 0.000000 0.500000 0.000000
O O16 0.936141 0.749235 0.184226
O O17 0.500000 0.000000 0.500000
O O18 0.988923 0.195261 0.924040
#
# Coordination Sequence:
#
# PCOD9078041 Si02
#       8
#     2   2   2   2   2   2   2   2
#     4  11  23  39  63  91 131 177 212 261 330 389
#     4  12  21  39  64  96 131 170 215 267 328 392
#     4  12  22  38  65  99 127 165 222 270 319 380
#     4  10  18  35  57  95 127 160 210 264 318 381
#     4  10  20  34  63  95 129 161 215 271 319 374
#     4  12  22  38  66  98 130 166 216 274 323 378
#     4  12  24  41  64  96 138 173 215 272 329 393
#     4  11  21  39  62  93 125 173 218 262 324 384
#
# _framework density 23.327981999999999
#
# number of rings (size 3 to 8) (size 9 to 14) (size 15 to 20)
#    0.000    0.750    7.500    1.875    0.000    0.000 
#    0.000    0.000    2.750    3.750    0.000    0.000 
#    0.000    0.000    0.000    0.000    0.000    0.000 
#
# Total GULP energy -89328.472000 kJ/mol
# GULP energy per Si atom -5583.029500 kJ/mol
# Density = 2.327489 g / cm^3
# Si number density = 23.327982 Si / 1000 Ang^3
#
#
#
# Elastic Constant Matrix: (Units=GPa)
#
#
# Indices 1 2 3 4 5 6 
#
# 1 148.4351 37.6844 17.7454 2.1336 -6.6397 -8.8123
# 2 37.6844 206.8271 20.6723 -32.9737 6.7140 13.0342
# 3 17.7454 20.6723 66.8146 -22.2445 -4.1083 6.8861
# 4 2.1336 -32.9737 -22.2445 27.7367 -1.2368 -4.9381
# 5 -6.6397 6.7140 -4.1083 -1.2368 29.9185 3.8866
# 6 -8.8123 13.0342 6.8861 -4.9381 3.8866 42.1853
#
#
#
# Elastic Compliance Matrix: (Units=1/GPa)
#
#
# Indices 1 2 3 4 5 6 
#
# 1 0.007954 -0.002157 -0.003408 -0.005473 0.001279 0.002126
# 2 -0.002157 0.006644 0.001614 0.009021 -0.001167 -0.001603
# 3 -0.003408 0.001614 0.022461 0.019829 0.003155 -0.002847
# 4 -0.005473 0.009021 0.019829 0.063201 0.002091 0.000038
# 5 0.001279 -0.001167 0.003155 0.002091 0.034860 -0.002854
# 6 0.002126 -0.001603 -0.002847 0.000038 -0.002854 0.025376
#
#
# Mechanical properties :
#
#
# Convention : Reuss Voigt Hill
#
# Bulk Modulus (GPa) = 34.29581 63.80901 49.05241
# Shear Modulus (GPa) = 28.07140 43.03307 35.55223
#
# Velocity S-wave (km/s) = 3.47268 4.29965 3.90810
# Velocity P-wave (km/s) = 5.55093 7.21538 6.43718
#
# Compressibility (1/GPa) = 0.02915808
#
# Stress axis : x y z
#
# Youngs Moduli (GPa) = 125.72327 150.51898 44.52075
#
# Poissons Ratio (x) = 0.32462 0.15172
# Poissons Ratio (y) = 0.27115 -0.07186
# Poissons Ratio (z) = 0.42846 -0.24295
#
# Static dielectric constant tensor:
#      x y z
#    x 1.847530 0.040640 0.014600 
#    y 0.040640 2.005550 0.012430 
#    z 0.014600 0.012430 2.053160 
# 
# From -- ./inp_files/562082.got.cif
#   From: 2010.05.17/outbox.cif.g08.bks.cpg/sg2_282_cif.got.tgz:562082.got - 2010.06.03 11:33:40.
