data_PCOD9078956
_publ_section_title
;
Structure prediction by ZEFSAII (Michael W. Deem and Ramdas Pophale) SiO2 
 PCOD9078956
Probable space group: P -1
;
_chemical_formula_sum "Si O2"
_cell_formula_units_Z 13
_cell_length_a 8.143864
_cell_length_b 9.487617
_cell_length_c 11.872284
_cell_angle_alpha 45.788218
_cell_angle_beta 57.681111
_cell_angle_gamma 82.432513
_cell_volume 509.732422
_symmetry_space_group_name_H-M "P -1"
_symmetry_group_IT_number 2
_symmetry_cell_setting 'triclinic'
loop_
_space_group_symop_operation_xyz
x,y,z
-x,-y,-z
loop_
_atom_site_type_symbol
_atom_site_label
_atom_site_fract_x
_atom_site_fract_y
_atom_site_fract_z
Si Si1 0.000805 0.628324 0.811751
Si Si2 0.031063 0.242087 0.938881
Si Si3 0.696606 0.645096 0.421677
Si Si4 0.389094 0.848532 0.966641
Si Si5 0.500000 0.500000 0.000000
Si Si6 0.899799 0.954273 0.350708
Si Si7 0.217377 0.754345 0.333965
O O1 0.109147 0.502357 0.767092
O O2 0.128739 0.884149 0.638886
O O3 0.000000 0.500000 0.000000
O O4 0.944808 0.874269 0.892519
O O5 0.147748 0.198712 0.814166
O O6 0.781850 0.172588 0.053613
O O7 0.500000 0.500000 0.500000
O O8 0.802158 0.485530 0.513924
O O9 0.695651 0.787294 0.451734
O O10 0.573975 0.082111 0.771166
O O11 0.481281 0.671740 0.003539
O O12 0.269842 0.809243 0.151963
O O13 0.237937 0.417093 0.114348
O O14 0.027907 0.812517 0.418403
#
# Coordination Sequence:
#
# PCOD9078956 Si02
#       7
#     2   2   2   2   1   2   2
#     4   9  20  37  62  89 123 154 204 250 302 360
#     4  10  22  40  62  87 118 159 199 248 299 362
#     4  12  26  39  58  89 124 159 203 248 301 357
#     4  10  21  37  63  87 120 151 204 241 305 361
#     4  10  18  36  60  96 112 160 200 252 294 370
#     4  11  21  41  63  87 120 159 199 248 304 354
#     4  11  23  37  60  91 120 154 197 251 300 356
#
# _framework density 25.503575999999999
#
# number of rings (size 3 to 8) (size 9 to 14) (size 15 to 20)
#    0.000    1.538    3.077    1.846    4.308    0.000 
#    0.000    3.077    0.000    0.000    0.000    0.000 
#    0.000    0.000    0.000    0.000    0.000    0.000 
#
# Total GULP energy -72381.729306 kJ/mol
# GULP energy per Si atom -5567.825331 kJ/mol
# Density = 2.544553 g / cm^3
# Si number density = 25.503576 Si / 1000 Ang^3
#
#
#
# Elastic Constant Matrix: (Units=GPa)
#
#
# Indices 1 2 3 4 5 6 
#
# 1 67.0918 14.9386 16.3602 -11.0717 -6.1450 -12.4652
# 2 14.9386 144.2188 12.4808 -41.0084 -7.1922 -31.7390
# 3 16.3602 12.4808 76.9299 -31.3712 -13.2597 8.0116
# 4 -11.0717 -41.0084 -31.3712 51.7869 4.7146 -3.4935
# 5 -6.1450 -7.1922 -13.2597 4.7146 32.9914 -7.9573
# 6 -12.4652 -31.7390 8.0116 -3.4935 -7.9573 38.5172
#
#
#
# Elastic Compliance Matrix: (Units=1/GPa)
#
#
# Indices 1 2 3 4 5 6 
#
# 1 0.017850 0.001559 -0.002793 0.003576 0.004160 0.008826
# 2 0.001559 0.013415 0.002233 0.012709 0.005525 0.013389
# 3 -0.002793 0.002233 0.019324 0.012297 0.005789 -0.000772
# 4 0.003576 0.012709 0.012297 0.037947 0.006288 0.013813
# 5 0.004160 0.005525 0.005789 0.006288 0.036823 0.012873
# 6 0.008826 0.013389 -0.000772 0.013813 0.012873 0.043924
#
#
# Mechanical properties :
#
#
# Convention : Reuss Voigt Hill
#
# Bulk Modulus (GPa) = 19.01626 41.75553 30.38590
# Shear Modulus (GPa) = 27.05423 40.95649 34.00536
#
# Velocity S-wave (km/s) = 3.26053 4.01173 3.65548
# Velocity P-wave (km/s) = 4.65266 6.15358 5.45499
#
# Compressibility (1/GPa) = 0.05258656
#
# Stress axis : x y z
#
# Youngs Moduli (GPa) = 56.02313 74.54326 51.75007
#
# Poissons Ratio (x) = -0.11625 0.14454
# Poissons Ratio (y) = -0.08737 -0.11553
# Poissons Ratio (z) = 0.15647 -0.16642
#
# Static dielectric constant tensor:
#      x y z
#    x 2.035700 0.033050 0.013130 
#    y 0.033050 2.098010 -0.121970 
#    z 0.013130 -0.121970 2.023080 
# 
# From -- ./inp_files/564819.got.cif
#   From: 2010.05.17/outbox.cif.g08.bks.cpg/sg2_283_cif.got.tgz:564819.got - 2010.06.03 11:33:40.
