data_PCOD9078817
_publ_section_title
;
Structure prediction by ZEFSAII (Michael W. Deem and Ramdas Pophale) SiO2 
 PCOD9078817
Probable space group: P -1
;
_chemical_formula_sum "Si O2"
_cell_formula_units_Z 16
_cell_length_a 12.674592
_cell_length_b 8.498477
_cell_length_c 12.683688
_cell_angle_alpha 50.741494
_cell_angle_beta 43.401310
_cell_angle_gamma 54.119340
_cell_volume 706.077003
_symmetry_space_group_name_H-M "P -1"
_symmetry_group_IT_number 2
_symmetry_cell_setting 'triclinic'
loop_
_space_group_symop_operation_xyz
x,y,z
-x,-y,-z
loop_
_atom_site_type_symbol
_atom_site_label
_atom_site_fract_x
_atom_site_fract_y
_atom_site_fract_z
Si Si1 0.087155 0.663527 0.813885
Si Si2 0.849679 0.048955 0.164825
Si Si3 0.818694 0.678375 0.870516
Si Si4 0.615306 0.074684 0.801177
Si Si5 0.993977 0.383200 0.705526
Si Si6 0.493002 0.774733 0.648374
Si Si7 0.607698 0.567085 0.264737
Si Si8 0.773803 0.405624 0.664587
O O1 0.256301 0.525923 0.710685
O O2 0.958247 0.772557 0.778140
O O3 0.120088 0.818239 0.812847
O O4 0.000000 0.500000 0.000000
O O5 0.862523 0.816709 0.297607
O O6 0.678679 0.161652 0.195575
O O7 0.000000 0.000000 0.000000
O O8 0.906790 0.467050 0.840587
O O9 0.727622 0.853830 0.782082
O O10 0.703920 0.623882 0.067509
O O11 0.519646 0.216948 0.717604
O O12 0.701365 0.227286 0.739382
O O13 0.500000 0.000000 0.000000
O O14 0.858151 0.346133 0.741094
O O15 0.079364 0.556374 0.526276
O O16 0.471427 0.617633 0.635593
O O17 0.634999 0.623077 0.674956
O O18 0.500000 0.000000 0.500000
#
# Coordination Sequence:
#
# PCOD9078817 Si02
#       8
#     2   2   2   2   2   2   2   2
#     4   9  17  32  54  82 113 148 188 238 287 342
#     4  11  21  36  61  93 120 153 201 245 297 356
#     4  10  19  35  56  85 112 150 194 240 293 345
#     4   9  18  36  58  78 109 153 190 237 295 351
#     4  11  22  37  57  88 123 152 202 248 299 357
#     4  10  18  36  59  82 114 158 191 240 301 348
#     4   8  17  32  55  81 109 143 192 235 284 350
#     4  10  22  39  59  85 118 160 199 246 302 360
#
# _framework density 22.660418
#
# number of rings (size 3 to 8) (size 9 to 14) (size 15 to 20)
#    0.000    2.250    1.250    3.000    0.000    0.500 
#    0.000   16.250    0.000    3.750    0.000    0.000 
#    0.000    0.000    0.000    0.000    0.000    0.000 
#
# Total GULP energy -89144.856562 kJ/mol
# GULP energy per Si atom -5571.553535 kJ/mol
# Density = 2.260884 g / cm^3
# Si number density = 22.660418 Si / 1000 Ang^3
#
#
#
# Elastic Constant Matrix: (Units=GPa)
#
#
# Indices 1 2 3 4 5 6 
#
# 1 33.7977 8.0378 6.1317 6.1833 -14.2108 -12.8318
# 2 8.0378 117.3027 5.5912 -7.6399 -5.5229 -30.9004
# 3 6.1317 5.5912 43.3569 -3.0894 -9.6128 3.2014
# 4 6.1833 -7.6399 -3.0894 30.7848 3.3777 -8.4668
# 5 -14.2108 -5.5229 -9.6128 3.3777 20.6732 -0.9505
# 6 -12.8318 -30.9004 3.2014 -8.4668 -0.9505 35.4599
#
#
#
# Elastic Compliance Matrix: (Units=1/GPa)
#
#
# Indices 1 2 3 4 5 6 
#
# 1 0.056966 0.003571 -0.001553 -0.009031 0.041915 0.022833
# 2 0.003571 0.012601 -0.001704 0.005533 0.004763 0.013876
# 3 -0.001553 -0.001704 0.026127 0.000251 0.010398 -0.004067
# 4 -0.009031 0.005533 0.000251 0.039819 -0.010624 0.010753
# 5 0.041915 0.004763 0.010398 -0.010624 0.085862 0.018144
# 6 0.022833 0.013876 -0.004067 0.010753 0.018144 0.051976
#
#
# Mechanical properties :
#
#
# Convention : Reuss Voigt Hill
#
# Bulk Modulus (GPa) = 10.38196 25.99762 18.18979
# Shear Modulus (GPa) = 16.40250 29.03002 22.71626
#
# Velocity S-wave (km/s) = 2.69334 3.58311 3.16961
# Velocity P-wave (km/s) = 3.77672 5.34938 4.63031
#
# Compressibility (1/GPa) = 0.09632091
#
# Stress axis : x y z
#
# Youngs Moduli (GPa) = 17.55448 79.35693 38.27399
#
# Poissons Ratio (x) = -0.28337 0.05944
# Poissons Ratio (y) = -0.06268 0.06523
# Poissons Ratio (z) = 0.02726 0.13526
#
# Static dielectric constant tensor:
#      x y z
#    x 1.953860 -0.106560 0.039810 
#    y -0.106560 1.898740 -0.034760 
#    z 0.039810 -0.034760 1.941280 
# 
# From -- ./inp_files/284795.got.cif
#   From: 2010.05.17/outbox.cif.g08.bks.cpg/sg2_143_cif.got.tgz:284795.got - 2010.06.03 11:33:40.
