data_PCOD9078090
_publ_section_title
;
Structure prediction by ZEFSAII (Michael W. Deem and Ramdas Pophale) SiO2 
 PCOD9078090
Probable space group: P -1
;
_chemical_formula_sum "Si O2"
_cell_formula_units_Z 16
_cell_length_a 7.524048
_cell_length_b 9.141863
_cell_length_c 17.189659
_cell_angle_alpha 56.267171
_cell_angle_beta 37.016252
_cell_angle_gamma 56.361100
_cell_volume 577.377033
_symmetry_space_group_name_H-M "P -1"
_symmetry_group_IT_number 2
_symmetry_cell_setting 'triclinic'
loop_
_space_group_symop_operation_xyz
x,y,z
-x,-y,-z
loop_
_atom_site_type_symbol
_atom_site_label
_atom_site_fract_x
_atom_site_fract_y
_atom_site_fract_z
Si Si1 0.238745 0.563887 0.986143
Si Si2 0.819980 0.298162 0.490217
Si Si3 0.098508 0.951558 0.862337
Si Si4 0.848370 0.677622 0.794681
Si Si5 0.422070 0.205287 0.385630
Si Si6 0.388271 0.623955 0.222897
Si Si7 0.692152 0.709742 0.429093
Si Si8 0.539277 0.971486 0.134134
O O1 0.026552 0.478248 0.141730
O O2 0.925245 0.253272 0.049560
O O3 0.523380 0.630729 0.904431
O O4 0.387884 0.414247 0.916832
O O5 0.706075 0.497728 0.504818
O O6 0.524349 0.234433 0.585214
O O7 0.976170 0.327128 0.344664
O O8 0.090136 0.180982 0.480574
O O9 0.307644 0.917712 0.722171
O O10 0.278859 0.018986 0.851241
O O11 0.744316 0.037587 0.975248
O O12 0.770437 0.876772 0.797392
O O13 0.402231 0.418770 0.309008
O O14 0.440315 0.190476 0.475953
O O15 0.041829 0.705278 0.293047
O O16 0.462503 0.777834 0.206474
#
# Coordination Sequence:
#
# PCOD9078090 Si02
#       8
#     2   2   2   2   2   2   2   2
#     4   9  18  33  58  85 116 151 204 243 291 358
#     4  10  18  36  60  86 117 154 198 252 292 344
#     4   9  19  38  59  86 117 163 195 239 303 372
#     4  10  18  35  58  85 118 160 187 244 310 355
#     4  10  19  39  63  85 118 156 207 249 288 351
#     4  10  19  35  54  87 118 152 200 255 285 352
#     4  10  21  35  62  88 113 157 211 248 290 346
#     4  10  20  34  58  84 127 153 190 245 315 358
#
# _framework density 27.711531000000001
#
# number of rings (size 3 to 8) (size 9 to 14) (size 15 to 20)
#    0.000    2.250    5.000    1.500    0.000    4.500 
#    0.000    1.250    2.750    0.000    0.000    0.000 
#    0.000    0.000    0.000    0.000    0.000    0.000 
#
# Total GULP energy -89612.015950 kJ/mol
# GULP energy per Si atom -5600.750997 kJ/mol
# Density = 2.764846 g / cm^3
# Si number density = 27.711531 Si / 1000 Ang^3
#
#
#
# Elastic Constant Matrix: (Units=GPa)
#
#
# Indices 1 2 3 4 5 6 
#
# 1 79.8494 30.9772 38.3943 -1.4291 -21.3848 32.4227
# 2 30.9772 169.9491 39.1324 10.9691 0.6160 24.6560
# 3 38.3943 39.1324 108.2586 6.5731 5.7642 16.9369
# 4 -1.4291 10.9691 6.5731 41.2984 6.7198 5.7915
# 5 -21.3848 0.6160 5.7642 6.7198 48.8280 -7.8138
# 6 32.4227 24.6560 16.9369 5.7915 -7.8138 36.2950
#
#
#
# Elastic Compliance Matrix: (Units=1/GPa)
#
#
# Indices 1 2 3 4 5 6 
#
# 1 0.025755 -0.000785 -0.006701 0.003264 0.008754 -0.017983
# 2 -0.000785 0.006940 -0.001631 -0.001061 -0.000607 -0.003213
# 3 -0.006701 -0.001631 0.012399 -0.001188 -0.004117 0.000611
# 4 0.003264 -0.001061 -0.001188 0.026205 -0.003060 -0.006480
# 5 0.008754 -0.000607 -0.004117 -0.003060 0.025301 0.000449
# 6 -0.017983 -0.003213 0.000611 -0.006480 0.000449 0.046645
#
#
# Mechanical properties :
#
#
# Convention : Reuss Voigt Hill
#
# Bulk Modulus (GPa) = 37.22990 63.89608 50.56299
# Shear Modulus (GPa) = 29.33751 41.92117 35.62934
#
# Velocity S-wave (km/s) = 3.25726 3.89365 3.58959
# Velocity P-wave (km/s) = 5.25455 6.58192 5.95533
#
# Compressibility (1/GPa) = 0.02686013
#
# Stress axis : x y z
#
# Youngs Moduli (GPa) = 38.82726 144.10172 80.65267
#
# Poissons Ratio (x) = 0.11310 0.54047
# Poissons Ratio (y) = 0.03047 0.13151
# Poissons Ratio (z) = 0.26019 0.23497
#
# Static dielectric constant tensor:
#      x y z
#    x 2.261170 -0.031230 -0.014830 
#    y -0.031230 2.122110 -0.025690 
#    z -0.014830 -0.025690 2.182030 
# 
# From -- ./inp_files/587958.got.cif
#   From: 2010.05.17/outbox.cif.g08.bks.cpg/sg2_294_cif.got.tgz:587958.got - 2010.06.03 11:33:40.
