data_PCOD9078033
_publ_section_title
;
Structure prediction by ZEFSAII (Michael W. Deem and Ramdas Pophale) SiO2 
 PCOD9078033
Probable space group: P -1
;
_chemical_formula_sum "Si O2"
_cell_formula_units_Z 16
_cell_length_a 7.373086
_cell_length_b 11.318677
_cell_length_c 9.379395
_cell_angle_alpha 97.840375
_cell_angle_beta 112.913517
_cell_angle_gamma 63.793467
_cell_volume 646.271666
_symmetry_space_group_name_H-M "P -1"
_symmetry_group_IT_number 2
_symmetry_cell_setting 'triclinic'
loop_
_space_group_symop_operation_xyz
x,y,z
-x,-y,-z
loop_
_atom_site_type_symbol
_atom_site_label
_atom_site_fract_x
_atom_site_fract_y
_atom_site_fract_z
Si Si1 0.698184 0.253725 0.205208
Si Si2 0.775381 0.889315 0.364833
Si Si3 0.766159 0.136397 0.515975
Si Si4 0.143958 0.821131 0.073436
Si Si5 0.864736 0.719353 0.623544
Si Si6 0.434434 0.528411 0.148032
Si Si7 0.701869 0.966758 0.820007
Si Si8 0.603255 0.589356 0.472112
O O1 0.747863 0.159545 0.340539
O O2 0.468415 0.381102 0.179480
O O3 0.890112 0.302457 0.280615
O O4 0.737876 0.191545 0.049588
O O5 0.804393 0.764396 0.448071
O O6 0.008112 0.861856 0.364254
O O7 0.754707 0.998240 0.497247
O O8 0.555047 0.951082 0.217292
O O9 0.569086 0.260975 0.535743
O O10 0.223485 0.668423 0.118349
O O11 0.221162 0.921486 0.194235
O O12 0.884862 0.893724 0.983713
O O13 0.731654 0.843321 0.707027
O O14 0.817356 0.591662 0.605155
O O15 0.603278 0.557565 0.301743
O O16 0.500000 0.500000 0.000000
O O17 0.500000 0.500000 0.500000
#
# Coordination Sequence:
#
# PCOD9078033 Si02
#       8
#     2   2   2   2   2   2   2   2
#     4   9  19  40  58  87 126 168 207 259 309 374
#     4  10  20  36  61  89 126 163 198 265 312 376
#     4  10  21  37  59  93 128 155 201 268 327 349
#     4   9  20  34  61  86 119 169 217 247 302 379
#     4  10  21  35  63  92 122 160 217 261 310 376
#     4  10  21  39  62  85 121 170 212 248 307 376
#     4  10  18  35  57  89 118 156 214 260 300 364
#     4  12  23  39  65  94 126 163 208 269 317 363
#
# _framework density 24.757387999999999
#
# number of rings (size 3 to 8) (size 9 to 14) (size 15 to 20)
#    0.000    2.000    2.500    1.125    1.750    0.500 
#    4.500    0.625    0.000    7.500    0.000    0.000 
#    0.000    0.000    0.000    0.000    0.000    0.000 
#
# Total GULP energy -89232.952138 kJ/mol
# GULP energy per Si atom -5577.059509 kJ/mol
# Density = 2.470104 g / cm^3
# Si number density = 24.757388 Si / 1000 Ang^3
#
#
#
# Elastic Constant Matrix: (Units=GPa)
#
#
# Indices 1 2 3 4 5 6 
#
# 1 63.5068 9.2463 23.7516 8.0240 21.8002 8.9495
# 2 9.2463 107.7002 15.6845 -4.3083 7.8358 -2.0441
# 3 23.7516 15.6845 88.0969 18.8738 8.3767 7.6958
# 4 8.0240 -4.3083 18.8738 43.8443 -7.4340 6.9193
# 5 21.8002 7.8358 8.3767 -7.4340 35.9096 2.6005
# 6 8.9495 -2.0441 7.6958 6.9193 2.6005 42.4165
#
#
#
# Elastic Compliance Matrix: (Units=1/GPa)
#
#
# Indices 1 2 3 4 5 6 
#
# 1 0.022793 -0.000689 -0.003505 -0.004630 -0.013638 -0.002615
# 2 -0.000689 0.009767 -0.001867 0.001601 -0.001001 0.000755
# 3 -0.003505 -0.001867 0.014129 -0.005813 -0.001902 -0.000849
# 4 -0.004630 0.001601 -0.005813 0.028498 0.009945 -0.003150
# 5 -0.013638 -0.001001 -0.001902 0.009945 0.038909 -0.000833
# 6 -0.002615 0.000755 -0.000849 -0.003150 -0.000833 0.024883
#
#
# Mechanical properties :
#
#
# Convention : Reuss Voigt Hill
#
# Bulk Modulus (GPa) = 28.92961 39.62984 34.27972
# Shear Modulus (GPa) = 30.74595 38.47550 34.61072
#
# Velocity S-wave (km/s) = 3.52787 3.94649 3.74303
# Velocity P-wave (km/s) = 5.32025 6.06699 5.70585
#
# Compressibility (1/GPa) = 0.03456666
#
# Stress axis : x y z
#
# Youngs Moduli (GPa) = 43.87356 102.38311 70.77684
#
# Poissons Ratio (x) = 0.07053 0.24810
# Poissons Ratio (y) = 0.03022 0.13213
# Poissons Ratio (z) = 0.15379 0.19114
#
# Static dielectric constant tensor:
#      x y z
#    x 2.066270 -0.010450 -0.051910 
#    y -0.010450 2.024680 -0.045870 
#    z -0.051910 -0.045870 2.034550 
# 
# From -- ./inp_files/279479.got.cif
#   From: 2010.05.17/outbox.cif.g08.bks.cpg/sg2_140_cif.got.tgz:279479.got - 2010.06.03 11:33:40.
