data_PCOD9078575
_publ_section_title
;
Structure prediction by ZEFSAII (Michael W. Deem and Ramdas Pophale) SiO2 
 PCOD9078575
Probable space group: P -1
;
_chemical_formula_sum "Si O2"
_cell_formula_units_Z 16
_cell_length_a 9.520311
_cell_length_b 9.068322
_cell_length_c 29.076725
_cell_angle_alpha 38.210060
_cell_angle_beta 34.853952
_cell_angle_gamma 65.120499
_cell_volume 686.290638
_symmetry_space_group_name_H-M "P -1"
_symmetry_group_IT_number 2
_symmetry_cell_setting 'triclinic'
loop_
_space_group_symop_operation_xyz
x,y,z
-x,-y,-z
loop_
_atom_site_type_symbol
_atom_site_label
_atom_site_fract_x
_atom_site_fract_y
_atom_site_fract_z
Si Si1 0.907472 0.373034 0.295258
Si Si2 0.291181 0.338047 0.785805
Si Si3 0.033204 0.291629 0.154918
Si Si4 0.282587 0.632659 0.854939
Si Si5 0.439365 0.266868 0.859831
Si Si6 0.484988 0.196471 0.023776
Si Si7 0.663620 0.318255 0.610648
Si Si8 0.371350 0.208035 0.539242
O O1 0.724736 0.409783 0.294465
O O2 0.726580 0.343793 0.396739
O O3 0.843824 0.059631 0.376405
O O4 0.274515 0.662682 0.118390
O O5 0.492114 0.411420 0.759722
O O6 0.419931 0.250072 0.732421
O O7 0.926749 0.046066 0.964057
O O8 0.203462 0.214245 0.092745
O O9 0.882537 0.416659 0.137543
O O10 0.290992 0.559220 0.055281
O O11 0.773725 0.980054 0.328801
O O12 0.448354 0.478905 0.843553
O O13 0.543067 0.995656 0.702878
O O14 0.000000 0.500000 0.000000
O O15 0.623229 0.134403 0.852163
O O16 0.663963 0.532433 0.521267
O O17 0.000000 0.500000 0.500000
#
# Coordination Sequence:
#
# PCOD9078575 Si02
#       8
#     2   2   2   2   2   2   2   2
#     4   8  15  31  56  92 116 163 211 253 305 384
#     4   9  17  34  63  91 120 162 210 256 315 387
#     4  10  21  37  62 101 128 166 211 271 323 380
#     4  12  25  42  64  95 133 168 218 273 324 375
#     4  10  18  35  65  93 124 166 209 264 320 380
#     4   9  19  34  66  99 128 160 218 265 318 384
#     4  11  25  40  63  91 128 171 216 260 321 386
#     4   9  18  35  61  84 125 165 208 252 318 392
#
# _framework density 23.313741
#
# number of rings (size 3 to 8) (size 9 to 14) (size 15 to 20)
#    0.000    2.250    1.250    3.000    1.750    2.500 
#    0.000    1.250   11.000    0.000    0.000    0.000 
#    0.000    0.000    0.000    0.000    0.000    0.000 
#
# Total GULP energy -89414.076179 kJ/mol
# GULP energy per Si atom -5588.379761 kJ/mol
# Density = 2.326068 g / cm^3
# Si number density = 23.313741 Si / 1000 Ang^3
#
#
#
# Elastic Constant Matrix: (Units=GPa)
#
#
# Indices 1 2 3 4 5 6 
#
# 1 60.2948 13.1361 18.6641 -6.1152 13.7806 -2.2991
# 2 13.1361 113.6884 22.0428 -22.7150 7.2494 -23.9351
# 3 18.6641 22.0428 75.3214 -6.5287 18.8121 0.8447
# 4 -6.1152 -22.7150 -6.5287 43.4694 1.8571 1.4475
# 5 13.7806 7.2494 18.8121 1.8571 29.9211 -1.8413
# 6 -2.2991 -23.9351 0.8447 1.4475 -1.8413 27.4728
#
#
#
# Elastic Compliance Matrix: (Units=1/GPa)
#
#
# Indices 1 2 3 4 5 6 
#
# 1 0.019456 -0.000731 -0.002604 0.002259 -0.007258 0.000466
# 2 -0.000731 0.013015 -0.003103 0.005889 -0.000553 0.011026
# 3 -0.002604 -0.003103 0.017283 0.001140 -0.009240 -0.004132
# 4 0.002259 0.005889 0.001140 0.026649 -0.004618 0.003571
# 5 -0.007258 -0.000553 -0.009240 -0.004618 0.043137 0.002330
# 6 0.000466 0.011026 -0.004132 0.003571 0.002330 0.046140
#
#
# Mechanical properties :
#
#
# Convention : Reuss Voigt Hill
#
# Bulk Modulus (GPa) = 27.11617 39.66563 33.39090
# Shear Modulus (GPa) = 26.19870 33.20343 29.70106
#
# Velocity S-wave (km/s) = 3.35587 3.77795 3.57315
# Velocity P-wave (km/s) = 5.16450 6.00677 5.60149
#
# Compressibility (1/GPa) = 0.03687836
#
# Stress axis : x y z
#
# Youngs Moduli (GPa) = 51.39759 76.83302 57.86146
#
# Poissons Ratio (x) = 0.05617 0.15066
# Poissons Ratio (y) = 0.03757 0.17954
# Poissons Ratio (z) = 0.13383 0.23841
#
# Static dielectric constant tensor:
#      x y z
#    x 1.897000 0.016770 0.011490 
#    y 0.016770 1.936230 0.021150 
#    z 0.011490 0.021150 1.882510 
# 
# From -- ./inp_files/477021.got.cif
#   From: 2010.05.17/outbox.cif.g08.bks.cpg/sg2_239_cif.got.tgz:477021.got - 2010.06.03 11:33:40.
