data_PCOD9078609
_publ_section_title
;
Structure prediction by ZEFSAII (Michael W. Deem and Ramdas Pophale) SiO2 
 PCOD9078609
Probable space group: P -1
;
_chemical_formula_sum "Si O2"
_cell_formula_units_Z 16
_cell_length_a 10.469671
_cell_length_b 8.308679
_cell_length_c 21.063491
_cell_angle_alpha 55.955116
_cell_angle_beta 30.771151
_cell_angle_gamma 43.926816
_cell_volume 641.280542
_symmetry_space_group_name_H-M "P -1"
_symmetry_group_IT_number 2
_symmetry_cell_setting 'triclinic'
loop_
_space_group_symop_operation_xyz
x,y,z
-x,-y,-z
loop_
_atom_site_type_symbol
_atom_site_label
_atom_site_fract_x
_atom_site_fract_y
_atom_site_fract_z
Si Si1 0.080194 0.270058 0.366777
Si Si2 0.717557 0.758790 0.368585
Si Si3 0.773896 0.074388 0.372204
Si Si4 0.751002 0.464262 0.582896
Si Si5 0.639226 0.959687 0.121205
Si Si6 0.487674 0.574517 0.801685
Si Si7 0.004371 0.114963 0.891392
Si Si8 0.550112 0.139787 0.895418
O O1 0.320845 0.051798 0.270764
O O2 0.285813 0.360701 0.283945
O O3 0.835248 0.488081 0.380594
O O4 0.916064 0.267805 0.500856
O O5 0.357820 0.903199 0.505555
O O6 0.807051 0.854658 0.369723
O O7 0.874910 0.797043 0.234332
O O8 0.518966 0.304681 0.390358
O O9 0.098609 0.028149 0.238063
O O10 0.601590 0.443372 0.714152
O O11 0.000000 0.500000 0.500000
O O12 0.877255 0.847725 0.101519
O O13 0.663610 0.813930 0.082706
O O14 0.672463 0.168921 0.033555
O O15 0.189467 0.833021 0.861970
O O16 0.481775 0.390229 0.889750
O O17 0.500000 0.000000 0.000000
#
# Coordination Sequence:
#
# PCOD9078609 Si02
#       8
#     2   2   2   2   2   2   2   2
#     4   9  19  37  62  95 120 159 203 254 300 368
#     4  10  18  35  67  94 119 155 212 258 301 355
#     4  10  20  36  62  98 125 157 206 260 304 356
#     4   9  18  35  64  98 124 150 208 263 299 359
#     4  10  24  42  58  88 132 163 208 248 316 371
#     4  10  20  36  64  90 119 160 210 254 305 357
#     4  10  21  42  64  91 121 165 211 263 297 366
#     4  12  26  43  59  89 128 167 205 257 312 375
#
# _framework density 24.950078999999999
#
# number of rings (size 3 to 8) (size 9 to 14) (size 15 to 20)
#    0.000    2.000    2.500    0.750    1.750    1.000 
#    4.500    5.000    0.000    0.000    0.000    0.000 
#    0.000    0.000    0.000    0.000    0.000    0.000 
#
# Total GULP energy -89273.898680 kJ/mol
# GULP energy per Si atom -5579.618668 kJ/mol
# Density = 2.489329 g / cm^3
# Si number density = 24.950079 Si / 1000 Ang^3
#
#
#
# Elastic Constant Matrix: (Units=GPa)
#
#
# Indices 1 2 3 4 5 6 
#
# 1 60.2711 7.2579 20.6786 -4.9009 -1.9728 1.5922
# 2 7.2579 36.9578 13.2327 -2.8958 1.9916 -6.1276
# 3 20.6786 13.2327 150.5790 -9.6688 13.1023 -7.6691
# 4 -4.9009 -2.8958 -9.6688 40.8884 -5.1951 2.4405
# 5 -1.9728 1.9916 13.1023 -5.1951 44.7653 1.2671
# 6 1.5922 -6.1276 -7.6691 2.4405 1.2671 22.6525
#
#
#
# Elastic Compliance Matrix: (Units=1/GPa)
#
#
# Indices 1 2 3 4 5 6 
#
# 1 0.018106 -0.003191 -0.002426 0.001813 0.001953 -0.003262
# 2 -0.003191 0.029660 -0.001633 0.000732 -0.001115 0.007678
# 3 -0.002426 -0.001633 0.007485 0.000950 -0.002179 0.002282
# 4 0.001813 0.000732 0.000950 0.025455 0.002794 -0.002506
# 5 0.001953 -0.001115 -0.002179 0.002794 0.023516 -0.002793
# 6 -0.003262 0.007678 0.002282 -0.002506 -0.002793 0.047650
#
#
# Mechanical properties :
#
#
# Convention : Reuss Voigt Hill
#
# Bulk Modulus (GPa) = 24.53973 36.68294 30.61133
# Shear Modulus (GPa) = 27.78484 35.43715 31.61100
#
# Velocity S-wave (km/s) = 3.34071 3.77280 3.56331
# Velocity P-wave (km/s) = 4.97367 5.80631 5.40604
#
# Compressibility (1/GPa) = 0.04075024
#
# Stress axis : x y z
#
# Youngs Moduli (GPa) = 55.23130 33.71576 133.60909
#
# Poissons Ratio (x) = 0.10759 0.32408
# Poissons Ratio (y) = 0.17625 0.21821
# Poissons Ratio (z) = 0.13397 0.05507
#
# Static dielectric constant tensor:
#      x y z
#    x 2.005700 -0.047250 -0.046880 
#    y -0.047250 2.005950 0.050630 
#    z -0.046880 0.050630 2.136630 
# 
# From -- ./inp_files/593519.got.cif
#   From: 2010.05.17/outbox.cif.g08.bks.cpg/sg2_297_cif.got.tgz:593519.got - 2010.06.03 11:33:40.
