data_PCOD9078991
_publ_section_title
;
Structure prediction by ZEFSAII (Michael W. Deem and Ramdas Pophale) SiO2 
 PCOD9078991
Probable space group: P -1
;
_chemical_formula_sum "Si O2"
_cell_formula_units_Z 16
_cell_length_a 6.411480
_cell_length_b 8.562216
_cell_length_c 20.597756
_cell_angle_alpha 126.980839
_cell_angle_beta 45.601299
_cell_angle_gamma 116.837847
_cell_volume 644.455292
_symmetry_space_group_name_H-M "P -1"
_symmetry_group_IT_number 2
_symmetry_cell_setting 'triclinic'
loop_
_space_group_symop_operation_xyz
x,y,z
-x,-y,-z
loop_
_atom_site_type_symbol
_atom_site_label
_atom_site_fract_x
_atom_site_fract_y
_atom_site_fract_z
Si Si1 0.560037 0.228883 0.058919
Si Si2 0.819101 0.141443 0.353879
Si Si3 0.895413 0.446251 0.779421
Si Si4 0.334476 0.843916 0.343241
Si Si5 0.308726 0.685815 0.081869
Si Si6 0.491880 0.889275 0.821327
Si Si7 0.578499 0.368823 0.350306
Si Si8 0.027358 0.775934 0.520691
O O1 0.269415 0.350332 0.140408
O O2 0.640000 0.231680 0.118391
O O3 0.778702 0.295616 0.969741
O O4 0.500000 0.000000 0.000000
O O5 0.695779 0.311287 0.380096
O O6 0.160396 0.138251 0.263518
O O7 0.775745 0.171343 0.446919
O O8 0.642732 0.946741 0.320131
O O9 0.678804 0.296986 0.750065
O O10 0.927098 0.362806 0.823551
O O11 0.209839 0.458452 0.679686
O O12 0.199311 0.729647 0.406737
O O13 0.137569 0.025928 0.412122
O O14 0.509379 0.879377 0.107049
O O15 0.500000 0.500000 0.000000
O O16 0.379907 0.803669 0.755767
O O17 0.232854 0.375716 0.436700
#
# Coordination Sequence:
#
# PCOD9078991 Si02
#       8
#     2   2   2   2   2   2   2   2
#     4   9  19  38  63  83 119 157 200 247 295 365
#     4  10  18  36  61  86 115 164 200 238 291 365
#     4  11  20  38  59  91 123 156 196 256 297 343
#     4  10  21  37  62  89 124 155 202 251 292 350
#     4   9  19  36  62  84 119 151 197 258 297 348
#     4  10  19  39  63  83 117 166 198 238 302 364
#     4  10  21  35  61  86 123 157 200 239 295 365
#     4   9  20  39  60  90 119 165 199 238 300 358
#
# _framework density 24.827169999999999
#
# number of rings (size 3 to 8) (size 9 to 14) (size 15 to 20)
#    0.000    2.250    1.250    2.625    0.000    0.500 
#    4.500    6.875   11.000    0.000    0.000    0.000 
#    0.000    0.000    0.000    0.000    0.000    0.000 
#
# Total GULP energy -89458.365281 kJ/mol
# GULP energy per Si atom -5591.147830 kJ/mol
# Density = 2.477066 g / cm^3
# Si number density = 24.827170 Si / 1000 Ang^3
#
#
#
# Elastic Constant Matrix: (Units=GPa)
#
#
# Indices 1 2 3 4 5 6 
#
# 1 87.7635 35.1773 42.3970 -7.4503 17.5506 -10.0450
# 2 35.1773 88.7521 32.2063 -20.1100 6.3022 -5.4887
# 3 42.3970 32.2063 73.2125 -15.3711 23.3653 -17.6518
# 4 -7.4503 -20.1100 -15.3711 59.2213 -17.3898 7.4023
# 5 17.5506 6.3022 23.3653 -17.3898 33.5386 -7.0021
# 6 -10.0450 -5.4887 -17.6518 7.4023 -7.0021 42.1925
#
#
#
# Elastic Compliance Matrix: (Units=1/GPa)
#
#
# Indices 1 2 3 4 5 6 
#
# 1 0.017363 -0.004562 -0.007057 -0.002580 -0.004592 0.000278
# 2 -0.004562 0.015673 -0.005219 0.005161 0.005499 -0.001224
# 3 -0.007057 -0.005219 0.025249 -0.000355 -0.011783 0.006311
# 4 -0.002580 0.005161 -0.000355 0.021863 0.011544 -0.002011
# 5 -0.004592 0.005499 -0.011783 0.011544 0.045423 0.000205
# 6 0.000278 -0.001224 0.006311 -0.002011 0.000205 0.026635
#
#
# Mechanical properties :
#
#
# Convention : Reuss Voigt Hill
#
# Bulk Modulus (GPa) = 40.63631 52.14327 46.38979
# Shear Modulus (GPa) = 25.76193 36.32032 31.04112
#
# Velocity S-wave (km/s) = 3.22475 3.82897 3.53978
# Velocity P-wave (km/s) = 5.50169 6.37151 5.95251
#
# Compressibility (1/GPa) = 0.02460854
#
# Stress axis : x y z
#
# Youngs Moduli (GPa) = 57.59320 63.80504 39.60589
#
# Poissons Ratio (x) = 0.29110 0.27950
# Poissons Ratio (y) = 0.26276 0.20669
# Poissons Ratio (z) = 0.40643 0.33298
#
# Static dielectric constant tensor:
#      x y z
#    x 1.917120 -0.019620 -0.002220 
#    y -0.019620 1.987850 -0.006350 
#    z -0.002220 -0.006350 2.043180 
# 
# From -- ./inp_files/582491.got.cif
#   From: 2010.05.17/outbox.cif.g08.bks.cpg/sg2_292_cif.got.tgz:582491.got - 2010.06.03 11:33:40.
