data_PCOD9078129
_publ_section_title
;
Structure prediction by ZEFSAII (Michael W. Deem and Ramdas Pophale) SiO2 
 PCOD9078129
Probable space group: P -1
;
_chemical_formula_sum "Si O2"
_cell_formula_units_Z 14
_cell_length_a 12.018344
_cell_length_b 17.473601
_cell_length_c 13.386416
_cell_angle_alpha 155.952591
_cell_angle_beta 132.868041
_cell_angle_gamma 39.848052
_cell_volume 731.677325
_symmetry_space_group_name_H-M "P -1"
_symmetry_group_IT_number 2
_symmetry_cell_setting 'triclinic'
loop_
_space_group_symop_operation_xyz
x,y,z
-x,-y,-z
loop_
_atom_site_type_symbol
_atom_site_label
_atom_site_fract_x
_atom_site_fract_y
_atom_site_fract_z
Si Si1 0.836514 0.241119 0.177675
Si Si2 0.160620 0.298042 0.911598
Si Si3 0.503101 0.187409 0.868285
Si Si4 0.142208 0.619516 0.859778
Si Si5 0.548466 0.751176 0.311214
Si Si6 0.862305 0.984064 0.591574
Si Si7 0.944689 0.430900 0.639737
O O1 0.876911 0.337722 0.218375
O O2 0.826275 0.376182 0.430345
O O3 0.656360 0.237668 0.048215
O O4 0.000000 0.000000 0.000000
O O5 0.347629 0.253109 0.930328
O O6 0.133423 0.102157 0.620705
O O7 0.146459 0.367486 0.100234
O O8 0.000000 0.500000 0.000000
O O9 0.409059 0.296612 0.836539
O O10 0.591942 0.932143 0.595286
O O11 0.347798 0.464685 0.820906
O O12 0.059099 0.487648 0.702523
O O13 0.070034 0.848938 0.145095
O O14 0.341082 0.876506 0.340741
O O15 0.948569 0.781155 0.478091
#
# Coordination Sequence:
#
# PCOD9078129 Si02
#       7
#     2   2   2   2   2   2   2
#     4  12  23  39  60  90 121 158 200 243 302 352
#     4   9  20  39  62  87 119 162 197 239 297 352
#     4  10  20  36  65  88 124 158 190 249 298 349
#     4  12  22  35  65  89 116 155 197 255 302 345
#     4  10  18  35  58  96 118 140 200 258 302 340
#     4  10  20  38  62  90 119 151 197 251 299 346
#     4  11  23  40  57  86 124 161 199 234 290 364
#
# _framework density 19.134118000000001
#
# number of rings (size 3 to 8) (size 9 to 14) (size 15 to 20)
#    0.000    1.429    2.857    5.143    0.000    1.143 
#    0.000    0.000    0.000    4.286    0.000    0.000 
#    0.000    0.000    0.000    0.000    0.000    0.000 
#
# Total GULP energy -78069.824462 kJ/mol
# GULP energy per Si atom -5576.416033 kJ/mol
# Density = 1.909057 g / cm^3
# Si number density = 19.134118 Si / 1000 Ang^3
#
#
#
# Elastic Constant Matrix: (Units=GPa)
#
#
# Indices 1 2 3 4 5 6 
#
# 1 63.7793 38.3636 26.1888 -12.2923 -5.3851 -2.9662
# 2 38.3636 96.6538 48.1153 -3.9343 -6.0627 16.7280
# 3 26.1888 48.1153 111.4038 -27.7439 1.5768 9.5915
# 4 -12.2923 -3.9343 -27.7439 39.6302 5.3814 3.2371
# 5 -5.3851 -6.0627 1.5768 5.3814 33.6567 -6.0900
# 6 -2.9662 16.7280 9.5915 3.2371 -6.0900 23.9724
#
#
#
# Elastic Compliance Matrix: (Units=1/GPa)
#
#
# Indices 1 2 3 4 5 6 
#
# 1 0.024089 -0.010588 -0.000994 0.004380 0.003286 0.011010
# 2 -0.010588 0.019455 -0.006120 -0.004794 0.000766 -0.011595
# 3 -0.000994 -0.006120 0.014897 0.010469 -0.004420 -0.004349
# 4 0.004380 -0.004794 0.010469 0.035031 -0.007510 -0.006940
# 5 0.003286 0.000766 -0.004420 -0.007510 0.033818 0.011246
# 6 0.011010 -0.011595 -0.004349 -0.006940 0.011246 0.056703
#
#
# Mechanical properties :
#
#
# Convention : Reuss Voigt Hill
#
# Bulk Modulus (GPa) = 43.40558 55.24136 49.32347
# Shear Modulus (GPa) = 22.01899 30.06315 26.04107
#
# Velocity S-wave (km/s) = 3.39598 3.96811 3.69314
# Velocity P-wave (km/s) = 6.17342 7.06596 6.63472
#
# Compressibility (1/GPa) = 0.02303851
#
# Stress axis : x y z
#
# Youngs Moduli (GPa) = 41.51221 51.40051 67.12582
#
# Poissons Ratio (x) = 0.54422 0.06670
# Poissons Ratio (y) = 0.43953 0.41081
# Poissons Ratio (z) = 0.04125 0.31457
#
# Static dielectric constant tensor:
#      x y z
#    x 1.688380 -0.002780 0.028910 
#    y -0.002780 1.666630 -0.023190 
#    z 0.028910 -0.023190 1.728330 
# 
# From -- ./inp_files/433552.got.cif
#   From: 2010.05.17/outbox.cif.g08.bks.cpg/sg2_217_cif.got.tgz:433552.got - 2010.06.03 11:33:40.
