data_PCOD9078964
_publ_section_title
;
Structure prediction by ZEFSAII (Michael W. Deem and Ramdas Pophale) SiO2 
 PCOD9078964
Probable space group: P -1
;
_chemical_formula_sum "Si O2"
_cell_formula_units_Z 16
_cell_length_a 11.514853
_cell_length_b 17.572732
_cell_length_c 19.223269
_cell_angle_alpha 21.931878
_cell_angle_beta 122.011106
_cell_angle_gamma 136.552415
_cell_volume 828.963603
_symmetry_space_group_name_H-M "P -1"
_symmetry_group_IT_number 2
_symmetry_cell_setting 'triclinic'
loop_
_space_group_symop_operation_xyz
x,y,z
-x,-y,-z
loop_
_atom_site_type_symbol
_atom_site_label
_atom_site_fract_x
_atom_site_fract_y
_atom_site_fract_z
Si Si1 0.078345 0.722985 0.398050
Si Si2 0.704435 0.532131 0.000428
Si Si3 0.376033 0.401782 0.931567
Si Si4 0.320332 0.033731 0.834274
Si Si5 0.658988 0.179715 0.482406
Si Si6 0.015000 0.639062 0.668058
Si Si7 0.959078 0.408007 0.985300
Si Si8 0.779764 0.603212 0.512385
O O1 0.196785 0.707033 0.502734
O O2 0.000000 0.500000 0.500000
O O3 0.897593 0.629999 0.463023
O O4 0.236934 0.076899 0.127408
O O5 0.720900 0.672569 0.958750
O O6 0.540864 0.173542 0.268320
O O7 0.599774 0.559646 0.885969
O O8 0.905495 0.639019 0.951116
O O9 0.376898 0.621599 0.709523
O O10 0.552945 0.260043 0.737219
O O11 0.261631 0.204952 0.675794
O O12 0.268198 0.897678 0.854357
O O13 0.155980 0.726125 0.087131
O O14 0.779011 0.213710 0.426245
O O15 0.918688 0.717812 0.527654
O O16 0.027413 0.658993 0.738829
O O17 0.000000 0.500000 0.000000
#
# Coordination Sequence:
#
# PCOD9078964 Si02
#       8
#     2   2   2   2   2   2   2   2
#     4  10  22  35  53  83 115 142 176 226 285 321
#     4  10  20  34  58  85 108 141 187 222 271 318
#     4  10  19  34  57  83 109 141 183 230 264 322
#     4   9  20  34  57  80 105 140 188 223 267 314
#     4  10  19  35  60  85 105 142 187 226 268 324
#     4   9  19  34  57  85 105 137 186 222 270 318
#     4  10  21  37  54  78 120 147 168 223 278 327
#     4  10  18  36  61  77 101 144 189 230 256 320
#
# _framework density 19.301207999999999
#
# number of rings (size 3 to 8) (size 9 to 14) (size 15 to 20)
#    0.750    1.500    1.250    2.250    0.000    3.500 
#    0.000    0.625    5.500    0.000    0.000    0.000 
#    0.000    0.000    0.000    0.000    0.000    0.000 
#
# Total GULP energy -89228.992031 kJ/mol
# GULP energy per Si atom -5576.812002 kJ/mol
# Density = 1.925728 g / cm^3
# Si number density = 19.301208 Si / 1000 Ang^3
#
#
#
# Elastic Constant Matrix: (Units=GPa)
#
#
# Indices 1 2 3 4 5 6 
#
# 1 33.8311 35.6917 5.4539 1.7724 5.1434 0.9737
# 2 35.6917 105.6696 26.1387 5.4783 15.5025 -6.8173
# 3 5.4539 26.1387 91.8153 9.4177 10.3019 4.0173
# 4 1.7724 5.4783 9.4177 34.4978 1.3071 10.3873
# 5 5.1434 15.5025 10.3019 1.3071 21.3233 0.0273
# 6 0.9737 -6.8173 4.0173 10.3873 0.0273 37.3780
#
#
#
# Elastic Compliance Matrix: (Units=1/GPa)
#
#
# Indices 1 2 3 4 5 6 
#
# 1 0.046974 -0.016716 0.002091 0.001128 -0.000252 -0.004811
# 2 -0.016716 0.017301 -0.003137 -0.002133 -0.006906 0.004526
# 3 0.002091 -0.003137 0.012426 -0.002463 -0.004075 -0.001275
# 4 0.001128 -0.002133 -0.002463 0.032706 0.000476 -0.009243
# 5 -0.000252 -0.006906 -0.004075 0.000476 0.053919 -0.000987
# 6 -0.004811 0.004526 -0.001275 -0.009243 -0.000987 0.030411
#
#
# Mechanical properties :
#
#
# Convention : Reuss Voigt Hill
#
# Bulk Modulus (GPa) = 24.28427 40.65384 32.46906
# Shear Modulus (GPa) = 20.57743 29.57527 25.07635
#
# Velocity S-wave (km/s) = 3.26869 3.91871 3.60837
# Velocity P-wave (km/s) = 5.18217 6.44854 5.84972
#
# Compressibility (1/GPa) = 0.04117892
#
# Stress axis : x y z
#
# Youngs Moduli (GPa) = 21.28839 57.79978 80.47746
#
# Poissons Ratio (x) = 0.96616 -0.16831
# Poissons Ratio (y) = 0.35585 0.25245
# Poissons Ratio (z) = -0.04452 0.18131
#
# Static dielectric constant tensor:
#      x y z
#    x 1.645000 0.014240 -0.023850 
#    y 0.014240 1.708900 -0.001380 
#    z -0.023850 -0.001380 1.724120 
# 
# From -- ./inp_files/595819.got.cif
#   From: 2010.05.17/outbox.cif.g08.bks.cpg/sg2_298_cif.got.tgz:595819.got - 2010.06.03 11:33:40.
