data_PCOD9078063
_publ_section_title
;
Structure prediction by ZEFSAII (Michael W. Deem and Ramdas Pophale) SiO2 
 PCOD9078063
Probable space group: P -1
;
_chemical_formula_sum "Si O2"
_cell_formula_units_Z 12
_cell_length_a 14.462053
_cell_length_b 7.282076
_cell_length_c 12.363457
_cell_angle_alpha 28.960364
_cell_angle_beta 127.582836
_cell_angle_gamma 130.627948
_cell_volume 475.616501
_symmetry_space_group_name_H-M "P -1"
_symmetry_group_IT_number 2
_symmetry_cell_setting 'triclinic'
loop_
_space_group_symop_operation_xyz
x,y,z
-x,-y,-z
loop_
_atom_site_type_symbol
_atom_site_label
_atom_site_fract_x
_atom_site_fract_y
_atom_site_fract_z
Si Si1 0.526442 0.947501 0.213765
Si Si2 0.796934 0.933228 0.951920
Si Si3 0.214567 0.832084 0.773931
Si Si4 0.455411 0.186536 0.270442
Si Si5 0.028130 0.335340 0.222484
Si Si6 0.263908 0.571064 0.175201
O O1 0.251761 0.980560 0.009540
O O2 0.651944 0.866885 0.311127
O O3 0.597319 0.403674 0.716597
O O4 0.522402 0.100054 0.254815
O O5 0.924324 0.285017 0.859464
O O6 0.809279 0.503654 0.162433
O O7 0.690228 0.983645 0.771461
O O8 0.480236 0.660497 0.057799
O O9 0.234652 0.588186 0.020961
O O10 0.095453 0.950172 0.665857
O O11 0.500000 0.000000 0.500000
O O12 0.155240 0.243307 0.331218
O O13 0.000000 0.500000 0.000000
#
# Coordination Sequence:
#
# PCOD9078063 Si02
#       6
#     2   2   2   2   2   2
#     4   9  17  29  48  76  93 123 169 193 235 290
#     4   8  16  27  43  68  95 123 166 187 232 293
#     4  10  15  25  47  71  98 125 157 203 236 277
#     4   9  17  31  50  72 101 128 155 200 243 282
#     4   8  15  26  42  71  98 127 159 193 241 285
#     4   8  16  27  42  70 101 121 158 199 232 282
#
# _framework density 25.230412000000001
#
# number of rings (size 3 to 8) (size 9 to 14) (size 15 to 20)
#    1.000    2.333    0.000    2.000    0.000    0.000 
#    0.000    0.000    0.000   26.000    0.000    2.333 
#    0.000    0.000    0.000    0.000    0.000    0.000 
#
# Total GULP energy -66922.084412 kJ/mol
# GULP energy per Si atom -5576.840368 kJ/mol
# Density = 2.517299 g / cm^3
# Si number density = 25.230412 Si / 1000 Ang^3
#
#
#
# Elastic Constant Matrix: (Units=GPa)
#
#
# Indices 1 2 3 4 5 6 
#
# 1 166.8411 26.5741 46.5872 20.5112 35.2538 26.4916
# 2 26.5741 78.6793 40.3601 12.6889 8.9752 14.3053
# 3 46.5872 40.3601 114.4747 0.9898 1.2051 9.9121
# 4 20.5112 12.6889 0.9898 28.3039 9.8809 20.9369
# 5 35.2538 8.9752 1.2051 9.8809 47.4284 14.5146
# 6 26.4916 14.3053 9.9121 20.9369 14.5146 48.5561
#
#
#
# Elastic Compliance Matrix: (Units=1/GPa)
#
#
# Indices 1 2 3 4 5 6 
#
# 1 0.008641 0.000207 -0.003425 -0.003726 -0.005330 -0.000876
# 2 0.000207 0.017063 -0.005975 -0.006571 -0.001683 -0.000584
# 3 -0.003425 -0.005975 0.012333 0.005194 0.002891 -0.001992
# 4 -0.003726 -0.006571 0.005194 0.057024 -0.001502 -0.021231
# 5 -0.005330 -0.001683 0.002891 -0.001502 0.027017 -0.004614
# 6 -0.000876 -0.000584 -0.001992 -0.021231 -0.004614 0.032185
#
#
# Mechanical properties :
#
#
# Convention : Reuss Voigt Hill
#
# Bulk Modulus (GPa) = 50.89017 65.22642 58.05829
# Shear Modulus (GPa) = 27.90187 41.28926 34.59556
#
# Velocity S-wave (km/s) = 3.32909 4.04974 3.70697
# Velocity P-wave (km/s) = 5.91532 6.91199 6.43299
#
# Compressibility (1/GPa) = 0.01965016
#
# Stress axis : x y z
#
# Youngs Moduli (GPa) = 115.73153 58.60722 81.08183
#
# Poissons Ratio (x) = -0.01212 0.27772
# Poissons Ratio (y) = -0.02394 0.48445
# Poissons Ratio (z) = 0.39640 0.35017
#
# Static dielectric constant tensor:
#      x y z
#    x 2.058190 0.057430 0.035340 
#    y 0.057430 2.006450 0.095350 
#    z 0.035340 0.095350 1.985970 
# 
# From -- ./inp_files/496893.got.cif
#   From: 2010.05.17/outbox.cif.g08.bks.cpg/sg2_249_cif.got.tgz:496893.got - 2010.06.03 11:33:40.
