data_PCOD9078975
_publ_section_title
;
Structure prediction by ZEFSAII (Michael W. Deem and Ramdas Pophale) SiO2 
 PCOD9078975
Probable space group: P -1
;
_chemical_formula_sum "Si O2"
_cell_formula_units_Z 12
_cell_length_a 8.102985
_cell_length_b 10.276831
_cell_length_c 8.102967
_cell_angle_alpha 57.767588
_cell_angle_beta 118.128706
_cell_angle_gamma 128.817449
_cell_volume 434.983868
_symmetry_space_group_name_H-M "P -1"
_symmetry_group_IT_number 2
_symmetry_cell_setting 'triclinic'
loop_
_space_group_symop_operation_xyz
x,y,z
-x,-y,-z
loop_
_atom_site_type_symbol
_atom_site_label
_atom_site_fract_x
_atom_site_fract_y
_atom_site_fract_z
Si Si1 0.658014 0.466087 0.915199
Si Si2 0.817987 0.066232 0.738622
Si Si3 0.385726 0.620852 0.392528
Si Si4 0.381287 0.966089 0.691929
Si Si5 0.013381 0.120854 0.264874
Si Si6 0.804856 0.566236 0.251754
O O1 0.690113 0.378258 0.828191
O O2 0.405833 0.406539 0.862980
O O3 0.759595 0.449751 0.145306
O O4 0.789205 0.678815 0.791795
O O5 0.595055 0.949747 0.809849
O O6 0.959493 0.979525 0.809336
O O7 0.974252 0.249998 0.775748
O O8 0.730478 0.093458 0.500708
O O9 0.500000 0.500000 0.500000
O O10 0.529385 0.821183 0.389611
O O11 0.211135 0.520471 0.520033
O O12 0.206452 0.878261 0.811857
O O13 0.000000 0.000000 0.500000
#
# Coordination Sequence:
#
# PCOD9078975 Si02
#       6
#     2   2   2   2   2   2
#     4  10  21  36  60  90 117 155 201 243 296 357
#     4  10  20  36  58  88 119 153 200 244 294 355
#     4  10  18  36  61  83 117 156 192 243 296 347
#     4  10  21  36  60  90 117 155 201 243 296 357
#     4  10  18  36  61  83 117 156 192 243 296 347
#     4  10  20  36  58  88 119 153 200 244 294 355
#
# _framework density 27.587232
#
# number of rings (size 3 to 8) (size 9 to 14) (size 15 to 20)
#    0.000    2.000    0.000    8.000    0.000    1.333 
#    0.000    5.000    0.000    0.000    0.000    0.000 
#    0.000    0.000    0.000    0.000    0.000    0.000 
#
# Total GULP energy -67234.610395 kJ/mol
# GULP energy per Si atom -5602.884200 kJ/mol
# Density = 2.752444 g / cm^3
# Si number density = 27.587232 Si / 1000 Ang^3
#
#
#
# Elastic Constant Matrix: (Units=GPa)
#
#
# Indices 1 2 3 4 5 6 
#
# 1 175.0875 33.0433 52.9639 -2.4708 -19.3335 22.9476
# 2 33.0433 97.7848 41.0313 21.2146 11.5920 14.8404
# 3 52.9639 41.0313 148.8732 21.1213 -20.9970 -16.6056
# 4 -2.4708 21.2146 21.1213 56.2846 -16.9176 3.6010
# 5 -19.3335 11.5920 -20.9970 -16.9176 31.3548 -6.7539
# 6 22.9476 14.8404 -16.6056 3.6010 -6.7539 50.7031
#
#
#
# Elastic Compliance Matrix: (Units=1/GPa)
#
#
# Indices 1 2 3 4 5 6 
#
# 1 0.008097 -0.003250 -0.001994 0.004520 0.006696 -0.002796
# 2 -0.003250 0.021014 -0.007251 -0.011633 -0.022904 -0.009279
# 3 -0.001994 -0.007251 0.011862 0.001222 0.011864 0.008403
# 4 0.004520 -0.011633 0.001222 0.028968 0.024165 0.002921
# 5 0.006696 -0.022904 0.011864 0.024165 0.068702 0.014994
# 6 -0.002796 -0.009279 0.008403 0.002921 0.014994 0.028246
#
#
# Mechanical properties :
#
#
# Convention : Reuss Voigt Hill
#
# Bulk Modulus (GPa) = 62.55705 75.09140 68.82422
# Shear Modulus (GPa) = 25.35416 47.31562 36.33489
#
# Velocity S-wave (km/s) = 3.03488 4.14590 3.63311
# Velocity P-wave (km/s) = 5.91658 7.08496 6.52697
#
# Compressibility (1/GPa) = 0.01598541
#
# Stress axis : x y z
#
# Youngs Moduli (GPa) = 123.49602 47.58677 84.30267
#
# Poissons Ratio (x) = 0.15464 0.16809
# Poissons Ratio (y) = 0.40132 0.61124
# Poissons Ratio (z) = 0.24624 0.34503
#
# Static dielectric constant tensor:
#      x y z
#    x 2.173780 -0.020660 0.093630 
#    y -0.020660 2.062650 -0.020280 
#    z 0.093630 -0.020280 2.213760 
# 
# From -- ./inp_files/177977.got.cif
#   From: 2010.05.17/outbox.cif.g08.bks.cpg/sg2_89_cif.got.tgz:177977.got - 2010.06.03 11:33:40.
