data_PCOD9078695
_publ_section_title
;
Structure prediction by ZEFSAII (Michael W. Deem and Ramdas Pophale) SiO2 
 PCOD9078695
Probable space group: P -1
;
_chemical_formula_sum "Si O2"
_cell_formula_units_Z 14
_cell_length_a 13.039710
_cell_length_b 8.373897
_cell_length_c 7.618996
_cell_angle_alpha 85.162899
_cell_angle_beta 45.825640
_cell_angle_gamma 103.637753
_cell_volume 541.718610
_symmetry_space_group_name_H-M "P -1"
_symmetry_group_IT_number 2
_symmetry_cell_setting 'triclinic'
loop_
_space_group_symop_operation_xyz
x,y,z
-x,-y,-z
loop_
_atom_site_type_symbol
_atom_site_label
_atom_site_fract_x
_atom_site_fract_y
_atom_site_fract_z
Si Si1 0.777725 0.007702 0.092518
Si Si2 0.989707 0.654032 0.338201
Si Si3 0.329216 0.563307 0.635509
Si Si4 0.811715 0.262360 0.438568
Si Si5 0.661327 0.201616 0.965732
Si Si6 0.595898 0.716952 0.570543
Si Si7 0.119016 0.261010 0.178797
O O1 0.727345 0.906422 0.345485
O O2 0.814144 0.882918 0.922160
O O3 0.648624 0.057983 0.141389
O O4 0.940234 0.181939 0.892670
O O5 0.903630 0.470584 0.362534
O O6 0.895917 0.697000 0.603547
O O7 0.154752 0.666695 0.225778
O O8 0.264112 0.707461 0.650782
O O9 0.497719 0.666595 0.510268
O O10 0.344504 0.438130 0.472428
O O11 0.223641 0.429457 0.921369
O O12 0.675015 0.161004 0.750354
O O13 0.944923 0.193488 0.311754
O O14 0.529182 0.273856 0.143759
#
# Coordination Sequence:
#
# PCOD9078695 Si02
#       7
#     2   2   2   2   2   2   2
#     4   9  20  33  60  77 105 145 176 211 257 325
#     4   9  19  32  58  83 105 134 174 217 270 310
#     4  10  22  33  58  77 107 140 180 221 257 310
#     4  11  20  34  55  86 107 132 176 225 269 302
#     4   9  19  33  59  77 106 140 176 218 258 312
#     4  10  19  39  53  77 102 148 184 208 258 316
#     4  10  18  36  56  81 107 140 174 216 264 319
#
# _framework density 25.843672999999999
#
# number of rings (size 3 to 8) (size 9 to 14) (size 15 to 20)
#    0.857    1.429    0.000    4.714    0.000    0.571 
#    0.000    3.571    3.143    0.000    0.000    0.000 
#    0.000    0.000    0.000    0.000    0.000    0.000 
#
# Total GULP energy -78213.809603 kJ/mol
# GULP energy per Si atom -5586.700686 kJ/mol
# Density = 2.578485 g / cm^3
# Si number density = 25.843673 Si / 1000 Ang^3
#
#
#
# Elastic Constant Matrix: (Units=GPa)
#
#
# Indices 1 2 3 4 5 6 
#
# 1 41.2868 4.3706 4.7830 -3.1582 3.0858 -3.8557
# 2 4.3706 43.0337 16.8203 11.7900 -1.4878 -7.8004
# 3 4.7830 16.8203 121.8847 23.6738 -10.5828 0.9961
# 4 -3.1582 11.7900 23.6738 47.7280 -1.2514 -7.3097
# 5 3.0858 -1.4878 -10.5828 -1.2514 20.8727 3.4944
# 6 -3.8557 -7.8004 0.9961 -7.3097 3.4944 26.1561
#
#
#
# Elastic Compliance Matrix: (Units=1/GPa)
#
#
# Indices 1 2 3 4 5 6 
#
# 1 0.025872 -0.002183 -0.001994 0.003870 -0.005608 0.005069
# 2 -0.002183 0.026980 -0.002898 -0.004362 -0.000606 0.006696
# 3 -0.001994 -0.002898 0.010137 -0.004857 0.005547 -0.003642
# 4 0.003870 -0.004362 -0.004857 0.025694 -0.002983 0.007033
# 5 -0.005608 -0.000606 0.005547 -0.002983 0.052855 -0.009113
# 6 0.005069 0.006696 -0.003642 0.007033 -0.009113 0.044298
#
#
# Mechanical properties :
#
#
# Convention : Reuss Voigt Hill
#
# Bulk Modulus (GPa) = 20.47554 28.68368 24.57961
# Shear Modulus (GPa) = 23.11980 30.96678 27.04329
#
# Velocity S-wave (km/s) = 2.99423 3.46531 3.23835
# Velocity P-wave (km/s) = 4.46027 5.20905 4.84913
#
# Compressibility (1/GPa) = 0.04883876
#
# Stress axis : x y z
#
# Youngs Moduli (GPa) = 38.65257 37.06455 98.64540
#
# Poissons Ratio (x) = 0.08093 0.19669
# Poissons Ratio (y) = 0.08440 0.28584
# Poissons Ratio (z) = 0.07707 0.10740
#
# Static dielectric constant tensor:
#      x y z
#    x 2.055560 0.053820 0.035350 
#    y 0.053820 2.127050 -0.014470 
#    z 0.035350 -0.014470 2.073030 
# 
# From -- ./inp_files/297757.got.cif
#   From: 2010.05.17/outbox.cif.g08.bks.cpg/sg2_149_cif.got.tgz:297757.got - 2010.06.03 11:33:40.
