data_PCOD9078968
_publ_section_title
;
Structure prediction by ZEFSAII (Michael W. Deem and Ramdas Pophale) SiO2 
 PCOD9078968
Probable space group: P -1
;
_chemical_formula_sum "Si O2"
_cell_formula_units_Z 16
_cell_length_a 24.772332
_cell_length_b 12.258403
_cell_length_c 15.946830
_cell_angle_alpha 35.503669
_cell_angle_beta 158.702983
_cell_angle_gamma 155.406582
_cell_volume 714.206934
_symmetry_space_group_name_H-M "P -1"
_symmetry_group_IT_number 2
_symmetry_cell_setting 'triclinic'
loop_
_space_group_symop_operation_xyz
x,y,z
-x,-y,-z
loop_
_atom_site_type_symbol
_atom_site_label
_atom_site_fract_x
_atom_site_fract_y
_atom_site_fract_z
Si Si1 0.736829 0.713362 0.091024
Si Si2 0.767331 0.831822 0.517762
Si Si3 0.389365 0.989982 0.722679
Si Si4 0.146214 0.338179 0.531614
Si Si5 0.308528 0.161499 0.777698
Si Si6 0.633703 0.727806 0.759865
Si Si7 0.209244 0.554854 0.871345
Si Si8 0.770563 0.198848 0.559551
O O1 0.776176 0.734064 0.235451
O O2 0.551504 0.386376 0.018310
O O3 0.641117 0.765415 0.847953
O O4 0.981269 0.941267 0.271982
O O5 0.718797 0.904774 0.484667
O O6 0.691182 0.878520 0.295662
O O7 0.606813 0.511535 0.475771
O O8 0.250458 0.714520 0.747233
O O9 0.408874 0.969582 0.666046
O O10 0.615152 0.217811 0.950657
O O11 0.221629 0.295603 0.585881
O O12 0.239676 0.623687 0.510620
O O13 0.890695 0.131413 0.290649
O O14 0.754818 0.001599 0.717022
O O15 0.744736 0.624227 0.968324
O O16 0.983409 0.388544 0.691710
#
# Coordination Sequence:
#
# PCOD9078968 Si02
#       8
#     2   2   2   2   2   2   2   2
#     4  10  18  36  61  80 104 145 188 226 275 324
#     4   9  19  36  58  82 111 147 184 229 274 324
#     4  10  21  36  57  83 112 145 188 231 272 320
#     4  10  21  36  59  85 111 140 184 236 277 323
#     4   9  19  37  60  85 106 138 189 237 277 322
#     4  10  22  35  53  82 118 151 183 220 271 335
#     4  10  20  36  55  79 110 151 188 224 270 326
#     4  12  23  35  54  85 118 149 181 224 277 331
#
# _framework density 22.402470999999998
#
# number of rings (size 3 to 8) (size 9 to 14) (size 15 to 20)
#    0.000    2.000    0.000    4.125    0.000    6.000 
#    0.000    2.500    0.000    7.500    0.000    0.000 
#    0.000    0.000    0.000    0.000    0.000    0.000 
#
# Total GULP energy -89075.424260 kJ/mol
# GULP energy per Si atom -5567.214016 kJ/mol
# Density = 2.235148 g / cm^3
# Si number density = 22.402471 Si / 1000 Ang^3
#
#
#
# Elastic Constant Matrix: (Units=GPa)
#
#
# Indices 1 2 3 4 5 6 
#
# 1 40.8226 21.2887 9.0263 -6.8292 -1.1033 -14.3917
# 2 21.2887 84.6624 32.3310 0.1519 -15.0935 -8.4518
# 3 9.0263 32.3310 52.5622 22.8792 -16.1077 -2.5204
# 4 -6.8292 0.1519 22.8792 49.2540 5.0316 -1.9655
# 5 -1.1033 -15.0935 -16.1077 5.0316 30.3979 2.2284
# 6 -14.3917 -8.4518 -2.5204 -1.9655 2.2284 31.9706
#
#
#
# Elastic Compliance Matrix: (Units=1/GPa)
#
#
# Indices 1 2 3 4 5 6 
#
# 1 0.036851 -0.005604 -0.010150 0.011477 -0.009874 0.015701
# 2 -0.005604 0.018035 -0.011342 0.004299 0.001921 0.001481
# 3 -0.010150 -0.011342 0.045193 -0.024958 0.022600 -0.007115
# 4 0.011477 0.004299 -0.024958 0.035531 -0.017121 0.007713
# 5 -0.009874 0.001921 0.022600 -0.017121 0.048786 -0.006609
# 6 0.015701 0.001481 -0.007115 0.007713 -0.006609 0.039112
#
#
# Mechanical properties :
#
#
# Convention : Reuss Voigt Hill
#
# Bulk Modulus (GPa) = 21.79299 33.70436 27.74867
# Shear Modulus (GPa) = 17.06501 30.01792 23.54146
#
# Velocity S-wave (km/s) = 2.76297 3.66449 3.24519
# Velocity P-wave (km/s) = 4.46405 5.74301 5.14344
#
# Compressibility (1/GPa) = 0.04588632
#
# Stress axis : x y z
#
# Youngs Moduli (GPa) = 27.13610 55.44821 22.12726
#
# Poissons Ratio (x) = 0.31072 0.22460
# Poissons Ratio (y) = 0.15207 0.25098
# Poissons Ratio (z) = 0.27544 0.62892
#
# Static dielectric constant tensor:
#      x y z
#    x 1.843590 -0.023060 0.018130 
#    y -0.023060 1.859680 0.043990 
#    z 0.018130 0.043990 1.888670 
# 
# From -- ./inp_files/217809.got.cif
#   From: 2010.05.17/outbox.cif.g08.bks.cpg/sg2_109_cif.got.tgz:217809.got - 2010.06.03 11:33:40.
