data_PCOD9078322
_publ_section_title
;
Structure prediction by ZEFSAII (Michael W. Deem and Ramdas Pophale) SiO2 
 PCOD9078322
Probable space group: P -1
;
_chemical_formula_sum "Si O2"
_cell_formula_units_Z 16
_cell_length_a 10.180404
_cell_length_b 9.893325
_cell_length_c 11.578776
_cell_angle_alpha 66.204933
_cell_angle_beta 39.349546
_cell_angle_gamma 68.111261
_cell_volume 672.841846
_symmetry_space_group_name_H-M "P -1"
_symmetry_group_IT_number 2
_symmetry_cell_setting 'triclinic'
loop_
_space_group_symop_operation_xyz
x,y,z
-x,-y,-z
loop_
_atom_site_type_symbol
_atom_site_label
_atom_site_fract_x
_atom_site_fract_y
_atom_site_fract_z
Si Si1 0.126869 0.646364 0.355191
Si Si2 0.129639 0.695546 0.068155
Si Si3 0.613040 0.811720 0.534682
Si Si4 0.842025 0.501486 0.214991
Si Si5 0.011686 0.827458 0.698508
Si Si6 0.841944 0.063365 0.213990
Si Si7 0.206458 0.109598 0.389566
Si Si8 0.491274 0.506752 0.737615
O O1 0.161967 0.683292 0.185526
O O2 0.984877 0.780019 0.466201
O O3 0.352929 0.621065 0.269387
O O4 0.000000 0.500000 0.500000
O O5 0.919557 0.628688 0.195966
O O6 0.130663 0.858103 0.953433
O O7 0.314779 0.584765 0.918056
O O8 0.387125 0.857881 0.617817
O O9 0.636973 0.637072 0.573110
O O10 0.612391 0.858995 0.655008
O O11 0.789247 0.896276 0.325085
O O12 0.888547 0.342310 0.301263
O O13 0.620515 0.528575 0.293125
O O14 0.000000 0.500000 0.000000
O O15 0.993656 0.887891 0.821575
O O16 0.804471 0.847013 0.752949
O O17 0.158206 0.940609 0.500223
#
# Coordination Sequence:
#
# PCOD9078322 Si02
#       8
#     2   2   2   2   2   2   2   2
#     4  12  23  39  56  88 129 154 193 241 299 355
#     4  10  21  38  61  91 114 160 196 240 298 346
#     4   9  16  33  55  89 114 146 192 244 286 339
#     4  10  18  35  61  86 112 149 201 242 282 343
#     4  10  18  37  57  85 107 155 199 238 282 347
#     4   9  17  33  61  86 115 145 204 244 281 347
#     4  10  22  34  58  83 116 155 190 241 288 344
#     4  10  20  37  61  89 116 159 196 241 290 352
#
# _framework density 23.779733
#
# number of rings (size 3 to 8) (size 9 to 14) (size 15 to 20)
#    0.000    2.000    5.000    1.125    0.000    0.000 
#    2.250    6.250    0.000    3.000    0.000    0.000 
#    0.000    0.000    0.000    0.000    0.000    0.000 
#
# Total GULP energy -89356.961111 kJ/mol
# GULP energy per Si atom -5584.810069 kJ/mol
# Density = 2.372561 g / cm^3
# Si number density = 23.779733 Si / 1000 Ang^3
#
#
#
# Elastic Constant Matrix: (Units=GPa)
#
#
# Indices 1 2 3 4 5 6 
#
# 1 159.8976 42.8644 50.5423 -25.8184 14.2064 -17.8701
# 2 42.8644 91.2622 21.9670 -28.3000 -1.3361 -8.2433
# 3 50.5423 21.9670 91.5684 -14.2556 25.1170 2.9705
# 4 -25.8184 -28.3000 -14.2556 36.5590 2.9783 5.1855
# 5 14.2064 -1.3361 25.1170 2.9783 30.3852 -11.1927
# 6 -17.8701 -8.2433 2.9705 5.1855 -11.1927 37.4330
#
#
#
# Elastic Compliance Matrix: (Units=1/GPa)
#
#
# Indices 1 2 3 4 5 6 
#
# 1 0.008973 -0.002034 -0.004370 0.002443 0.000567 0.004014
# 2 -0.002034 0.015536 -0.002211 0.009106 0.003452 0.002396
# 3 -0.004370 -0.002211 0.020664 0.006440 -0.019831 -0.011035
# 4 0.002443 0.009106 0.006440 0.040610 -0.012517 -0.006708
# 5 0.000567 0.003452 -0.019831 -0.012517 0.058453 0.021816
# 6 0.004014 0.002396 -0.011035 -0.006708 0.021816 0.037486
#
#
# Mechanical properties :
#
#
# Convention : Reuss Voigt Hill
#
# Bulk Modulus (GPa) = 35.78911 63.71949 49.75430
# Shear Modulus (GPa) = 24.00756 36.03240 30.01998
#
# Velocity S-wave (km/s) = 3.18084 3.89685 3.55691
# Velocity P-wave (km/s) = 5.34539 6.86303 6.15119
#
# Compressibility (1/GPa) = 0.02794146
#
# Stress axis : x y z
#
# Youngs Moduli (GPa) = 111.44005 64.36665 48.39418
#
# Poissons Ratio (x) = 0.13095 0.21150
# Poissons Ratio (y) = 0.22672 0.10700
# Poissons Ratio (z) = 0.48703 0.14232
#
# Static dielectric constant tensor:
#      x y z
#    x 1.971470 -0.014430 0.038320 
#    y -0.014430 1.930160 0.015270 
#    z 0.038320 0.015270 1.950030 
# 
# From -- ./inp_files/392317.got.cif
#   From: 2010.05.17/outbox.cif.g08.bks.cpg/sg2_197_cif.got.tgz:392317.got - 2010.06.03 11:33:40.
