data_PCOD9078727
_publ_section_title
;
Structure prediction by ZEFSAII (Michael W. Deem and Ramdas Pophale) SiO2 
 PCOD9078727
Probable space group: P -1
;
_chemical_formula_sum "Si O2"
_cell_formula_units_Z 14
_cell_length_a 10.955925
_cell_length_b 20.299328
_cell_length_c 10.210359
_cell_angle_alpha 150.422669
_cell_angle_beta 138.703143
_cell_angle_gamma 50.906229
_cell_volume 737.897133
_symmetry_space_group_name_H-M "P -1"
_symmetry_group_IT_number 2
_symmetry_cell_setting 'triclinic'
loop_
_space_group_symop_operation_xyz
x,y,z
-x,-y,-z
loop_
_atom_site_type_symbol
_atom_site_label
_atom_site_fract_x
_atom_site_fract_y
_atom_site_fract_z
Si Si1 0.776878 0.072805 0.773321
Si Si2 0.397788 0.865901 0.750490
Si Si3 0.971099 0.893821 0.409574
Si Si4 0.370727 0.006123 0.218249
Si Si5 0.879787 0.642019 0.738294
Si Si6 0.603308 0.728909 0.462563
Si Si7 0.762166 0.355369 0.129930
O O1 0.562941 0.053973 0.523338
O O2 0.884944 0.971453 0.595265
O O3 0.777200 0.036825 0.864413
O O4 0.818622 0.228252 0.039993
O O5 0.484867 0.754652 0.542686
O O6 0.177751 0.857025 0.543459
O O7 0.500000 0.000000 0.000000
O O8 0.422972 0.884734 0.957478
O O9 0.858063 0.764729 0.032410
O O10 0.000000 0.000000 0.500000
O O11 0.321473 0.130757 0.302322
O O12 0.773703 0.659321 0.543552
O O13 0.804150 0.497601 0.479203
O O14 0.096195 0.643012 0.876176
O O15 0.450521 0.661640 0.123093
#
# Coordination Sequence:
#
# PCOD9078727 Si02
#       7
#     2   2   2   2   2   2   2
#     4  10  20  35  56  78 114 142 178 229 274 321
#     4  10  19  31  51  81 112 133 181 229 270 320
#     4  12  19  33  54  83 107 141 183 231 270 316
#     4   9  19  34  53  82 110 141 182 224 277 324
#     4  11  21  34  57  81 112 143 182 226 274 319
#     4  10  18  36  57  81 110 143 181 230 269 321
#     4  10  21  36  53  83 112 144 181 224 270 332
#
# _framework density 18.972833999999999
#
# number of rings (size 3 to 8) (size 9 to 14) (size 15 to 20)
#    0.000    1.714    2.857    4.714    0.000    0.571 
#    0.000    0.000    0.000   16.286    0.000    0.000 
#    0.000    0.000    0.000    0.000    0.000    0.000 
#
# Total GULP energy -77984.112146 kJ/mol
# GULP energy per Si atom -5570.293725 kJ/mol
# Density = 1.892965 g / cm^3
# Si number density = 18.972834 Si / 1000 Ang^3
#
#
#
# Elastic Constant Matrix: (Units=GPa)
#
#
# Indices 1 2 3 4 5 6 
#
# 1 97.6849 27.2080 41.2548 12.8606 -14.6926 15.5416
# 2 27.2080 61.9493 32.9994 8.4228 3.7966 -0.6764
# 3 41.2548 32.9994 99.8314 27.6890 4.4783 12.1564
# 4 12.8606 8.4228 27.6890 25.7018 -8.1380 2.9217
# 5 -14.6926 3.7966 4.4783 -8.1380 26.9119 -7.8843
# 6 15.5416 -0.6764 12.1564 2.9217 -7.8843 22.1214
#
#
#
# Elastic Compliance Matrix: (Units=1/GPa)
#
#
# Indices 1 2 3 4 5 6 
#
# 1 0.015903 -0.005100 -0.005701 0.003583 0.009931 -0.005130
# 2 -0.005100 0.021661 -0.005617 -0.000199 -0.003137 0.006240
# 3 -0.005701 -0.005617 0.023153 -0.024284 -0.016951 -0.011724
# 4 0.003583 -0.000199 -0.024284 0.071869 0.031429 0.012531
# 5 0.009931 -0.003137 -0.016951 0.031429 0.061176 0.019895
# 6 -0.005130 0.006240 -0.011724 0.012531 0.019895 0.060878
#
#
# Mechanical properties :
#
#
# Convention : Reuss Voigt Hill
#
# Bulk Modulus (GPa) = 35.86433 51.37666 43.62050
# Shear Modulus (GPa) = 16.84815 25.48057 21.16436
#
# Velocity S-wave (km/s) = 2.98319 3.66868 3.34355
# Velocity P-wave (km/s) = 5.55067 6.71442 6.16009
#
# Compressibility (1/GPa) = 0.02788285
#
# Stress axis : x y z
#
# Youngs Moduli (GPa) = 62.88069 46.16504 43.19158
#
# Poissons Ratio (x) = 0.23543 0.24622
# Poissons Ratio (y) = 0.32067 0.24260
# Poissons Ratio (z) = 0.35846 0.25930
#
# Static dielectric constant tensor:
#      x y z
#    x 1.668260 -0.001740 -0.001940 
#    y -0.001740 1.699660 0.013740 
#    z -0.001940 0.013740 1.710530 
# 
# From -- ./inp_files/224423.got.cif
#   From: 2010.05.17/outbox.cif.g08.bks.cpg/sg2_113_cif.got.tgz:224423.got - 2010.06.03 11:33:40.
