data_PCOD9078251
_publ_section_title
;
Structure prediction by ZEFSAII (Michael W. Deem and Ramdas Pophale) SiO2 
 PCOD9078251
Probable space group: P -1
;
_chemical_formula_sum "Si O2"
_cell_formula_units_Z 10
_cell_length_a 7.942723
_cell_length_b 7.524883
_cell_length_c 12.284823
_cell_angle_alpha 140.736894
_cell_angle_beta 130.305938
_cell_angle_gamma 56.485535
_cell_volume 352.363067
_symmetry_space_group_name_H-M "P -1"
_symmetry_group_IT_number 2
_symmetry_cell_setting 'triclinic'
loop_
_space_group_symop_operation_xyz
x,y,z
-x,-y,-z
loop_
_atom_site_type_symbol
_atom_site_label
_atom_site_fract_x
_atom_site_fract_y
_atom_site_fract_z
Si Si1 0.952907 0.021649 0.262950
Si Si2 0.372952 0.224609 0.164558
Si Si3 0.231473 0.768702 0.999987
Si Si4 0.900652 0.511866 0.623590
Si Si5 0.383797 0.728347 0.290904
O O1 0.072457 0.249354 0.345729
O O2 0.861118 0.213004 0.415092
O O3 0.140448 0.785251 0.270948
O O4 0.792426 0.864243 0.043766
O O5 0.279032 0.385800 0.311470
O O6 0.504468 0.447347 0.261460
O O7 0.424011 0.912640 0.087543
O O8 0.317215 0.712071 0.129561
O O9 0.142889 0.503486 0.778901
O O10 0.000000 0.000000 0.000000
O O11 0.500000 0.000000 0.500000
#
# Coordination Sequence:
#
# PCOD9078251 Si02
#       5
#     2   2   2   2   2
#     4  10  18  35  60  86 105 141 188 231 262 324
#     4  10  19  37  61  78 110 147 186 224 270 320
#     4   9  17  37  57  80 108 143 186 225 264 321
#     4   9  17  33  65  82 102 138 198 227 260 313
#     4  12  23  35  55  86 117 144 178 228 280 326
#
# _framework density 28.379818
#
# number of rings (size 3 to 8) (size 9 to 14) (size 15 to 20)
#    0.000    2.000    8.000    1.200    0.000    1.600 
#    0.000    1.000    0.000    3.600    0.000    0.000 
#    0.000    0.000    0.000    0.000    0.000    0.000 
#
# Total GULP energy -55835.012166 kJ/mol
# GULP energy per Si atom -5583.501217 kJ/mol
# Density = 2.831522 g / cm^3
# Si number density = 28.379818 Si / 1000 Ang^3
#
#
#
# Elastic Constant Matrix: (Units=GPa)
#
#
# Indices 1 2 3 4 5 6 
#
# 1 85.1580 33.3852 42.6953 -0.5604 -27.3029 10.8779
# 2 33.3852 117.2184 43.9266 -6.1974 4.8058 10.6069
# 3 42.6953 43.9266 179.6745 7.3242 -14.8790 -0.6777
# 4 -0.5604 -6.1974 7.3242 38.0286 5.0960 10.7627
# 5 -27.3029 4.8058 -14.8790 5.0960 58.4992 7.4940
# 6 10.8779 10.6069 -0.6777 10.7627 7.4940 40.7502
#
#
#
# Elastic Compliance Matrix: (Units=1/GPa)
#
#
# Indices 1 2 3 4 5 6 
#
# 1 0.018197 -0.004012 -0.002656 0.000534 0.008820 -0.005620
# 2 -0.004012 0.010964 -0.002140 0.003164 -0.003332 -0.002041
# 3 -0.002656 -0.002140 0.006875 -0.002330 0.000648 0.001876
# 4 0.000534 0.003164 -0.002330 0.029966 -0.002121 -0.008529
# 5 0.008820 -0.003332 0.000648 -0.002121 0.022481 -0.005051
# 6 -0.005620 -0.002041 0.001876 -0.008529 -0.005051 0.029784
#
#
# Mechanical properties :
#
#
# Convention : Reuss Voigt Hill
#
# Bulk Modulus (GPa) = 54.28517 69.11836 61.70177
# Shear Modulus (GPa) = 35.20538 44.92519 40.06529
#
# Velocity S-wave (km/s) = 3.52591 3.98301 3.76141
# Velocity P-wave (km/s) = 5.97876 6.74982 6.37596
#
# Compressibility (1/GPa) = 0.01842124
#
# Stress axis : x y z
#
# Youngs Moduli (GPa) = 54.95500 91.20557 145.44466
#
# Poissons Ratio (x) = 0.36594 0.38625
# Poissons Ratio (y) = 0.22049 0.31121
# Poissons Ratio (z) = 0.14594 0.19515
#
# Static dielectric constant tensor:
#      x y z
#    x 2.641570 -0.103750 0.033620 
#    y -0.103750 2.170630 0.028830 
#    z 0.033620 0.028830 2.236560 
# 
# From -- ./inp_files/231329.got.cif
#   From: 2010.05.17/outbox.cif.g08.bks.cpg/sg2_116_cif.got.tgz:231329.got - 2010.06.03 11:33:40.
