data_PCOD9078742
_publ_section_title
;
Structure prediction by ZEFSAII (Michael W. Deem and Ramdas Pophale) SiO2 
 PCOD9078742
Probable space group: P -1
;
_chemical_formula_sum "Si O2"
_cell_formula_units_Z 14
_cell_length_a 11.320596
_cell_length_b 8.158743
_cell_length_c 14.190196
_cell_angle_alpha 62.905148
_cell_angle_beta 30.958983
_cell_angle_gamma 69.576479
_cell_volume 597.744071
_symmetry_space_group_name_H-M "P -1"
_symmetry_group_IT_number 2
_symmetry_cell_setting 'triclinic'
loop_
_space_group_symop_operation_xyz
x,y,z
-x,-y,-z
loop_
_atom_site_type_symbol
_atom_site_label
_atom_site_fract_x
_atom_site_fract_y
_atom_site_fract_z
Si Si1 0.976684 0.969207 0.258118
Si Si2 0.247761 0.020974 0.774640
Si Si3 0.770404 0.403786 0.534891
Si Si4 0.531232 0.964539 0.194578
Si Si5 0.895400 0.396183 0.236957
Si Si6 0.650522 0.397170 0.212609
Si Si7 0.886193 0.825857 0.560961
O O1 0.961827 0.858248 0.393267
O O2 0.230594 0.984659 0.035135
O O3 0.798895 0.895414 0.316866
O O4 0.920828 0.177476 0.267032
O O5 0.417764 0.106083 0.715665
O O6 0.324755 0.818246 0.758254
O O7 0.000000 0.000000 0.000000
O O8 0.814446 0.440600 0.384614
O O9 0.601718 0.546416 0.652740
O O10 0.015939 0.360895 0.420913
O O11 0.614370 0.208652 0.706754
O O12 0.382464 0.140122 0.256120
O O13 0.725907 0.449839 0.255125
O O14 0.146987 0.498802 0.015988
O O15 0.000000 0.000000 0.500000
#
# Coordination Sequence:
#
# PCOD9078742 Si02
#       7
#     2   2   2   2   2   2   2
#     4  10  18  36  57  87 114 150 185 236 285 331
#     4   9  21  39  60  85 115 148 190 232 288 348
#     4  11  21  36  58  89 113 146 193 236 277 332
#     4  10  20  36  58  85 117 147 189 234 281 334
#     4  10  19  34  57  83 117 140 185 239 281 331
#     4  10  21  37  57  83 115 150 184 234 291 330
#     4  10  21  34  55  88 117 148 195 231 274 336
#
# _framework density 23.421393999999999
#
# number of rings (size 3 to 8) (size 9 to 14) (size 15 to 20)
#    0.000    2.000    4.286    0.429    2.000    4.000 
#    0.000    2.143    0.000    4.286    0.000    0.000 
#    0.000    0.000    0.000    0.000    0.000    0.000 
#
# Total GULP energy -78305.549249 kJ/mol
# GULP energy per Si atom -5593.253518 kJ/mol
# Density = 2.336809 g / cm^3
# Si number density = 23.421394 Si / 1000 Ang^3
#
#
#
# Elastic Constant Matrix: (Units=GPa)
#
#
# Indices 1 2 3 4 5 6 
#
# 1 76.9378 23.4623 29.1283 15.2260 4.1990 -11.9448
# 2 23.4623 71.9654 46.7054 21.5771 0.9374 -13.5326
# 3 29.1283 46.7054 126.3572 29.3818 3.9998 -14.0578
# 4 15.2260 21.5771 29.3818 31.7756 -0.5422 -5.6673
# 5 4.1990 0.9374 3.9998 -0.5422 27.8431 4.5619
# 6 -11.9448 -13.5326 -14.0578 -5.6673 4.5619 20.5253
#
#
#
# Elastic Compliance Matrix: (Units=1/GPa)
#
#
# Indices 1 2 3 4 5 6 
#
# 1 0.016105 -0.001897 -0.001161 -0.004178 -0.003415 0.006932
# 2 -0.001897 0.021456 -0.004744 -0.007889 -0.001200 0.007882
# 3 -0.001161 -0.004744 0.011887 -0.006727 -0.001983 0.002921
# 4 -0.004178 -0.007889 -0.006727 0.045020 0.002810 -0.000433
# 5 -0.003415 -0.001200 -0.001983 0.002810 0.038773 -0.011978
# 6 0.006932 0.007882 0.002921 -0.000433 -0.011978 0.062494
#
#
# Mechanical properties :
#
#
# Convention : Reuss Voigt Hill
#
# Bulk Modulus (GPa) = 29.54680 52.65025 41.09853
# Shear Modulus (GPa) = 22.45981 27.75976 25.10979
#
# Velocity S-wave (km/s) = 3.10004 3.44645 3.27783
# Velocity P-wave (km/s) = 5.04543 6.19401 5.64899
#
# Compressibility (1/GPa) = 0.03384461
#
# Stress axis : x y z
#
# Youngs Moduli (GPa) = 62.09349 46.60733 84.12392
#
# Poissons Ratio (x) = 0.08839 0.09764
# Poissons Ratio (y) = 0.11776 0.39912
# Poissons Ratio (z) = 0.07207 0.22112
#
# Static dielectric constant tensor:
#      x y z
#    x 1.948700 0.019090 -0.035650 
#    y 0.019090 1.897940 -0.004460 
#    z -0.035650 -0.004460 1.845250 
# 
# From -- ./inp_files/270034.got.cif
#   From: 2010.05.17/outbox.cif.g08.bks.cpg/sg2_136_cif.got.tgz:270034.got - 2010.06.03 11:33:40.
