data_PCOD9078424
_publ_section_title
;
Structure prediction by ZEFSAII (Michael W. Deem and Ramdas Pophale) SiO2 
 PCOD9078424
Probable space group: P -1
;
_chemical_formula_sum "Si O2"
_cell_formula_units_Z 16
_cell_length_a 9.347127
_cell_length_b 10.892798
_cell_length_c 14.149317
_cell_angle_alpha 121.667469
_cell_angle_beta 82.056880
_cell_angle_gamma 137.382042
_cell_volume 749.320049
_symmetry_space_group_name_H-M "P -1"
_symmetry_group_IT_number 2
_symmetry_cell_setting 'triclinic'
loop_
_space_group_symop_operation_xyz
x,y,z
-x,-y,-z
loop_
_atom_site_type_symbol
_atom_site_label
_atom_site_fract_x
_atom_site_fract_y
_atom_site_fract_z
Si Si1 0.071374 0.707581 0.272439
Si Si2 0.145200 0.469242 0.590414
Si Si3 0.034840 0.341741 0.337474
Si Si4 0.624738 0.793056 0.127588
Si Si5 0.662776 0.947981 0.787303
Si Si6 0.293290 0.579729 0.230306
Si Si7 0.037363 0.142033 0.970867
Si Si8 0.251767 0.677598 0.997067
O O1 0.187932 0.899269 0.259695
O O2 0.252604 0.717655 0.275479
O O3 0.003250 0.714036 0.383726
O O4 0.831946 0.449505 0.147091
O O5 0.098370 0.367582 0.450861
O O6 0.065512 0.575017 0.632822
O O7 0.418427 0.686466 0.676986
O O8 0.253488 0.506261 0.312360
O O9 0.836514 0.073950 0.217388
O O10 0.527963 0.716234 0.212017
O O11 0.417862 0.693712 0.040624
O O12 0.736826 0.734029 0.056951
O O13 0.628980 0.073564 0.897519
O O14 0.820223 0.977669 0.854523
O O15 0.089629 0.336863 0.092210
O O16 0.000000 0.000000 0.000000
O O17 0.000000 0.500000 0.000000
#
# Coordination Sequence:
#
# PCOD9078424 Si02
#       8
#     2   2   2   2   2   2   2   2
#     4  10  20  36  64  95 121 155 206 252 304 366
#     4  10  22  37  64  92 122 161 206 261 301 350
#     4  10  22  39  60  97 122 155 215 252 303 359
#     4  12  22  40  63  88 129 165 193 256 312 360
#     4  11  21  41  61  90 127 161 204 253 303 365
#     4  11  20  39  64  89 126 162 198 249 310 365
#     4  12  26  40  60  97 129 161 202 244 315 384
#     4  10  18  35  62  91 118 152 200 248 306 366
#
# _framework density 21.352692999999999
#
# number of rings (size 3 to 8) (size 9 to 14) (size 15 to 20)
#    0.000    1.250    6.250    1.125    1.750    1.500 
#    0.000    4.375    0.000    1.500    0.000    0.000 
#    0.000    0.000    0.000    0.000    0.000    0.000 
#
# Total GULP energy -89416.552755 kJ/mol
# GULP energy per Si atom -5588.534547 kJ/mol
# Density = 2.130409 g / cm^3
# Si number density = 21.352693 Si / 1000 Ang^3
#
#
#
# Elastic Constant Matrix: (Units=GPa)
#
#
# Indices 1 2 3 4 5 6 
#
# 1 75.6382 25.3202 25.7574 -11.7773 17.4580 9.5959
# 2 25.3202 109.9221 25.7220 -36.1740 7.2647 1.7742
# 3 25.7574 25.7220 51.4313 -33.4067 8.7176 11.4752
# 4 -11.7773 -36.1740 -33.4067 41.2686 -3.7025 0.7556
# 5 17.4580 7.2647 8.7176 -3.7025 19.4441 0.0924
# 6 9.5959 1.7742 11.4752 0.7556 0.0924 27.9476
#
#
#
# Elastic Compliance Matrix: (Units=1/GPa)
#
#
# Indices 1 2 3 4 5 6 
#
# 1 0.020138 -0.003502 -0.009389 -0.006106 -0.013713 -0.002627
# 2 -0.003502 0.013900 0.006040 0.015969 -0.001704 -0.002586
# 3 -0.009389 0.006040 0.063022 0.053014 -0.011871 -0.024430
# 4 -0.006106 0.015969 0.053014 0.079002 -0.009101 -0.022790
# 5 -0.013713 -0.001704 -0.011871 -0.009101 0.067922 0.009712
# 6 -0.002627 -0.002586 -0.024430 -0.022790 0.009712 0.047462
#
#
# Mechanical properties :
#
#
# Convention : Reuss Voigt Hill
#
# Bulk Modulus (GPa) = 11.99642 43.39896 27.69769
# Shear Modulus (GPa) = 15.01795 28.41153 21.71474
#
# Velocity S-wave (km/s) = 2.65491 3.65167 3.19243
# Velocity P-wave (km/s) = 3.87666 6.17645 5.15641
#
# Compressibility (1/GPa) = 0.08335822
#
# Stress axis : x y z
#
# Youngs Moduli (GPa) = 49.65651 71.94188 15.86743
#
# Poissons Ratio (x) = 0.25196 0.14899
# Poissons Ratio (y) = 0.17391 -0.09585
# Poissons Ratio (z) = 0.46625 -0.43456
#
# Static dielectric constant tensor:
#      x y z
#    x 1.759700 -0.009700 -0.022360 
#    y -0.009700 1.816280 -0.023420 
#    z -0.022360 -0.023420 1.785040 
# 
# From -- ./inp_files/499308.got.cif
#   From: 2010.05.17/outbox.cif.g08.bks.cpg/sg2_250_cif.got.tgz:499308.got - 2010.06.03 11:33:40.
