data_PCOD9078370
_publ_section_title
;
Structure prediction by ZEFSAII (Michael W. Deem and Ramdas Pophale) SiO2 
 PCOD9078370
Probable space group: P -1
;
_chemical_formula_sum "Si O2"
_cell_formula_units_Z 16
_cell_length_a 18.545134
_cell_length_b 16.108400
_cell_length_c 9.207250
_cell_angle_alpha 157.633808
_cell_angle_beta 142.966329
_cell_angle_gamma 34.842312
_cell_volume 588.113482
_symmetry_space_group_name_H-M "P -1"
_symmetry_group_IT_number 2
_symmetry_cell_setting 'triclinic'
loop_
_space_group_symop_operation_xyz
x,y,z
-x,-y,-z
loop_
_atom_site_type_symbol
_atom_site_label
_atom_site_fract_x
_atom_site_fract_y
_atom_site_fract_z
Si Si1 0.751636 0.632682 0.888869
Si Si2 0.118961 0.426654 0.297770
Si Si3 0.876511 0.893881 0.681218
Si Si4 0.768821 0.249109 0.855771
Si Si5 0.499311 0.268367 0.542199
Si Si6 0.523940 0.103996 0.858914
Si Si7 0.257558 0.491748 0.041197
Si Si8 0.199819 0.077681 0.096458
O O1 0.847359 0.625011 0.899721
O O2 0.616627 0.669038 0.657404
O O3 0.793934 0.434575 0.759772
O O4 0.753618 0.835439 0.331177
O O5 0.113118 0.217091 0.049285
O O6 0.989858 0.646516 0.466478
O O7 0.232681 0.514864 0.681697
O O8 0.848601 0.018939 0.994579
O O9 0.879698 0.057886 0.817008
O O10 0.634987 0.206391 0.576367
O O11 0.791189 0.290705 0.793351
O O12 0.483364 0.073581 0.311786
O O13 0.500000 0.500000 0.000000
O O14 0.500000 0.000000 0.500000
O O15 0.669296 0.084929 0.032812
O O16 0.411596 0.358290 0.094805
O O17 0.218943 0.298457 0.573518
#
# Coordination Sequence:
#
# PCOD9078370 Si02
#       8
#     2   2   2   2   2   2   2   2
#     4  11  23  42  63  94 129 165 205 261 323 374
#     4  11  21  43  65  92 128 170 210 257 308 378
#     4  11  24  40  66  94 125 168 217 259 306 364
#     4  11  23  41  63  92 128 169 213 258 305 372
#     4  12  21  38  65  93 128 161 206 263 322 382
#     4  10  18  35  61  93 127 162 201 255 313 385
#     4   9  21  38  61  89 132 164 205 255 316 374
#     4   9  18  38  62  94 119 162 215 254 308 374
#
# _framework density 27.205632999999999
#
# number of rings (size 3 to 8) (size 9 to 14) (size 15 to 20)
#    0.000    1.500    2.500    4.875    0.000    2.500 
#    0.000    3.125    0.000    0.000    0.000    0.000 
#    0.000    0.000    0.000    0.000    0.000    0.000 
#
# Total GULP energy -89333.779294 kJ/mol
# GULP energy per Si atom -5583.361206 kJ/mol
# Density = 2.714371 g / cm^3
# Si number density = 27.205633 Si / 1000 Ang^3
#
#
#
# Elastic Constant Matrix: (Units=GPa)
#
#
# Indices 1 2 3 4 5 6 
#
# 1 169.2088 76.0299 13.2597 -6.5981 -21.1098 40.0296
# 2 76.0299 149.9527 -1.8400 -6.7710 -12.4799 32.1983
# 3 13.2597 -1.8400 70.4166 -3.1136 -10.4730 3.1340
# 4 -6.5981 -6.7710 -3.1136 21.5785 -4.7380 -1.5933
# 5 -21.1098 -12.4799 -10.4730 -4.7380 40.8679 -8.0825
# 6 40.0296 32.1983 3.1340 -1.5933 -8.0825 68.0485
#
#
#
# Elastic Compliance Matrix: (Units=1/GPa)
#
#
# Indices 1 2 3 4 5 6 
#
# 1 0.008682 -0.003449 -0.001100 0.001792 0.002753 -0.003056
# 2 -0.003449 0.009080 0.001241 0.002062 0.001124 -0.002142
# 3 -0.001100 0.001241 0.015185 0.003126 0.004047 -0.000085
# 4 0.001792 0.002062 0.003126 0.049768 0.008118 -0.000045
# 5 0.002753 0.001124 0.004047 0.008118 0.028456 0.001232
# 6 -0.003056 -0.002142 -0.000085 -0.000045 0.001232 0.017656
#
#
# Mechanical properties :
#
#
# Convention : Reuss Voigt Hill
#
# Bulk Modulus (GPa) = 37.98235 62.71971 50.35103
# Shear Modulus (GPa) = 34.66904 46.24088 40.45496
#
# Velocity S-wave (km/s) = 3.57365 4.12719 3.86036
# Velocity P-wave (km/s) = 5.56952 6.76872 6.19819
#
# Compressibility (1/GPa) = 0.02632802
#
# Stress axis : x y z
#
# Youngs Moduli (GPa) = 115.17841 110.13653 65.85534
#
# Poissons Ratio (x) = 0.37991 0.07246
# Poissons Ratio (y) = 0.39730 -0.08169
# Poissons Ratio (z) = 0.12674 -0.13663
#
# Static dielectric constant tensor:
#      x y z
#    x 2.323990 0.108370 0.276350 
#    y 0.108370 2.170820 0.136670 
#    z 0.276350 0.136670 2.426860 
# 
# From -- ./inp_files/335843.got.cif
#   From: 2010.05.17/outbox.cif.g08.bks.cpg/sg2_168_cif.got.tgz:335843.got - 2010.06.03 11:33:40.
