data_PCOD9078308
_publ_section_title
;
Structure prediction by ZEFSAII (Michael W. Deem and Ramdas Pophale) SiO2 
 PCOD9078308
Probable space group: P -1
;
_chemical_formula_sum "Si O2"
_cell_formula_units_Z 16
_cell_length_a 10.775664
_cell_length_b 13.230362
_cell_length_c 20.459610
_cell_angle_alpha 27.591846
_cell_angle_beta 143.876257
_cell_angle_gamma 128.094115
_cell_volume 742.345373
_symmetry_space_group_name_H-M "P -1"
_symmetry_group_IT_number 2
_symmetry_cell_setting 'triclinic'
loop_
_space_group_symop_operation_xyz
x,y,z
-x,-y,-z
loop_
_atom_site_type_symbol
_atom_site_label
_atom_site_fract_x
_atom_site_fract_y
_atom_site_fract_z
Si Si1 0.404128 0.401493 0.220504
Si Si2 0.315065 0.036648 0.616414
Si Si3 0.206709 0.674031 0.095241
Si Si4 0.688964 0.441465 0.430107
Si Si5 0.708762 0.781966 0.850174
Si Si6 0.184925 0.160656 0.816211
Si Si7 0.439883 0.245181 0.994642
Si Si8 0.841706 0.387221 0.233084
O O1 0.627217 0.320504 0.408135
O O2 0.425096 0.618343 0.064610
O O3 0.210037 0.504538 0.133196
O O4 0.363969 0.232236 0.247142
O O5 0.222689 0.843333 0.656860
O O6 0.531451 0.007206 0.680669
O O7 0.406049 0.939191 0.782413
O O8 0.109154 0.281193 0.393147
O O9 0.225922 0.914995 0.940332
O O10 0.449500 0.540268 0.308944
O O11 0.968550 0.752430 0.983888
O O12 0.746255 0.662537 0.301223
O O13 0.919349 0.276350 0.653827
O O14 0.710179 0.552295 0.022680
O O15 0.328317 0.128488 0.961397
O O16 0.242529 0.446391 0.835589
#
# Coordination Sequence:
#
# PCOD9078308 Si02
#       8
#     2   2   2   2   2   2   2   2
#     4   9  18  36  54  84 113 143 174 223 277 323
#     4  10  20  36  58  85 104 141 192 226 272 327
#     4  10  22  34  56  81 117 152 175 213 277 338
#     4   8  20  35  53  78 113 140 188 225 252 320
#     4  11  19  38  56  80 121 143 172 230 275 329
#     4  10  19  38  55  80 110 150 184 226 264 316
#     4  10  18  35  61  80 112 136 183 239 268 312
#     4  10  20  36  57  84 107 142 185 231 276 313
#
# _framework density 21.553311000000001
#
# number of rings (size 3 to 8) (size 9 to 14) (size 15 to 20)
#    0.750    1.500    2.500    1.500    0.000    2.000 
#    6.750    3.125    0.000    4.500    0.000    0.000 
#    0.000    0.000    0.000    0.000    0.000    0.000 
#
# Total GULP energy -89172.568061 kJ/mol
# GULP energy per Si atom -5573.285504 kJ/mol
# Density = 2.150425 g / cm^3
# Si number density = 21.553311 Si / 1000 Ang^3
#
#
#
# Elastic Constant Matrix: (Units=GPa)
#
#
# Indices 1 2 3 4 5 6 
#
# 1 42.4803 -3.9769 12.0367 0.4094 25.8656 4.2969
# 2 -3.9769 27.8125 2.6799 0.4756 -9.8782 8.8650
# 3 12.0367 2.6799 88.2161 5.3260 27.1108 9.2901
# 4 0.4094 0.4756 5.3260 30.2646 5.5683 3.3395
# 5 25.8656 -9.8782 27.1108 5.5683 39.6143 11.2530
# 6 4.2969 8.8650 9.2901 3.3395 11.2530 21.8669
#
#
#
# Elastic Compliance Matrix: (Units=1/GPa)
#
#
# Indices 1 2 3 4 5 6 
#
# 1 0.043719 -0.013090 0.004901 0.004496 -0.039911 0.014486
# 2 -0.013090 0.062691 -0.008584 -0.002549 0.041877 -0.040357
# 3 0.004901 -0.008584 0.015807 -0.000021 -0.017526 0.004824
# 4 0.004496 -0.002549 -0.000021 0.034629 -0.008160 -0.000930
# 5 -0.039911 0.041877 -0.017526 -0.008160 0.087855 -0.045654
# 6 0.014486 -0.040357 0.004824 -0.000930 -0.045654 0.080833
#
#
# Mechanical properties :
#
#
# Convention : Reuss Voigt Hill
#
# Bulk Modulus (GPa) = 11.27774 19.99868 15.63821
# Shear Modulus (GPa) = 12.86550 28.20044 20.53297
#
# Velocity S-wave (km/s) = 2.44583 3.62111 3.08987
# Velocity P-wave (km/s) = 3.63593 5.17514 4.47225
#
# Compressibility (1/GPa) = 0.08867024
#
# Stress axis : x y z
#
# Youngs Moduli (GPa) = 22.87358 15.95126 63.26219
#
# Poissons Ratio (x) = 0.20880 -0.31004
# Poissons Ratio (y) = 0.29942 0.54305
# Poissons Ratio (z) = -0.11210 0.13693
#
# Static dielectric constant tensor:
#      x y z
#    x 1.826540 0.044670 0.020270 
#    y 0.044670 1.790180 -0.004140 
#    z 0.020270 -0.004140 1.781330 
# 
# From -- ./inp_files/610446.got.cif
#   From: 2010.05.17/outbox.cif.g08.bks.cpg/sg2_306_cif.got.tgz:610446.got - 2010.06.03 11:33:40.
