data_PCOD9078889
_publ_section_title
;
Structure prediction by ZEFSAII (Michael W. Deem and Ramdas Pophale) SiO2 
 PCOD9078889
Probable space group: P -1
;
_chemical_formula_sum "Si O2"
_cell_formula_units_Z 16
_cell_length_a 6.653497
_cell_length_b 18.383987
_cell_length_c 7.364042
_cell_angle_alpha 63.657728
_cell_angle_beta 94.761827
_cell_angle_gamma 69.242988
_cell_volume 723.130101
_symmetry_space_group_name_H-M "P -1"
_symmetry_group_IT_number 2
_symmetry_cell_setting 'triclinic'
loop_
_space_group_symop_operation_xyz
x,y,z
-x,-y,-z
loop_
_atom_site_type_symbol
_atom_site_label
_atom_site_fract_x
_atom_site_fract_y
_atom_site_fract_z
Si Si1 0.739141 0.072582 0.609136
Si Si2 0.053307 0.798569 0.446389
Si Si3 0.259734 0.599726 0.524971
Si Si4 0.783171 0.090567 0.171647
Si Si5 0.495868 0.403358 0.824046
Si Si6 0.401406 0.138079 0.804919
Si Si7 0.190477 0.315283 0.785025
Si Si8 0.931110 0.242254 0.107701
O O1 0.774537 0.158877 0.579044
O O2 0.720107 0.074960 0.388590
O O3 0.524666 0.085033 0.692310
O O4 0.971700 0.987536 0.768044
O O5 0.174498 0.695155 0.511145
O O6 0.967714 0.801510 0.643410
O O7 0.846955 0.855702 0.235008
O O8 0.375675 0.508451 0.749219
O O9 0.425207 0.598036 0.377823
O O10 0.033172 0.606652 0.403987
O O11 0.820615 0.181540 0.076403
O O12 0.587228 0.094298 0.022395
O O13 0.328785 0.356915 0.859802
O O14 0.721946 0.339889 0.015361
O O15 0.333046 0.245250 0.715317
O O16 0.105512 0.257999 0.975137
#
# Coordination Sequence:
#
# PCOD9078889 Si02
#       8
#     2   2   2   2   2   2   2   2
#     4  10  23  43  61  86 123 152 202 245 295 352
#     4  10  23  39  57  91 118 152 199 253 287 352
#     4   9  20  35  57  87 119 147 205 243 287 358
#     4  10  22  43  61  87 120 160 194 247 294 355
#     4  10  18  36  60  83 114 165 188 242 303 345
#     4  11  22  37  63  86 116 159 196 240 301 345
#     4  10  20  35  59  86 118 156 198 238 296 353
#     4  10  22  38  58  86 124 152 200 244 294 352
#
# _framework density 22.126033
#
# number of rings (size 3 to 8) (size 9 to 14) (size 15 to 20)
#    0.000    2.000    1.250    1.500    5.250    1.000 
#    2.250    2.500    0.000    0.000    0.000    0.000 
#    0.000    0.000    0.000    0.000    0.000    0.000 
#
# Total GULP energy -89333.194470 kJ/mol
# GULP energy per Si atom -5583.324654 kJ/mol
# Density = 2.207567 g / cm^3
# Si number density = 22.126033 Si / 1000 Ang^3
#
#
#
# Elastic Constant Matrix: (Units=GPa)
#
#
# Indices 1 2 3 4 5 6 
#
# 1 42.8683 25.1234 37.2213 4.2801 1.6172 -11.6028
# 2 25.1234 72.3278 10.0110 -11.7636 -4.3546 -13.3470
# 3 37.2213 10.0110 70.6140 -9.1664 9.1606 -2.9427
# 4 4.2801 -11.7636 -9.1664 24.7410 0.2067 2.1556
# 5 1.6172 -4.3546 9.1606 0.2067 12.9196 -3.1872
# 6 -11.6028 -13.3470 -2.9427 2.1556 -3.1872 24.2409
#
#
#
# Elastic Compliance Matrix: (Units=1/GPa)
#
#
# Indices 1 2 3 4 5 6 
#
# 1 0.119536 -0.032973 -0.069672 -0.066031 0.034498 0.041010
# 2 -0.032973 0.026837 0.016648 0.024721 0.000704 -0.001091
# 3 -0.069672 0.016648 0.057479 0.043764 -0.033412 -0.025489
# 4 -0.066031 0.024721 0.043764 0.081973 -0.021364 -0.022779
# 5 0.034498 0.000704 -0.033412 -0.021364 0.104376 0.028467
# 6 0.041010 -0.001091 -0.025489 -0.022779 0.028467 0.062956
#
#
# Mechanical properties :
#
#
# Convention : Reuss Voigt Hill
#
# Bulk Modulus (GPa) = 31.38858 36.72462 34.05660
# Shear Modulus (GPa) = 7.86447 19.94392 13.90420
#
# Velocity S-wave (km/s) = 1.88736 3.00555 2.50953
# Velocity P-wave (km/s) = 4.35506 5.35522 4.88083
#
# Compressibility (1/GPa) = 0.03185873
#
# Stress axis : x y z
#
# Youngs Moduli (GPa) = 8.36565 37.26230 17.39760
#
# Poissons Ratio (x) = 1.22864 1.21212
# Poissons Ratio (y) = 0.27584 -0.28963
# Poissons Ratio (z) = 0.58285 -0.62034
#
# Static dielectric constant tensor:
#      x y z
#    x 1.805310 -0.017580 -0.025550 
#    y -0.017580 1.830270 0.002620 
#    z -0.025550 0.002620 1.840030 
# 
# From -- ./inp_files/141263.got.cif
#   From: 2010.05.17/outbox.cif.g08.bks.cpg/sg2_71_cif.got.tgz:141263.got - 2010.06.03 11:33:40.
