data_PCOD9078573
_publ_section_title
;
Structure prediction by ZEFSAII (Michael W. Deem and Ramdas Pophale) SiO2 
 PCOD9078573
Probable space group: P -1
;
_chemical_formula_sum "Si O2"
_cell_formula_units_Z 16
_cell_length_a 8.389686
_cell_length_b 17.491487
_cell_length_c 11.484942
_cell_angle_alpha 39.192566
_cell_angle_beta 82.741747
_cell_angle_gamma 54.404789
_cell_volume 671.140657
_symmetry_space_group_name_H-M "P -1"
_symmetry_group_IT_number 2
_symmetry_cell_setting 'triclinic'
loop_
_space_group_symop_operation_xyz
x,y,z
-x,-y,-z
loop_
_atom_site_type_symbol
_atom_site_label
_atom_site_fract_x
_atom_site_fract_y
_atom_site_fract_z
Si Si1 0.389403 0.360959 0.622629
Si Si2 0.774581 0.175870 0.450350
Si Si3 0.943499 0.611066 0.548849
Si Si4 0.563556 0.023886 0.090682
Si Si5 0.435900 0.521812 0.251658
Si Si6 0.341575 0.816562 0.805693
Si Si7 0.149745 0.148053 0.145981
Si Si8 0.845684 0.650936 0.939002
O O1 0.260514 0.356945 0.534895
O O2 0.505814 0.411771 0.493542
O O3 0.158775 0.517868 0.546002
O O4 0.577512 0.158376 0.908254
O O5 0.589248 0.363814 0.322697
O O6 0.718915 0.220503 0.265131
O O7 0.745880 0.048758 0.629090
O O8 0.072259 0.024721 0.624774
O O9 0.809931 0.812388 0.361991
O O10 0.046935 0.477434 0.805099
O O11 0.335452 0.121622 0.082100
O O12 0.500000 0.000000 0.000000
O O13 0.465287 0.647883 0.081905
O O14 0.131660 0.686726 0.074597
O O15 0.551323 0.792788 0.787025
O O16 0.125381 0.224069 0.185100
O O17 0.000000 0.500000 0.000000
#
# Coordination Sequence:
#
# PCOD9078573 Si02
#       8
#     2   2   2   2   2   2   2   2
#     4  10  18  35  65  93 121 163 217 271 304 369
#     4  10  22  43  65  89 123 173 222 266 305 375
#     4  10  20  38  59  94 131 162 209 268 322 366
#     4  10  19  32  60  99 125 157 212 272 315 363
#     4  11  20  40  67  93 123 167 219 262 316 371
#     4  10  25  41  60  92 131 171 214 259 313 388
#     4  11  22  37  65  97 126 162 216 267 314 378
#     4  12  25  43  64  95 137 173 203 262 333 383
#
# _framework density 23.840009999999999
#
# number of rings (size 3 to 8) (size 9 to 14) (size 15 to 20)
#    0.000    1.500    2.500    4.125    1.750    3.500 
#    2.250    0.625    0.000    1.500    0.000    0.000 
#    0.000    0.000    0.000    0.000    0.000    0.000 
#
# Total GULP energy -89549.369552 kJ/mol
# GULP energy per Si atom -5596.835597 kJ/mol
# Density = 2.378575 g / cm^3
# Si number density = 23.840010 Si / 1000 Ang^3
#
#
#
# Elastic Constant Matrix: (Units=GPa)
#
#
# Indices 1 2 3 4 5 6 
#
# 1 42.9403 2.6996 16.6273 4.1800 -2.8816 7.5005
# 2 2.6996 106.4861 27.7205 -10.1169 -1.8554 3.9230
# 3 16.6273 27.7205 125.0684 -14.0255 -13.8693 -2.9250
# 4 4.1800 -10.1169 -14.0255 30.8354 -4.9571 -7.5195
# 5 -2.8816 -1.8554 -13.8693 -4.9571 22.6631 5.3414
# 6 7.5005 3.9230 -2.9250 -7.5195 5.3414 24.5053
#
#
#
# Elastic Compliance Matrix: (Units=1/GPa)
#
#
# Indices 1 2 3 4 5 6 
#
# 1 0.028277 0.000209 -0.004894 -0.008733 0.001607 -0.012302
# 2 0.000209 0.010173 -0.002033 0.002114 0.000401 -0.001374
# 3 -0.004894 -0.002033 0.010646 0.006780 0.006314 0.003799
# 4 -0.008733 0.002114 0.006780 0.042307 0.009135 0.014135
# 5 0.001607 0.000401 0.006314 0.009135 0.052198 -0.008377
# 6 -0.012302 -0.001374 0.003799 0.014135 -0.008377 0.051410
#
#
# Mechanical properties :
#
#
# Convention : Reuss Voigt Hill
#
# Bulk Modulus (GPa) = 28.04326 40.95439 34.49883
# Shear Modulus (GPa) = 22.69265 30.76392 26.72829
#
# Velocity S-wave (km/s) = 3.08859 3.59616 3.35199
# Velocity P-wave (km/s) = 4.95054 5.87020 5.42988
#
# Compressibility (1/GPa) = 0.03565919
#
# Stress axis : x y z
#
# Youngs Moduli (GPa) = 35.36443 98.29608 93.92875
#
# Poissons Ratio (x) = -0.02052 0.45973
# Poissons Ratio (y) = -0.00738 0.19097
# Poissons Ratio (z) = 0.17309 0.19985
#
# Static dielectric constant tensor:
#      x y z
#    x 1.958720 0.029960 -0.051460 
#    y 0.029960 1.897820 0.013470 
#    z -0.051460 0.013470 1.936820 
# 
# From -- ./inp_files/402829.got.cif
#   From: 2010.05.17/outbox.cif.g08.bks.cpg/sg2_202_cif.got.tgz:402829.got - 2010.06.03 11:33:40.
