data_PCOD9078941
_publ_section_title
;
Structure prediction by ZEFSAII (Michael W. Deem and Ramdas Pophale) SiO2 
 PCOD9078941
Probable space group: P -1
;
_chemical_formula_sum "Si O2"
_cell_formula_units_Z 16
_cell_length_a 8.901706
_cell_length_b 9.927540
_cell_length_c 14.499077
_cell_angle_alpha 100.902024
_cell_angle_beta 42.656208
_cell_angle_gamma 88.472182
_cell_volume 825.667428
_symmetry_space_group_name_H-M "P -1"
_symmetry_group_IT_number 2
_symmetry_cell_setting 'triclinic'
loop_
_space_group_symop_operation_xyz
x,y,z
-x,-y,-z
loop_
_atom_site_type_symbol
_atom_site_label
_atom_site_fract_x
_atom_site_fract_y
_atom_site_fract_z
Si Si1 0.113335 0.946497 0.846359
Si Si2 0.346868 0.130103 0.643811
Si Si3 0.192338 0.303346 0.569558
Si Si4 0.069519 0.134797 0.444319
Si Si5 0.653801 0.342425 0.582761
Si Si6 0.373835 0.628425 0.688782
Si Si7 0.995637 0.397565 0.279903
Si Si8 0.252274 0.102624 0.147724
O O1 0.245330 0.057935 0.762684
O O2 0.272132 0.792019 0.778681
O O3 0.936598 0.932501 0.841906
O O4 0.000000 0.000000 0.000000
O O5 0.169401 0.218129 0.660880
O O6 0.492635 0.237356 0.624787
O O7 0.500000 0.000000 0.500000
O O8 0.218658 0.198530 0.457472
O O9 0.425865 0.358806 0.472717
O O10 0.994813 0.447971 0.670995
O O11 0.181567 0.097356 0.287320
O O12 0.839670 0.262612 0.560968
O O13 0.000000 0.000000 0.500000
O O14 0.507289 0.504499 0.680892
O O15 0.820793 0.345874 0.420902
O O16 0.149846 0.583920 0.746282
O O17 0.222450 0.270794 0.162273
O O18 0.500000 0.000000 0.000000
#
# Coordination Sequence:
#
# PCOD9078941 Si02
#       8
#     2   2   2   2   2   2   2   2
#     4  11  25  40  60  90 118 159 210 242 292 367
#     4  12  19  35  64  92 112 154 198 249 299 345
#     4  11  19  33  65  90 123 154 195 252 304 352
#     4  11  24  37  56  95 126 151 200 251 299 352
#     4  10  19  34  58  87 122 149 189 253 302 340
#     4  10  18  36  60  90 120 150 200 251 304 345
#     4   9  17  36  59  95 118 149 202 250 302 347
#     4  10  23  41  60  81 125 164 194 243 299 360
#
# _framework density 19.378260999999998
#
# number of rings (size 3 to 8) (size 9 to 14) (size 15 to 20)
#    0.000    1.500    3.750    3.750    1.750    4.500 
#    0.000    0.625    2.750    1.500    0.000    0.000 
#    0.000    0.000    0.000    0.000    0.000    0.000 
#
# Total GULP energy -89088.547923 kJ/mol
# GULP energy per Si atom -5568.034245 kJ/mol
# Density = 1.933416 g / cm^3
# Si number density = 19.378261 Si / 1000 Ang^3
#
#
#
# Elastic Constant Matrix: (Units=GPa)
#
#
# Indices 1 2 3 4 5 6 
#
# 1 65.5285 35.6371 26.6451 4.0081 1.2417 -2.5189
# 2 35.6371 150.0367 67.5390 16.7537 -4.4475 -12.0802
# 3 26.6451 67.5390 96.3467 17.7034 5.8963 -14.7305
# 4 4.0081 16.7537 17.7034 33.5080 -11.8199 -7.1025
# 5 1.2417 -4.4475 5.8963 -11.8199 26.3536 7.7034
# 6 -2.5189 -12.0802 -14.7305 -7.1025 7.7034 26.8427
#
#
#
# Elastic Compliance Matrix: (Units=1/GPa)
#
#
# Indices 1 2 3 4 5 6 
#
# 1 0.018128 -0.003042 -0.003228 0.000826 0.000090 -0.001247
# 2 -0.003042 0.010530 -0.006763 -0.000176 0.003440 -0.000292
# 3 -0.003228 -0.006763 0.019708 -0.009057 -0.011945 0.008500
# 4 0.000826 -0.000176 -0.009057 0.041968 0.020727 0.000185
# 5 0.000090 0.003440 -0.011945 0.020727 0.054959 -0.015287
# 6 -0.001247 -0.000292 0.008500 0.000185 -0.015287 0.046106
#
#
# Mechanical properties :
#
#
# Convention : Reuss Voigt Hill
#
# Bulk Modulus (GPa) = 44.84727 63.50602 54.17665
# Shear Modulus (GPa) = 22.23211 29.48023 25.85617
#
# Velocity S-wave (km/s) = 3.39081 3.90462 3.65675
# Velocity P-wave (km/s) = 6.20673 7.29185 6.77106
#
# Compressibility (1/GPa) = 0.02229790
#
# Stress axis : x y z
#
# Youngs Moduli (GPa) = 55.16407 94.96490 50.74180
#
# Poissons Ratio (x) = 0.28892 0.16382
# Poissons Ratio (y) = 0.16783 0.34316
# Poissons Ratio (z) = 0.17809 0.64224
#
# Static dielectric constant tensor:
#      x y z
#    x 1.763030 -0.026820 -0.019980 
#    y -0.026820 1.727080 0.047100 
#    z -0.019980 0.047100 1.668110 
# 
# From -- ./inp_files/182677.got.cif
#   From: 2010.05.17/outbox.cif.g08.bks.cpg/sg2_92_cif.got.tgz:182677.got - 2010.06.03 11:33:40.
