data_PCOD9078114
_publ_section_title
;
Structure prediction by ZEFSAII (Michael W. Deem and Ramdas Pophale) SiO2 
 PCOD9078114
Probable space group: P -1
;
_chemical_formula_sum "Si O2"
_cell_formula_units_Z 14
_cell_length_a 11.972131
_cell_length_b 10.374751
_cell_length_c 15.482665
_cell_angle_alpha 32.829798
_cell_angle_beta 42.745657
_cell_angle_gamma 35.776955
_cell_volume 601.057877
_symmetry_space_group_name_H-M "P -1"
_symmetry_group_IT_number 2
_symmetry_cell_setting 'triclinic'
loop_
_space_group_symop_operation_xyz
x,y,z
-x,-y,-z
loop_
_atom_site_type_symbol
_atom_site_label
_atom_site_fract_x
_atom_site_fract_y
_atom_site_fract_z
Si Si1 0.118739 0.995544 0.145654
Si Si2 0.895378 0.266109 0.528865
Si Si3 0.378064 0.348971 0.150666
Si Si4 0.052595 0.578585 0.333998
Si Si5 0.461348 0.071277 0.846435
Si Si6 0.198236 0.689201 0.630977
Si Si7 0.144971 0.423735 0.078886
O O1 0.037043 0.869985 0.193442
O O2 0.178246 0.797896 0.306157
O O3 0.296402 0.009922 0.000863
O O4 0.947477 0.315228 0.079927
O O5 0.913127 0.535835 0.374497
O O6 0.783727 0.277912 0.499931
O O7 0.115618 0.991796 0.549359
O O8 0.269586 0.382825 0.283003
O O9 0.212301 0.502462 0.084342
O O10 0.491671 0.037786 0.218973
O O11 0.500000 0.500000 0.000000
O O12 0.000000 0.500000 0.500000
O O13 0.379753 0.396929 0.722650
O O14 0.659313 0.854660 0.905598
O O15 0.015938 0.647012 0.766652
#
# Coordination Sequence:
#
# PCOD9078114 Si02
#       7
#     2   2   2   2   2   2   2
#     4  10  20  37  60  88 118 152 191 255 296 346
#     4  10  21  37  58  86 119 155 203 234 294 361
#     4  10  18  35  58  89 120 146 202 242 285 368
#     4  10  19  35  59  87 119 155 191 243 305 345
#     4   9  20  36  59  88 115 149 203 241 296 339
#     4  10  20  40  61  81 117 163 196 241 288 359
#     4   9  20  36  59  87 113 148 203 234 295 351
#
# _framework density 23.292266000000001
#
# number of rings (size 3 to 8) (size 9 to 14) (size 15 to 20)
#    0.857    1.429    2.857    0.000    0.000    4.000 
#    0.000   13.571    0.000    9.429    0.000    0.000 
#    0.000    0.000    0.000    0.000    0.000    0.000 
#
# Total GULP energy -78106.318536 kJ/mol
# GULP energy per Si atom -5579.022753 kJ/mol
# Density = 2.323925 g / cm^3
# Si number density = 23.292266 Si / 1000 Ang^3
#
#
#
# Elastic Constant Matrix: (Units=GPa)
#
#
# Indices 1 2 3 4 5 6 
#
# 1 55.1754 16.4826 22.4775 3.5931 -17.7737 5.1577
# 2 16.4826 102.3221 30.1687 6.1424 -0.5402 -8.4717
# 3 22.4775 30.1687 80.4196 6.7461 -4.3458 -11.4463
# 4 3.5931 6.1424 6.7461 36.8843 5.2239 3.3794
# 5 -17.7737 -0.5402 -4.3458 5.2239 32.5536 -3.7514
# 6 5.1577 -8.4717 -11.4463 3.3794 -3.7514 42.4771
#
#
#
# Elastic Compliance Matrix: (Units=1/GPa)
#
#
# Indices 1 2 3 4 5 6 
#
# 1 0.026174 -0.002553 -0.005973 -0.002574 0.013413 -0.003908
# 2 -0.002553 0.011346 -0.003293 -0.001006 -0.001294 0.001651
# 3 -0.005973 -0.003293 0.016161 -0.002205 -0.000278 0.004574
# 4 -0.002574 -0.001006 -0.002205 0.029208 -0.006796 -0.003406
# 5 0.013413 -0.001294 -0.000278 -0.006796 0.039310 0.002051
# 6 -0.003908 0.001651 0.004574 -0.003406 0.002051 0.026031
#
#
# Mechanical properties :
#
#
# Convention : Reuss Voigt Hill
#
# Bulk Modulus (GPa) = 33.28770 41.79719 37.54245
# Shear Modulus (GPa) = 27.49034 33.63557 30.56295
#
# Velocity S-wave (km/s) = 3.43918 3.80421 3.62629
# Velocity P-wave (km/s) = 5.48571 6.10570 5.80399
#
# Compressibility (1/GPa) = 0.03004113
#
# Stress axis : x y z
#
# Youngs Moduli (GPa) = 38.20599 88.14019 61.87840
#
# Poissons Ratio (x) = 0.22505 0.36962
# Poissons Ratio (y) = 0.09755 0.20376
# Poissons Ratio (z) = 0.22821 0.29024
#
# Static dielectric constant tensor:
#      x y z
#    x 1.903220 0.031100 0.015990 
#    y 0.031100 1.937270 0.006970 
#    z 0.015990 0.006970 1.883070 
# 
# From -- ./inp_files/573132.got.cif
#   From: 2010.05.17/outbox.cif.g08.bks.cpg/sg2_287_cif.got.tgz:573132.got - 2010.06.03 11:33:40.
