data_PCOD9078897
_publ_section_title
;
Structure prediction by ZEFSAII (Michael W. Deem and Ramdas Pophale) SiO2 
 PCOD9078897
Probable space group: P -1
;
_chemical_formula_sum "Si O2"
_cell_formula_units_Z 16
_cell_length_a 14.282588
_cell_length_b 21.888994
_cell_length_c 14.108489
_cell_angle_alpha 17.445357
_cell_angle_beta 147.339235
_cell_angle_gamma 145.741736
_cell_volume 706.140475
_symmetry_space_group_name_H-M "P -1"
_symmetry_group_IT_number 2
_symmetry_cell_setting 'triclinic'
loop_
_space_group_symop_operation_xyz
x,y,z
-x,-y,-z
loop_
_atom_site_type_symbol
_atom_site_label
_atom_site_fract_x
_atom_site_fract_y
_atom_site_fract_z
Si Si1 0.213714 0.656066 0.359150
Si Si2 0.858966 0.394695 0.851569
Si Si3 0.410860 0.692371 0.101888
Si Si4 0.568009 0.629431 0.772320
Si Si5 0.764239 0.841483 0.115879
Si Si6 0.756120 0.439499 0.047372
Si Si7 0.852000 0.001811 0.768652
Si Si8 0.138008 0.230993 0.048298
O O1 0.191029 0.633208 0.260258
O O2 0.410139 0.741108 0.433893
O O3 0.173093 0.434740 0.707720
O O4 0.065957 0.788497 0.071214
O O5 0.727855 0.255325 0.016123
O O6 0.825175 0.624228 0.514244
O O7 0.065791 0.396341 0.042053
O O8 0.500000 0.500000 0.500000
O O9 0.579392 0.863701 0.971177
O O10 0.321559 0.605391 0.056640
O O11 0.500000 0.500000 0.000000
O O12 0.620208 0.497460 0.923074
O O13 0.749232 0.746581 0.793689
O O14 0.938510 0.004617 0.039974
O O15 0.745263 0.842463 0.984703
O O16 0.813422 0.220912 0.446668
O O17 0.804044 0.950390 0.696582
#
# Coordination Sequence:
#
# PCOD9078897 Si02
#       8
#     2   2   2   2   2   2   2   2
#     4  10  19  35  60  84 120 156 208 236 294 347
#     4  10  18  36  60  84 114 154 204 252 286 337
#     4  10  21  36  57  85 115 153 210 252 284 342
#     4  10  21  34  55  87 123 151 204 236 293 360
#     4   9  19  34  53  85 116 160 187 241 300 359
#     4  11  22  37  58  94 117 155 195 253 303 357
#     4  10  21  36  59  84 133 150 186 243 319 362
#     4  10  20  36  57  88 123 163 186 246 296 366
#
# _framework density 22.658380999999999
#
# number of rings (size 3 to 8) (size 9 to 14) (size 15 to 20)
#    0.000    2.000    2.500    1.875    1.750    0.500 
#    2.250    0.000    0.000    1.500    0.000    0.000 
#    0.000    0.000    0.000    0.000    0.000    0.000 
#
# Total GULP energy -89238.957277 kJ/mol
# GULP energy per Si atom -5577.434830 kJ/mol
# Density = 2.260681 g / cm^3
# Si number density = 22.658381 Si / 1000 Ang^3
#
#
#
# Elastic Constant Matrix: (Units=GPa)
#
#
# Indices 1 2 3 4 5 6 
#
# 1 132.5963 39.9316 17.1632 9.5427 0.3939 13.6867
# 2 39.9316 63.7594 25.4301 34.5733 1.0259 7.2759
# 3 17.1632 25.4301 35.3637 19.4078 -4.2348 6.1176
# 4 9.5427 34.5733 19.4078 32.5756 -4.3911 -0.1015
# 5 0.3939 1.0259 -4.2348 -4.3911 29.2833 6.1569
# 6 13.6867 7.2759 6.1176 -0.1015 6.1569 42.1540
#
#
#
# Elastic Compliance Matrix: (Units=1/GPa)
#
#
# Indices 1 2 3 4 5 6 
#
# 1 0.010625 -0.011272 -0.002352 0.010487 0.001778 -0.001397
# 2 -0.011272 0.053211 -0.005090 -0.051419 -0.009416 -0.003534
# 3 -0.002352 -0.005090 0.046032 -0.020679 0.004989 -0.005817
# 4 0.010487 -0.051419 -0.020679 0.096105 0.011608 0.007007
# 5 0.001778 -0.009416 0.004989 0.011608 0.038011 -0.005200
# 6 -0.001397 -0.003534 -0.005817 0.007007 -0.005200 0.026407
#
#
# Mechanical properties :
#
#
# Convention : Reuss Voigt Hill
#
# Bulk Modulus (GPa) = 13.80466 44.08546 28.94506
# Shear Modulus (GPa) = 15.06189 30.74886 22.90537
#
# Velocity S-wave (km/s) = 2.58105 3.68783 3.18292
# Velocity P-wave (km/s) = 3.87145 6.13451 5.12935
#
# Compressibility (1/GPa) = 0.07243929
#
# Stress axis : x y z
#
# Youngs Moduli (GPa) = 94.11829 18.79328 21.72417
#
# Poissons Ratio (x) = 0.21184 0.05109
# Poissons Ratio (y) = 1.06093 0.11058
# Poissons Ratio (z) = 0.22133 0.09566
#
# Static dielectric constant tensor:
#      x y z
#    x 1.859520 0.042520 -0.021000 
#    y 0.042520 1.913160 -0.011970 
#    z -0.021000 -0.011970 1.877350 
# 
# From -- ./inp_files/498767.got.cif
#   From: 2010.05.17/outbox.cif.g08.bks.cpg/sg2_250_cif.got.tgz:498767.got - 2010.06.03 11:33:40.
