data_PCOD9078835
_publ_section_title
;
Structure prediction by ZEFSAII (Michael W. Deem and Ramdas Pophale) SiO2 
 PCOD9078835
Probable space group: P -1
;
_chemical_formula_sum "Si O2"
_cell_formula_units_Z 12
_cell_length_a 15.755558
_cell_length_b 9.841937
_cell_length_c 11.947512
_cell_angle_alpha 142.202975
_cell_angle_beta 154.532790
_cell_angle_gamma 35.055820
_cell_volume 447.647026
_symmetry_space_group_name_H-M "P -1"
_symmetry_group_IT_number 2
_symmetry_cell_setting 'triclinic'
loop_
_space_group_symop_operation_xyz
x,y,z
-x,-y,-z
loop_
_atom_site_type_symbol
_atom_site_label
_atom_site_fract_x
_atom_site_fract_y
_atom_site_fract_z
Si Si1 0.291605 0.880242 0.146633
Si Si2 0.728291 0.477002 0.466122
Si Si3 0.706328 0.291801 0.555861
Si Si4 0.432537 0.904174 0.086702
Si Si5 0.123264 0.103119 0.324365
Si Si6 0.848811 0.868886 0.283292
O O1 0.535327 0.731380 0.380780
O O2 0.312362 0.961759 0.099592
O O3 0.179048 0.054038 0.228682
O O4 0.128478 0.740643 0.852780
O O5 0.767136 0.428615 0.614233
O O6 0.965584 0.391317 0.637417
O O7 0.615823 0.309992 0.167600
O O8 0.500000 0.500000 0.500000
O O9 0.842054 0.148139 0.730984
O O10 0.717210 0.052721 0.342306
O O11 0.683020 0.832531 0.358091
O O12 0.310601 0.127109 0.002736
O O13 0.000000 0.000000 0.500000
#
# Coordination Sequence:
#
# PCOD9078835 Si02
#       6
#     2   2   2   2   2   2
#     4  11  22  39  60  86 124 163 192 243 304 359
#     4  10  20  38  64  87 116 161 199 242 304 353
#     4  10  18  36  59  85 116 153 200 242 294 352
#     4  10  21  39  60  87 121 155 201 245 294 360
#     4  11  23  37  61  88 122 158 197 248 301 349
#     4   8  18  35  61  83 115 155 195 243 296 345
#
# _framework density 26.806835
#
# number of rings (size 3 to 8) (size 9 to 14) (size 15 to 20)
#    0.000    2.333    1.667    4.000    0.000    3.333 
#    0.000    2.500    0.000    0.000    0.000    0.000 
#    0.000    0.000    0.000    0.000    0.000    0.000 
#
# Total GULP energy -66896.435174 kJ/mol
# GULP energy per Si atom -5574.702931 kJ/mol
# Density = 2.674582 g / cm^3
# Si number density = 26.806835 Si / 1000 Ang^3
#
#
#
# Elastic Constant Matrix: (Units=GPa)
#
#
# Indices 1 2 3 4 5 6 
#
# 1 160.1920 49.7164 68.8993 -16.6959 -11.4806 -24.9477
# 2 49.7164 125.5901 51.9742 -32.9684 -3.7497 -24.9543
# 3 68.8993 51.9742 137.8659 -6.3435 -4.6407 -13.2435
# 4 -16.6959 -32.9684 -6.3435 36.9501 -2.7257 5.3586
# 5 -11.4806 -3.7497 -4.6407 -2.7257 53.3153 -6.3298
# 6 -24.9477 -24.9543 -13.2435 5.3586 -6.3298 29.7744
#
#
#
# Elastic Compliance Matrix: (Units=1/GPa)
#
#
# Indices 1 2 3 4 5 6 
#
# 1 0.009339 -0.000098 -0.003834 0.002780 0.002534 0.006077
# 2 -0.000098 0.014281 -0.003926 0.010934 0.002227 0.008646
# 3 -0.003834 -0.003926 0.010343 -0.003293 -0.000539 -0.001424
# 4 0.002780 0.010934 -0.003293 0.037175 0.003465 0.004075
# 5 0.002534 0.002227 -0.000539 0.003465 0.020477 0.007480
# 6 0.006077 0.008646 -0.001424 0.004075 0.007480 0.046147
#
#
# Mechanical properties :
#
#
# Convention : Reuss Voigt Hill
#
# Bulk Modulus (GPa) = 54.80047 84.98086 69.89067
# Shear Modulus (GPa) = 31.33614 40.87850 36.10732
#
# Velocity S-wave (km/s) = 3.42272 3.90927 3.67406
# Velocity P-wave (km/s) = 6.00892 7.22126 6.64280
#
# Compressibility (1/GPa) = 0.01824802
#
# Stress axis : x y z
#
# Youngs Moduli (GPa) = 107.07244 70.02485 96.68356
#
# Poissons Ratio (x) = 0.00684 0.37065
# Poissons Ratio (y) = 0.01045 0.37960
# Poissons Ratio (z) = 0.41048 0.27494
#
# Static dielectric constant tensor:
#      x y z
#    x 2.082220 0.103420 0.013960 
#    y 0.103420 2.363650 0.046650 
#    z 0.013960 0.046650 2.192090 
# 
# From -- ./inp_files/451842.got.cif
#   From: 2010.05.17/outbox.cif.g08.bks.cpg/sg2_226_cif.got.tgz:451842.got - 2010.06.03 11:33:40.
