data_PCOD9078163
_publ_section_title
;
Structure prediction by ZEFSAII (Michael W. Deem and Ramdas Pophale) SiO2 
 PCOD9078163
Probable space group: P -1
;
_chemical_formula_sum "Si O2"
_cell_formula_units_Z 16
_cell_length_a 7.398819
_cell_length_b 15.824458
_cell_length_c 6.679919
_cell_angle_alpha 65.591170
_cell_angle_beta 59.427872
_cell_angle_gamma 61.996763
_cell_volume 578.677431
_symmetry_space_group_name_H-M "P -1"
_symmetry_group_IT_number 2
_symmetry_cell_setting 'triclinic'
loop_
_space_group_symop_operation_xyz
x,y,z
-x,-y,-z
loop_
_atom_site_type_symbol
_atom_site_label
_atom_site_fract_x
_atom_site_fract_y
_atom_site_fract_z
Si Si1 0.665766 0.112748 0.577379
Si Si2 0.860895 0.798920 0.165711
Si Si3 0.980240 0.230759 0.354647
Si Si4 0.261479 0.844919 0.974680
Si Si5 0.602984 0.930424 0.695596
Si Si6 0.166995 0.392804 0.467246
Si Si7 0.500584 0.620581 0.032683
Si Si8 0.602640 0.414363 0.313867
O O1 0.403218 0.154367 0.727276
O O2 0.693582 0.141606 0.300928
O O3 0.819315 0.165697 0.548118
O O4 0.728253 0.994876 0.678168
O O5 0.923396 0.694171 0.343570
O O6 0.943672 0.777593 0.912300
O O7 0.999823 0.864629 0.113854
O O8 0.218920 0.172327 0.372118
O O9 0.822453 0.342974 0.362688
O O10 0.396830 0.908594 0.937184
O O11 0.382949 0.730043 0.065130
O O12 0.500000 0.000000 0.500000
O O13 0.263957 0.386822 0.194048
O O14 0.387875 0.379538 0.491546
O O15 0.000000 0.500000 0.500000
O O16 0.365069 0.601765 0.932939
O O17 0.536104 0.531686 0.253386
#
# Coordination Sequence:
#
# PCOD9078163 Si02
#       8
#     2   2   2   2   2   2   2   2
#     4  10  19  38  58  86 100 144 193 228 283 314
#     4  11  18  31  61  80 118 137 178 241 268 321
#     4  11  20  38  56  86 112 137 191 237 270 320
#     4  10  19  37  53  83 116 147 183 219 271 337
#     4  10  24  40  60  74 110 157 184 228 283 329
#     4  10  15  25  50  88 114 140 171 222 277 317
#     4   9  15  30  52  84 117 136 184 213 267 339
#     4   9  16  29  53  86 113 135 185 223 266 324
#
# _framework density 27.649256000000001
#
# number of rings (size 3 to 8) (size 9 to 14) (size 15 to 20)
#    0.750    1.250    5.000    1.875    0.000    1.000 
#    0.000    3.125    0.000    0.000    0.000    3.500 
#    0.000    0.000    0.000    0.000    0.000    0.000 
#
# Total GULP energy -89615.819802 kJ/mol
# GULP energy per Si atom -5600.988738 kJ/mol
# Density = 2.758633 g / cm^3
# Si number density = 27.649256 Si / 1000 Ang^3
#
#
#
# Elastic Constant Matrix: (Units=GPa)
#
#
# Indices 1 2 3 4 5 6 
#
# 1 95.0917 22.7792 31.0023 -7.5584 -5.6720 -18.1149
# 2 22.7792 162.0803 35.4868 -16.3290 -9.7732 -23.6808
# 3 31.0023 35.4868 162.0951 -4.4080 -31.6127 -10.9287
# 4 -7.5584 -16.3290 -4.4080 57.9680 1.6578 -5.1453
# 5 -5.6720 -9.7732 -31.6127 1.6578 48.3125 3.8217
# 6 -18.1149 -23.6808 -10.9287 -5.1453 3.8217 49.2059
#
#
#
# Elastic Compliance Matrix: (Units=1/GPa)
#
#
# Indices 1 2 3 4 5 6 
#
# 1 0.012154 -0.000554 -0.001956 0.001642 -0.000336 0.003971
# 2 -0.000554 0.007200 -0.001133 0.002145 0.000323 0.003209
# 3 -0.001956 -0.001133 0.007684 -0.000114 0.004567 0.000075
# 4 0.001642 0.002145 -0.000114 0.018387 -0.000360 0.003562
# 5 -0.000336 0.000323 0.004567 -0.000360 0.023792 -0.000839
# 6 0.003971 0.003209 0.000075 0.003562 -0.000839 0.023783
#
#
# Mechanical properties :
#
#
# Convention : Reuss Voigt Hill
#
# Bulk Modulus (GPa) = 50.63013 66.42263 58.52638
# Shear Modulus (GPa) = 46.78582 53.09721 49.94152
#
# Velocity S-wave (km/s) = 4.11800 4.38697 4.25461
# Velocity P-wave (km/s) = 6.40015 7.05239 6.73417
#
# Compressibility (1/GPa) = 0.01975108
#
# Stress axis : x y z
#
# Youngs Moduli (GPa) = 82.27971 138.88697 130.14096
#
# Poissons Ratio (x) = 0.07701 0.25459
# Poissons Ratio (y) = 0.04562 0.14740
# Poissons Ratio (z) = 0.16096 0.15730
#
# Static dielectric constant tensor:
#      x y z
#    x 2.354160 0.073610 0.082780 
#    y 0.073610 2.106290 0.028820 
#    z 0.082780 0.028820 2.156690 
# 
# From -- ./inp_files/406191.got.cif
#   From: 2010.05.17/outbox.cif.g08.bks.cpg/sg2_204_cif.got.tgz:406191.got - 2010.06.03 11:33:40.
