data_PCOD9078028
_publ_section_title
;
Structure prediction by ZEFSAII (Michael W. Deem and Ramdas Pophale) SiO2 
 PCOD9078028
Probable space group: P -1
;
_chemical_formula_sum "Si O2"
_cell_formula_units_Z 12
_cell_length_a 9.044307
_cell_length_b 9.312169
_cell_length_c 6.820933
_cell_angle_alpha 90.344640
_cell_angle_beta 93.858994
_cell_angle_gamma 132.305494
_cell_volume 422.871781
_symmetry_space_group_name_H-M "P -1"
_symmetry_group_IT_number 2
_symmetry_cell_setting 'triclinic'
loop_
_space_group_symop_operation_xyz
x,y,z
-x,-y,-z
loop_
_atom_site_type_symbol
_atom_site_label
_atom_site_fract_x
_atom_site_fract_y
_atom_site_fract_z
Si Si1 0.267331 0.290922 0.429215
Si Si2 0.613128 0.946629 0.907598
Si Si3 0.116470 0.469873 0.285776
Si Si4 0.033825 0.339594 0.820828
Si Si5 0.294689 0.279855 0.971043
Si Si6 0.481683 0.161625 0.498522
O O1 0.500000 0.500000 0.500000
O O2 0.111668 0.325834 0.423641
O O3 0.225794 0.234552 0.191220
O O4 0.289096 0.141616 0.511715
O O5 0.679641 0.870859 0.066296
O O6 0.475605 0.782079 0.729519
O O7 0.806727 0.135499 0.817518
O O8 0.500000 0.000000 0.000000
O O9 0.972074 0.513763 0.294091
O O10 0.341636 0.670507 0.345520
O O11 0.095353 0.418291 0.053144
O O12 0.165740 0.282574 0.802155
O O13 0.500000 0.500000 0.000000
O O14 0.500000 0.000000 0.500000
#
# Coordination Sequence:
#
# PCOD9078028 Si02
#       6
#     2   2   2   2   2   2
#     4   8  17  32  55  83 110 150 189 231 286 346
#     4  11  24  37  60  90 121 152 198 243 292 348
#     4   9  18  33  62  83 112 153 197 231 294 344
#     4  10  20  37  62  87 118 155 196 242 291 349
#     4  10  22  37  61  86 117 153 198 242 294 346
#     4  10  18  35  57  87 117 157 194 239 290 350
#
# _framework density 28.377395
#
# number of rings (size 3 to 8) (size 9 to 14) (size 15 to 20)
#    0.000    2.333    1.667    0.500    7.000    0.000 
#    0.000    0.833    7.333    1.000    0.000    0.000 
#    0.000    0.000    0.000    0.000    0.000    0.000 
#
# Total GULP energy -66987.775667 kJ/mol
# GULP energy per Si atom -5582.314639 kJ/mol
# Density = 2.831281 g / cm^3
# Si number density = 28.377395 Si / 1000 Ang^3
#
#
#
# Elastic Constant Matrix: (Units=GPa)
#
#
# Indices 1 2 3 4 5 6 
#
# 1 207.0505 61.7248 18.3396 -26.1410 64.2150 -77.6803
# 2 61.7248 102.1678 25.7654 -13.2209 33.7144 -39.9558
# 3 18.3396 25.7654 159.4063 -19.2011 53.2041 -31.8913
# 4 -26.1410 -13.2209 -19.2011 51.5146 -25.4295 21.9188
# 5 64.2150 33.7144 53.2041 -25.4295 58.4479 -15.0609
# 6 -77.6803 -39.9558 -31.8913 21.9188 -15.0609 77.4153
#
#
#
# Elastic Compliance Matrix: (Units=1/GPa)
#
#
# Indices 1 2 3 4 5 6 
#
# 1 0.022088 0.004161 0.012839 -0.012206 -0.037003 0.025858
# 2 0.004161 0.015991 0.004494 -0.005990 -0.017240 0.012622
# 3 0.012839 0.004494 0.017282 -0.009582 -0.031739 0.018861
# 4 -0.012206 -0.005990 -0.009582 0.034906 0.035014 -0.022358
# 5 -0.037003 -0.017240 -0.031739 0.035014 0.099013 -0.049753
# 6 0.025858 0.012622 0.018861 -0.022358 -0.049753 0.049798
#
#
# Mechanical properties :
#
#
# Convention : Reuss Voigt Hill
#
# Bulk Modulus (GPa) = 10.16774 75.58713 42.87744
# Shear Modulus (GPa) = 21.84624 61.66189 41.75407
#
# Velocity S-wave (km/s) = 2.77762 4.66652 3.84002
# Velocity P-wave (km/s) = 3.72528 7.46521 5.89946
#
# Compressibility (1/GPa) = 0.09835023
#
# Stress axis : x y z
#
# Youngs Moduli (GPa) = 45.27309 62.53635 57.86312
#
# Poissons Ratio (x) = -0.26021 -0.74292
# Poissons Ratio (y) = -0.18838 -0.26006
# Poissons Ratio (z) = -0.58127 -0.28107
#
# Static dielectric constant tensor:
#      x y z
#    x 2.603700 -0.116660 -0.341430 
#    y -0.116660 2.219090 0.007740 
#    z -0.341430 0.007740 2.697100 
# 
# From -- ./inp_files/153529.got.cif
#   From: 2010.05.17/outbox.cif.g08.bks.cpg/sg2_77_cif.got.tgz:153529.got - 2010.06.03 11:33:40.
