data_PCOD9078173
_publ_section_title
;
Structure prediction by ZEFSAII (Michael W. Deem and Ramdas Pophale) SiO2 
 PCOD9078173
Probable space group: P -1
;
_chemical_formula_sum "Si O2"
_cell_formula_units_Z 14
_cell_length_a 16.172861
_cell_length_b 11.729292
_cell_length_c 15.430445
_cell_angle_alpha 90.180063
_cell_angle_beta 161.849838
_cell_angle_gamma 82.782364
_cell_volume 838.157172
_symmetry_space_group_name_H-M "P -1"
_symmetry_group_IT_number 2
_symmetry_cell_setting 'triclinic'
loop_
_space_group_symop_operation_xyz
x,y,z
-x,-y,-z
loop_
_atom_site_type_symbol
_atom_site_label
_atom_site_fract_x
_atom_site_fract_y
_atom_site_fract_z
Si Si1 0.016853 0.475338 0.282088
Si Si2 0.149395 0.829808 0.300977
Si Si3 0.503919 0.992864 0.608373
Si Si4 0.591577 0.365531 0.305844
Si Si5 0.737470 0.516165 0.175399
Si Si6 0.812269 0.721887 0.696337
Si Si7 0.378099 0.647759 0.369712
O O1 0.225513 0.547118 0.511984
O O2 0.164693 0.366474 0.362127
O O3 0.904588 0.432393 0.258486
O O4 0.707067 0.571127 0.936261
O O5 0.342079 0.907322 0.476639
O O6 0.213082 0.763137 0.457008
O O7 0.236295 0.719371 0.316418
O O8 0.826697 0.925068 0.963267
O O9 0.500000 0.000000 0.500000
O O10 0.347487 0.133815 0.484325
O O11 0.457015 0.363653 0.076458
O O12 0.000000 0.500000 0.500000
O O13 0.500000 0.500000 0.000000
O O14 0.632735 0.687887 0.592340
O O15 0.129561 0.692828 0.049480
O O16 0.500000 0.500000 0.500000
#
# Coordination Sequence:
#
# PCOD9078173 Si02
#       7
#     2   2   2   2   2   2   2
#     4  10  20  35  55  84 119 131 179 221 283 328
#     4  12  22  38  54  78 110 151 197 232 262 314
#     4  12  23  39  54  73 106 161 204 231 255 303
#     4  10  21  35  57  85 117 135 177 228 281 329
#     4  10  18  35  59  86 113 139 164 213 293 356
#     4  12  23  37  52  78 110 150 191 229 260 320
#     4  12  23  34  55  75 110 150 187 222 288 309
#
# _framework density 16.703310999999999
#
# number of rings (size 3 to 8) (size 9 to 14) (size 15 to 20)
#    0.857    0.000    4.286    5.143    0.000    0.000 
#    0.000    0.000    0.000    0.000    0.000    6.000 
#    0.000    0.000    0.000    0.000    0.000    0.000 
#
# Total GULP energy -77975.692578 kJ/mol
# GULP energy per Si atom -5569.692327 kJ/mol
# Density = 1.666529 g / cm^3
# Si number density = 16.703311 Si / 1000 Ang^3
#
#
#
# Elastic Constant Matrix: (Units=GPa)
#
#
# Indices 1 2 3 4 5 6 
#
# 1 58.4910 6.2750 26.6200 -8.5244 -15.8169 13.5267
# 2 6.2750 94.3680 71.9819 -13.0326 -9.6955 16.8568
# 3 26.6200 71.9819 183.4737 -8.2246 -16.6550 10.6560
# 4 -8.5244 -13.0326 -8.2246 36.4416 8.4685 3.6290
# 5 -15.8169 -9.6955 -16.6550 8.4685 32.4479 -0.8199
# 6 13.5267 16.8568 10.6560 3.6290 -0.8199 15.8602
#
#
#
# Elastic Compliance Matrix: (Units=1/GPa)
#
#
# Indices 1 2 3 4 5 6 
#
# 1 0.032117 0.011601 -0.005361 0.011351 0.012446 -0.038074
# 2 0.011601 0.023961 -0.008266 0.011520 0.004752 -0.032198
# 3 -0.005361 -0.008266 0.008906 -0.003127 0.000509 0.008116
# 4 0.011351 0.011520 -0.003127 0.037045 -0.003017 -0.028456
# 5 0.012446 0.004752 0.000509 -0.003017 0.039018 -0.013300
# 6 -0.038074 -0.032198 0.008116 -0.028456 -0.013300 0.130115
#
#
# Mechanical properties :
#
#
# Convention : Reuss Voigt Hill
#
# Bulk Modulus (GPa) = 16.41181 60.67629 38.54405
# Shear Modulus (GPa) = 16.91903 32.38033 24.64968
#
# Velocity S-wave (km/s) = 3.18608 4.40768 3.84570
# Velocity P-wave (km/s) = 4.83546 7.89356 6.54561
#
# Compressibility (1/GPa) = 0.06093173
#
# Stress axis : x y z
#
# Youngs Moduli (GPa) = 31.13620 41.73419 112.28474
#
# Poissons Ratio (x) = -0.48418 0.60201
# Poissons Ratio (y) = -0.36122 0.92816
# Poissons Ratio (z) = 0.16694 0.34498
#
# Static dielectric constant tensor:
#      x y z
#    x 1.619250 -0.004160 -0.008100 
#    y -0.004160 1.552630 0.004780 
#    z -0.008100 0.004780 1.585910 
# 
# From -- ./inp_files/54186.got.cif
#   From: 2010.05.17/outbox.cif.g08.bks.cpg/sg2_28_cif.got.tgz:54186.got - 2010.06.03 11:33:40.
