data_PCOD9078373
_publ_section_title
;
Structure prediction by ZEFSAII (Michael W. Deem and Ramdas Pophale) SiO2 
 PCOD9078373
Probable space group: P -1
;
_chemical_formula_sum "Si O2"
_cell_formula_units_Z 14
_cell_length_a 7.899611
_cell_length_b 10.034048
_cell_length_c 10.452069
_cell_angle_alpha 57.917793
_cell_angle_beta 107.983834
_cell_angle_gamma 115.783918
_cell_volume 628.788877
_symmetry_space_group_name_H-M "P -1"
_symmetry_group_IT_number 2
_symmetry_cell_setting 'triclinic'
loop_
_space_group_symop_operation_xyz
x,y,z
-x,-y,-z
loop_
_atom_site_type_symbol
_atom_site_label
_atom_site_fract_x
_atom_site_fract_y
_atom_site_fract_z
Si Si1 0.086966 0.271241 0.237960
Si Si2 0.457576 0.433466 0.380025
Si Si3 0.058094 0.439362 0.902192
Si Si4 0.620972 0.260900 0.914831
Si Si5 0.305185 0.006203 0.092418
Si Si6 0.042903 0.059771 0.772641
Si Si7 0.146001 0.432086 0.638949
O O1 0.260747 0.296465 0.363502
O O2 0.953227 0.373663 0.206835
O O3 0.985230 0.079853 0.271789
O O4 0.167768 0.374182 0.070222
O O5 0.500000 0.500000 0.500000
O O6 0.450931 0.593505 0.218858
O O7 0.654917 0.417617 0.392940
O O8 0.095312 0.385477 0.798500
O O9 0.843840 0.336780 0.947126
O O10 0.611743 0.138184 0.855348
O O11 0.493018 0.167861 0.050061
O O12 0.164678 0.971758 0.196341
O O13 0.178091 0.026399 0.931301
O O14 0.131784 0.255524 0.660186
O O15 0.000000 0.500000 0.500000
#
# Coordination Sequence:
#
# PCOD9078373 Si02
#       7
#     2   2   2   2   2   2   2
#     4  10  22  40  64  96 133 156 207 276 313 362
#     4  11  25  43  64  89 127 175 213 252 320 391
#     4  10  20  40  63  96 134 165 207 255 321 374
#     4  10  18  35  61  96 124 169 205 252 309 380
#     4  10  19  33  63  96 131 159 205 264 313 373
#     4  11  20  39  63  98 124 163 216 259 315 365
#     4  12  24  43  68  89 126 179 214 250 312 395
#
# _framework density 22.265024
#
# number of rings (size 3 to 8) (size 9 to 14) (size 15 to 20)
#    0.000    1.429    4.286    2.571    0.000    0.571 
#    5.143    3.571    0.000    0.000    0.000    0.000 
#    0.000    0.000    0.000    0.000    0.000    0.000 
#
# Total GULP energy -78039.297258 kJ/mol
# GULP energy per Si atom -5574.235518 kJ/mol
# Density = 2.221435 g / cm^3
# Si number density = 22.265024 Si / 1000 Ang^3
#
#
#
# Elastic Constant Matrix: (Units=GPa)
#
#
# Indices 1 2 3 4 5 6 
#
# 1 63.9000 10.6639 -1.5223 11.7641 -4.6247 11.5844
# 2 10.6639 113.9465 20.9433 7.9485 2.9328 -10.8057
# 3 -1.5223 20.9433 42.2955 25.9981 6.3069 3.4742
# 4 11.7641 7.9485 25.9981 32.6526 1.4423 12.7727
# 5 -4.6247 2.9328 6.3069 1.4423 28.2317 -8.9029
# 6 11.5844 -10.8057 3.4742 12.7727 -8.9029 35.0035
#
#
#
# Elastic Compliance Matrix: (Units=1/GPa)
#
#
# Indices 1 2 3 4 5 6 
#
# 1 0.019624 -0.003221 0.010840 -0.013618 0.000750 -0.003405
# 2 -0.003221 0.010685 -0.007816 0.003009 0.001337 0.004382
# 3 0.010840 -0.007816 0.060251 -0.051726 -0.006584 0.005220
# 4 -0.013618 0.003009 -0.051726 0.084109 -0.001772 -0.020572
# 5 0.000750 0.001337 -0.006584 -0.001772 0.040692 0.011815
# 6 -0.003405 0.004382 0.005220 -0.020572 0.011815 0.041042
#
#
# Mechanical properties :
#
#
# Convention : Reuss Voigt Hill
#
# Bulk Modulus (GPa) = 11.09065 31.14574 21.11820
# Shear Modulus (GPa) = 17.43047 31.84801 24.63924
#
# Velocity S-wave (km/s) = 2.80101 3.78617 3.33022
# Velocity P-wave (km/s) = 3.93101 5.75608 4.92876
#
# Compressibility (1/GPa) = 0.09016603
#
# Stress axis : x y z
#
# Youngs Moduli (GPa) = 50.95839 93.58624 16.59712
#
# Poissons Ratio (x) = 0.30145 -0.17991
# Poissons Ratio (y) = 0.16414 0.12972
# Poissons Ratio (z) = -0.55238 0.73146
#
# Static dielectric constant tensor:
#      x y z
#    x -2.307620 4.837360 12.032530 
#    y 4.837360 -3.551090 -13.767160 
#    z 12.032530 -13.767160 -32.621170 
# 
# From -- ./inp_files/320045.got.cif
#   From: 2010.05.17/outbox.cif.g08.bks.cpg/sg2_161_cif.got.tgz:320045.got - 2010.06.03 11:33:40.
