data_PCOD9078990
_publ_section_title
;
Structure prediction by ZEFSAII (Michael W. Deem and Ramdas Pophale) SiO2 
 PCOD9078990
Probable space group: P -1
;
_chemical_formula_sum "Si O2"
_cell_formula_units_Z 16
_cell_length_a 8.394377
_cell_length_b 11.434923
_cell_length_c 12.306809
_cell_angle_alpha 128.140689
_cell_angle_beta 124.812098
_cell_angle_gamma 43.665751
_cell_volume 624.514810
_symmetry_space_group_name_H-M "P -1"
_symmetry_group_IT_number 2
_symmetry_cell_setting 'triclinic'
loop_
_space_group_symop_operation_xyz
x,y,z
-x,-y,-z
loop_
_atom_site_type_symbol
_atom_site_label
_atom_site_fract_x
_atom_site_fract_y
_atom_site_fract_z
Si Si1 0.304013 0.938976 0.135691
Si Si2 0.740723 0.537686 0.819241
Si Si3 0.182469 0.922273 0.629777
Si Si4 0.353914 0.272736 0.664110
Si Si5 0.130757 0.623170 0.445500
Si Si6 0.682155 0.753989 0.611906
Si Si7 0.632324 0.399559 0.106924
Si Si8 0.230442 0.200549 0.908253
O O1 0.411841 0.847378 0.242697
O O2 0.530623 0.875222 0.109494
O O3 0.198258 0.149316 0.238630
O O4 0.217526 0.817590 0.983840
O O5 0.711664 0.471251 0.654700
O O6 0.558517 0.559976 0.851146
O O7 0.005066 0.377627 0.866631
O O8 0.732862 0.722025 0.921692
O O9 0.168803 0.767722 0.590901
O O10 0.437124 0.835564 0.626084
O O11 0.158979 0.060292 0.790664
O O12 0.000000 0.000000 0.500000
O O13 0.380329 0.202381 0.513155
O O14 0.273610 0.480459 0.753605
O O15 0.143795 0.269563 0.633294
O O16 0.178761 0.461645 0.446286
O O17 0.500000 0.500000 0.000000
#
# Coordination Sequence:
#
# PCOD9078990 Si02
#       8
#     2   2   2   2   2   2   2   2
#     4   9  18  39  59  87 112 147 198 248 281 345
#     4  10  18  36  61  86 115 152 187 244 293 339
#     4  11  21  39  60  87 113 148 199 246 280 349
#     4  11  21  39  59  84 116 162 195 239 288 347
#     4  12  23  39  57  86 122 158 193 238 294 352
#     4  11  24  39  58  85 121 157 192 242 299 343
#     4   9  20  35  60  89 115 142 196 247 291 335
#     4   9  18  33  61  88 110 141 198 241 283 340
#
# _framework density 25.619889000000001
#
# number of rings (size 3 to 8) (size 9 to 14) (size 15 to 20)
#    0.000    1.750    2.500    2.625    1.750    0.000 
#    2.250    7.500    0.000    0.000    0.000    0.000 
#    0.000    0.000    0.000    0.000    0.000    0.000 
#
# Total GULP energy -89415.315222 kJ/mol
# GULP energy per Si atom -5588.457201 kJ/mol
# Density = 2.556158 g / cm^3
# Si number density = 25.619889 Si / 1000 Ang^3
#
#
#
# Elastic Constant Matrix: (Units=GPa)
#
#
# Indices 1 2 3 4 5 6 
#
# 1 57.5604 6.1913 45.5734 13.4993 17.2756 22.7546
# 2 6.1913 71.7266 27.8673 34.0750 13.8067 23.0914
# 3 45.5734 27.8673 141.1860 56.5706 33.7719 27.3982
# 4 13.4993 34.0750 56.5706 53.4176 17.8562 17.3342
# 5 17.2756 13.8067 33.7719 17.8562 53.8317 6.3970
# 6 22.7546 23.0914 27.3982 17.3342 6.3970 24.6809
#
#
#
# Elastic Compliance Matrix: (Units=1/GPa)
#
#
# Indices 1 2 3 4 5 6 
#
# 1 0.039227 0.010718 -0.008042 0.007589 -0.007994 -0.040523
# 2 0.010718 0.028318 0.002894 -0.012675 -0.004816 -0.029438
# 3 -0.008042 0.002894 0.016454 -0.015629 -0.003088 -0.001782
# 4 0.007589 -0.012675 -0.015629 0.045439 -0.003404 -0.008820
# 5 -0.007994 -0.004816 -0.003088 -0.003404 0.024083 0.011452
# 6 -0.040523 -0.029438 -0.001782 -0.008820 0.011452 0.110624
#
#
# Mechanical properties :
#
#
# Convention : Reuss Voigt Hill
#
# Bulk Modulus (GPa) = 10.51105 47.74856 29.12980
# Shear Modulus (GPa) = 17.56129 39.10876 28.33502
#
# Velocity S-wave (km/s) = 2.62096 3.91128 3.32923
# Velocity P-wave (km/s) = 3.64292 6.25102 5.11596
#
# Compressibility (1/GPa) = 0.09513797
#
# Stress axis : x y z
#
# Youngs Moduli (GPa) = 25.49295 35.31349 60.77468
#
# Poissons Ratio (x) = -0.37849 0.48877
# Poissons Ratio (y) = -0.27323 -0.17589
# Poissons Ratio (z) = 0.20502 -0.10220
#
# Static dielectric constant tensor:
#      x y z
#    x 1.986050 0.015570 0.024650 
#    y 0.015570 2.084370 0.020680 
#    z 0.024650 0.020680 2.037820 
# 
# From -- ./inp_files/244982.got.cif
#   From: 2010.05.17/outbox.cif.g08.bks.cpg/sg2_123_cif.got.tgz:244982.got - 2010.06.03 11:33:40.
