data_PCOD9078628
_publ_section_title
;
Structure prediction by ZEFSAII (Michael W. Deem and Ramdas Pophale) SiO2 
 PCOD9078628
Probable space group: P -1
;
_chemical_formula_sum "Si O2"
_cell_formula_units_Z 16
_cell_length_a 5.396638
_cell_length_b 9.742507
_cell_length_c 21.984364
_cell_angle_alpha 39.427494
_cell_angle_beta 74.802892
_cell_angle_gamma 91.233400
_cell_volume 659.407329
_symmetry_space_group_name_H-M "P -1"
_symmetry_group_IT_number 2
_symmetry_cell_setting 'triclinic'
loop_
_space_group_symop_operation_xyz
x,y,z
-x,-y,-z
loop_
_atom_site_type_symbol
_atom_site_label
_atom_site_fract_x
_atom_site_fract_y
_atom_site_fract_z
Si Si1 0.260011 0.211782 0.605763
Si Si2 0.089666 0.894619 0.970903
Si Si3 0.392636 0.195685 0.046647
Si Si4 0.306690 0.327231 0.268434
Si Si5 0.693364 0.397720 0.607724
Si Si6 0.354585 0.921984 0.600110
Si Si7 0.382902 0.713646 0.218972
Si Si8 0.716143 0.880297 0.786154
O O1 0.408587 0.361226 0.602937
O O2 0.128549 0.364955 0.521043
O O3 0.047134 0.975690 0.728589
O O4 0.432913 0.128588 0.574239
O O5 0.299940 0.757400 0.014322
O O6 0.299522 0.123399 0.844991
O O7 0.824996 0.744919 0.000462
O O8 0.000000 0.000000 0.000000
O O9 0.255027 0.911283 0.152880
O O10 0.400257 0.245848 0.100577
O O11 0.518471 0.257575 0.320070
O O12 0.347222 0.579547 0.204446
O O13 0.979221 0.175461 0.350637
O O14 0.377390 0.279138 0.211958
O O15 0.722822 0.447923 0.660373
O O16 0.677076 0.129009 0.698857
O O17 0.500000 0.000000 0.500000
#
# Coordination Sequence:
#
# PCOD9078628 Si02
#       8
#     2   2   2   2   2   2   2   2
#     4  10  20  32  54  74 109 149 198 234 281 313
#     4  10  20  38  64  91 115 141 179 228 282 342
#     4   9  21  35  62  86 114 142 184 225 279 332
#     4  11  23  37  57  77 111 151 189 235 280 336
#     4  10  18  36  50  80 105 147 191 243 271 326
#     4  11  23  38  52  75 111 154 198 238 284 323
#     4   9  22  35  58  84 114 143 190 227 287 328
#     4  10  20  36  54  77 112 147 193 228 280 327
#
# _framework density 24.264211
#
# number of rings (size 3 to 8) (size 9 to 14) (size 15 to 20)
#    0.750    1.250    1.250    2.625    1.750    1.000 
#    9.000    0.000    0.000    1.500    0.000    0.000 
#    0.000    0.000    0.000    0.000    0.000    0.000 
#
# Total GULP energy -89142.942900 kJ/mol
# GULP energy per Si atom -5571.433931 kJ/mol
# Density = 2.420898 g / cm^3
# Si number density = 24.264211 Si / 1000 Ang^3
#
#
#
# Elastic Constant Matrix: (Units=GPa)
#
#
# Indices 1 2 3 4 5 6 
#
# 1 88.8978 4.3282 28.4182 14.8549 -1.9755 1.2029
# 2 4.3282 103.5159 43.5509 22.0218 -3.9360 -7.8759
# 3 28.4182 43.5509 64.6798 3.1265 1.9277 2.8511
# 4 14.8549 22.0218 3.1265 36.1227 4.6536 -1.5497
# 5 -1.9755 -3.9360 1.9277 4.6536 20.8681 1.0296
# 6 1.2029 -7.8759 2.8511 -1.5497 1.0296 21.4399
#
#
#
# Elastic Compliance Matrix: (Units=1/GPa)
#
#
# Indices 1 2 3 4 5 6 
#
# 1 0.016542 0.006890 -0.011667 -0.010706 0.006228 0.002081
# 2 0.006890 0.020462 -0.016708 -0.014676 0.008940 0.007862
# 3 -0.011667 -0.016708 0.031859 0.013122 -0.009715 -0.008305
# 4 -0.010706 -0.014676 0.013122 0.041595 -0.014129 -0.002850
# 5 0.006228 0.008940 -0.009715 -0.014129 0.054214 0.000602
# 6 0.002081 0.007862 -0.008305 -0.002850 0.000602 0.050283
#
#
# Mechanical properties :
#
#
# Convention : Reuss Voigt Hill
#
# Bulk Modulus (GPa) = 38.62299 45.52090 42.07194
# Shear Modulus (GPa) = 18.75768 27.73920 23.24844
#
# Velocity S-wave (km/s) = 2.78341 3.38481 3.09874
# Velocity P-wave (km/s) = 5.12660 5.83757 5.49360
#
# Compressibility (1/GPa) = 0.02589132
#
# Stress axis : x y z
#
# Youngs Moduli (GPa) = 60.45101 48.87101 31.38878
#
# Poissons Ratio (x) = -0.33670 0.36621
# Poissons Ratio (y) = -0.41649 0.52446
# Poissons Ratio (z) = 0.70528 0.81656
#
# Static dielectric constant tensor:
#      x y z
#    x 2.063250 -0.073480 -0.031780 
#    y -0.073480 2.018430 -0.014470 
#    z -0.031780 -0.014470 2.022070 
# 
# From -- ./inp_files/552067.got.cif
#   From: 2010.05.17/outbox.cif.g08.bks.cpg/sg2_277_cif.got.tgz:552067.got - 2010.06.03 11:33:40.
