data_PCOD9078083
_publ_section_title
;
Structure prediction by ZEFSAII (Michael W. Deem and Ramdas Pophale) SiO2 
 PCOD9078083
Probable space group: P -1
;
_chemical_formula_sum "Si O2"
_cell_formula_units_Z 14
_cell_length_a 12.303957
_cell_length_b 5.286025
_cell_length_c 11.896739
_cell_angle_alpha 95.185774
_cell_angle_beta 87.844318
_cell_angle_gamma 111.687637
_cell_volume 716.029876
_symmetry_space_group_name_H-M "P -1"
_symmetry_group_IT_number 2
_symmetry_cell_setting 'triclinic'
loop_
_space_group_symop_operation_xyz
x,y,z
-x,-y,-z
loop_
_atom_site_type_symbol
_atom_site_label
_atom_site_fract_x
_atom_site_fract_y
_atom_site_fract_z
Si Si1 0.094348 0.456181 0.648960
Si Si2 0.835843 0.282870 0.593012
Si Si3 0.518281 0.780310 0.073123
Si Si4 0.269427 0.209170 0.567419
Si Si5 0.470984 0.700803 0.644120
Si Si6 0.297772 0.888098 0.764693
Si Si7 0.392228 0.683558 0.309241
O O1 0.128124 0.585859 0.527496
O O2 0.155734 0.235070 0.631774
O O3 0.165682 0.677284 0.748119
O O4 0.955664 0.343746 0.657873
O O5 0.743539 0.386542 0.661015
O O6 0.772773 0.965872 0.549443
O O7 0.427704 0.733708 0.178572
O O8 0.648814 0.906737 0.128095
O O9 0.500000 0.500000 0.000000
O O10 0.500000 0.000000 0.000000
O O11 0.372358 0.502864 0.556092
O O12 0.317800 0.057408 0.653508
O O13 0.383856 0.718182 0.747723
O O14 0.553720 0.541733 0.669318
O O15 0.543791 0.014813 0.624241
#
# Coordination Sequence:
#
# PCOD9078083 Si02
#       7
#     2   2   2   2   2   2   2
#     4   9  20  38  58  83 120 160 201 225 275 339
#     4  10  22  36  55  87 120 161 196 233 270 342
#     4  11  22  38  63  86 112 145 191 244 301 352
#     4  10  18  35  58  84 120 158 192 228 279 346
#     4  10  19  36  54  82 120 149 186 227 291 343
#     4   9  19  37  60  86 115 151 190 240 288 343
#     4  11  23  38  58  87 121 150 189 241 296 340
#
# _framework density 19.552256
#
# number of rings (size 3 to 8) (size 9 to 14) (size 15 to 20)
#    0.000    2.000    2.857    2.143    4.000    1.143 
#    0.000    0.000    0.000    1.714    0.000    0.000 
#    0.000    0.000    0.000    0.000    0.000    0.000 
#
# Total GULP energy -78055.759885 kJ/mol
# GULP energy per Si atom -5575.411420 kJ/mol
# Density = 1.950775 g / cm^3
# Si number density = 19.552256 Si / 1000 Ang^3
#
#
#
# Elastic Constant Matrix: (Units=GPa)
#
#
# Indices 1 2 3 4 5 6 
#
# 1 176.2968 56.5267 48.6266 20.1814 12.2711 -2.2850
# 2 56.5267 105.9966 39.8539 23.2158 5.4200 -12.9733
# 3 48.6266 39.8539 94.0165 24.0966 14.8741 7.2273
# 4 20.1814 23.2158 24.0966 29.5105 6.5138 5.0000
# 5 12.2711 5.4200 14.8741 6.5138 26.0424 4.7425
# 6 -2.2850 -12.9733 7.2273 5.0000 4.7425 23.4174
#
#
#
# Elastic Compliance Matrix: (Units=1/GPa)
#
#
# Indices 1 2 3 4 5 6 
#
# 1 0.007383 -0.002831 -0.002217 -0.000732 -0.001494 0.000295
# 2 -0.002831 0.015845 -0.003780 -0.009511 0.000460 0.011606
# 3 -0.002217 -0.003780 0.016304 -0.006923 -0.004860 -0.004880
# 4 -0.000732 -0.009511 -0.006923 0.050639 -0.003982 -0.013210
# 5 -0.001494 0.000460 -0.004860 -0.003982 0.043952 -0.006442
# 6 0.000295 0.011606 -0.004880 -0.013210 -0.006442 0.054793
#
#
# Mechanical properties :
#
#
# Convention : Reuss Voigt Hill
#
# Bulk Modulus (GPa) = 45.71224 74.03605 59.87414
# Shear Modulus (GPa) = 23.37913 31.21423 27.29668
#
# Velocity S-wave (km/s) = 3.46168 3.99990 3.74048
# Velocity P-wave (km/s) = 6.27757 7.69936 7.02453
#
# Compressibility (1/GPa) = 0.02187598
#
# Stress axis : x y z
#
# Youngs Moduli (GPa) = 135.44447 63.11013 61.33368
#
# Poissons Ratio (x) = 0.17865 0.13601
# Poissons Ratio (y) = 0.38341 0.23185
# Poissons Ratio (z) = 0.30034 0.23856
#
# Static dielectric constant tensor:
#      x y z
#    x 1.712850 -0.006970 0.012440 
#    y -0.006970 1.813920 0.017580 
#    z 0.012440 0.017580 1.710840 
# 
# From -- ./inp_files/362009.got.cif
#   From: 2010.05.17/outbox.cif.g08.bks.cpg/sg2_182_cif.got.tgz:362009.got - 2010.06.03 11:33:40.
