data_PCOD9078879
_publ_section_title
;
Structure prediction by ZEFSAII (Michael W. Deem and Ramdas Pophale) SiO2 
 PCOD9078879
Probable space group: P -1
;
_chemical_formula_sum "Si O2"
_cell_formula_units_Z 14
_cell_length_a 6.495482
_cell_length_b 12.278661
_cell_length_c 12.222260
_cell_angle_alpha 38.852256
_cell_angle_beta 64.314343
_cell_angle_gamma 74.520860
_cell_volume 546.757324
_symmetry_space_group_name_H-M "P -1"
_symmetry_group_IT_number 2
_symmetry_cell_setting 'triclinic'
loop_
_space_group_symop_operation_xyz
x,y,z
-x,-y,-z
loop_
_atom_site_type_symbol
_atom_site_label
_atom_site_fract_x
_atom_site_fract_y
_atom_site_fract_z
Si Si1 0.988451 0.810871 0.098034
Si Si2 0.227834 0.888114 0.590308
Si Si3 0.782879 0.660315 0.465293
Si Si4 0.668324 0.028409 0.265941
Si Si5 0.280931 0.514500 0.943364
Si Si6 0.350730 0.398576 0.797767
Si Si7 0.941801 0.642164 0.689636
O O1 0.961385 0.677944 0.309936
O O2 0.758707 0.770838 0.108845
O O3 0.209124 0.822858 0.958565
O O4 0.000000 0.000000 0.000000
O O5 0.178821 0.956187 0.669378
O O6 0.351396 0.714453 0.732602
O O7 0.029788 0.810947 0.612413
O O8 0.412172 0.019712 0.379070
O O9 0.587248 0.498029 0.621790
O O10 0.882972 0.664166 0.560688
O O11 0.669117 0.842679 0.350029
O O12 0.364227 0.384598 0.936381
O O13 0.276689 0.456523 0.115850
O O14 0.000000 0.500000 0.000000
O O15 0.152898 0.526350 0.727785
#
# Coordination Sequence:
#
# PCOD9078879 Si02
#       7
#     2   2   2   2   2   2   2
#     4  10  22  37  61  81 111 155 190 225 281 339
#     4   9  17  34  61  83 113 152 184 227 288 330
#     4  11  22  36  58  88 111 150 192 227 279 332
#     4  10  18  36  60  82 115 155 185 226 282 333
#     4   8  15  31  56  83 105 145 180 227 278 323
#     4  10  19  40  59  78 115 148 188 236 277 328
#     4  10  20  34  59  88 114 144 188 234 283 328
#
# _framework density 25.605511
#
# number of rings (size 3 to 8) (size 9 to 14) (size 15 to 20)
#    0.000    2.571    2.857    3.000    0.000    1.714 
#    0.000    0.714   12.571    0.000    0.000    0.000 
#    0.000    0.000    0.000    0.000    0.000    0.000 
#
# Total GULP energy -78230.580950 kJ/mol
# GULP energy per Si atom -5587.898639 kJ/mol
# Density = 2.554723 g / cm^3
# Si number density = 25.605511 Si / 1000 Ang^3
#
#
#
# Elastic Constant Matrix: (Units=GPa)
#
#
# Indices 1 2 3 4 5 6 
#
# 1 64.4219 28.5582 49.5933 6.6659 -5.8297 8.4559
# 2 28.5582 160.3420 58.3085 -5.1496 -17.0375 38.7211
# 3 49.5933 58.3085 231.3320 50.3304 -34.2112 22.9043
# 4 6.6659 -5.1496 50.3304 47.3874 10.4419 -3.5683
# 5 -5.8297 -17.0375 -34.2112 10.4419 34.2366 -0.4571
# 6 8.4559 38.7211 22.9043 -3.5683 -0.4571 38.8515
#
#
#
# Elastic Compliance Matrix: (Units=1/GPa)
#
#
# Indices 1 2 3 4 5 6 
#
# 1 0.019535 -0.002242 -0.004999 0.003234 -0.003755 0.001183
# 2 -0.002242 0.009239 -0.000768 0.000842 0.003083 -0.008154
# 3 -0.004999 -0.000768 0.012063 -0.016135 0.015654 -0.006556
# 4 0.003234 0.000842 -0.016135 0.045098 -0.028751 0.011773
# 5 -0.003755 0.003083 0.015654 -0.028751 0.054334 -0.013485
# 6 0.001183 -0.008154 -0.006556 0.011773 -0.013485 0.038395
#
#
# Mechanical properties :
#
#
# Convention : Reuss Voigt Hill
#
# Bulk Modulus (GPa) = 40.29315 81.00177 60.64746
# Shear Modulus (GPa) = 24.63601 45.40417 35.02009
#
# Velocity S-wave (km/s) = 3.10520 4.21553 3.70223
# Velocity P-wave (km/s) = 5.35039 7.44294 6.48167
#
# Compressibility (1/GPa) = 0.02481811
#
# Stress axis : x y z
#
# Youngs Moduli (GPa) = 51.18949 108.23763 82.90116
#
# Poissons Ratio (x) = 0.24270 0.41443
# Poissons Ratio (y) = 0.11478 0.06366
# Poissons Ratio (z) = 0.25590 0.08312
#
# Static dielectric constant tensor:
#      x y z
#    x 2.152170 0.015690 0.069010 
#    y 0.015690 2.098050 -0.027710 
#    z 0.069010 -0.027710 2.076170 
# 
# From -- ./inp_files/393799.got.cif
#   From: 2010.05.17/outbox.cif.g08.bks.cpg/sg2_197_cif.got.tgz:393799.got - 2010.06.03 11:33:40.
