data_PCOD9078013
_publ_section_title
;
Structure prediction by ZEFSAII (Michael W. Deem and Ramdas Pophale) SiO2 
 PCOD9078013
Probable space group: P -1
;
_chemical_formula_sum "Si O2"
_cell_formula_units_Z 16
_cell_length_a 8.388003
_cell_length_b 11.377609
_cell_length_c 11.034144
_cell_angle_alpha 121.462398
_cell_angle_beta 105.760748
_cell_angle_gamma 105.070519
_cell_volume 753.849718
_symmetry_space_group_name_H-M "P -1"
_symmetry_group_IT_number 2
_symmetry_cell_setting 'triclinic'
loop_
_space_group_symop_operation_xyz
x,y,z
-x,-y,-z
loop_
_atom_site_type_symbol
_atom_site_label
_atom_site_fract_x
_atom_site_fract_y
_atom_site_fract_z
Si Si1 0.443226 0.122557 0.845358
Si Si2 0.287013 0.713106 0.203399
Si Si3 0.156131 0.172698 0.166811
Si Si4 0.763791 0.331403 0.212383
Si Si5 0.080511 0.850431 0.681751
Si Si6 0.566389 0.379358 0.401538
Si Si7 0.961450 0.615732 0.901866
Si Si8 0.703367 0.192915 0.481996
O O1 0.525398 0.240649 0.812022
O O2 0.225758 0.039334 0.801108
O O3 0.443224 0.968157 0.704857
O O4 0.584180 0.209441 0.030687
O O5 0.189950 0.534264 0.136254
O O6 0.317217 0.816582 0.384400
O O7 0.132415 0.720576 0.086355
O O8 0.375514 0.223903 0.235062
O O9 0.124930 0.291196 0.137145
O O10 0.107104 0.186699 0.305166
O O11 0.000000 0.000000 0.000000
O O12 0.825658 0.227225 0.252459
O O13 0.708958 0.431674 0.345601
O O14 0.930267 0.428335 0.203502
O O15 0.098238 0.787494 0.519562
O O16 0.500000 0.500000 0.500000
O O17 0.662751 0.329330 0.499498
#
# Coordination Sequence:
#
# PCOD9078013 Si02
#       8
#     2   2   2   2   2   2   2   2
#     4   9  17  30  59  83 103 141 191 237 268 316
#     4  10  18  35  57  86 109 144 197 236 266 325
#     4  11  22  36  59  85 117 146 186 238 287 339
#     4   9  17  34  56  79 111 142 194 231 272 333
#     4   8  18  31  52  84 104 142 186 234 274 318
#     4  11  23  35  56  87 121 150 175 234 302 342
#     4   9  21  35  59  84 108 151 192 234 273 331
#     4   9  20  33  58  83 112 144 187 235 272 337
#
# _framework density 21.22439
#
# number of rings (size 3 to 8) (size 9 to 14) (size 15 to 20)
#    0.750    1.750    0.000    2.250    5.250    1.000 
#    0.000    3.750    0.000   34.500    0.000    0.000 
#    0.000    0.000    0.000    0.000    0.000    0.000 
#
# Total GULP energy -89134.173976 kJ/mol
# GULP energy per Si atom -5570.885874 kJ/mol
# Density = 2.117608 g / cm^3
# Si number density = 21.224390 Si / 1000 Ang^3
#
#
#
# Elastic Constant Matrix: (Units=GPa)
#
#
# Indices 1 2 3 4 5 6 
#
# 1 58.3241 30.1966 5.8526 -7.8034 -9.5078 16.3461
# 2 30.1966 77.2246 7.7885 -5.8848 -5.2894 30.2931
# 3 5.8526 7.7885 75.8727 -7.4701 -10.8040 -0.0154
# 4 -7.8034 -5.8848 -7.4701 34.0062 8.0576 -5.9299
# 5 -9.5078 -5.2894 -10.8040 8.0576 27.4183 -4.0564
# 6 16.3461 30.2931 -0.0154 -5.9299 -4.0564 23.7672
#
#
#
# Elastic Compliance Matrix: (Units=1/GPa)
#
#
# Indices 1 2 3 4 5 6 
#
# 1 0.023286 -0.005645 -0.000299 0.001752 0.005245 -0.007488
# 2 -0.005645 0.027957 -0.002938 -0.002357 -0.001861 -0.032658
# 3 -0.000299 -0.002938 0.014468 0.002326 0.005149 0.005419
# 4 0.001752 -0.002357 0.002326 0.033199 -0.007381 0.008823
# 5 0.005245 -0.001861 0.005149 -0.007381 0.042755 0.004223
# 6 -0.007488 -0.032658 0.005419 0.008823 0.004223 0.091775
#
#
# Mechanical properties :
#
#
# Convention : Reuss Voigt Hill
#
# Bulk Modulus (GPa) = 20.85644 33.23298 27.04471
# Shear Modulus (GPa) = 18.71348 28.21058 23.46203
#
# Velocity S-wave (km/s) = 2.97256 3.64972 3.32840
# Velocity P-wave (km/s) = 4.65075 5.78381 5.24795
#
# Compressibility (1/GPa) = 0.04794682
#
# Stress axis : x y z
#
# Youngs Moduli (GPa) = 42.94346 35.76955 69.11867
#
# Poissons Ratio (x) = 0.20193 0.02065
# Poissons Ratio (y) = 0.24243 0.20307
# Poissons Ratio (z) = 0.01283 0.10509
#
# Static dielectric constant tensor:
#      x y z
#    x 1.773070 0.051190 -0.009260 
#    y 0.051190 1.775670 0.042390 
#    z -0.009260 0.042390 1.829890 
# 
# From -- ./inp_files/388255.got.cif
#   From: 2010.05.17/outbox.cif.g08.bks.cpg/sg2_195_cif.got.tgz:388255.got - 2010.06.03 11:33:40.
