data_PCOD9078871
_publ_section_title
;
Structure prediction by ZEFSAII (Michael W. Deem and Ramdas Pophale) SiO2 
 PCOD9078871
Probable space group: P -1
;
_chemical_formula_sum "Si O2"
_cell_formula_units_Z 14
_cell_length_a 16.837350
_cell_length_b 16.941894
_cell_length_c 7.785120
_cell_angle_alpha 115.187127
_cell_angle_beta 44.295000
_cell_angle_gamma 152.033954
_cell_volume 564.302372
_symmetry_space_group_name_H-M "P -1"
_symmetry_group_IT_number 2
_symmetry_cell_setting 'triclinic'
loop_
_space_group_symop_operation_xyz
x,y,z
-x,-y,-z
loop_
_atom_site_type_symbol
_atom_site_label
_atom_site_fract_x
_atom_site_fract_y
_atom_site_fract_z
Si Si1 0.318770 0.054869 0.601192
Si Si2 0.184247 0.796728 0.729057
Si Si3 0.148023 0.587598 0.670319
Si Si4 0.938829 0.999776 0.821110
Si Si5 0.567926 0.791312 0.778319
Si Si6 0.704113 0.484944 0.759080
Si Si7 0.032456 0.818430 0.287068
O O1 0.525246 0.192628 0.572428
O O2 0.488536 0.206511 0.315924
O O3 0.198971 0.873178 0.616464
O O4 0.090052 0.966397 0.926289
O O5 0.085710 0.628909 0.692711
O O6 0.500000 0.000000 0.500000
O O7 0.032182 0.740948 0.072743
O O8 0.098347 0.458841 0.547931
O O9 0.000000 0.500000 0.000000
O O10 0.055182 0.155263 0.653257
O O11 0.620765 0.747310 0.027064
O O12 0.150924 0.069163 0.556557
O O13 0.657346 0.935318 0.894795
O O14 0.358251 0.578336 0.002114
O O15 0.850261 0.666101 0.596272
#
# Coordination Sequence:
#
# PCOD9078871 Si02
#       7
#     2   2   2   2   2   2   2
#     4   9  20  36  55  80 105 140 181 220 269 323
#     4   9  17  34  58  76  97 143 188 214 257 318
#     4  10  18  36  60  75 100 141 186 221 254 318
#     4   9  20  36  58  76 105 151 184 214 257 321
#     4  11  21  36  52  81 119 138 169 229 279 309
#     4  10  20  35  57  84 106 140 187 216 262 326
#     4  10  19  34  56  81 108 141 182 220 261 320
#
# _framework density 24.809394999999999
#
# number of rings (size 3 to 8) (size 9 to 14) (size 15 to 20)
#    0.000    2.286    1.429    4.714    0.000    2.286 
#    2.571    7.143    0.000    5.143    0.000    0.000 
#    0.000    0.000    0.000    0.000    0.000    0.000 
#
# Total GULP energy -78072.468238 kJ/mol
# GULP energy per Si atom -5576.604874 kJ/mol
# Density = 2.475293 g / cm^3
# Si number density = 24.809395 Si / 1000 Ang^3
#
#
#
# Elastic Constant Matrix: (Units=GPa)
#
#
# Indices 1 2 3 4 5 6 
#
# 1 97.8553 29.0028 39.5457 -11.2348 30.8466 -28.3450
# 2 29.0028 83.5223 27.2594 -18.2910 3.2385 -26.2889
# 3 39.5457 27.2594 114.0913 -9.8226 18.8423 -19.8078
# 4 -11.2348 -18.2910 -9.8226 46.3107 -15.3241 5.7790
# 5 30.8466 3.2385 18.8423 -15.3241 49.7946 -11.7878
# 6 -28.3450 -26.2889 -19.8078 5.7790 -11.7878 23.9921
#
#
#
# Elastic Compliance Matrix: (Units=1/GPa)
#
#
# Indices 1 2 3 4 5 6 
#
# 1 0.017805 -0.000350 -0.002332 -0.000433 -0.006563 0.015607
# 2 -0.000350 0.021331 -0.001443 0.007498 0.007252 0.023525
# 3 -0.002332 -0.001443 0.010858 0.000157 -0.001624 0.003793
# 4 -0.000433 0.007498 0.000157 0.026846 0.009400 0.005986
# 5 -0.006563 0.007252 -0.001624 0.009400 0.029848 0.011252
# 6 0.015607 0.023525 0.003793 0.005986 0.011252 0.093113
#
#
# Mechanical properties :
#
#
# Convention : Reuss Voigt Hill
#
# Bulk Modulus (GPa) = 23.95506 54.12051 39.03779
# Shear Modulus (GPa) = 22.52601 37.33020 29.92811
#
# Velocity S-wave (km/s) = 3.01651 3.88323 3.47698
# Velocity P-wave (km/s) = 4.67002 6.47826 5.64699
#
# Compressibility (1/GPa) = 0.04174483
#
# Stress axis : x y z
#
# Youngs Moduli (GPa) = 56.16372 46.88073 92.09711
#
# Poissons Ratio (x) = 0.01640 0.21474
# Poissons Ratio (y) = 0.01964 0.13291
# Poissons Ratio (z) = 0.13096 0.06765
#
# Static dielectric constant tensor:
#      x y z
#    x 1.997270 0.068980 0.009110 
#    y 0.068980 2.106790 -0.013950 
#    z 0.009110 -0.013950 2.002170 
# 
# From -- ./inp_files/259030.got.cif
#   From: 2010.05.17/outbox.cif.g08.bks.cpg/sg2_130_cif.got.tgz:259030.got - 2010.06.03 11:33:40.
