data_PCOD9078487
_publ_section_title
;
Structure prediction by ZEFSAII (Michael W. Deem and Ramdas Pophale) SiO2 
 PCOD9078487
Probable space group: P -1
;
_chemical_formula_sum "Si O2"
_cell_formula_units_Z 12
_cell_length_a 7.849577
_cell_length_b 12.649125
_cell_length_c 7.997223
_cell_angle_alpha 132.292014
_cell_angle_beta 58.027567
_cell_angle_gamma 110.952058
_cell_volume 498.271752
_symmetry_space_group_name_H-M "P -1"
_symmetry_group_IT_number 2
_symmetry_cell_setting 'triclinic'
loop_
_space_group_symop_operation_xyz
x,y,z
-x,-y,-z
loop_
_atom_site_type_symbol
_atom_site_label
_atom_site_fract_x
_atom_site_fract_y
_atom_site_fract_z
Si Si1 0.278661 0.986145 0.197180
Si Si2 0.810920 0.876288 0.922454
Si Si3 0.599880 0.668037 0.017179
Si Si4 0.539658 0.136511 0.437742
Si Si5 0.965609 0.272165 0.072859
Si Si6 0.399571 0.576963 0.477960
O O1 0.150340 0.089010 0.252462
O O2 0.331024 0.051884 0.418864
O O3 0.164910 0.833646 0.090155
O O4 0.500000 0.000000 0.000000
O O5 0.654101 0.748164 0.899131
O O6 0.993911 0.821877 0.881065
O O7 0.703425 0.011997 0.209296
O O8 0.553672 0.511465 0.808831
O O9 0.450915 0.771806 0.301531
O O10 0.807037 0.677558 0.028680
O O11 0.548062 0.259351 0.421109
O O12 0.834768 0.408348 0.337225
O O13 0.500000 0.500000 0.500000
#
# Coordination Sequence:
#
# PCOD9078487 Si02
#       6
#     2   2   2   2   2   2
#     4  10  18  35  63  91 116 153 205 246 292 358
#     4   9  20  38  65  92 116 156 207 246 301 351
#     4  10  24  39  61  94 127 155 199 251 315 353
#     4  11  22  40  64  93 124 157 199 256 307 353
#     4  10  22  38  65  91 118 159 211 248 299 352
#     4  12  24  42  63  86 122 171 207 238 297 379
#
# _framework density 24.083243
#
# number of rings (size 3 to 8) (size 9 to 14) (size 15 to 20)
#    1.000    0.667    3.333    3.000    2.333    0.667 
#    0.000    0.833    0.000    0.000    0.000    0.000 
#    0.000    0.000    0.000    0.000    0.000    0.000 
#
# Total GULP energy -66807.057790 kJ/mol
# GULP energy per Si atom -5567.254816 kJ/mol
# Density = 2.402843 g / cm^3
# Si number density = 24.083243 Si / 1000 Ang^3
#
#
#
# Elastic Constant Matrix: (Units=GPa)
#
#
# Indices 1 2 3 4 5 6 
#
# 1 80.5042 15.9668 29.5314 18.6878 -13.7920 -16.8002
# 2 15.9668 48.5700 7.1287 17.7980 0.4923 -5.5612
# 3 29.5314 7.1287 112.7710 31.8156 2.2262 -13.0658
# 4 18.6878 17.7980 31.8156 29.6548 1.7531 -0.4336
# 5 -13.7920 0.4923 2.2262 1.7531 36.2431 13.3803
# 6 -16.8002 -5.5612 -13.0658 -0.4336 13.3803 35.7890
#
#
#
# Elastic Compliance Matrix: (Units=1/GPa)
#
#
# Indices 1 2 3 4 5 6 
#
# 1 0.017267 -0.001848 -0.001549 -0.008339 0.005167 0.005220
# 2 -0.001848 0.029317 0.005748 -0.022336 -0.002796 0.006561
# 3 -0.001549 0.005748 0.014838 -0.018112 -0.003113 0.006527
# 4 -0.008339 -0.022336 -0.018112 0.071650 -0.000436 -0.012967
# 5 0.005167 -0.002796 -0.003113 -0.000436 0.034217 -0.011943
# 6 0.005220 0.006561 0.006527 -0.012967 -0.011943 0.038102
#
#
# Mechanical properties :
#
#
# Convention : Reuss Voigt Hill
#
# Bulk Modulus (GPa) = 15.12348 38.56655 26.84502
# Shear Modulus (GPa) = 22.44849 32.95192 27.70021
#
# Velocity S-wave (km/s) = 3.05638 3.70300 3.39512
# Velocity P-wave (km/s) = 4.32996 5.85931 5.15171
#
# Compressibility (1/GPa) = 0.06612233
#
# Stress axis : x y z
#
# Youngs Moduli (GPa) = 57.91406 34.10969 67.39620
#
# Poissons Ratio (x) = 0.06303 0.10443
# Poissons Ratio (y) = 0.10702 -0.38737
# Poissons Ratio (z) = 0.08974 -0.19605
#
# Static dielectric constant tensor:
#      x y z
#    x 2.010980 0.068720 0.025200 
#    y 0.068720 2.062820 -0.067720 
#    z 0.025200 -0.067720 1.949450 
# 
# From -- ./inp_files/198630.got.cif
#   From: 2010.05.17/outbox.cif.g08.bks.cpg/sg2_100_cif.got.tgz:198630.got - 2010.06.03 11:33:40.
