data_PCOD9078480
_publ_section_title
;
Structure prediction by ZEFSAII (Michael W. Deem and Ramdas Pophale) SiO2 
 PCOD9078480
Probable space group: P -1
;
_chemical_formula_sum "Si O2"
_cell_formula_units_Z 16
_cell_length_a 10.008604
_cell_length_b 14.725960
_cell_length_c 8.250914
_cell_angle_alpha 130.205494
_cell_angle_beta 57.217506
_cell_angle_gamma 121.846154
_cell_volume 750.190538
_symmetry_space_group_name_H-M "P -1"
_symmetry_group_IT_number 2
_symmetry_cell_setting 'triclinic'
loop_
_space_group_symop_operation_xyz
x,y,z
-x,-y,-z
loop_
_atom_site_type_symbol
_atom_site_label
_atom_site_fract_x
_atom_site_fract_y
_atom_site_fract_z
Si Si1 0.432760 0.673914 0.604671
Si Si2 0.846871 0.004413 0.488882
Si Si3 0.866764 0.557104 0.377765
Si Si4 0.217465 0.838070 0.034321
Si Si5 0.349349 0.276097 0.802847
Si Si6 0.336054 0.280858 0.189352
Si Si7 0.102047 0.035803 0.132663
Si Si8 0.910191 0.598907 0.016421
O O1 0.274813 0.556884 0.587492
O O2 0.520531 0.685890 0.386391
O O3 0.545059 0.661875 0.672844
O O4 0.367038 0.793655 0.814881
O O5 0.749703 0.869328 0.331537
O O6 0.734798 0.071742 0.738221
O O7 0.000000 0.000000 0.500000
O O8 0.966672 0.088172 0.376892
O O9 0.826486 0.669374 0.628593
O O10 0.849606 0.572200 0.211328
O O11 0.036587 0.517004 0.227300
O O12 0.074201 0.716313 0.043269
O O13 0.140639 0.916347 0.049124
O O14 0.223709 0.358291 0.949108
O O15 0.404174 0.295885 0.978107
O O16 0.272076 0.136874 0.108485
O O17 0.000000 0.000000 0.000000
#
# Coordination Sequence:
#
# PCOD9078480 Si02
#       8
#     2   2   2   2   2   2   2   2
#     4  11  25  45  61  90 134 170 207 256 312 384
#     4  10  18  35  63  90 116 161 202 251 317 359
#     4  10  23  41  68  90 125 169 212 262 313 363
#     4  10  21  39  67  91 122 170 206 253 323 367
#     4  12  23  39  66  93 129 164 210 258 317 375
#     4  12  24  40  64  95 128 169 209 253 321 374
#     4  11  20  38  63  95 126 154 207 270 306 366
#     4  10  19  41  68  95 119 160 219 264 304 374
#
# _framework density 21.327912999999999
#
# number of rings (size 3 to 8) (size 9 to 14) (size 15 to 20)
#    0.000    1.250    5.000    2.625    0.000    3.000 
#    2.250    1.250    5.500    0.000    0.000    0.000 
#    0.000    0.000    0.000    0.000    0.000    0.000 
#
# Total GULP energy -89144.563955 kJ/mol
# GULP energy per Si atom -5571.535247 kJ/mol
# Density = 2.127937 g / cm^3
# Si number density = 21.327913 Si / 1000 Ang^3
#
#
#
# Elastic Constant Matrix: (Units=GPa)
#
#
# Indices 1 2 3 4 5 6 
#
# 1 26.0455 17.3462 39.1136 -10.7339 -9.2898 -11.2306
# 2 17.3462 80.3643 36.4338 -21.8086 -0.5854 -13.4268
# 3 39.1136 36.4338 139.1600 -26.1185 -5.6304 -19.2501
# 4 -10.7339 -21.8086 -26.1185 39.1854 -9.7782 -4.6434
# 5 -9.2898 -0.5854 -5.6304 -9.7782 27.1339 1.8165
# 6 -11.2306 -13.4268 -19.2501 -4.6434 1.8165 20.5791
#
#
#
# Elastic Compliance Matrix: (Units=1/GPa)
#
#
# Indices 1 2 3 4 5 6 
#
# 1 0.123483 0.003204 -0.017135 0.043798 0.050633 0.058864
# 2 0.003204 0.018541 -0.000745 0.013895 0.005291 0.015817
# 3 -0.017135 -0.000745 0.013307 0.003682 -0.002037 0.003621
# 4 0.043798 0.013895 0.003682 0.062113 0.035275 0.047313
# 5 0.050633 0.005291 -0.002037 0.035275 0.064488 0.031446
# 6 0.058864 0.015817 0.003621 0.047313 0.031446 0.102324
#
#
# Mechanical properties :
#
#
# Convention : Reuss Voigt Hill
#
# Bulk Modulus (GPa) = 7.93777 47.92854 27.93316
# Shear Modulus (GPa) = 10.97452 27.55809 19.26631
#
# Velocity S-wave (km/s) = 2.27086 3.59850 3.00882
# Velocity P-wave (km/s) = 3.25662 6.30766 5.01957
#
# Compressibility (1/GPa) = 0.12597994
#
# Stress axis : x y z
#
# Youngs Moduli (GPa) = 8.09826 53.93343 75.15095
#
# Poissons Ratio (x) = -0.17280 1.28769
# Poissons Ratio (y) = -0.02595 0.05598
# Poissons Ratio (z) = 0.13876 0.04018
#
# Static dielectric constant tensor:
#      x y z
#    x 1.721760 -0.012840 -0.057160 
#    y -0.012840 1.780160 0.004460 
#    z -0.057160 0.004460 1.797730 
# 
# From -- ./inp_files/274286.got.cif
#   From: 2010.05.17/outbox.cif.g08.bks.cpg/sg2_138_cif.got.tgz:274286.got - 2010.06.03 11:33:40.
