data_PCOD9078238
_publ_section_title
;
Structure prediction by ZEFSAII (Michael W. Deem and Ramdas Pophale) SiO2 
 PCOD9078238
Probable space group: P -1
;
_chemical_formula_sum "Si O2"
_cell_formula_units_Z 14
_cell_length_a 8.137496
_cell_length_b 11.550754
_cell_length_c 9.468730
_cell_angle_alpha 67.533141
_cell_angle_beta 133.158332
_cell_angle_gamma 119.801379
_cell_volume 562.117824
_symmetry_space_group_name_H-M "P -1"
_symmetry_group_IT_number 2
_symmetry_cell_setting 'triclinic'
loop_
_space_group_symop_operation_xyz
x,y,z
-x,-y,-z
loop_
_atom_site_type_symbol
_atom_site_label
_atom_site_fract_x
_atom_site_fract_y
_atom_site_fract_z
Si Si1 0.337196 0.365011 0.885192
Si Si2 0.666961 0.913787 0.091981
Si Si3 0.182846 0.037793 0.267694
Si Si4 0.120712 0.383687 0.443147
Si Si5 0.643119 0.801923 0.419488
Si Si6 0.680806 0.199347 0.413647
Si Si7 0.853105 0.334216 0.723281
O O1 0.424219 0.241280 0.949490
O O2 0.235273 0.403532 0.659851
O O3 0.100123 0.307051 0.871546
O O4 0.500000 0.500000 0.000000
O O5 0.763244 0.886853 0.314573
O O6 0.900404 0.002773 0.097557
O O7 0.500000 0.000000 0.000000
O O8 0.257840 0.120467 0.417489
O O9 0.402857 0.119854 0.256904
O O10 0.226258 0.901623 0.395727
O O11 0.296570 0.332181 0.480606
O O12 0.084037 0.509157 0.290463
O O13 0.863567 0.265043 0.366258
O O14 0.355081 0.759769 0.256957
O O15 0.722056 0.313628 0.501663
#
# Coordination Sequence:
#
# PCOD9078238 Si02
#       7
#     2   2   2   2   2   2   2
#     4  10  21  40  59  81 119 166 201 237 291 356
#     4  11  23  41  57  87 126 161 195 244 296 361
#     4  10  18  35  60  84 114 150 189 246 301 343
#     4  10  19  36  59  91 118 145 195 251 296 347
#     4  10  21  36  60  89 118 149 193 250 304 345
#     4   9  17  31  59  86 112 140 192 241 295 336
#     4  10  19  37  60  87 114 150 195 251 295 349
#
# _framework density 24.905809999999999
#
# number of rings (size 3 to 8) (size 9 to 14) (size 15 to 20)
#    0.000    2.000    4.286    2.571    0.000    1.143 
#    2.571    7.857    0.000    0.000    0.000    0.000 
#    0.000    0.000    0.000    0.000    0.000    0.000 
#
# Total GULP energy -78113.354939 kJ/mol
# GULP energy per Si atom -5579.525353 kJ/mol
# Density = 2.484912 g / cm^3
# Si number density = 24.905810 Si / 1000 Ang^3
#
#
#
# Elastic Constant Matrix: (Units=GPa)
#
#
# Indices 1 2 3 4 5 6 
#
# 1 86.9763 47.9587 31.6283 17.8575 40.7668 -4.5183
# 2 47.9587 132.6564 48.9748 18.8024 23.3430 -19.3825
# 3 31.6283 48.9748 92.7054 19.9925 20.7460 -3.9122
# 4 17.8575 18.8024 19.9925 45.0991 8.2842 14.0057
# 5 40.7668 23.3430 20.7460 8.2842 40.0506 0.1051
# 6 -4.5183 -19.3825 -3.9122 14.0057 0.1051 39.6780
#
#
#
# Elastic Compliance Matrix: (Units=1/GPa)
#
#
# Indices 1 2 3 4 5 6 
#
# 1 0.025535 -0.004048 -0.000367 -0.004985 -0.022418 0.002713
# 2 -0.004048 0.011837 -0.003829 -0.003544 -0.000078 0.006195
# 3 -0.000367 -0.003829 0.014876 -0.004435 -0.004186 0.001131
# 4 -0.004985 -0.003544 -0.004435 0.031327 0.002994 -0.013802
# 5 -0.022418 -0.000078 -0.004186 0.002994 0.049393 -0.004191
# 6 0.002713 0.006195 0.001131 -0.013802 -0.004191 0.033533
#
#
# Mechanical properties :
#
#
# Convention : Reuss Voigt Hill
#
# Bulk Modulus (GPa) = 27.96435 63.27350 45.61892
# Shear Modulus (GPa) = 25.65308 37.21729 31.43519
#
# Velocity S-wave (km/s) = 3.21285 3.86984 3.55655
# Velocity P-wave (km/s) = 5.00156 6.74002 5.93479
#
# Compressibility (1/GPa) = 0.03575981
#
# Stress axis : x y z
#
# Youngs Moduli (GPa) = 39.16162 84.48423 67.22365
#
# Poissons Ratio (x) = 0.34203 0.02465
# Poissons Ratio (y) = 0.15854 0.25738
# Poissons Ratio (z) = 0.01436 0.32347
#
# Static dielectric constant tensor:
#      x y z
#    x 2.025290 -0.070530 0.036440 
#    y -0.070530 2.117510 0.043870 
#    z 0.036440 0.043870 2.006150 
# 
# From -- ./inp_files/186598.got.cif
#   From: 2010.05.17/outbox.cif.g08.bks.cpg/sg2_94_cif.got.tgz:186598.got - 2010.06.03 11:33:40.
