data_PCOD9078923
_publ_section_title
;
Structure prediction by ZEFSAII (Michael W. Deem and Ramdas Pophale) SiO2 
 PCOD9078923
Probable space group: P -1
;
_chemical_formula_sum "Si O2"
_cell_formula_units_Z 14
_cell_length_a 11.794692
_cell_length_b 11.240466
_cell_length_c 10.102730
_cell_angle_alpha 101.226992
_cell_angle_beta 72.397437
_cell_angle_gamma 41.666193
_cell_volume 634.791296
_symmetry_space_group_name_H-M "P -1"
_symmetry_group_IT_number 2
_symmetry_cell_setting 'triclinic'
loop_
_space_group_symop_operation_xyz
x,y,z
-x,-y,-z
loop_
_atom_site_type_symbol
_atom_site_label
_atom_site_fract_x
_atom_site_fract_y
_atom_site_fract_z
Si Si1 0.171403 0.015926 0.667921
Si Si2 0.569520 0.837243 0.580222
Si Si3 0.317777 0.673215 0.741241
Si Si4 0.305163 0.543231 0.967034
Si Si5 0.233419 0.579682 0.515807
Si Si6 0.186281 0.931859 0.360654
Si Si7 0.254282 0.319975 0.815536
O O1 0.271930 0.913372 0.464170
O O2 0.316434 0.997519 0.675212
O O3 0.217114 0.861642 0.715638
O O4 0.893115 0.279517 0.813012
O O5 0.704839 0.615073 0.566650
O O6 0.712821 0.721516 0.365740
O O7 0.482372 0.038984 0.719386
O O8 0.231161 0.712018 0.923771
O O9 0.286732 0.576872 0.646687
O O10 0.577446 0.498831 0.639394
O O11 0.275725 0.437657 0.886357
O O12 0.580599 0.315305 0.850808
O O13 0.972084 0.841709 0.623436
O O14 0.000000 0.000000 0.500000
O O15 0.000000 0.500000 0.000000
#
# Coordination Sequence:
#
# PCOD9078923 Si02
#       7
#     2   2   2   2   2   2   2
#     4  11  22  37  61  92 120 156 194 239 302 355
#     4  10  21  39  65  87 112 153 202 249 293 333
#     4  10  18  36  60  88 119 150 199 245 290 344
#     4  12  22  38  61  92 120 155 197 248 291 351
#     4  10  19  37  61  85 119 160 191 238 296 352
#     4  12  22  39  57  85 132 160 186 234 299 362
#     4  11  21  38  65  91 111 148 205 255 288 332
#
# _framework density 22.054492
#
# number of rings (size 3 to 8) (size 9 to 14) (size 15 to 20)
#    0.000    1.143    7.143    1.286    0.000    0.571 
#    0.000    2.143    0.000    1.714    0.000    0.000 
#    0.000    0.000    0.000    0.000    0.000    0.000 
#
# Total GULP energy -78000.914254 kJ/mol
# GULP energy per Si atom -5571.493875 kJ/mol
# Density = 2.200430 g / cm^3
# Si number density = 22.054492 Si / 1000 Ang^3
#
#
#
# Elastic Constant Matrix: (Units=GPa)
#
#
# Indices 1 2 3 4 5 6 
#
# 1 43.6194 21.2210 16.9425 2.1016 -6.1113 14.1287
# 2 21.2210 101.3078 35.6482 28.9195 -4.3342 10.1996
# 3 16.9425 35.6482 150.1593 25.0646 -15.3448 5.1170
# 4 2.1016 28.9195 25.0646 28.5645 -3.3846 -5.2478
# 5 -6.1113 -4.3342 -15.3448 -3.3846 26.5868 2.6869
# 6 14.1287 10.1996 5.1170 -5.2478 2.6869 25.2830
#
#
#
# Elastic Compliance Matrix: (Units=1/GPa)
#
#
# Indices 1 2 3 4 5 6 
#
# 1 0.031994 -0.004698 -0.001432 0.001588 0.007598 -0.016171
# 2 -0.004698 0.016853 -0.000194 -0.017986 0.000062 -0.007874
# 3 -0.001432 -0.000194 0.008579 -0.007270 0.003947 -0.002786
# 4 0.001588 -0.017986 -0.007270 0.063249 -0.000839 0.021057
# 5 0.007598 0.000062 0.003947 -0.000839 0.042527 -0.009763
# 6 -0.016171 -0.007874 -0.002786 0.021057 -0.009763 0.057738
#
#
# Mechanical properties :
#
#
# Convention : Reuss Voigt Hill
#
# Bulk Modulus (GPa) = 22.33284 49.18999 35.76142
# Shear Modulus (GPa) = 20.11959 30.83849 25.47904
#
# Velocity S-wave (km/s) = 3.02365 3.74342 3.40262
# Velocity P-wave (km/s) = 4.72633 6.40598 5.62915
#
# Compressibility (1/GPa) = 0.04477710
#
# Stress axis : x y z
#
# Youngs Moduli (GPa) = 31.25629 59.33703 116.56274
#
# Poissons Ratio (x) = 0.27877 0.16693
# Poissons Ratio (y) = 0.14684 0.02262
# Poissons Ratio (z) = 0.04476 0.01152
#
# Static dielectric constant tensor:
#      x y z
#    x 1.883920 0.014970 0.007840 
#    y 0.014970 1.858410 0.052490 
#    z 0.007840 0.052490 1.837850 
# 
# From -- ./inp_files/251322.got.cif
#   From: 2010.05.17/outbox.cif.g08.bks.cpg/sg2_126_cif.got.tgz:251322.got - 2010.06.03 11:33:40.
