data_PCOD9078798
_publ_section_title
;
Structure prediction by ZEFSAII (Michael W. Deem and Ramdas Pophale) SiO2 
 PCOD9078798
Probable space group: P -1
;
_chemical_formula_sum "Si O2"
_cell_formula_units_Z 16
_cell_length_a 8.945798
_cell_length_b 15.557252
_cell_length_c 12.344373
_cell_angle_alpha 103.912403
_cell_angle_beta 124.005431
_cell_angle_gamma 35.618247
_cell_volume 743.315486
_symmetry_space_group_name_H-M "P -1"
_symmetry_group_IT_number 2
_symmetry_cell_setting 'triclinic'
loop_
_space_group_symop_operation_xyz
x,y,z
-x,-y,-z
loop_
_atom_site_type_symbol
_atom_site_label
_atom_site_fract_x
_atom_site_fract_y
_atom_site_fract_z
Si Si1 0.609841 0.924795 0.903350
Si Si2 0.227399 0.380521 0.809112
Si Si3 0.235252 0.317055 0.020789
Si Si4 0.159712 0.747347 0.912339
Si Si5 0.957548 0.089687 0.295681
Si Si6 0.746428 0.939362 0.405072
Si Si7 0.312371 0.236294 0.582566
Si Si8 0.070455 0.330054 0.287381
O O1 0.833320 0.743773 0.960344
O O2 0.858128 0.881875 0.918344
O O3 0.277822 0.052240 0.732076
O O4 0.500000 0.000000 0.000000
O O5 0.254195 0.320629 0.688429
O O6 0.928591 0.575880 0.742259
O O7 0.211831 0.317526 0.881603
O O8 0.541440 0.315296 0.941669
O O9 0.620554 0.174994 0.166756
O O10 0.000000 0.500000 0.000000
O O11 0.065021 0.826618 0.781046
O O12 0.192914 0.630001 0.858123
O O13 0.971808 0.126259 0.432265
O O14 0.315581 0.897078 0.354693
O O15 0.712248 0.855786 0.416399
O O16 0.413043 0.134080 0.354221
O O17 0.045866 0.357857 0.414155
#
# Coordination Sequence:
#
# PCOD9078798 Si02
#       8
#     2   2   2   2   2   2   2   2
#     4  11  23  38  59  85 128 161 192 248 310 355
#     4  11  24  35  63  92 121 155 202 259 294 347
#     4  11  25  41  58  86 127 163 199 241 305 366
#     4  10  20  38  63  87 118 157 214 239 295 362
#     4  10  20  38  69  90 110 159 213 249 291 357
#     4  10  19  39  65  87 119 157 207 246 296 360
#     4  11  19  36  63  97 117 144 200 268 300 334
#     4  10  18  36  58  90 116 154 192 254 300 347
#
# _framework density 21.525179000000001
#
# number of rings (size 3 to 8) (size 9 to 14) (size 15 to 20)
#    0.000    1.500    3.750    3.750    1.750    2.500 
#    0.000    0.000    2.750    1.500    0.000    0.000 
#    0.000    0.000    0.000    0.000    0.000    0.000 
#
# Total GULP energy -89190.558683 kJ/mol
# GULP energy per Si atom -5574.409918 kJ/mol
# Density = 2.147619 g / cm^3
# Si number density = 21.525179 Si / 1000 Ang^3
#
#
#
# Elastic Constant Matrix: (Units=GPa)
#
#
# Indices 1 2 3 4 5 6 
#
# 1 43.6733 -0.8001 21.8016 -5.5938 -22.6801 4.0235
# 2 -0.8001 46.2164 22.1197 8.3557 -0.6028 4.3039
# 3 21.8016 22.1197 138.4601 29.8441 -25.6240 -4.3117
# 4 -5.5938 8.3557 29.8441 34.8932 -3.3932 -13.0997
# 5 -22.6801 -0.6028 -25.6240 -3.3932 27.3928 0.8734
# 6 4.0235 4.3039 -4.3117 -13.0997 0.8734 23.1815
#
#
#
# Elastic Compliance Matrix: (Units=1/GPa)
#
#
# Indices 1 2 3 4 5 6 
#
# 1 0.044987 0.000927 -0.003332 0.012162 0.035756 -0.003074
# 2 0.000927 0.025350 -0.003522 -0.006587 -0.002494 -0.009151
# 3 -0.003332 -0.003522 0.011646 -0.009902 0.006910 -0.002458
# 4 0.012162 -0.006587 -0.009902 0.050951 0.006150 0.025830
# 5 0.035756 -0.002494 0.006910 0.006150 0.073400 -0.003748
# 6 -0.003074 -0.009151 -0.002458 0.025830 -0.003748 0.059651
#
#
# Mechanical properties :
#
#
# Convention : Reuss Voigt Hill
#
# Bulk Modulus (GPa) = 14.25953 34.95469 24.60711
# Shear Modulus (GPa) = 16.59943 29.44207 23.02075
#
# Velocity S-wave (km/s) = 2.78000 3.70239 3.27384
# Velocity P-wave (km/s) = 4.11624 5.87802 5.07418
#
# Compressibility (1/GPa) = 0.07012855
#
# Stress axis : x y z
#
# Youngs Moduli (GPa) = 22.22878 39.44805 85.86447
#
# Poissons Ratio (x) = -0.03657 0.28608
# Poissons Ratio (y) = -0.02061 0.30245
# Poissons Ratio (z) = 0.07406 0.13895
#
# Static dielectric constant tensor:
#      x y z
#    x 1.803220 0.003350 0.005100 
#    y 0.003350 1.825630 0.014960 
#    z 0.005100 0.014960 1.863040 
# 
# From -- ./inp_files/397498.got.cif
#   From: 2010.05.17/outbox.cif.g08.bks.cpg/sg2_199_cif.got.tgz:397498.got - 2010.06.03 11:33:40.
