data_PCOD9078913
_publ_section_title
;
Structure prediction by ZEFSAII (Michael W. Deem and Ramdas Pophale) SiO2 
 PCOD9078913
Probable space group: P -1
;
_chemical_formula_sum "Si O2"
_cell_formula_units_Z 16
_cell_length_a 14.473367
_cell_length_b 8.325172
_cell_length_c 11.092634
_cell_angle_alpha 130.820703
_cell_angle_beta 52.070447
_cell_angle_gamma 136.156242
_cell_volume 673.982460
_symmetry_space_group_name_H-M "P -1"
_symmetry_group_IT_number 2
_symmetry_cell_setting 'triclinic'
loop_
_space_group_symop_operation_xyz
x,y,z
-x,-y,-z
loop_
_atom_site_type_symbol
_atom_site_label
_atom_site_fract_x
_atom_site_fract_y
_atom_site_fract_z
Si Si1 0.125949 0.544386 0.267857
Si Si2 0.711300 0.559582 0.108471
Si Si3 0.623594 0.111357 0.623890
Si Si4 0.038983 0.408361 0.798950
Si Si5 0.225903 0.953722 0.920284
Si Si6 0.527416 0.709850 0.294386
Si Si7 0.022188 0.001023 0.778693
Si Si8 0.405877 0.926879 0.923131
O O1 0.224965 0.775609 0.389037
O O2 0.031774 0.292240 0.300076
O O3 0.054905 0.616308 0.254238
O O4 0.233098 0.496096 0.084361
O O5 0.701902 0.368568 0.121422
O O6 0.553843 0.493571 0.198090
O O7 0.828489 0.831447 0.196653
O O8 0.568800 0.888718 0.463563
O O9 0.608169 0.325647 0.675059
O O10 0.511297 0.005252 0.767638
O O11 0.180141 0.671787 0.780302
O O12 0.032885 0.154184 0.720727
O O13 0.000000 0.500000 0.000000
O O14 0.344499 0.144729 0.830040
O O15 0.303459 0.021617 0.020698
O O16 0.091011 0.968887 0.040922
O O17 0.500000 0.000000 0.000000
#
# Coordination Sequence:
#
# PCOD9078913 Si02
#       8
#     2   2   2   2   2   2   2   2
#     4  12  21  37  65  95 124 159 207 262 309 363
#     4  12  20  37  64  94 116 159 217 249 309 374
#     4  10  25  44  57  88 128 166 206 253 317 370
#     4  10  19  33  58  94 127 159 192 260 320 356
#     4  10  18  36  60  87 124 159 196 251 320 365
#     4  10  23  42  63  83 123 175 204 248 316 379
#     4  11  21  35  63 100 124 155 205 266 308 371
#     4  11  22  35  61  92 122 157 206 263 304 355
#
# _framework density 23.739491000000001
#
# number of rings (size 3 to 8) (size 9 to 14) (size 15 to 20)
#    0.000    1.250    6.250    1.875    0.000    2.000 
#    0.000    2.500    0.000    1.500    0.000    0.000 
#    0.000    0.000    0.000    0.000    0.000    0.000 
#
# Total GULP energy -89174.627575 kJ/mol
# GULP energy per Si atom -5573.414223 kJ/mol
# Density = 2.368546 g / cm^3
# Si number density = 23.739491 Si / 1000 Ang^3
#
#
#
# Elastic Constant Matrix: (Units=GPa)
#
#
# Indices 1 2 3 4 5 6 
#
# 1 156.2449 4.6054 23.9308 -0.3039 20.1692 -7.8485
# 2 4.6054 67.4496 -9.0751 17.8246 1.8677 -8.5069
# 3 23.9308 -9.0751 22.3019 -1.2631 -0.9271 -6.3946
# 4 -0.3039 17.8246 -1.2631 6.3582 9.0713 -2.3049
# 5 20.1692 1.8677 -0.9271 9.0713 23.9733 4.3101
# 6 -7.8485 -8.5069 -6.3946 -2.3049 4.3101 41.2521
#
#
#
# Elastic Compliance Matrix: (Units=1/GPa)
#
#
# Indices 1 2 3 4 5 6 
#
# 1 0.005593 0.008545 -0.004533 -0.037428 0.008775 -0.000885
# 2 0.008545 -0.012856 -0.007762 0.107978 -0.048949 0.008919
# 3 -0.004533 -0.007762 0.052662 0.064927 -0.020169 0.011435
# 4 -0.037428 0.107978 0.064927 -0.391571 0.176471 -0.015106
# 5 0.008775 -0.048949 -0.020169 0.176471 -0.029665 0.001409
# 6 -0.000885 0.008919 0.011435 -0.015106 0.001409 0.026693
#
#
# Mechanical properties :
#
#
# Convention : Reuss Voigt Hill
#
# Bulk Modulus (GPa) = 26.38706 31.65763 29.02234
# Shear Modulus (GPa) = -15.19705 29.41904 7.11100
#
# Velocity S-wave (km/s) = -2.53288 3.52411 1.73261
# Velocity P-wave (km/s) = 1.60792 5.47024 4.03168
#
# Compressibility (1/GPa) = 0.03789736
#
# Stress axis : x y z
#
# Youngs Moduli (GPa) = 178.80778 -77.78167 18.98895
#
# Poissons Ratio (x) = 0.66461 0.08607
# Poissons Ratio (y) = -1.52783 0.14740
# Poissons Ratio (z) = 0.81050 -0.60376
#
# Static dielectric constant tensor:
#      x y z
#    x 2.046380 -0.016470 -0.013840 
#    y -0.016470 2.057010 0.077150 
#    z -0.013840 0.077150 1.941550 
# 
# From -- ./inp_files/445178.got.cif
#   From: 2010.05.17/outbox.cif.g08.bks.cpg/sg2_223_cif.got.tgz:445178.got - 2010.06.03 11:33:40.
