data_PCOD9078135
_publ_section_title
;
Structure prediction by ZEFSAII (Michael W. Deem and Ramdas Pophale) SiO2 
 PCOD9078135
Probable space group: P -1
;
_chemical_formula_sum "Si O2"
_cell_formula_units_Z 16
_cell_length_a 19.848519
_cell_length_b 8.348858
_cell_length_c 18.671699
_cell_angle_alpha 137.485666
_cell_angle_beta 159.133408
_cell_angle_gamma 51.754633
_cell_volume 712.839595
_symmetry_space_group_name_H-M "P -1"
_symmetry_group_IT_number 2
_symmetry_cell_setting 'triclinic'
loop_
_space_group_symop_operation_xyz
x,y,z
-x,-y,-z
loop_
_atom_site_type_symbol
_atom_site_label
_atom_site_fract_x
_atom_site_fract_y
_atom_site_fract_z
Si Si1 0.102496 0.951084 0.014130
Si Si2 0.894173 0.059355 0.179542
Si Si3 0.454196 0.208369 0.364794
Si Si4 0.450046 0.874976 0.070347
Si Si5 0.106182 0.786249 0.219962
Si Si6 0.361675 0.778806 0.741628
Si Si7 0.525776 0.486267 0.904510
Si Si8 0.048159 0.494132 0.715560
O O1 0.332219 0.104647 0.281511
O O2 0.087356 0.671852 0.883379
O O3 0.000000 0.000000 0.000000
O O4 0.980302 0.054537 0.868235
O O5 0.703151 0.916190 0.894159
O O6 0.776246 0.110240 0.148178
O O7 0.037328 0.884086 0.259007
O O8 0.993221 0.326737 0.329710
O O9 0.500000 0.500000 0.500000
O O10 0.663617 0.161162 0.547769
O O11 0.503626 0.765551 0.162628
O O12 0.585004 0.134582 0.258251
O O13 0.475460 0.670067 0.972390
O O14 0.000000 0.500000 0.000000
O O15 0.408239 0.525628 0.729696
O O16 0.135767 0.735089 0.524121
O O17 0.500000 0.000000 0.000000
O O18 0.754023 0.562930 0.132226
#
# Coordination Sequence:
#
# PCOD9078135 Si02
#       8
#     2   2   2   2   2   2   2   2
#     4  10  23  38  56  89 122 150 201 247 293 350
#     4   9  20  35  56  84 121 148 201 244 294 353
#     4  10  18  35  59  80 112 159 191 239 294 346
#     4   9  19  37  58  90 112 149 202 244 287 365
#     4  10  18  37  60  81 113 158 195 238 298 350
#     4  10  21  38  60  87 118 156 201 245 301 354
#     4   9  19  40  62  78 123 156 189 247 310 341
#     4   9  20  39  57  83 121 157 194 247 295 364
#
# _framework density 22.445440000000001
#
# number of rings (size 3 to 8) (size 9 to 14) (size 15 to 20)
#    0.000    2.750    2.500    0.000    0.000    9.500 
#    2.250   20.625    0.000    0.000    0.000    0.000 
#    0.000    0.000    0.000    0.000    0.000    0.000 
#
# Total GULP energy -89131.408526 kJ/mol
# GULP energy per Si atom -5570.713033 kJ/mol
# Density = 2.239435 g / cm^3
# Si number density = 22.445440 Si / 1000 Ang^3
#
#
#
# Elastic Constant Matrix: (Units=GPa)
#
#
# Indices 1 2 3 4 5 6 
#
# 1 113.6980 51.7036 58.9809 -3.5296 48.7552 -26.8868
# 2 51.7036 94.8942 31.2476 -18.5318 20.7966 -18.5326
# 3 58.9809 31.2476 121.6118 -4.5520 47.5585 -14.6611
# 4 -3.5296 -18.5318 -4.5520 37.3357 -10.5764 10.0262
# 5 48.7552 20.7966 47.5585 -10.5764 39.0492 -8.3500
# 6 -26.8868 -18.5326 -14.6611 10.0262 -8.3500 60.2675
#
#
#
# Elastic Compliance Matrix: (Units=1/GPa)
#
#
# Indices 1 2 3 4 5 6 
#
# 1 0.029007 -0.010066 0.003582 -0.014565 -0.037464 0.007949
# 2 -0.010066 0.016686 -0.002927 0.009855 0.009841 -0.000347
# 3 0.003582 -0.002927 0.017061 -0.006790 -0.024994 0.002515
# 4 -0.014565 0.009855 -0.006790 0.040133 0.030455 -0.007576
# 5 -0.037464 0.009841 -0.024994 0.030455 0.103591 -0.010482
# 6 0.007949 -0.000347 0.002515 -0.007576 -0.010482 0.020452
#
#
# Mechanical properties :
#
#
# Convention : Reuss Voigt Hill
#
# Bulk Modulus (GPa) = 22.76175 68.22982 45.49579
# Shear Modulus (GPa) = 19.20158 39.88193 29.54176
#
# Velocity S-wave (km/s) = 2.92803 4.21983 3.63183
# Velocity P-wave (km/s) = 4.64694 7.36252 6.15633
#
# Compressibility (1/GPa) = 0.04393335
#
# Stress axis : x y z
#
# Youngs Moduli (GPa) = 34.47454 59.92965 58.61372
#
# Poissons Ratio (x) = 0.60323 -0.20997
# Poissons Ratio (y) = 0.34701 0.17157
# Poissons Ratio (z) = -0.12350 0.17542
#
# Static dielectric constant tensor:
#      x y z
#    x 1.694150 -0.019040 0.047090 
#    y -0.019040 1.925140 0.002470 
#    z 0.047090 0.002470 1.844250 
# 
# From -- ./inp_files/601255.got.cif
#   From: 2010.05.17/outbox.cif.g08.bks.cpg/sg2_301_cif.got.tgz:601255.got - 2010.06.03 11:33:40.
