data_PCOD9078982
_publ_section_title
;
Structure prediction by ZEFSAII (Michael W. Deem and Ramdas Pophale) SiO2 
 PCOD9078982
Probable space group: P -1
;
_chemical_formula_sum "Si O2"
_cell_formula_units_Z 12
_cell_length_a 9.943033
_cell_length_b 7.703707
_cell_length_c 15.870354
_cell_angle_alpha 62.158278
_cell_angle_beta 23.712652
_cell_angle_gamma 65.997508
_cell_volume 431.536956
_symmetry_space_group_name_H-M "P -1"
_symmetry_group_IT_number 2
_symmetry_cell_setting 'triclinic'
loop_
_space_group_symop_operation_xyz
x,y,z
-x,-y,-z
loop_
_atom_site_type_symbol
_atom_site_label
_atom_site_fract_x
_atom_site_fract_y
_atom_site_fract_z
Si Si1 0.816344 0.262695 0.344042
Si Si2 0.912036 0.093118 0.668329
Si Si3 0.250444 0.582481 0.412055
Si Si4 0.090495 0.274148 0.836004
Si Si5 0.753593 0.341920 0.859781
Si Si6 0.674222 0.246828 0.238868
O O1 0.467444 0.240931 0.600270
O O2 0.925612 0.488676 0.212584
O O3 0.756813 0.184515 0.300127
O O4 0.082300 0.138512 0.269284
O O5 0.308279 0.155177 0.441275
O O6 0.770727 0.186235 0.643003
O O7 0.722358 0.203019 0.827161
O O8 0.599113 0.481033 0.225893
O O9 0.000000 0.500000 0.500000
O O10 0.083630 0.484564 0.612359
O O11 0.844583 0.207561 0.916292
O O12 0.946708 0.201172 0.023688
O O13 0.500000 0.500000 0.000000
#
# Coordination Sequence:
#
# PCOD9078982 Si02
#       6
#     2   2   2   2   2   2
#     4  11  23  39  55  89 122 148 186 240 288 339
#     4  10  20  37  59  86 119 144 194 248 272 327
#     4   8  16  33  55  80 110 145 184 236 278 325
#     4  11  22  37  62  82 118 158 187 226 297 348
#     4  10  18  36  61  85 110 153 198 229 281 346
#     4  10  19  38  61  80 114 156 193 227 286 344
#
# _framework density 27.807583000000001
#
# number of rings (size 3 to 8) (size 9 to 14) (size 15 to 20)
#    0.000    2.333    3.333    4.000    0.000    0.667 
#    3.000    4.167    0.000    0.000    0.000    0.000 
#    0.000    0.000    0.000    0.000    0.000    0.000 
#
# Total GULP energy -67181.930360 kJ/mol
# GULP energy per Si atom -5598.494197 kJ/mol
# Density = 2.774429 g / cm^3
# Si number density = 27.807583 Si / 1000 Ang^3
#
#
#
# Elastic Constant Matrix: (Units=GPa)
#
#
# Indices 1 2 3 4 5 6 
#
# 1 78.1446 4.2725 23.2827 -6.3802 27.8965 -17.5367
# 2 4.2725 163.9087 24.3923 23.2551 12.2893 -30.2355
# 3 23.2827 24.3923 181.8970 23.5971 42.4429 0.4736
# 4 -6.3802 23.2551 23.5971 29.6471 3.0131 -5.1308
# 5 27.8965 12.2893 42.4429 3.0131 44.0487 -0.5068
# 6 -17.5367 -30.2355 0.4736 -5.1308 -0.5068 41.1123
#
#
#
# Elastic Compliance Matrix: (Units=1/GPa)
#
#
# Indices 1 2 3 4 5 6 
#
# 1 0.020552 0.001521 -0.000705 0.006958 -0.013115 0.010600
# 2 0.001521 0.008028 -0.000037 -0.004630 -0.002782 0.005941
# 3 -0.000705 -0.000037 0.007964 -0.005985 -0.006822 -0.001250
# 4 0.006958 -0.004630 -0.005985 0.044555 -0.000337 0.005188
# 5 -0.013115 -0.002782 -0.006822 -0.000337 0.038299 -0.007132
# 6 0.010600 0.005941 -0.001250 0.005188 -0.007132 0.033788
#
#
# Mechanical properties :
#
#
# Convention : Reuss Voigt Hill
#
# Bulk Modulus (GPa) = 26.24461 58.64947 42.44704
# Shear Modulus (GPa) = 30.42650 47.76181 39.09415
#
# Velocity S-wave (km/s) = 3.31143 4.14887 3.75358
# Velocity P-wave (km/s) = 4.90705 6.63986 5.83810
#
# Compressibility (1/GPa) = 0.03810306
#
# Stress axis : x y z
#
# Youngs Moduli (GPa) = 48.65595 124.56053 125.55994
#
# Poissons Ratio (x) = -0.18940 0.08848
# Poissons Ratio (y) = -0.07398 0.00463
# Poissons Ratio (z) = 0.03429 0.00459
#
# Static dielectric constant tensor:
#      x y z
#    x 2.204870 0.089090 -0.039120 
#    y 0.089090 2.358950 -0.111880 
#    z -0.039120 -0.111880 2.144140 
# 
# From -- ./inp_files/161965.got.cif
#   From: 2010.05.17/outbox.cif.g08.bks.cpg/sg2_81_cif.got.tgz:161965.got - 2010.06.03 11:33:40.
