data_PCOD9078548
_publ_section_title
;
Structure prediction by ZEFSAII (Michael W. Deem and Ramdas Pophale) SiO2 
 PCOD9078548
Probable space group: P -1
;
_chemical_formula_sum "Si O2"
_cell_formula_units_Z 14
_cell_length_a 11.275934
_cell_length_b 14.358675
_cell_length_c 8.539767
_cell_angle_alpha 38.616932
_cell_angle_beta 58.823646
_cell_angle_gamma 42.624963
_cell_volume 578.988638
_symmetry_space_group_name_H-M "P -1"
_symmetry_group_IT_number 2
_symmetry_cell_setting 'triclinic'
loop_
_space_group_symop_operation_xyz
x,y,z
-x,-y,-z
loop_
_atom_site_type_symbol
_atom_site_label
_atom_site_fract_x
_atom_site_fract_y
_atom_site_fract_z
Si Si1 0.449773 0.171423 0.509970
Si Si2 0.757015 0.280858 0.281989
Si Si3 0.843598 0.492361 0.164544
Si Si4 0.432351 0.864078 0.952211
Si Si5 0.390910 0.667401 0.008655
Si Si6 0.254930 0.028832 0.189841
Si Si7 0.148503 0.411231 0.643185
O O1 0.494394 0.273122 0.227650
O O2 0.629874 0.011670 0.684223
O O3 0.322106 0.312392 0.549319
O O4 0.382671 0.054716 0.651524
O O5 0.846108 0.350871 0.230635
O O6 0.750997 0.286058 0.087597
O O7 0.821552 0.080612 0.569758
O O8 0.542633 0.446148 0.237523
O O9 0.868699 0.455642 0.383196
O O10 0.641378 0.687857 0.034585
O O11 0.000000 0.500000 0.000000
O O12 0.328224 0.793834 0.040263
O O13 0.374816 0.924995 0.090363
O O14 0.147751 0.248431 0.937401
O O15 0.000000 0.500000 0.500000
#
# Coordination Sequence:
#
# PCOD9078548 Si02
#       7
#     2   2   2   2   2   2   2
#     4  10  18  37  64  90 122 151 210 251 296 352
#     4   9  21  39  59  87 126 156 203 243 310 353
#     4  11  23  40  60  87 126 166 198 239 307 372
#     4  10  18  35  64  96 116 156 206 249 300 346
#     4   9  19  33  58  96 121 147 196 263 295 343
#     4  10  19  41  65  89 118 158 205 257 298 352
#     4  11  23  39  61  91 121 162 204 247 301 361
#
# _framework density 24.180095000000001
#
# number of rings (size 3 to 8) (size 9 to 14) (size 15 to 20)
#    0.000    2.000    2.857    1.286    4.000    2.286 
#    2.571    1.429    0.000    0.000    0.000    0.000 
#    0.000    0.000    0.000    0.000    0.000    0.000 
#
# Total GULP energy -78147.735242 kJ/mol
# GULP energy per Si atom -5581.981089 kJ/mol
# Density = 2.412506 g / cm^3
# Si number density = 24.180095 Si / 1000 Ang^3
#
#
#
# Elastic Constant Matrix: (Units=GPa)
#
#
# Indices 1 2 3 4 5 6 
#
# 1 147.0508 24.9470 32.4335 -6.7447 1.2243 34.0682
# 2 24.9470 54.1000 1.1100 5.8690 -6.2765 15.3966
# 3 32.4335 1.1100 91.5989 -5.3603 6.4549 -11.3034
# 4 -6.7447 5.8690 -5.3603 15.3629 11.2507 -2.2416
# 5 1.2243 -6.2765 6.4549 11.2507 36.1054 3.3541
# 6 34.0682 15.3966 -11.3034 -2.2416 3.3541 39.7608
#
#
#
# Elastic Compliance Matrix: (Units=1/GPa)
#
#
# Indices 1 2 3 4 5 6 
#
# 1 0.010501 -0.002313 -0.004723 0.002314 0.000232 -0.009334
# 2 -0.002313 0.027546 -0.003531 -0.025182 0.014490 -0.012330
# 3 -0.004723 -0.003531 0.015271 0.012065 -0.007975 0.011108
# 4 0.002314 -0.025182 0.012065 0.115807 -0.044697 0.021498
# 5 0.000232 0.014490 -0.007975 -0.044697 0.046914 -0.014555
# 6 -0.009334 -0.012330 0.011108 0.021498 -0.014555 0.043520
#
#
# Mechanical properties :
#
#
# Convention : Reuss Voigt Hill
#
# Bulk Modulus (GPa) = 31.07197 45.52564 38.29880
# Shear Modulus (GPa) = 17.15731 33.86310 25.51020
#
# Velocity S-wave (km/s) = 2.66665 3.74632 3.25161
# Velocity P-wave (km/s) = 4.72858 6.13040 5.47455
#
# Compressibility (1/GPa) = 0.03218335
#
# Stress axis : x y z
#
# Youngs Moduli (GPa) = 95.22827 36.30348 65.48317
#
# Poissons Ratio (x) = 0.08398 0.30927
# Poissons Ratio (y) = 0.22029 0.23122
# Poissons Ratio (z) = 0.44976 0.12819
#
# Static dielectric constant tensor:
#      x y z
#    x 2.117840 0.001960 -0.022790 
#    y 0.001960 2.005410 -0.008420 
#    z -0.022790 -0.008420 1.971190 
# 
# From -- ./inp_files/271493.got.cif
#   From: 2010.05.17/outbox.cif.g08.bks.cpg/sg2_136_cif.got.tgz:271493.got - 2010.06.03 11:33:40.
