data_PCOD9078773
_publ_section_title
;
Structure prediction by ZEFSAII (Michael W. Deem and Ramdas Pophale) SiO2 
 PCOD9078773
Probable space group: P -1
;
_chemical_formula_sum "Si O2"
_cell_formula_units_Z 16
_cell_length_a 13.501705
_cell_length_b 7.252345
_cell_length_c 15.779655
_cell_angle_alpha 47.144451
_cell_angle_beta 145.122872
_cell_angle_gamma 140.940176
_cell_volume 552.737828
_symmetry_space_group_name_H-M "P -1"
_symmetry_group_IT_number 2
_symmetry_cell_setting 'triclinic'
loop_
_space_group_symop_operation_xyz
x,y,z
-x,-y,-z
loop_
_atom_site_type_symbol
_atom_site_label
_atom_site_fract_x
_atom_site_fract_y
_atom_site_fract_z
Si Si1 0.156702 0.350641 0.014420
Si Si2 0.836449 0.617813 0.538356
Si Si3 0.037306 0.289202 0.768655
Si Si4 0.374375 0.218367 0.400461
Si Si5 0.616560 0.672347 0.232085
Si Si6 0.145335 0.503031 0.224424
Si Si7 0.363444 0.157405 0.984792
Si Si8 0.477278 0.941326 0.708444
O O1 0.168051 0.441282 0.895659
O O2 0.054298 0.504586 0.944651
O O3 0.386022 0.494180 0.158889
O O4 0.000000 0.000000 0.000000
O O5 0.981695 0.525424 0.620975
O O6 0.594812 0.359569 0.468643
O O7 0.788222 0.812289 0.381000
O O8 0.902252 0.671706 0.665686
O O9 0.140508 0.117010 0.856027
O O10 0.806408 0.031046 0.703309
O O11 0.291304 0.431670 0.297041
O O12 0.368002 0.071965 0.534259
O O13 0.630249 0.875024 0.100808
O O14 0.631104 0.402377 0.284538
O O15 0.295969 0.855845 0.232968
O O16 0.500000 0.500000 0.000000
O O17 0.465771 0.032326 0.159420
#
# Coordination Sequence:
#
# PCOD9078773 Si02
#       8
#     2   2   2   2   2   2   2   2
#     4  11  19  35  60  89 118 148 196 246 297 341
#     4  10  21  35  59  92 119 150 194 245 297 340
#     4  11  20  34  60  89 118 153 197 244 285 350
#     4  11  22  38  58  92 124 153 188 243 303 354
#     4  11  20  36  60  88 120 149 197 254 285 338
#     4  10  22  37  61  86 124 155 189 240 303 354
#     4  10  21  38  56  88 118 155 199 246 290 334
#     4  10  18  36  58  83 119 155 185 239 292 347
#
# _framework density 28.946814
#
# number of rings (size 3 to 8) (size 9 to 14) (size 15 to 20)
#    0.000    1.500    5.000    2.625    1.750    0.500 
#    0.000    6.875    0.000    8.250    0.000    0.000 
#    0.000    0.000    0.000    0.000    0.000    0.000 
#
# Total GULP energy -89248.751885 kJ/mol
# GULP energy per Si atom -5578.046993 kJ/mol
# Density = 2.888093 g / cm^3
# Si number density = 28.946814 Si / 1000 Ang^3
#
#
#
# Elastic Constant Matrix: (Units=GPa)
#
#
# Indices 1 2 3 4 5 6 
#
# 1 98.2227 2.9019 62.4144 -17.4213 2.0320 -7.5743
# 2 2.9019 64.5361 16.6539 -7.5913 -4.1518 -6.0809
# 3 62.4144 16.6539 196.6110 7.5312 -7.2526 -6.9789
# 4 -17.4213 -7.5913 7.5312 46.0421 -0.1019 -3.1557
# 5 2.0320 -4.1518 -7.2526 -0.1019 75.9777 -10.3817
# 6 -7.5743 -6.0809 -6.9789 -3.1557 -10.3817 34.4888
#
#
#
# Elastic Compliance Matrix: (Units=1/GPa)
#
#
# Indices 1 2 3 4 5 6 
#
# 1 0.014777 0.001704 -0.005004 0.006900 -0.000353 0.003058
# 2 0.001704 0.016812 -0.001943 0.003989 0.001194 0.003670
# 3 -0.005004 -0.001943 0.006988 -0.003365 0.000672 -0.000133
# 4 0.006900 0.003989 -0.003365 0.025812 0.000292 0.003987
# 5 -0.000353 0.001194 0.000672 0.000292 0.013914 0.004484
# 6 0.003058 0.003670 -0.000133 0.003987 0.004484 0.032001
#
#
# Mechanical properties :
#
#
# Convention : Reuss Voigt Hill
#
# Bulk Modulus (GPa) = 35.59950 58.14558 46.87254
# Shear Modulus (GPa) = 38.41569 49.79503 44.10536
#
# Velocity S-wave (km/s) = 3.64691 4.15206 3.90765
# Velocity P-wave (km/s) = 5.48254 6.56634 6.04876
#
# Compressibility (1/GPa) = 0.02809028
#
# Stress axis : x y z
#
# Youngs Moduli (GPa) = 67.67110 59.48176 143.09568
#
# Poissons Ratio (x) = -0.10136 0.71608
# Poissons Ratio (y) = -0.11531 0.27810
# Poissons Ratio (z) = 0.33864 0.11560
#
# Static dielectric constant tensor:
#      x y z
#    x 2.307600 0.037350 -0.024700 
#    y 0.037350 2.416870 -0.098370 
#    z -0.024700 -0.098370 2.313080 
# 
# From -- ./inp_files/267771.got.cif
#   From: 2010.05.17/outbox.cif.g08.bks.cpg/sg2_134_cif.got.tgz:267771.got - 2010.06.03 11:33:40.
