data_PCOD9078190
_publ_section_title
;
Structure prediction by ZEFSAII (Michael W. Deem and Ramdas Pophale) SiO2 
 PCOD9078190
Probable space group: P -1
;
_chemical_formula_sum "Si O2"
_cell_formula_units_Z 16
_cell_length_a 11.605179
_cell_length_b 7.313684
_cell_length_c 13.987451
_cell_angle_alpha 54.838255
_cell_angle_beta 121.657350
_cell_angle_gamma 126.312261
_cell_volume 751.032985
_symmetry_space_group_name_H-M "P -1"
_symmetry_group_IT_number 2
_symmetry_cell_setting 'triclinic'
loop_
_space_group_symop_operation_xyz
x,y,z
-x,-y,-z
loop_
_atom_site_type_symbol
_atom_site_label
_atom_site_fract_x
_atom_site_fract_y
_atom_site_fract_z
Si Si1 0.618411 0.246703 0.028350
Si Si2 0.151482 0.738625 0.601900
Si Si3 0.102781 0.837621 0.747544
Si Si4 0.520882 0.052311 0.231329
Si Si5 0.354886 0.866718 0.404435
Si Si6 0.437388 0.542941 0.238496
Si Si7 0.174366 0.111036 0.343335
Si Si8 0.251917 0.417866 0.613306
O O1 0.772349 0.223693 0.125907
O O2 0.543296 0.249449 0.097539
O O3 0.640759 0.454207 0.897074
O O4 0.500000 0.000000 0.000000
O O5 0.058226 0.682619 0.675908
O O6 0.321114 0.856930 0.676160
O O7 0.149310 0.517292 0.600304
O O8 0.136754 0.958909 0.471331
O O9 0.961036 0.813162 0.755503
O O10 0.178919 0.125875 0.664180
O O11 0.402970 0.971973 0.288754
O O12 0.489514 0.802976 0.235360
O O13 0.297905 0.576374 0.488057
O O14 0.500000 0.000000 0.500000
O O15 0.214905 0.926342 0.351457
O O16 0.328200 0.349133 0.324166
O O17 0.586934 0.509718 0.289728
#
# Coordination Sequence:
#
# PCOD9078190 Si02
#       8
#     2   2   2   2   2   2   2   2
#     4   9  19  38  62  84 110 154 208 245 276 350
#     4  10  20  37  57  89 121 148 199 235 284 372
#     4  11  23  40  59  84 123 159 192 238 304 342
#     4  10  18  35  59  88 116 149 197 245 282 340
#     4  11  20  35  57  88 126 142 195 243 285 362
#     4  11  20  36  65  85 112 161 199 244 296 326
#     4  11  23  37  56  89 122 154 189 244 297 352
#     4  11  20  36  64  83 119 157 191 241 293 345
#
# _framework density 21.303992999999998
#
# number of rings (size 3 to 8) (size 9 to 14) (size 15 to 20)
#    0.000    1.500    7.500    0.375    1.750    3.500 
#    2.250    5.625    0.000    3.000    0.000    0.000 
#    0.000    0.000    0.000    0.000    0.000    0.000 
#
# Total GULP energy -89150.513301 kJ/mol
# GULP energy per Si atom -5571.907081 kJ/mol
# Density = 2.125550 g / cm^3
# Si number density = 21.303993 Si / 1000 Ang^3
#
#
#
# Elastic Constant Matrix: (Units=GPa)
#
#
# Indices 1 2 3 4 5 6 
#
# 1 132.4229 5.1119 58.8636 8.7859 11.2833 8.4370
# 2 5.1119 32.9638 -4.5656 -6.9347 3.0029 -2.2256
# 3 58.8636 -4.5656 77.6018 11.1185 -2.1428 -6.5769
# 4 8.7859 -6.9347 11.1185 18.0386 -4.2396 7.3455
# 5 11.2833 3.0029 -2.1428 -4.2396 19.7220 4.3842
# 6 8.4370 -2.2256 -6.5769 7.3455 4.3842 21.2479
#
#
#
# Elastic Compliance Matrix: (Units=1/GPa)
#
#
# Indices 1 2 3 4 5 6 
#
# 1 0.014036 -0.003577 -0.011934 0.001117 -0.006616 -0.008663
# 2 -0.003577 0.034030 0.003158 0.011913 -0.000672 0.001982
# 3 -0.011934 0.003158 0.026035 -0.016115 0.001629 0.018363
# 4 0.001117 0.011913 -0.016115 0.091926 0.024684 -0.041057
# 5 -0.006616 -0.000672 0.001629 0.024684 0.064239 -0.018727
# 6 -0.008663 0.001982 0.018363 -0.041057 -0.018727 0.074453
#
#
# Mechanical properties :
#
#
# Convention : Reuss Voigt Hill
#
# Bulk Modulus (GPa) = 20.24533 40.20094 30.22314
# Shear Modulus (GPa) = 14.45548 24.04026 19.24787
#
# Velocity S-wave (km/s) = 2.60769 3.36287 3.00907
# Velocity P-wave (km/s) = 4.31167 5.83006 5.12738
#
# Compressibility (1/GPa) = 0.04939410
#
# Stress axis : x y z
#
# Youngs Moduli (GPa) = 71.24436 29.38623 38.40995
#
# Poissons Ratio (x) = 0.10511 0.45840
# Poissons Ratio (y) = 0.25483 -0.12129
# Poissons Ratio (z) = 0.85025 -0.09280
#
# Static dielectric constant tensor:
#      x y z
#    x 1.836640 -0.031050 -0.019310 
#    y -0.031050 1.812230 -0.020870 
#    z -0.019310 -0.020870 1.825430 
# 
# From -- ./inp_files/302626.got.cif
#   From: 2010.05.17/outbox.cif.g08.bks.cpg/sg2_152_cif.got.tgz:302626.got - 2010.06.03 11:33:40.
