data_PCOD9078543
_publ_section_title
;
Structure prediction by ZEFSAII (Michael W. Deem and Ramdas Pophale) SiO2 
 PCOD9078543
Probable space group: P -1
;
_chemical_formula_sum "Si O2"
_cell_formula_units_Z 16
_cell_length_a 7.935193
_cell_length_b 11.634859
_cell_length_c 9.447063
_cell_angle_alpha 54.864541
_cell_angle_beta 113.770915
_cell_angle_gamma 95.252995
_cell_volume 641.174106
_symmetry_space_group_name_H-M "P -1"
_symmetry_group_IT_number 2
_symmetry_cell_setting 'triclinic'
loop_
_space_group_symop_operation_xyz
x,y,z
-x,-y,-z
loop_
_atom_site_type_symbol
_atom_site_label
_atom_site_fract_x
_atom_site_fract_y
_atom_site_fract_z
Si Si1 0.917682 0.032963 0.790030
Si Si2 0.759993 0.601906 0.758475
Si Si3 0.436017 0.954476 0.854503
Si Si4 0.314286 0.683571 0.085485
Si Si5 0.746643 0.581459 0.290828
Si Si6 0.227404 0.235654 0.072158
Si Si7 0.840261 0.779073 0.436020
Si Si8 0.652664 0.309456 0.569668
O O1 0.725203 0.148231 0.658622
O O2 0.034598 0.122264 0.668781
O O3 0.898197 0.876765 0.841163
O O4 0.000000 0.000000 0.000000
O O5 0.812205 0.431116 0.916810
O O6 0.713829 0.683058 0.831787
O O7 0.902464 0.673311 0.661971
O O8 0.563524 0.630144 0.583617
O O9 0.608379 0.869898 0.882949
O O10 0.329929 0.100783 0.648531
O O11 0.295685 0.843364 0.908395
O O12 0.500000 0.000000 0.000000
O O13 0.526136 0.616818 0.152423
O O14 0.320061 0.688492 0.254205
O O15 0.775721 0.679948 0.363281
O O16 0.776582 0.416317 0.463091
O O17 0.853821 0.641720 0.156296
#
# Coordination Sequence:
#
# PCOD9078543 Si02
#       8
#     2   2   2   2   2   2   2   2
#     4  12  25  40  63  93 125 165 214 257 306 369
#     4  11  23  41  64  93 130 160 204 264 313 364
#     4  11  19  36  65  90 122 157 207 256 304 364
#     4  10  18  35  64  95 120 159 204 257 310 361
#     4  10  19  37  63  94 120 158 206 254 305 367
#     4  11  24  41  63  94 127 163 207 259 313 365
#     4  12  21  39  61  91 124 166 204 255 310 362
#     4  11  21  38  67  95 121 159 214 253 308 373
#
# _framework density 24.954222000000001
#
# number of rings (size 3 to 8) (size 9 to 14) (size 15 to 20)
#    0.000    1.000    6.250    3.000    0.000    7.500 
#    0.000    0.000    0.000    5.250    0.000    0.000 
#    0.000    0.000    0.000    0.000    0.000    0.000 
#
# Total GULP energy -89501.590270 kJ/mol
# GULP energy per Si atom -5593.849392 kJ/mol
# Density = 2.489743 g / cm^3
# Si number density = 24.954222 Si / 1000 Ang^3
#
#
#
# Elastic Constant Matrix: (Units=GPa)
#
#
# Indices 1 2 3 4 5 6 
#
# 1 90.9841 17.2176 27.2978 -15.3708 -30.0649 7.1663
# 2 17.2176 139.1161 55.0219 -24.8133 -35.9909 19.5259
# 3 27.2978 55.0219 98.4207 -31.7174 -28.4273 18.5115
# 4 -15.3708 -24.8133 -31.7174 57.0710 7.1520 -16.1080
# 5 -30.0649 -35.9909 -28.4273 7.1520 37.5232 -17.0584
# 6 7.1663 19.5259 18.5115 -16.1080 -17.0584 30.1541
#
#
#
# Elastic Compliance Matrix: (Units=1/GPa)
#
#
# Indices 1 2 3 4 5 6 
#
# 1 0.016990 0.002757 -0.000759 0.005259 0.018203 0.007750
# 2 0.002757 0.011199 -0.003335 0.002909 0.010652 0.001720
# 3 -0.000759 -0.003335 0.016508 0.006564 0.007403 -0.000100
# 4 0.005259 0.002909 0.006564 0.026254 0.013586 0.014547
# 5 0.018203 0.010652 0.007403 0.013586 0.068121 0.030026
# 6 0.007750 0.001720 -0.000100 0.014547 0.030026 0.055026
#
#
# Mechanical properties :
#
#
# Convention : Reuss Voigt Hill
#
# Bulk Modulus (GPa) = 23.79620 58.62171 41.20896
# Shear Modulus (GPa) = 23.72146 40.21524 31.96835
#
# Velocity S-wave (km/s) = 3.08652 4.01878 3.58310
# Velocity P-wave (km/s) = 4.71792 6.71393 5.80240
#
# Compressibility (1/GPa) = 0.04202351
#
# Stress axis : x y z
#
# Youngs Moduli (GPa) = 58.85802 89.29174 60.57795
#
# Poissons Ratio (x) = -0.24618 0.04596
# Poissons Ratio (y) = -0.16227 0.20203
# Poissons Ratio (z) = 0.04465 0.29779
#
# Static dielectric constant tensor:
#      x y z
#    x 2.174010 0.042150 -0.019780 
#    y 0.042150 1.931820 -0.039000 
#    z -0.019780 -0.039000 1.964510 
# 
# From -- ./inp_files/175322.got.cif
#   From: 2010.05.17/outbox.cif.g08.bks.cpg/sg2_88_cif.got.tgz:175322.got - 2010.06.03 11:33:40.
