data_PCOD9078116
_publ_section_title
;
Structure prediction by ZEFSAII (Michael W. Deem and Ramdas Pophale) SiO2 
 PCOD9078116
Probable space group: P -1
;
_chemical_formula_sum "Si O2"
_cell_formula_units_Z 16
_cell_length_a 9.144941
_cell_length_b 23.326790
_cell_length_c 11.154384
_cell_angle_alpha 33.576923
_cell_angle_beta 120.936625
_cell_angle_gamma 142.616301
_cell_volume 717.301985
_symmetry_space_group_name_H-M "P -1"
_symmetry_group_IT_number 2
_symmetry_cell_setting 'triclinic'
loop_
_space_group_symop_operation_xyz
x,y,z
-x,-y,-z
loop_
_atom_site_type_symbol
_atom_site_label
_atom_site_fract_x
_atom_site_fract_y
_atom_site_fract_z
Si Si1 0.921730 0.668467 0.179026
Si Si2 0.547197 0.668949 0.305837
Si Si3 0.941091 0.233631 0.671132
Si Si4 0.802476 0.235399 0.115469
Si Si5 0.478215 0.382119 0.040809
Si Si6 0.819139 0.454491 0.859176
Si Si7 0.815764 0.741069 0.639402
Si Si8 0.244598 0.008722 0.174099
O O1 0.691263 0.479584 0.450288
O O2 0.767012 0.696714 0.011644
O O3 0.092646 0.772074 0.190312
O O4 0.090161 0.699861 0.087130
O O5 0.409593 0.624310 0.197659
O O6 0.764170 0.680369 0.367751
O O7 0.686879 0.842581 0.093700
O O8 0.760974 0.071550 0.800804
O O9 0.957427 0.353381 0.406209
O O10 0.947174 0.203267 0.283728
O O11 0.484072 0.084744 0.230594
O O12 0.893541 0.373499 0.996256
O O13 0.678869 0.402227 0.019003
O O14 0.634015 0.563161 0.818975
O O15 0.363628 0.288042 0.283490
O O16 0.966458 0.871848 0.369659
#
# Coordination Sequence:
#
# PCOD9078116 Si02
#       8
#     2   2   2   2   2   2   2   2
#     4  10  19  38  61  86 111 143 195 231 282 324
#     4  10  19  33  60  87 112 145 184 240 279 330
#     4  11  19  34  62  84 117 144 182 242 277 338
#     4  10  24  37  57  83 117 155 183 232 276 336
#     4  10  18  36  65  85 102 143 198 239 271 322
#     4  10  18  35  58  90 107 142 193 227 289 323
#     4  10  21  38  60  81 115 147 191 237 273 326
#     4  11  22  36  54  86 120 153 182 217 298 337
#
# _framework density 22.305807999999999
#
# number of rings (size 3 to 8) (size 9 to 14) (size 15 to 20)
#    0.000    1.750    3.750    1.500    0.000    5.500 
#    0.000    2.500    2.750    0.000    0.000    0.000 
#    0.000    0.000    0.000    0.000    0.000    0.000 
#
# Total GULP energy -89420.713939 kJ/mol
# GULP energy per Si atom -5588.794621 kJ/mol
# Density = 2.225504 g / cm^3
# Si number density = 22.305808 Si / 1000 Ang^3
#
#
#
# Elastic Constant Matrix: (Units=GPa)
#
#
# Indices 1 2 3 4 5 6 
#
# 1 74.1749 23.4096 30.7675 10.5728 -16.7979 -43.5490
# 2 23.4096 95.7858 43.1172 7.6805 2.2307 -22.9487
# 3 30.7675 43.1172 66.8201 -0.2598 -7.6938 -30.6874
# 4 10.5728 7.6805 -0.2598 28.9165 -13.2532 -0.1817
# 5 -16.7979 2.2307 -7.6938 -13.2532 24.0776 5.6070
# 6 -43.5490 -22.9487 -30.6874 -0.1817 5.6070 47.6566
#
#
#
# Elastic Compliance Matrix: (Units=1/GPa)
#
#
# Indices 1 2 3 4 5 6 
#
# 1 0.036018 -0.001404 0.000018 -0.005720 0.015022 0.030459
# 2 -0.001404 0.017162 -0.011340 -0.009478 -0.011646 0.001013
# 3 0.000018 -0.011340 0.029250 0.009149 0.012666 0.011935
# 4 -0.005720 -0.009478 0.009149 0.053394 0.030909 -0.007333
# 5 0.015022 -0.011646 0.012666 0.030909 0.072316 0.007885
# 6 0.030459 0.001013 0.011935 -0.007333 0.007885 0.056035
#
#
# Mechanical properties :
#
#
# Convention : Reuss Voigt Hill
#
# Bulk Modulus (GPa) = 17.55124 47.92994 32.74059
# Shear Modulus (GPa) = 16.20120 29.42924 22.81522
#
# Velocity S-wave (km/s) = 2.69796 3.63623 3.20165
# Velocity P-wave (km/s) = 4.19415 6.25810 5.32704
#
# Compressibility (1/GPa) = 0.05697603
#
# Stress axis : x y z
#
# Youngs Moduli (GPa) = 27.76412 58.26932 34.18805
#
# Poissons Ratio (x) = 0.08182 -0.00060
# Poissons Ratio (y) = 0.03898 0.38770
# Poissons Ratio (z) = -0.00049 0.66078
#
# Static dielectric constant tensor:
#      x y z
#    x 1.822160 0.014560 -0.003910 
#    y 0.014560 1.878630 0.006160 
#    z -0.003910 0.006160 1.811090 
# 
# From -- ./inp_files/177566.got.cif
#   From: 2010.05.17/outbox.cif.g08.bks.cpg/sg2_89_cif.got.tgz:177566.got - 2010.06.03 11:33:40.
