data_PCOD9078812
_publ_section_title
;
Structure prediction by ZEFSAII (Michael W. Deem and Ramdas Pophale) SiO2 
 PCOD9078812
Probable space group: P -1
;
_chemical_formula_sum "Si O2"
_cell_formula_units_Z 16
_cell_length_a 9.449621
_cell_length_b 10.053026
_cell_length_c 8.459865
_cell_angle_alpha 95.902193
_cell_angle_beta 125.043751
_cell_angle_gamma 87.506017
_cell_volume 654.363986
_symmetry_space_group_name_H-M "P -1"
_symmetry_group_IT_number 2
_symmetry_cell_setting 'triclinic'
loop_
_space_group_symop_operation_xyz
x,y,z
-x,-y,-z
loop_
_atom_site_type_symbol
_atom_site_label
_atom_site_fract_x
_atom_site_fract_y
_atom_site_fract_z
Si Si1 0.797184 0.381377 0.915038
Si Si2 0.708239 0.165552 0.329560
Si Si3 0.645852 0.793062 0.717502
Si Si4 0.724825 0.660406 0.055901
Si Si5 0.022656 0.326987 0.499654
Si Si6 0.835901 0.553715 0.688652
Si Si7 0.552866 0.186779 0.912461
Si Si8 0.236553 0.076816 0.489724
O O1 0.712827 0.514189 0.953524
O O2 0.995720 0.385672 0.101947
O O3 0.792983 0.414955 0.730686
O O4 0.695004 0.253740 0.897747
O O5 0.548029 0.194050 0.344726
O O6 0.820378 0.295858 0.371508
O O7 0.822154 0.063727 0.491504
O O8 0.641483 0.112891 0.108533
O O9 0.680391 0.656857 0.624616
O O10 0.713025 0.910657 0.660612
O O11 0.744477 0.769257 0.942588
O O12 0.888272 0.663601 0.273653
O O13 0.559276 0.699409 0.057420
O O14 0.100943 0.440935 0.448922
O O15 0.101316 0.191823 0.453831
O O16 0.412645 0.108498 0.706578
#
# Coordination Sequence:
#
# PCOD9078812 Si02
#       8
#     2   2   2   2   2   2   2   2
#     4  10  18  36  59  81 112 151 181 223 282 329
#     4  11  20  37  60  84 111 148 186 230 277 324
#     4   9  20  39  56  78 116 145 182 236 273 321
#     4   9  20  36  58  81 117 144 182 230 277 327
#     4  10  20  38  57  88 111 145 185 229 275 333
#     4   9  19  36  57  80 114 145 180 229 276 327
#     4  10  20  36  58  87 110 145 189 229 272 331
#     4  10  21  38  59  81 114 147 186 230 277 327
#
# _framework density 24.451224
#
# number of rings (size 3 to 8) (size 9 to 14) (size 15 to 20)
#    0.000    2.250    1.250    1.500    0.000    0.500 
#    6.750   11.875    0.000    0.000    0.000    0.000 
#    0.000    0.000    0.000    0.000    0.000    0.000 
#
# Total GULP energy -89473.471130 kJ/mol
# GULP energy per Si atom -5592.091946 kJ/mol
# Density = 2.439557 g / cm^3
# Si number density = 24.451224 Si / 1000 Ang^3
#
#
#
# Elastic Constant Matrix: (Units=GPa)
#
#
# Indices 1 2 3 4 5 6 
#
# 1 117.1665 27.2968 19.2246 -12.7669 -27.9883 19.4734
# 2 27.2968 66.9690 17.8480 -18.5954 -9.1580 21.4485
# 3 19.2246 17.8480 86.0031 -23.6110 -20.7129 16.5921
# 4 -12.7669 -18.5954 -23.6110 32.0445 6.4081 -3.7058
# 5 -27.9883 -9.1580 -20.7129 6.4081 34.5557 -9.4897
# 6 19.4734 21.4485 16.5921 -3.7058 -9.4897 37.5360
#
#
#
# Elastic Compliance Matrix: (Units=1/GPa)
#
#
# Indices 1 2 3 4 5 6 
#
# 1 0.011570 -0.002419 0.000959 0.001956 0.008178 -0.002784
# 2 -0.002419 0.022285 0.001080 0.011611 -0.000567 -0.010954
# 3 0.000959 0.001080 0.017325 0.011570 0.007744 -0.005673
# 4 0.001956 0.011611 0.011570 0.046155 0.000841 -0.007994
# 5 0.008178 -0.000567 0.007744 0.000841 0.040733 0.003039
# 6 -0.002784 -0.010954 -0.005673 -0.007994 0.003039 0.036831
#
#
# Mechanical properties :
#
#
# Convention : Reuss Voigt Hill
#
# Bulk Modulus (GPa) = 19.83294 44.31971 32.07633
# Shear Modulus (GPa) = 25.97874 34.54519 30.26197
#
# Velocity S-wave (km/s) = 3.26309 3.76283 3.52184
# Velocity P-wave (km/s) = 4.72503 6.08635 5.44837
#
# Compressibility (1/GPa) = 0.05042116
#
# Stress axis : x y z
#
# Youngs Moduli (GPa) = 86.42812 44.87337 57.72097
#
# Poissons Ratio (x) = 0.10854 -0.05536
# Poissons Ratio (y) = 0.20905 -0.06235
# Poissons Ratio (z) = -0.08290 -0.04847
#
# Static dielectric constant tensor:
#      x y z
#    x 1.960760 -0.037950 -0.018940 
#    y -0.037950 1.978170 -0.027620 
#    z -0.018940 -0.027620 1.949120 
# 
# From -- ./inp_files/178208.got.cif
#   From: 2010.05.17/outbox.cif.g08.bks.cpg/sg2_90_cif.got.tgz:178208.got - 2010.06.03 11:33:40.
