data_PCOD9078718
_publ_section_title
;
Structure prediction by ZEFSAII (Michael W. Deem and Ramdas Pophale) SiO2 
 PCOD9078718
Probable space group: P -1
;
_chemical_formula_sum "Si O2"
_cell_formula_units_Z 14
_cell_length_a 9.539708
_cell_length_b 22.397733
_cell_length_c 12.307695
_cell_angle_alpha 29.886573
_cell_angle_beta 34.789846
_cell_angle_gamma 31.351360
_cell_volume 647.783285
_symmetry_space_group_name_H-M "P -1"
_symmetry_group_IT_number 2
_symmetry_cell_setting 'triclinic'
loop_
_space_group_symop_operation_xyz
x,y,z
-x,-y,-z
loop_
_atom_site_type_symbol
_atom_site_label
_atom_site_fract_x
_atom_site_fract_y
_atom_site_fract_z
Si Si1 0.893627 0.719814 0.554672
Si Si2 0.676240 0.213051 0.116140
Si Si3 0.366263 0.868538 0.503085
Si Si4 0.956181 0.061468 0.811587
Si Si5 0.623848 0.897946 0.978828
Si Si6 0.820445 0.432684 0.579432
Si Si7 0.655781 0.669576 0.447713
O O1 0.665769 0.704446 0.795895
O O2 0.681493 0.816092 0.438904
O O3 0.007502 0.805299 0.412137
O O4 0.131104 0.586342 0.550409
O O5 0.763300 0.176378 0.245114
O O6 0.780047 0.307006 0.844154
O O7 0.807920 0.062852 0.214805
O O8 0.403870 0.784986 0.499898
O O9 0.253171 0.028665 0.294261
O O10 0.648217 0.096828 0.912328
O O11 0.000000 0.000000 0.000000
O O12 0.777552 0.746315 0.172794
O O13 0.500000 0.000000 0.000000
O O14 0.592982 0.573670 0.560421
O O15 0.109441 0.415552 0.475564
#
# Coordination Sequence:
#
# PCOD9078718 Si02
#       7
#     2   2   2   2   2   2   2
#     4   9  19  32  52  85 102 135 188 223 256 327
#     4  10  19  32  57  84 108 135 185 238 257 323
#     4   8  17  32  51  82 110 129 180 229 263 309
#     4  12  18  33  59  82 107 149 178 221 286 318
#     4  10  19  35  56  81 116 138 181 228 272 324
#     4  10  18  36  57  76 109 150 186 212 277 317
#     4   9  19  35  54  79 112 150 180 222 265 332
#
# _framework density 21.612166999999999
#
# number of rings (size 3 to 8) (size 9 to 14) (size 15 to 20)
#    0.857    1.429    2.857    2.143    0.000    0.571 
#    0.000    7.143    0.000    0.857    0.000    0.000 
#    0.000    0.000    0.000    0.000    0.000    0.000 
#
# Total GULP energy -77941.171255 kJ/mol
# GULP energy per Si atom -5567.226518 kJ/mol
# Density = 2.156298 g / cm^3
# Si number density = 21.612167 Si / 1000 Ang^3
#
#
#
# Elastic Constant Matrix: (Units=GPa)
#
#
# Indices 1 2 3 4 5 6 
#
# 1 49.1079 21.2471 1.1306 -1.5089 -15.6355 7.3599
# 2 21.2471 94.1752 20.5863 -1.7161 -7.9754 42.5454
# 3 1.1306 20.5863 55.1601 10.1985 -3.3654 16.6679
# 4 -1.5089 -1.7161 10.1985 30.0560 7.2224 -1.8736
# 5 -15.6355 -7.9754 -3.3654 7.2224 28.3816 -5.8386
# 6 7.3599 42.5454 16.6679 -1.8736 -5.8386 34.6793
#
#
#
# Elastic Compliance Matrix: (Units=1/GPa)
#
#
# Indices 1 2 3 4 5 6 
#
# 1 0.027648 -0.007717 0.002366 -0.003195 0.015152 0.004841
# 2 -0.007717 0.026002 -0.000553 0.000183 -0.003341 -0.030549
# 3 0.002366 -0.000553 0.023644 -0.009615 0.004133 -0.011012
# 4 -0.003195 0.000183 -0.009615 0.039555 -0.011841 0.005218
# 5 0.015152 -0.003341 0.004133 -0.011841 0.047430 0.006243
# 6 0.004841 -0.030549 -0.011012 0.005218 0.006243 0.071912
#
#
# Mechanical properties :
#
#
# Convention : Reuss Voigt Hill
#
# Bulk Modulus (GPa) = 15.27040 31.59679 23.43360
# Shear Modulus (GPa) = 18.53035 28.98865 23.75950
#
# Velocity S-wave (km/s) = 2.93132 3.66637 3.31925
# Velocity P-wave (km/s) = 4.30556 5.70742 5.05532
#
# Compressibility (1/GPa) = 0.06548616
#
# Stress axis : x y z
#
# Youngs Moduli (GPa) = 36.16848 38.45897 42.29367
#
# Poissons Ratio (x) = 0.29679 -0.10005
# Poissons Ratio (y) = 0.27911 0.02337
# Poissons Ratio (z) = -0.08556 0.02125
#
# Static dielectric constant tensor:
#      x y z
#    x 1.818850 -0.029040 -0.020440 
#    y -0.029040 1.879460 0.016130 
#    z -0.020440 0.016130 1.806940 
# 
# From -- ./inp_files/524252.got.cif
#   From: 2010.05.17/outbox.cif.g08.bks.cpg/sg2_263_cif.got.tgz:524252.got - 2010.06.03 11:33:40.
