data_PCOD9078127
_publ_section_title
;
Structure prediction by ZEFSAII (Michael W. Deem and Ramdas Pophale) SiO2 
 PCOD9078127
Probable space group: P -1
;
_chemical_formula_sum "Si O2"
_cell_formula_units_Z 12
_cell_length_a 8.032825
_cell_length_b 7.944227
_cell_length_c 11.680948
_cell_angle_alpha 87.119108
_cell_angle_beta 65.149039
_cell_angle_gamma 50.693366
_cell_volume 497.997243
_symmetry_space_group_name_H-M "P -1"
_symmetry_group_IT_number 2
_symmetry_cell_setting 'triclinic'
loop_
_space_group_symop_operation_xyz
x,y,z
-x,-y,-z
loop_
_atom_site_type_symbol
_atom_site_label
_atom_site_fract_x
_atom_site_fract_y
_atom_site_fract_z
Si Si1 0.561046 0.499886 0.829620
Si Si2 0.669882 0.748874 0.907911
Si Si3 0.731465 0.682504 0.629076
Si Si4 0.378120 0.897471 0.418490
Si Si5 0.833844 0.432057 0.194517
Si Si6 0.016858 0.011136 0.308132
O O1 0.530205 0.658294 0.932128
O O2 0.606868 0.578547 0.693767
O O3 0.329113 0.526588 0.867482
O O4 0.816481 0.241793 0.783202
O O5 0.744729 0.736622 0.754609
O O6 0.934423 0.591560 0.897884
O O7 0.500000 0.000000 0.000000
O O8 0.000000 0.500000 0.500000
O O9 0.594947 0.917366 0.594833
O O10 0.639648 0.646441 0.326905
O O11 0.231516 0.910146 0.566591
O O12 0.192991 0.969623 0.362102
O O13 0.946770 0.196593 0.231021
#
# Coordination Sequence:
#
# PCOD9078127 Si02
#       6
#     2   2   2   2   2   2
#     4   9  22  38  63  92 123 158 212 252 308 364
#     4  10  23  44  64  87 127 166 206 259 312 364
#     4  10  19  40  62  90 130 159 195 262 303 354
#     4  10  19  33  61  92 127 166 203 250 310 371
#     4  11  22  37  64  91 122 168 210 249 314 372
#     4  10  18  35  58  93 131 156 202 262 305 365
#
# _framework density 24.096520000000002
#
# number of rings (size 3 to 8) (size 9 to 14) (size 15 to 20)
#    1.000    1.000    3.333    0.500    0.000    3.333 
#    0.000    4.167    0.000    0.000    0.000    0.000 
#    0.000    0.000    0.000    0.000    0.000    0.000 
#
# Total GULP energy -67059.082324 kJ/mol
# GULP energy per Si atom -5588.256860 kJ/mol
# Density = 2.404168 g / cm^3
# Si number density = 24.096520 Si / 1000 Ang^3
#
#
#
# Elastic Constant Matrix: (Units=GPa)
#
#
# Indices 1 2 3 4 5 6 
#
# 1 107.2096 15.6837 49.0781 27.1793 -19.0406 -1.2523
# 2 15.6837 117.5439 34.4650 19.8687 9.1408 9.1866
# 3 49.0781 34.4650 124.4099 21.5369 2.2399 -3.6737
# 4 27.1793 19.8687 21.5369 53.6276 2.1199 3.0989
# 5 -19.0406 9.1408 2.2399 2.1199 33.4878 1.6240
# 6 -1.2523 9.1866 -3.6737 3.0989 1.6240 38.0220
#
#
#
# Elastic Compliance Matrix: (Units=1/GPa)
#
#
# Indices 1 2 3 4 5 6 
#
# 1 0.014676 -0.000277 -0.004877 -0.005746 0.009102 0.000159
# 2 -0.000277 0.009992 -0.002265 -0.002419 -0.002467 -0.002340
# 3 -0.004877 -0.002265 0.010869 -0.001035 -0.002896 0.001645
# 4 -0.005746 -0.002419 -0.001035 0.023108 -0.003931 -0.001420
# 5 0.009102 -0.002467 -0.002896 -0.003931 0.036183 -0.000609
# 6 0.000159 -0.002340 0.001645 -0.001420 -0.000609 0.027172
#
#
# Mechanical properties :
#
#
# Convention : Reuss Voigt Hill
#
# Bulk Modulus (GPa) = 48.31141 60.84633 54.57887
# Shear Modulus (GPa) = 34.78570 41.68991 38.23780
#
# Velocity S-wave (km/s) = 3.80359 4.16399 3.98786
# Velocity P-wave (km/s) = 6.27554 6.95875 6.62596
#
# Compressibility (1/GPa) = 0.02069905
#
# Stress axis : x y z
#
# Youngs Moduli (GPa) = 68.13963 100.07920 92.00381
#
# Poissons Ratio (x) = 0.02774 0.44872
# Poissons Ratio (y) = 0.01889 0.20835
# Poissons Ratio (z) = 0.33233 0.22664
#
# Static dielectric constant tensor:
#      x y z
#    x 2.003130 0.066510 -0.016560 
#    y 0.066510 1.877950 -0.032690 
#    z -0.016560 -0.032690 1.874540 
# 
# From -- ./inp_files/56342.got.cif
#   From: 2010.05.17/outbox.cif.g08.bks.cpg/sg2_29_cif.got.tgz:56342.got - 2010.06.03 11:33:40.
