data_PCOD9078457
_publ_section_title
;
Structure prediction by ZEFSAII (Michael W. Deem and Ramdas Pophale) SiO2 
 PCOD9078457
Probable space group: P -1
;
_chemical_formula_sum "Si O2"
_cell_formula_units_Z 16
_cell_length_a 22.510625
_cell_length_b 15.173363
_cell_length_c 9.024852
_cell_angle_alpha 135.089373
_cell_angle_beta 134.703788
_cell_angle_gamma 19.624620
_cell_volume 722.269983
_symmetry_space_group_name_H-M "P -1"
_symmetry_group_IT_number 2
_symmetry_cell_setting 'triclinic'
loop_
_space_group_symop_operation_xyz
x,y,z
-x,-y,-z
loop_
_atom_site_type_symbol
_atom_site_label
_atom_site_fract_x
_atom_site_fract_y
_atom_site_fract_z
Si Si1 0.820303 0.100331 0.110057
Si Si2 0.201997 0.224342 0.966604
Si Si3 0.983837 0.910266 0.635411
Si Si4 0.857011 0.424954 0.784633
Si Si5 0.363296 0.064359 0.357848
Si Si6 0.969857 0.687987 0.491447
Si Si7 0.333316 0.903129 0.350563
Si Si8 0.334019 0.571996 0.472800
O O1 0.913644 0.093815 0.184570
O O2 0.968435 0.806965 0.081475
O O3 0.734410 0.272350 0.310930
O O4 0.687861 0.196884 0.894139
O O5 0.237408 0.317433 0.080763
O O6 0.331738 0.035403 0.110088
O O7 0.167750 0.171878 0.714063
O O8 0.000000 0.500000 0.000000
O O9 0.777942 0.212620 0.594321
O O10 0.994381 0.804856 0.666049
O O11 0.074222 0.713752 0.421624
O O12 0.734123 0.479812 0.700670
O O13 0.418591 0.894316 0.380827
O O14 0.165847 0.373806 0.428633
O O15 0.500000 0.000000 0.500000
O O16 0.862912 0.796154 0.580646
O O17 0.455906 0.712138 0.479588
#
# Coordination Sequence:
#
# PCOD9078457 Si02
#       8
#     2   2   2   2   2   2   2   2
#     4   9  19  34  60  89 114 161 196 244 289 351
#     4  10  18  35  63  85 109 160 201 231 287 359
#     4   9  18  36  61  82 117 154 203 230 291 353
#     4   9  15  34  60  84 107 147 210 242 272 347
#     4  11  24  41  64  88 118 158 201 245 293 355
#     4  11  24  40  60  89 123 158 193 248 299 353
#     4  12  24  38  58  92 129 147 192 257 308 332
#     4   9  20  35  59  87 115 155 198 247 284 353
#
# _framework density 22.152380999999998
#
# number of rings (size 3 to 8) (size 9 to 14) (size 15 to 20)
#    0.000    2.000    2.500    4.500    3.500    1.000 
#    0.000    5.000    0.000    0.000    0.000    0.000 
#    0.000    0.000    0.000    0.000    0.000    0.000 
#
# Total GULP energy -89270.282014 kJ/mol
# GULP energy per Si atom -5579.392626 kJ/mol
# Density = 2.210196 g / cm^3
# Si number density = 22.152381 Si / 1000 Ang^3
#
#
#
# Elastic Constant Matrix: (Units=GPa)
#
#
# Indices 1 2 3 4 5 6 
#
# 1 80.2524 7.2406 16.6478 4.8116 14.8401 3.5397
# 2 7.2406 67.3167 11.7508 -4.9590 3.8210 0.4091
# 3 16.6478 11.7508 44.4995 -5.3289 9.0467 -16.5939
# 4 4.8116 -4.9590 -5.3289 22.7963 -1.5782 3.9916
# 5 14.8401 3.8210 9.0467 -1.5782 16.6250 3.6407
# 6 3.5397 0.4091 -16.5939 3.9916 3.6407 23.7929
#
#
#
# Elastic Compliance Matrix: (Units=1/GPa)
#
#
# Indices 1 2 3 4 5 6 
#
# 1 0.016168 -0.000451 -0.005817 -0.004918 -0.010758 -0.003983
# 2 -0.000451 0.016115 -0.005829 0.003203 0.001271 -0.005007
# 3 -0.005817 -0.005829 0.045089 0.002434 -0.025640 0.035927
# 4 -0.004918 0.003203 0.002434 0.047971 0.008407 -0.006960
# 5 -0.010758 0.001271 -0.025640 0.008407 0.091145 -0.031661
# 6 -0.003983 -0.005007 0.035927 -0.006960 -0.031661 0.073777
#
#
# Mechanical properties :
#
#
# Convention : Reuss Voigt Hill
#
# Bulk Modulus (GPa) = 18.80437 29.26079 24.03258
# Shear Modulus (GPa) = 15.05189 23.07148 19.06168
#
# Velocity S-wave (km/s) = 2.60949 3.23071 2.93658
# Velocity P-wave (km/s) = 4.19361 5.21097 4.72972
#
# Compressibility (1/GPa) = 0.05317912
#
# Stress axis : x y z
#
# Youngs Moduli (GPa) = 61.85124 62.05259 22.17846
#
# Poissons Ratio (x) = 0.02799 0.12900
# Poissons Ratio (y) = 0.02790 0.12927
# Poissons Ratio (z) = 0.35977 0.36169
#
# Static dielectric constant tensor:
#      x y z
#    x 1.880760 -0.009910 0.031600 
#    y -0.009910 1.856280 -0.010930 
#    z 0.031600 -0.010930 1.838510 
# 
# From -- ./inp_files/262720.got.cif
#   From: 2010.05.17/outbox.cif.g08.bks.cpg/sg2_132_cif.got.tgz:262720.got - 2010.06.03 11:33:40.
