data_PCOD9078430
_publ_section_title
;
Structure prediction by ZEFSAII (Michael W. Deem and Ramdas Pophale) SiO2 
 PCOD9078430
Probable space group: P -1
;
_chemical_formula_sum "Si O2"
_cell_formula_units_Z 16
_cell_length_a 14.158075
_cell_length_b 5.259148
_cell_length_c 12.017290
_cell_angle_alpha 119.401071
_cell_angle_beta 72.444106
_cell_angle_gamma 99.757798
_cell_volume 742.998212
_symmetry_space_group_name_H-M "P -1"
_symmetry_group_IT_number 2
_symmetry_cell_setting 'triclinic'
loop_
_space_group_symop_operation_xyz
x,y,z
-x,-y,-z
loop_
_atom_site_type_symbol
_atom_site_label
_atom_site_fract_x
_atom_site_fract_y
_atom_site_fract_z
Si Si1 0.832973 0.481640 0.136679
Si Si2 0.882295 0.838958 0.972591
Si Si3 0.620151 0.272453 0.081784
Si Si4 0.209434 0.096883 0.331475
Si Si5 0.704885 0.481120 0.888931
Si Si6 0.903265 0.881706 0.399618
Si Si7 0.028614 0.361379 0.323661
Si Si8 0.597093 0.719927 0.801755
O O1 0.873167 0.661023 0.052884
O O2 0.718722 0.367930 0.134892
O O3 0.850470 0.676687 0.281224
O O4 0.890420 0.182112 0.059451
O O5 0.777047 0.758325 0.934088
O O6 0.955774 0.751847 0.830520
O O7 0.517792 0.299304 0.189374
O O8 0.630508 0.491945 0.020697
O O9 0.610381 0.972019 0.947705
O O10 0.171539 0.048975 0.459309
O O11 0.131706 0.304338 0.340357
O O12 0.321502 0.221836 0.308758
O O13 0.219051 0.788348 0.196284
O O14 0.639089 0.447347 0.795708
O O15 0.988162 0.685036 0.385856
O O16 0.949902 0.157795 0.375549
#
# Coordination Sequence:
#
# PCOD9078430 Si02
#       8
#     2   2   2   2   2   2   2   2
#     4  11  23  42  61  91 132 161 197 252 306 380
#     4  11  21  40  65  91 121 159 199 262 316 349
#     4   9  19  34  60  96 121 152 202 250 317 359
#     4  11  24  40  60  91 125 159 209 258 303 362
#     4  10  18  35  62  91 124 153 195 261 311 353
#     4  12  28  41  62  88 125 175 207 243 306 373
#     4  12  24  43  65  90 117 161 217 266 303 349
#     4  10  18  35  63  91 120 156 200 258 310 355
#
# _framework density 21.534371
#
# number of rings (size 3 to 8) (size 9 to 14) (size 15 to 20)
#    0.000    1.250    2.500    4.875    1.750    3.000 
#    0.000    0.625    0.000    0.750    0.000    0.000 
#    0.000    0.000    0.000    0.000    0.000    0.000 
#
# Total GULP energy -89266.311349 kJ/mol
# GULP energy per Si atom -5579.144459 kJ/mol
# Density = 2.148536 g / cm^3
# Si number density = 21.534371 Si / 1000 Ang^3
#
#
#
# Elastic Constant Matrix: (Units=GPa)
#
#
# Indices 1 2 3 4 5 6 
#
# 1 81.7999 32.8927 66.9849 -19.5468 -9.7837 10.5124
# 2 32.8927 83.1296 40.3953 -11.0230 -9.5191 -9.0539
# 3 66.9849 40.3953 127.5848 -27.1268 -17.1206 16.3650
# 4 -19.5468 -11.0230 -27.1268 27.0788 9.4795 -3.3848
# 5 -9.7837 -9.5191 -17.1206 9.4795 34.5583 -3.5406
# 6 10.5124 -9.0539 16.3650 -3.3848 -3.5406 18.7745
#
#
#
# Elastic Compliance Matrix: (Units=1/GPa)
#
#
# Indices 1 2 3 4 5 6 
#
# 1 0.023712 -0.005328 -0.008786 0.005720 -0.001438 -0.007427
# 2 -0.005328 0.018669 -0.004887 -0.000078 0.002954 0.016789
# 3 -0.008786 -0.004887 0.017050 0.006831 0.001637 -0.010759
# 4 0.005720 -0.000078 0.006831 0.050853 -0.009146 -0.001752
# 5 -0.001438 0.002954 0.001637 -0.009146 0.033218 0.005418
# 6 -0.007427 0.016789 -0.010759 -0.001752 0.005418 0.075603
#
#
# Mechanical properties :
#
#
# Convention : Reuss Voigt Hill
#
# Bulk Modulus (GPa) = 46.66696 63.67334 55.17015
# Shear Modulus (GPa) = 18.92137 26.23175 22.57656
#
# Velocity S-wave (km/s) = 2.96743 3.49396 3.24141
# Velocity P-wave (km/s) = 5.78436 6.77565 6.29954
#
# Compressibility (1/GPa) = 0.02142844
#
# Stress axis : x y z
#
# Youngs Moduli (GPa) = 42.17294 53.56488 58.64947
#
# Poissons Ratio (x) = 0.28538 0.51532
# Poissons Ratio (y) = 0.22469 0.28664
# Poissons Ratio (z) = 0.37055 0.26179
#
# Static dielectric constant tensor:
#      x y z
#    x 1.817400 -0.033570 -0.009000 
#    y -0.033570 1.923520 -0.002290 
#    z -0.009000 -0.002290 1.775820 
# 
# From -- ./inp_files/82763.got.cif
#   From: 2010.05.17/outbox.cif.g08.bks.cpg/sg2_42_cif.got.tgz:82763.got - 2010.06.03 11:33:40.
