data_PCOD9078809
_publ_section_title
;
Structure prediction by ZEFSAII (Michael W. Deem and Ramdas Pophale) SiO2 
 PCOD9078809
Probable space group: P -1
;
_chemical_formula_sum "Si O2"
_cell_formula_units_Z 16
_cell_length_a 8.535270
_cell_length_b 11.826311
_cell_length_c 14.918109
_cell_angle_alpha 114.382853
_cell_angle_beta 83.093511
_cell_angle_gamma 51.863725
_cell_volume 918.997000
_symmetry_space_group_name_H-M "P -1"
_symmetry_group_IT_number 2
_symmetry_cell_setting 'triclinic'
loop_
_space_group_symop_operation_xyz
x,y,z
-x,-y,-z
loop_
_atom_site_type_symbol
_atom_site_label
_atom_site_fract_x
_atom_site_fract_y
_atom_site_fract_z
Si Si1 0.705521 0.644030 0.412946
Si Si2 0.410200 0.918645 0.012629
Si Si3 0.015580 0.662611 0.307334
Si Si4 0.821358 0.046348 0.456717
Si Si5 0.567011 0.319499 0.414195
Si Si6 0.892860 0.583555 0.937849
Si Si7 0.073140 0.693678 0.833974
Si Si8 0.451704 0.672338 0.791334
O O1 0.446049 0.805643 0.439884
O O2 0.639398 0.648614 0.521087
O O3 0.836411 0.451869 0.296450
O O4 0.857490 0.676166 0.392257
O O5 0.609640 0.755965 0.013841
O O6 0.413259 0.819683 0.898287
O O7 0.144767 0.098021 0.117826
O O8 0.500000 0.000000 0.000000
O O9 0.034547 0.568444 0.185397
O O10 0.278049 0.522444 0.280646
O O11 0.904970 0.860768 0.364579
O O12 0.786885 0.151647 0.405415
O O13 0.000000 0.000000 0.500000
O O14 0.500000 0.500000 0.500000
O O15 0.601559 0.281384 0.294761
O O16 0.988325 0.654626 0.908228
O O17 0.000000 0.500000 0.000000
O O18 0.281678 0.663954 0.836358
#
# Coordination Sequence:
#
# PCOD9078809 Si02
#       8
#     2   2   2   2   2   2   2   2
#     4   9  20  35  59  80 115 151 185 229 282 324
#     4   9  20  36  57  81 110 149 183 230 281 329
#     4  10  20  37  57  81 114 152 185 229 285 334
#     4  10  20  35  56  79 114 152 185 227 276 331
#     4  10  20  35  57  85 117 141 192 231 274 333
#     4   9  20  38  60  82 110 143 187 234 279 336
#     4  10  18  36  59  79 115 146 182 232 286 329
#     4  11  20  36  58  84 113 149 186 233 284 325
#
# _framework density 17.410287
#
# number of rings (size 3 to 8) (size 9 to 14) (size 15 to 20)
#    0.750    1.500    1.250    3.000    0.000    2.500 
#    0.000    6.250    0.000    0.000    0.000    0.000 
#    0.000    0.000    0.000    0.000    0.000    0.000 
#
# Total GULP energy -89104.591492 kJ/mol
# GULP energy per Si atom -5569.036968 kJ/mol
# Density = 1.737066 g / cm^3
# Si number density = 17.410287 Si / 1000 Ang^3
#
#
#
# Elastic Constant Matrix: (Units=GPa)
#
#
# Indices 1 2 3 4 5 6 
#
# 1 109.0749 52.0620 34.9228 5.8409 -2.5966 -6.8664
# 2 52.0620 129.9746 64.5963 8.7214 8.4722 -10.9207
# 3 34.9228 64.5963 63.5055 14.3482 1.2434 -9.0465
# 4 5.8409 8.7214 14.3482 35.9849 -1.7282 3.1278
# 5 -2.5966 8.4722 1.2434 -1.7282 29.6156 8.8137
# 6 -6.8664 -10.9207 -9.0465 3.1278 8.8137 28.3196
#
#
#
# Elastic Compliance Matrix: (Units=1/GPa)
#
#
# Indices 1 2 3 4 5 6 
#
# 1 0.011810 -0.003259 -0.003317 0.000314 0.002174 -0.000164
# 2 -0.003259 0.017226 -0.015836 0.002242 -0.005048 0.002117
# 3 -0.003317 -0.015836 0.036991 -0.010885 0.000257 0.006028
# 4 0.000314 0.002242 -0.010885 0.032360 0.003912 -0.007328
# 5 0.002174 -0.005048 0.000257 0.003912 0.039834 -0.014167
# 6 -0.000164 0.002117 0.006028 -0.007328 -0.014167 0.043232
#
#
# Mechanical properties :
#
#
# Convention : Reuss Voigt Hill
#
# Bulk Modulus (GPa) = 47.15924 67.30195 57.23060
# Shear Modulus (GPa) = 21.42760 28.84894 25.13827
#
# Velocity S-wave (km/s) = 3.51200 4.07505 3.80396
# Velocity P-wave (km/s) = 6.60237 7.80267 7.22748
#
# Compressibility (1/GPa) = 0.02120475
#
# Stress axis : x y z
#
# Youngs Moduli (GPa) = 84.67438 58.05206 27.03347
#
# Poissons Ratio (x) = 0.18918 0.08966
# Poissons Ratio (y) = 0.27593 0.42810
# Poissons Ratio (z) = 0.28083 0.91930
#
# Static dielectric constant tensor:
#      x y z
#    x 1.605750 -0.002480 -0.023220 
#    y -0.002480 1.591950 0.015910 
#    z -0.023220 0.015910 1.582700 
# 
# From -- ./inp_files/387582.got.cif
#   From: 2010.05.17/outbox.cif.g08.bks.cpg/sg2_194_cif.got.tgz:387582.got - 2010.06.03 11:33:40.
