data_PCOD9078635
_publ_section_title
;
Structure prediction by ZEFSAII (Michael W. Deem and Ramdas Pophale) SiO2 
 PCOD9078635
Probable space group: P -1
;
_chemical_formula_sum "Si O2"
_cell_formula_units_Z 14
_cell_length_a 11.948871
_cell_length_b 16.023263
_cell_length_c 7.525610
_cell_angle_alpha 118.856841
_cell_angle_beta 134.471476
_cell_angle_gamma 31.333881
_cell_volume 508.005160
_symmetry_space_group_name_H-M "P -1"
_symmetry_group_IT_number 2
_symmetry_cell_setting 'triclinic'
loop_
_space_group_symop_operation_xyz
x,y,z
-x,-y,-z
loop_
_atom_site_type_symbol
_atom_site_label
_atom_site_fract_x
_atom_site_fract_y
_atom_site_fract_z
Si Si1 0.079044 0.570943 0.343799
Si Si2 0.625293 0.361107 0.628744
Si Si3 0.474569 0.198956 0.937653
Si Si4 0.955462 0.078418 0.221701
Si Si5 0.097608 0.707382 0.783203
Si Si6 0.473988 0.902802 0.504253
Si Si7 0.824564 0.854019 0.089572
O O1 0.388911 0.401318 0.440511
O O2 0.125465 0.590599 0.611681
O O3 0.827856 0.622374 0.135756
O O4 0.954164 0.725069 0.256981
O O5 0.500000 0.500000 0.500000
O O6 0.933697 0.189362 0.725047
O O7 0.717198 0.367871 0.917955
O O8 0.447505 0.192219 0.686283
O O9 0.737233 0.137099 0.166755
O O10 0.562290 0.056370 0.988386
O O11 0.812946 0.251021 0.202043
O O12 0.279803 0.942517 0.472769
O O13 0.000000 0.000000 0.000000
O O14 0.767975 0.901244 0.629408
O O15 0.731095 0.819251 0.808503
#
# Coordination Sequence:
#
# PCOD9078635 Si02
#       7
#     2   2   2   2   2   2   2
#     4  11  23  31  52  82 109 134 173 218 256 300
#     4  10  21  35  53  76 105 140 172 211 262 312
#     4  11  17  32  55  81 100 137 177 213 255 305
#     4   8  17  31  52  79 104 137 170 209 261 309
#     4  10  18  36  52  78 109 130 173 216 257 301
#     4   9  18  31  55  76 105 131 171 211 263 296
#     4  11  19  35  53  78 108 136 172 217 258 304
#
# _framework density 27.558775000000001
#
# number of rings (size 3 to 8) (size 9 to 14) (size 15 to 20)
#    0.857    1.143    2.857    2.143    0.000    0.000 
#    0.000    3.571    0.000    1.714    0.000   29.000 
#    0.000    0.000    0.000    0.000    0.000    0.000 
#
# Total GULP energy -78011.018957 kJ/mol
# GULP energy per Si atom -5572.215640 kJ/mol
# Density = 2.749605 g / cm^3
# Si number density = 27.558775 Si / 1000 Ang^3
#
#
#
# Elastic Constant Matrix: (Units=GPa)
#
#
# Indices 1 2 3 4 5 6 
#
# 1 87.2149 18.3529 59.7615 -25.4563 27.4173 -17.5147
# 2 18.3529 39.3285 40.6913 -28.4534 12.8007 -8.3722
# 3 59.7615 40.6913 189.6922 -8.0583 15.7118 -18.0378
# 4 -25.4563 -28.4534 -8.0583 54.4651 -23.3616 15.7170
# 5 27.4173 12.8007 15.7118 -23.3616 64.9059 -24.8745
# 6 -17.5147 -8.3722 -18.0378 15.7170 -24.8745 36.1496
#
#
#
# Elastic Compliance Matrix: (Units=1/GPa)
#
#
# Indices 1 2 3 4 5 6 
#
# 1 0.018536 0.005657 -0.006293 0.008795 -0.004050 0.000541
# 2 0.005657 0.060105 -0.013685 0.033094 -0.001039 -0.005271
# 3 -0.006293 -0.013685 0.010049 -0.009195 0.000931 0.003434
# 4 0.008795 0.033094 -0.009195 0.042569 0.004108 -0.008344
# 5 -0.004050 -0.001039 0.000931 0.004108 0.023394 0.012573
# 6 0.000541 -0.005271 0.003434 -0.008344 0.012573 0.040697
#
#
# Mechanical properties :
#
#
# Convention : Reuss Voigt Hill
#
# Bulk Modulus (GPa) = 16.65324 61.53855 39.09589
# Shear Modulus (GPa) = 20.49114 44.26611 32.37863
#
# Velocity S-wave (km/s) = 2.72976 4.01214 3.43139
# Velocity P-wave (km/s) = 3.99892 6.62129 5.46959
#
# Compressibility (1/GPa) = 0.06004838
#
# Stress axis : x y z
#
# Youngs Moduli (GPa) = 53.94883 16.63753 99.51731
#
# Poissons Ratio (x) = -0.09411 0.62623
# Poissons Ratio (y) = -0.30517 1.36186
# Poissons Ratio (z) = 0.33948 0.22768
#
# Static dielectric constant tensor:
#      x y z
#    x 2.336100 -0.110010 0.061670 
#    y -0.110010 2.278670 0.112650 
#    z 0.061670 0.112650 2.174570 
# 
# From -- ./inp_files/282040.got.cif
#   From: 2010.05.17/outbox.cif.g08.bks.cpg/sg2_142_cif.got.tgz:282040.got - 2010.06.03 11:33:40.
