data_PCOD9078447
_publ_section_title
;
Structure prediction by ZEFSAII (Michael W. Deem and Ramdas Pophale) SiO2 
 PCOD9078447
Probable space group: P -1
;
_chemical_formula_sum "Si O2"
_cell_formula_units_Z 16
_cell_length_a 16.822428
_cell_length_b 11.353530
_cell_length_c 16.982775
_cell_angle_alpha 158.766947
_cell_angle_beta 142.113636
_cell_angle_gamma 38.140150
_cell_volume 702.279876
_symmetry_space_group_name_H-M "P -1"
_symmetry_group_IT_number 2
_symmetry_cell_setting 'triclinic'
loop_
_space_group_symop_operation_xyz
x,y,z
-x,-y,-z
loop_
_atom_site_type_symbol
_atom_site_label
_atom_site_fract_x
_atom_site_fract_y
_atom_site_fract_z
Si Si1 0.597277 0.698720 0.152662
Si Si2 0.734075 0.393187 0.916331
Si Si3 0.982056 0.764244 0.912576
Si Si4 0.611961 0.727799 0.699308
Si Si5 0.772162 0.278873 0.144201
Si Si6 0.645430 0.770033 0.486779
Si Si7 0.642139 0.796579 0.951872
Si Si8 0.245129 0.639415 0.542921
O O1 0.625447 0.575363 0.008328
O O2 0.733218 0.558550 0.219693
O O3 0.532146 0.090009 0.334469
O O4 0.500000 0.500000 0.000000
O O5 0.877753 0.455494 0.085603
O O6 0.685120 0.476495 0.841899
O O7 0.745981 0.008365 0.704656
O O8 0.886982 0.507867 0.658212
O O9 0.919356 0.048590 0.106508
O O10 0.000000 0.000000 0.000000
O O11 0.626854 0.736809 0.810357
O O12 0.683313 0.380755 0.498644
O O13 0.694619 0.985333 0.891283
O O14 0.705943 0.468039 0.287667
O O15 0.652201 0.625255 0.488361
O O16 0.500000 0.000000 0.500000
O O17 0.500000 0.000000 0.000000
O O18 0.750777 0.014781 0.195413
#
# Coordination Sequence:
#
# PCOD9078447 Si02
#       8
#     2   2   2   2   2   2   2   2
#     4  10  18  35  62  95 129 168 212 278 337 387
#     4  12  24  41  64  98 137 174 223 283 327 403
#     4  11  22  44  66  95 133 180 231 277 324 399
#     4  10  20  41  65  96 132 174 216 271 348 401
#     4  10  20  36  67  97 133 173 223 278 335 391
#     4  12  21  38  68 105 130 167 227 282 345 389
#     4  12  25  44  66 100 140 172 222 281 341 412
#     4  11  24  44  71  92 134 185 216 274 347 395
#
# _framework density 22.78294
#
# number of rings (size 3 to 8) (size 9 to 14) (size 15 to 20)
#    0.000    1.000    5.000    4.500    0.000    1.500 
#    2.250    2.500    0.000    0.000    0.000    0.000 
#    0.000    0.000    0.000    0.000    0.000    0.000 
#
# Total GULP energy -89212.995021 kJ/mol
# GULP energy per Si atom -5575.812189 kJ/mol
# Density = 2.273109 g / cm^3
# Si number density = 22.782940 Si / 1000 Ang^3
#
#
#
# Elastic Constant Matrix: (Units=GPa)
#
#
# Indices 1 2 3 4 5 6 
#
# 1 96.9979 35.4725 22.6744 -2.9048 -17.7350 10.9021
# 2 35.4725 72.8313 -9.2044 -9.3647 1.5732 11.4526
# 3 22.6744 -9.2044 76.4406 -6.5550 -0.3208 -7.0242
# 4 -2.9048 -9.3647 -6.5550 17.5055 -2.1207 0.4520
# 5 -17.7350 1.5732 -0.3208 -2.1207 39.1719 -6.7793
# 6 10.9021 11.4526 -7.0242 0.4520 -6.7793 41.6782
#
#
#
# Elastic Compliance Matrix: (Units=1/GPa)
#
#
# Indices 1 2 3 4 5 6 
#
# 1 0.016658 -0.009312 -0.006502 -0.003716 0.007375 -0.001654
# 2 -0.009312 0.021120 0.005965 0.011470 -0.004964 -0.003294
# 3 -0.006502 0.005965 0.016629 0.008011 -0.002195 0.002420
# 4 -0.003716 0.011470 0.008011 0.065831 0.001255 -0.001340
# 5 0.007375 -0.004964 -0.002195 0.001255 0.029791 0.003897
# 6 -0.001654 -0.003294 0.002420 -0.001340 0.003897 0.026388
#
#
# Mechanical properties :
#
#
# Convention : Reuss Voigt Hill
#
# Bulk Modulus (GPa) = 28.81072 38.23944 33.52508
# Shear Modulus (GPa) = 24.07497 32.82625 28.45061
#
# Velocity S-wave (km/s) = 3.25423 3.79994 3.53763
# Velocity P-wave (km/s) = 5.17622 6.00611 5.60654
#
# Compressibility (1/GPa) = 0.03470930
#
# Stress axis : x y z
#
# Youngs Moduli (GPa) = 60.03108 47.34893 60.13502
#
# Poissons Ratio (x) = 0.44091 0.39101
# Poissons Ratio (y) = 0.55901 -0.35873
# Poissons Ratio (z) = 0.39034 -0.28245
#
# Static dielectric constant tensor:
#      x y z
#    x 1.938070 -0.056620 -0.034610 
#    y -0.056620 1.869190 -0.014470 
#    z -0.034610 -0.014470 1.977790 
# 
# From -- ./inp_files/575885.got.cif
#   From: 2010.05.17/outbox.cif.g08.bks.cpg/sg2_288_cif.got.tgz:575885.got - 2010.06.03 11:33:40.
