data_PCOD9078200
_publ_section_title
;
Structure prediction by ZEFSAII (Michael W. Deem and Ramdas Pophale) SiO2 
 PCOD9078200
Probable space group: P -1
;
_chemical_formula_sum "Si O2"
_cell_formula_units_Z 16
_cell_length_a 10.941818
_cell_length_b 11.588571
_cell_length_c 10.130658
_cell_angle_alpha 31.305433
_cell_angle_beta 94.887046
_cell_angle_gamma 85.401663
_cell_volume 635.346414
_symmetry_space_group_name_H-M "P -1"
_symmetry_group_IT_number 2
_symmetry_cell_setting 'triclinic'
loop_
_space_group_symop_operation_xyz
x,y,z
-x,-y,-z
loop_
_atom_site_type_symbol
_atom_site_label
_atom_site_fract_x
_atom_site_fract_y
_atom_site_fract_z
Si Si1 0.924374 0.223917 0.689856
Si Si2 0.064051 0.109929 0.564837
Si Si3 0.266539 0.042251 0.122255
Si Si4 0.644422 0.399064 0.159829
Si Si5 0.737214 0.634836 0.410911
Si Si6 0.278941 0.627008 0.086691
Si Si7 0.830790 0.914204 0.668960
Si Si8 0.448849 0.296501 0.899866
O O1 0.863505 0.442693 0.560015
O O2 0.013668 0.259769 0.543573
O O3 0.797786 0.161919 0.684783
O O4 0.000000 0.000000 0.000000
O O5 0.936132 0.050807 0.564251
O O6 0.126090 0.202727 0.354609
O O7 0.162460 0.862768 0.858437
O O8 0.182765 0.201400 0.078497
O O9 0.249923 0.131727 0.882035
O O10 0.412022 0.052963 0.150281
O O11 0.695371 0.119337 0.447543
O O12 0.637023 0.533681 0.163696
O O13 0.500000 0.500000 0.000000
O O14 0.720911 0.447986 0.992605
O O15 0.722939 0.581593 0.612700
O O16 0.611229 0.617744 0.333178
O O17 0.407210 0.700327 0.065037
#
# Coordination Sequence:
#
# PCOD9078200 Si02
#       8
#     2   2   2   2   2   2   2   2
#     4  11  20  38  60  82 119 154 197 238 300 351
#     4   9  18  32  59  84 109 160 188 238 297 348
#     4   9  22  36  59  91 112 156 199 244 292 355
#     4   9  18  34  63  85 111 159 198 238 294 345
#     4  10  21  37  63  85 118 161 194 243 300 348
#     4  10  18  35  59  89 119 155 199 244 295 349
#     4   9  17  36  58  82 120 148 194 240 295 349
#     4   9  19  36  58  86 118 155 198 238 297 350
#
# _framework density 25.183112999999999
#
# number of rings (size 3 to 8) (size 9 to 14) (size 15 to 20)
#    0.750    1.750    1.250    1.875    0.000    0.500 
#    0.000    8.125    8.250    0.000    0.000    0.000 
#    0.000    0.000    0.000    0.000    0.000    0.000 
#
# Total GULP energy -89105.847342 kJ/mol
# GULP energy per Si atom -5569.115459 kJ/mol
# Density = 2.512580 g / cm^3
# Si number density = 25.183113 Si / 1000 Ang^3
#
#
#
# Elastic Constant Matrix: (Units=GPa)
#
#
# Indices 1 2 3 4 5 6 
#
# 1 98.3884 2.3022 35.4663 -11.0038 -1.7390 -0.0378
# 2 2.3022 66.0922 28.5202 27.4598 -6.1565 -12.3935
# 3 35.4663 28.5202 63.2013 27.1088 8.8825 -3.4191
# 4 -11.0038 27.4598 27.1088 40.9399 -11.2950 1.8435
# 5 -1.7390 -6.1565 8.8825 -11.2950 38.0404 4.7071
# 6 -0.0378 -12.3935 -3.4191 1.8435 4.7071 26.1643
#
#
#
# Elastic Compliance Matrix: (Units=1/GPa)
#
#
# Indices 1 2 3 4 5 6 
#
# 1 0.027182 -0.002182 -0.034243 0.037957 0.021645 -0.012037
# 2 -0.002182 0.025751 -0.001416 -0.018298 -0.002741 0.013792
# 3 -0.034243 -0.001416 0.071905 -0.068242 -0.041438 0.020939
# 4 0.037957 -0.018298 -0.068242 0.107681 0.050923 -0.034278
# 5 0.021645 -0.002741 -0.041438 0.050923 0.054105 -0.020004
# 6 -0.012037 0.013792 0.020939 -0.034278 -0.020004 0.053486
#
#
# Mechanical properties :
#
#
# Convention : Reuss Voigt Hill
#
# Bulk Modulus (GPa) = 20.34369 40.02880 30.18624
# Shear Modulus (GPa) = 11.56939 31.78849 21.67894
#
# Velocity S-wave (km/s) = 2.14571 3.55673 2.93721
# Velocity P-wave (km/s) = 3.77288 5.72684 4.84930
#
# Compressibility (1/GPa) = 0.04915530
#
# Stress axis : x y z
#
# Youngs Moduli (GPa) = 36.78960 38.83393 13.90728
#
# Poissons Ratio (x) = 0.08472 0.47623
# Poissons Ratio (y) = 0.08026 0.01970
# Poissons Ratio (z) = 1.25979 0.05500
#
# Static dielectric constant tensor:
#      x y z
#    x 2.006900 0.043450 -0.003660 
#    y 0.043450 2.110600 0.008410 
#    z -0.003660 0.008410 2.068560 
# 
# From -- ./inp_files/432295.got.cif
#   From: 2010.05.17/outbox.cif.g08.bks.cpg/sg2_217_cif.got.tgz:432295.got - 2010.06.03 11:33:40.
