data_PCOD9078421
_publ_section_title
;
Structure prediction by ZEFSAII (Michael W. Deem and Ramdas Pophale) SiO2 
 PCOD9078421
Probable space group: P -1
;
_chemical_formula_sum "Si O2"
_cell_formula_units_Z 16
_cell_length_a 14.685308
_cell_length_b 9.424791
_cell_length_c 10.950697
_cell_angle_alpha 46.061356
_cell_angle_beta 45.516798
_cell_angle_gamma 73.095294
_cell_volume 720.121548
_symmetry_space_group_name_H-M "P -1"
_symmetry_group_IT_number 2
_symmetry_cell_setting 'triclinic'
loop_
_space_group_symop_operation_xyz
x,y,z
-x,-y,-z
loop_
_atom_site_type_symbol
_atom_site_label
_atom_site_fract_x
_atom_site_fract_y
_atom_site_fract_z
Si Si1 0.697932 0.646102 0.100917
Si Si2 0.380345 0.507245 0.469434
Si Si3 0.222612 0.050024 0.801006
Si Si4 0.463984 0.110012 0.270397
Si Si5 0.651996 0.272512 0.211679
Si Si6 0.270211 0.668880 0.250710
Si Si7 0.914964 0.069870 0.746319
Si Si8 0.212907 0.226955 0.439171
O O1 0.543689 0.641642 0.228571
O O2 0.677145 0.517063 0.325445
O O3 0.726433 0.508750 0.048661
O O4 0.817379 0.873431 0.874341
O O5 0.346748 0.263032 0.604667
O O6 0.298673 0.597036 0.399837
O O7 0.184706 0.106508 0.669506
O O8 0.261936 0.845247 0.868410
O O9 0.114816 0.000573 0.041270
O O10 0.531786 0.254267 0.239851
O O11 0.343916 0.182520 0.291929
O O12 0.404608 0.878015 0.526377
O O13 0.587051 0.146852 0.038460
O O14 0.245638 0.470363 0.301284
O O15 0.143809 0.744631 0.324565
O O16 0.077238 0.139236 0.536855
#
# Coordination Sequence:
#
# PCOD9078421 Si02
#       8
#     2   2   2   2   2   2   2   2
#     4  10  21  36  58  87 122 155 188 238 293 349
#     4   9  20  36  58  87 118 148 198 246 285 335
#     4   9  18  37  61  87 109 153 204 240 280 338
#     4  10  20  35  64  91 113 144 203 248 287 331
#     4  10  18  35  62  91 114 146 196 252 282 335
#     4  11  21  37  62  89 113 150 201 246 288 334
#     4  11  22  37  57  87 122 156 189 233 296 355
#     4  10  21  36  57  87 121 149 191 247 289 340
#
# _framework density 22.218472999999999
#
# number of rings (size 3 to 8) (size 9 to 14) (size 15 to 20)
#    0.000    2.000    1.250    4.125    3.500    0.500 
#    0.000    2.500    0.000    3.000    0.000    0.000 
#    0.000    0.000    0.000    0.000    0.000    0.000 
#
# Total GULP energy -89417.942177 kJ/mol
# GULP energy per Si atom -5588.621386 kJ/mol
# Density = 2.216790 g / cm^3
# Si number density = 22.218473 Si / 1000 Ang^3
#
#
#
# Elastic Constant Matrix: (Units=GPa)
#
#
# Indices 1 2 3 4 5 6 
#
# 1 84.6143 35.5380 36.6824 -7.2244 -30.1453 -15.7576
# 2 35.5380 74.0799 19.8702 1.7822 -16.1448 -5.5267
# 3 36.6824 19.8702 45.1601 -4.3345 -13.9916 -15.2368
# 4 -7.2244 1.7822 -4.3345 15.2428 -0.6507 2.1933
# 5 -30.1453 -16.1448 -13.9916 -0.6507 39.4707 4.8731
# 6 -15.7576 -5.5267 -15.2368 2.1933 4.8731 27.2922
#
#
#
# Elastic Compliance Matrix: (Units=1/GPa)
#
#
# Indices 1 2 3 4 5 6 
#
# 1 0.025600 -0.006306 -0.011971 0.009443 0.012410 0.003846
# 2 -0.006306 0.017739 -0.003395 -0.005722 0.001355 -0.001726
# 3 -0.011971 -0.003395 0.038771 0.003883 0.001616 0.013445
# 4 0.009443 -0.005722 0.003883 0.072274 0.007524 -0.000691
# 5 0.012410 0.001355 0.001616 0.007524 0.035901 0.001327
# 6 0.003846 -0.001726 0.013445 -0.000691 0.001327 0.045836
#
#
# Mechanical properties :
#
#
# Convention : Reuss Voigt Hill
#
# Bulk Modulus (GPa) = 25.79538 43.11505 34.45521
# Shear Modulus (GPa) = 17.10073 23.85206 20.47639
#
# Velocity S-wave (km/s) = 2.77729 3.28002 3.03907
# Velocity P-wave (km/s) = 4.68183 5.81308 5.27785
#
# Compressibility (1/GPa) = 0.03876663
#
# Stress axis : x y z
#
# Youngs Moduli (GPa) = 39.06217 56.37382 25.79276
#
# Poissons Ratio (x) = 0.35548 0.30877
# Poissons Ratio (y) = 0.24632 0.08755
# Poissons Ratio (z) = 0.46762 0.19136
#
# Static dielectric constant tensor:
#      x y z
#    x 1.820040 -0.007350 0.019320 
#    y -0.007350 1.810510 0.007590 
#    z 0.019320 0.007590 1.870090 
# 
# From -- ./inp_files/446761.got.cif
#   From: 2010.05.17/outbox.cif.g08.bks.cpg/sg2_224_cif.got.tgz:446761.got - 2010.06.03 11:33:40.
