data_PCOD9078537
_publ_section_title
;
Structure prediction by ZEFSAII (Michael W. Deem and Ramdas Pophale) SiO2 
 PCOD9078537
Probable space group: P -1
;
_chemical_formula_sum "Si O2"
_cell_formula_units_Z 16
_cell_length_a 12.429532
_cell_length_b 11.378108
_cell_length_c 9.333036
_cell_angle_alpha 96.826659
_cell_angle_beta 147.064181
_cell_angle_gamma 95.515680
_cell_volume 663.991108
_symmetry_space_group_name_H-M "P -1"
_symmetry_group_IT_number 2
_symmetry_cell_setting 'triclinic'
loop_
_space_group_symop_operation_xyz
x,y,z
-x,-y,-z
loop_
_atom_site_type_symbol
_atom_site_label
_atom_site_fract_x
_atom_site_fract_y
_atom_site_fract_z
Si Si1 0.692607 0.901086 0.325883
Si Si2 0.517140 0.475550 0.695167
Si Si3 0.917864 0.949520 0.059353
Si Si4 0.693634 0.144522 0.913176
Si Si5 0.835282 0.678964 0.546574
Si Si6 0.503052 0.727485 0.841030
Si Si7 0.750236 0.456802 0.227556
Si Si8 0.494647 0.742171 0.534990
O O1 0.468696 0.891834 0.140774
O O2 0.760365 0.796951 0.471684
O O3 0.662384 0.849989 0.120981
O O4 0.888164 0.027197 0.608872
O O5 0.265178 0.404889 0.438634
O O6 0.584101 0.621891 0.841776
O O7 0.567499 0.406206 0.601999
O O8 0.633092 0.422931 0.941719
O O9 0.750060 0.807731 0.839138
O O10 0.775440 0.030138 0.960659
O O11 0.000000 0.000000 0.000000
O O12 0.577550 0.179782 0.653853
O O13 0.914236 0.264901 0.190034
O O14 0.724325 0.582959 0.281216
O O15 0.339168 0.652050 0.769254
O O16 0.404692 0.761050 0.591969
O O17 0.000000 0.500000 0.500000
#
# Coordination Sequence:
#
# PCOD9078537 Si02
#       8
#     2   2   2   2   2   2   2   2
#     4  11  20  41  67  94 122 169 220 261 310 384
#     4  11  20  41  64  91 130 175 214 250 315 395
#     4  11  24  42  72  95 121 169 226 261 315 382
#     4  11  22  40  71  93 123 171 223 261 314 383
#     4  10  18  35  64  93 120 158 222 260 298 366
#     4  11  23  39  62  97 136 163 208 266 327 375
#     4  11  20  36  65  91 124 173 215 255 307 386
#     4  12  23  40  61  98 132 167 206 273 325 371
#
# _framework density 24.096706999999999
#
# number of rings (size 3 to 8) (size 9 to 14) (size 15 to 20)
#    0.000    1.000    5.000    3.750    0.000    0.500 
#    0.000    8.750    0.000    0.000    0.000    0.000 
#    0.000    0.000    0.000    0.000    0.000    0.000 
#
# Total GULP energy -89317.647184 kJ/mol
# GULP energy per Si atom -5582.352949 kJ/mol
# Density = 2.404186 g / cm^3
# Si number density = 24.096707 Si / 1000 Ang^3
#
#
#
# Elastic Constant Matrix: (Units=GPa)
#
#
# Indices 1 2 3 4 5 6 
#
# 1 104.4476 23.5870 57.3413 4.4108 -11.0202 -19.6792
# 2 23.5870 47.8518 9.4393 15.4650 1.7090 -9.3472
# 3 57.3413 9.4393 143.5042 30.2527 -11.5511 -8.3176
# 4 4.4108 15.4650 30.2527 21.0694 -3.6988 4.1091
# 5 -11.0202 1.7090 -11.5511 -3.6988 53.5863 3.8643
# 6 -19.6792 -9.3472 -8.3176 4.1091 3.8643 34.5658
#
#
#
# Elastic Compliance Matrix: (Units=1/GPa)
#
#
# Indices 1 2 3 4 5 6 
#
# 1 0.018215 -0.013971 -0.010717 0.022222 0.003343 0.000998
# 2 -0.013971 0.046423 0.014876 -0.056638 -0.006182 0.015603
# 3 -0.010717 0.014876 0.018216 -0.036474 -0.001762 0.006837
# 4 0.022222 -0.056638 -0.036474 0.144432 0.010632 -0.029800
# 5 0.003343 -0.006182 -0.001762 0.010632 0.020168 -0.003711
# 6 0.000998 0.015603 0.006837 -0.029800 -0.003711 0.039321
#
#
# Mechanical properties :
#
#
# Convention : Reuss Voigt Hill
#
# Bulk Modulus (GPa) = 15.81534 52.94874 34.38204
# Shear Modulus (GPa) = 15.26828 35.54003 25.40416
#
# Velocity S-wave (km/s) = 2.51992 3.84460 3.25046
# Velocity P-wave (km/s) = 3.87869 6.45980 5.32791
#
# Compressibility (1/GPa) = 0.06322977
#
# Stress axis : x y z
#
# Youngs Moduli (GPa) = 54.89917 21.54098 54.89685
#
# Poissons Ratio (x) = 0.30094 0.58834
# Poissons Ratio (y) = 0.76699 -0.81663
# Poissons Ratio (z) = 0.58837 -0.32044
#
# Static dielectric constant tensor:
#      x y z
#    x 2.016520 0.053490 -0.035360 
#    y 0.053490 2.047620 0.026770 
#    z -0.035360 0.026770 1.970800 
# 
# From -- ./inp_files/273952.got.cif
#   From: 2010.05.17/outbox.cif.g08.bks.cpg/sg2_137_cif.got.tgz:273952.got - 2010.06.03 11:33:40.
