data_PCOD9078272
_publ_section_title
;
Structure prediction by ZEFSAII (Michael W. Deem and Ramdas Pophale) SiO2 
 PCOD9078272
Probable space group: P -1
;
_chemical_formula_sum "Si O2"
_cell_formula_units_Z 16
_cell_length_a 7.585618
_cell_length_b 13.481430
_cell_length_c 21.459795
_cell_angle_alpha 18.947690
_cell_angle_beta 99.102269
_cell_angle_gamma 105.218256
_cell_volume 658.575498
_symmetry_space_group_name_H-M "P -1"
_symmetry_group_IT_number 2
_symmetry_cell_setting 'triclinic'
loop_
_space_group_symop_operation_xyz
x,y,z
-x,-y,-z
loop_
_atom_site_type_symbol
_atom_site_label
_atom_site_fract_x
_atom_site_fract_y
_atom_site_fract_z
Si Si1 0.246242 0.933839 0.210625
Si Si2 0.831070 0.955797 0.634610
Si Si3 0.087921 0.034170 0.915937
Si Si4 0.924343 0.815298 0.846472
Si Si5 0.495496 0.369501 0.774364
Si Si6 0.041567 0.590361 0.790656
Si Si7 0.199972 0.342938 0.482199
Si Si8 0.555003 0.383114 0.238865
O O1 0.290326 0.632641 0.364138
O O2 0.064721 0.916708 0.168270
O O3 0.167946 0.938737 0.272326
O O4 0.403997 0.282290 0.997084
O O5 0.809184 0.712119 0.837477
O O6 0.010929 0.712261 0.527391
O O7 0.621000 0.901327 0.632301
O O8 0.942874 0.844071 0.652954
O O9 0.293621 0.305831 0.767442
O O10 0.000000 0.000000 0.000000
O O11 0.095724 0.690376 0.094913
O O12 0.925780 0.565002 0.048766
O O13 0.136949 0.013918 0.715108
O O14 0.660626 0.594342 0.605507
O O15 0.488917 0.517288 0.754051
O O16 0.500000 0.000000 0.000000
O O17 0.249428 0.692052 0.710513
#
# Coordination Sequence:
#
# PCOD9078272 Si02
#       8
#     2   2   2   2   2   2   2   2
#     4  10  19  38  62  86 115 151 206 244 284 357
#     4  10  22  39  60  89 123 158 191 242 303 345
#     4  10  18  35  60  89 108 152 198 245 290 338
#     4   8  20  38  61  82 123 153 197 242 296 341
#     4  12  20  37  61  87 118 148 201 246 292 355
#     4  10  20  38  64  87 120 157 201 239 288 363
#     4  10  22  37  58  90 120 152 191 248 301 341
#     4  10  21  37  63  90 111 160 203 233 295 358
#
# _framework density 24.294861000000001
#
# number of rings (size 3 to 8) (size 9 to 14) (size 15 to 20)
#    0.750    1.500    3.750    1.500    0.000    2.500 
#    2.250    3.125    5.500    0.000    0.000    0.000 
#    0.000    0.000    0.000    0.000    0.000    0.000 
#
# Total GULP energy -89315.893789 kJ/mol
# GULP energy per Si atom -5582.243362 kJ/mol
# Density = 2.423956 g / cm^3
# Si number density = 24.294861 Si / 1000 Ang^3
#
#
#
# Elastic Constant Matrix: (Units=GPa)
#
#
# Indices 1 2 3 4 5 6 
#
# 1 101.3285 42.0560 29.8951 4.4458 -36.2040 -4.2595
# 2 42.0560 129.3928 21.3858 1.2129 -21.6580 -23.6288
# 3 29.8951 21.3858 84.5421 13.8073 -30.2900 -3.8014
# 4 4.4458 1.2129 13.8073 39.0219 -9.0212 -11.1472
# 5 -36.2040 -21.6580 -30.2900 -9.0212 41.4155 -5.6375
# 6 -4.2595 -23.6288 -3.8014 -11.1472 -5.6375 47.9915
#
#
#
# Elastic Compliance Matrix: (Units=1/GPa)
#
#
# Indices 1 2 3 4 5 6 
#
# 1 0.015581 -0.002502 -0.000603 0.002011 0.012588 0.002049
# 2 -0.002502 0.010427 -0.000348 0.002848 0.004457 0.006069
# 3 -0.000603 -0.000348 0.016632 -0.002737 0.011099 0.001761
# 4 0.002011 0.002848 -0.002737 0.031219 0.009369 0.009716
# 5 0.012588 0.004457 0.011099 0.009369 0.049293 0.012158
# 6 0.002049 0.006069 0.001761 0.009716 0.012158 0.027831
#
#
# Mechanical properties :
#
#
# Convention : Reuss Voigt Hill
#
# Bulk Modulus (GPa) = 27.98502 55.77082 41.87792
# Shear Modulus (GPa) = 29.44622 40.48087 34.96355
#
# Velocity S-wave (km/s) = 3.48521 4.08638 3.79771
# Velocity P-wave (km/s) = 5.26683 6.72832 6.04193
#
# Compressibility (1/GPa) = 0.03573340
#
# Stress axis : x y z
#
# Youngs Moduli (GPa) = 64.18207 95.90550 60.12379
#
# Poissons Ratio (x) = 0.23998 0.03625
# Poissons Ratio (y) = 0.16060 0.02093
# Poissons Ratio (z) = 0.03870 0.03338
#
# Static dielectric constant tensor:
#      x y z
#    x 1.924430 0.059460 0.082670 
#    y 0.059460 1.566530 -0.088700 
#    z 0.082670 -0.088700 2.022490 
# 
# From -- ./inp_files/559550.got.cif
#   From: 2010.05.17/outbox.cif.g08.bks.cpg/sg2_280_cif.got.tgz:559550.got - 2010.06.03 11:33:40.
