data_PCOD9078253
_publ_section_title
;
Structure prediction by ZEFSAII (Michael W. Deem and Ramdas Pophale) SiO2 
 PCOD9078253
Probable space group: P -1
;
_chemical_formula_sum "Si O2"
_cell_formula_units_Z 16
_cell_length_a 8.739005
_cell_length_b 9.430569
_cell_length_c 9.406589
_cell_angle_alpha 101.496774
_cell_angle_beta 123.057679
_cell_angle_gamma 85.490563
_cell_volume 636.275319
_symmetry_space_group_name_H-M "P -1"
_symmetry_group_IT_number 2
_symmetry_cell_setting 'triclinic'
loop_
_space_group_symop_operation_xyz
x,y,z
-x,-y,-z
loop_
_atom_site_type_symbol
_atom_site_label
_atom_site_fract_x
_atom_site_fract_y
_atom_site_fract_z
Si Si1 0.972470 0.189386 0.269331
Si Si2 0.827324 0.307349 0.502836
Si Si3 0.303913 0.109793 0.614178
Si Si4 0.708170 0.957442 0.096577
Si Si5 0.237371 0.336059 0.835336
Si Si6 0.720823 0.606375 0.627378
Si Si7 0.786383 0.456627 0.908050
Si Si8 0.603015 0.200172 0.613945
O O1 0.853453 0.269834 0.344199
O O2 0.842657 0.068332 0.105865
O O3 0.136526 0.113998 0.422348
O O4 0.084574 0.305720 0.256389
O O5 0.741891 0.463343 0.513647
O O6 0.720409 0.190074 0.526544
O O7 0.028666 0.325631 0.676203
O O8 0.339467 0.272204 0.737620
O O9 0.497044 0.079832 0.633454
O O10 0.239458 0.027844 0.706763
O O11 0.732805 0.787404 0.053272
O O12 0.500000 0.000000 0.000000
O O13 0.274172 0.489710 0.957355
O O14 0.683362 0.547587 0.753493
O O15 0.567470 0.708223 0.510856
O O16 0.735845 0.293420 0.804890
O O17 0.000000 0.500000 0.000000
#
# Coordination Sequence:
#
# PCOD9078253 Si02
#       8
#     2   2   2   2   2   2   2   2
#     4  10  20  38  63  77 110 156 186 232 281 333
#     4  10  18  35  60  86 113 147 187 229 284 338
#     4   8  20  38  58  80 113 143 198 225 279 334
#     4  10  22  39  58  83 112 147 197 241 270 328
#     4   9  20  37  57  82 113 151 192 221 284 339
#     4  10  21  35  56  90 114 142 192 229 279 339
#     4  11  19  34  58  82 123 150 176 229 294 331
#     4  10  20  35  57  87 117 144 182 240 274 336
#
# _framework density 25.146348
#
# number of rings (size 3 to 8) (size 9 to 14) (size 15 to 20)
#    0.750    1.500    2.500    2.250    0.000    3.500 
#    0.000    1.250    0.000    0.000    0.000    0.000 
#    0.000    0.000    0.000    0.000    0.000    0.000 
#
# Total GULP energy -89299.388848 kJ/mol
# GULP energy per Si atom -5581.211803 kJ/mol
# Density = 2.508911 g / cm^3
# Si number density = 25.146348 Si / 1000 Ang^3
#
#
#
# Elastic Constant Matrix: (Units=GPa)
#
#
# Indices 1 2 3 4 5 6 
#
# 1 81.8648 -10.6057 3.4087 18.1877 -2.2436 6.9733
# 2 -10.6057 35.5680 1.8841 -5.7491 1.9337 5.3701
# 3 3.4087 1.8841 35.4336 2.0856 14.0626 -4.8907
# 4 18.1877 -5.7491 2.0856 33.7170 -0.2696 1.5773
# 5 -2.2436 1.9337 14.0626 -0.2696 33.0612 10.4920
# 6 6.9733 5.3701 -4.8907 1.5773 10.4920 48.9873
#
#
#
# Elastic Compliance Matrix: (Units=1/GPa)
#
#
# Indices 1 2 3 4 5 6 
#
# 1 0.014712 0.003734 -0.002807 -0.006953 0.002929 -0.003187
# 2 0.003734 0.030623 -0.003406 0.003647 0.001416 -0.004649
# 3 -0.002807 -0.003406 0.037351 -0.001926 -0.018607 0.008549
# 4 -0.006953 0.003647 -0.001926 0.034196 0.000682 -0.000849
# 5 0.002929 0.001416 -0.018607 0.000682 0.041910 -0.011428
# 6 -0.003187 -0.004649 0.008549 -0.000849 -0.011428 0.024705
#
#
# Mechanical properties :
#
#
# Convention : Reuss Voigt Hill
#
# Bulk Modulus (GPa) = 12.86527 15.80453 14.33490
# Shear Modulus (GPa) = 23.32476 33.69839 28.51158
#
# Velocity S-wave (km/s) = 3.04889 3.66470 3.37089
# Velocity P-wave (km/s) = 4.18588 4.91989 4.56765
#
# Compressibility (1/GPa) = 0.07772865
#
# Stress axis : x y z
#
# Youngs Moduli (GPa) = 67.96988 32.65488 26.77316
#
# Poissons Ratio (x) = -0.12192 0.07515
# Poissons Ratio (y) = -0.25378 0.09118
# Poissons Ratio (z) = 0.19078 0.11122
#
# Static dielectric constant tensor:
#      x y z
#    x 2.000050 -0.022550 -0.017650 
#    y -0.022550 2.089080 0.044650 
#    z -0.017650 0.044650 1.956150 
# 
# From -- ./inp_files/390536.got.cif
#   From: 2010.05.17/outbox.cif.g08.bks.cpg/sg2_196_cif.got.tgz:390536.got - 2010.06.03 11:33:40.
