data_PCOD9079731
_publ_section_title
;
Structure prediction by ZEFSAII (Michael W. Deem and Ramdas Pophale) SiO2 
 PCOD9079731
Probable space group: P -1
;
_chemical_formula_sum "Si O2"
_cell_formula_units_Z 12
_cell_length_a 8.166745
_cell_length_b 9.137603
_cell_length_c 17.543356
_cell_angle_alpha 57.121209
_cell_angle_beta 116.647914
_cell_angle_gamma 68.781735
_cell_volume 580.940652
_symmetry_space_group_name_H-M "P -1"
_symmetry_group_IT_number 2
_symmetry_cell_setting 'triclinic'
loop_
_space_group_symop_operation_xyz
x,y,z
-x,-y,-z
loop_
_atom_site_type_symbol
_atom_site_label
_atom_site_fract_x
_atom_site_fract_y
_atom_site_fract_z
Si Si1 0.803910 0.074508 0.867153
Si Si2 0.928615 0.157874 0.363748
Si Si3 0.851318 0.665178 0.034019
Si Si4 0.488290 0.417047 0.440275
Si Si5 0.843400 0.656027 0.651952
Si Si6 0.691842 0.514806 0.929955
O O1 0.588067 0.385966 0.698468
O O2 0.677628 0.982943 0.894690
O O3 0.041119 0.836392 0.916365
O O4 0.000000 0.000000 0.000000
O O5 0.609678 0.340786 0.208400
O O6 0.957036 0.338761 0.340576
O O7 0.000000 0.000000 0.500000
O O8 0.189074 0.916777 0.423067
O O9 0.970840 0.543161 0.177655
O O10 0.168200 0.452869 0.110939
O O11 0.674036 0.636036 0.969930
O O12 0.500000 0.500000 0.500000
O O13 0.230589 0.462577 0.375431
O O14 0.500000 0.000000 0.500000
#
# Coordination Sequence:
#
# PCOD9079731 Si02
#       6
#     2   2   2   2   2   2
#     4  10  18  37  64  86 123 162 203 244 319 361
#     4  11  23  41  64  89 125 163 212 252 306 373
#     4   9  19  37  63  88 118 167 209 242 308 381
#     4  11  24  41  65  94 126 163 204 261 314 367
#     4  10  21  37  61  86 123 164 208 244 312 373
#     4   9  20  36  63  88 116 164 210 246 298 370
#
# _framework density 20.656154000000001
#
# number of rings (size 3 to 8) (size 9 to 14) (size 15 to 20)
#    1.000    1.000    1.667    3.000    4.667    2.000 
#    0.000    5.833    0.000    0.000    0.000    0.000 
#    0.000    0.000    0.000    0.000    0.000    0.000 
#
# Total GULP energy -66877.610305 kJ/mol
# GULP energy per Si atom -5573.134192 kJ/mol
# Density = 2.060914 g / cm^3
# Si number density = 20.656154 Si / 1000 Ang^3
#
#
#
# Elastic Constant Matrix: (Units=GPa)
#
#
# Indices 1 2 3 4 5 6 
#
# 1 68.2678 33.2722 27.1973 14.4167 -1.6200 27.7621
# 2 33.2722 124.3629 20.4438 20.4354 -3.6244 31.3224
# 3 27.1973 20.4438 63.6165 4.3734 -4.3094 23.6626
# 4 14.4167 20.4354 4.3734 34.4901 2.1799 4.4162
# 5 -1.6200 -3.6244 -4.3094 2.1799 28.6583 3.2397
# 6 27.7621 31.3224 23.6626 4.4162 3.2397 36.4113
#
#
#
# Elastic Compliance Matrix: (Units=1/GPa)
#
#
# Indices 1 2 3 4 5 6 
#
# 1 0.024164 -0.000872 -0.003974 -0.007410 0.002855 -0.014446
# 2 -0.000872 0.011490 0.000713 -0.005534 0.002981 -0.009276
# 3 -0.003974 0.000713 0.022104 -0.000277 0.004604 -0.012324
# 4 -0.007410 -0.005534 -0.000277 0.034827 -0.004575 0.006774
# 5 0.002855 0.002981 0.004604 -0.004575 0.037663 -0.010529
# 6 -0.014446 -0.009276 -0.012324 0.006774 -0.010529 0.054583
#
#
# Mechanical properties :
#
#
# Convention : Reuss Voigt Hill
#
# Bulk Modulus (GPa) = 20.20538 46.45264 33.32901
# Shear Modulus (GPa) = 23.85567 31.60086 27.72826
#
# Velocity S-wave (km/s) = 3.40206 3.91558 3.66782
# Velocity P-wave (km/s) = 5.02345 6.55589 5.84015
#
# Compressibility (1/GPa) = 0.04949177
#
# Stress axis : x y z
#
# Youngs Moduli (GPa) = 41.38384 87.03458 45.24078
#
# Poissons Ratio (x) = 0.07591 0.17979
# Poissons Ratio (y) = 0.03609 -0.03227
# Poissons Ratio (z) = 0.16446 -0.06208
#
# Static dielectric constant tensor:
#      x y z
#    x 1.616030 -0.012400 -0.359840 
#    y -0.012400 1.776100 -0.040880 
#    z -0.359840 -0.040880 0.836890 
# 
# From -- ./inp_files/218365.got.cif
#   From: 2010.05.17/outbox.cif.g08.bks.cpg/sg2_110_cif.got.tgz:218365.got - 2010.06.03 11:33:40.
