data_PCOD9079906
_publ_section_title
;
Structure prediction by ZEFSAII (Michael W. Deem and Ramdas Pophale) SiO2 
 PCOD9079906
Probable space group: P -1
;
_chemical_formula_sum "Si O2"
_cell_formula_units_Z 14
_cell_length_a 6.734980
_cell_length_b 11.943647
_cell_length_c 9.520299
_cell_angle_alpha 128.571937
_cell_angle_beta 124.242627
_cell_angle_gamma 61.809873
_cell_volume 486.117591
_symmetry_space_group_name_H-M "P -1"
_symmetry_group_IT_number 2
_symmetry_cell_setting 'triclinic'
loop_
_space_group_symop_operation_xyz
x,y,z
-x,-y,-z
loop_
_atom_site_type_symbol
_atom_site_label
_atom_site_fract_x
_atom_site_fract_y
_atom_site_fract_z
Si Si1 0.949224 0.674079 0.985247
Si Si2 0.552121 0.053410 0.286980
Si Si3 0.643808 0.847160 0.369086
Si Si4 0.200535 0.845186 0.035996
Si Si5 0.665927 0.353520 0.647787
Si Si6 0.167163 0.444782 0.655886
Si Si7 0.613809 0.271908 0.259447
O O1 0.081801 0.549243 0.833828
O O2 0.661997 0.673692 0.864252
O O3 0.988919 0.822874 0.039049
O O4 0.089812 0.648823 0.168824
O O5 0.585578 0.194770 0.500152
O O6 0.604015 0.114957 0.205511
O O7 0.740543 0.916895 0.320821
O O8 0.290542 0.998706 0.158037
O O9 0.436143 0.768149 0.160672
O O10 0.500000 0.000000 0.500000
O O11 0.205320 0.765084 0.827658
O O12 0.437595 0.451483 0.710615
O O13 0.671325 0.366770 0.490426
O O14 0.176625 0.275323 0.572980
O O15 0.000000 0.500000 0.500000
#
# Coordination Sequence:
#
# PCOD9079906 Si02
#       7
#     2   2   2   2   2   2   2
#     4  12  24  39  71  97 133 185 230 272 351 413
#     4   8  18  38  67  89 139 174 219 288 336 389
#     4  10  18  37  70  97 126 185 220 274 354 389
#     4  10  21  39  68 100 136 179 225 289 338 403
#     4  10  20  41  67  93 140 177 218 291 335 392
#     4  12  21  40  67 102 136 179 231 283 339 414
#     4  10  22  43  65 103 136 178 230 286 336 408
#
# _framework density 28.799613000000001
#
# number of rings (size 3 to 8) (size 9 to 14) (size 15 to 20)
#    1.714    0.000    4.286    0.857    0.000    0.571 
#    0.000    6.429    0.000    0.000    0.000    0.000 
#    0.000    0.000    0.000    0.000    0.000    0.000 
#
# Total GULP energy -78260.853913 kJ/mol
# GULP energy per Si atom -5590.060994 kJ/mol
# Density = 2.873406 g / cm^3
# Si number density = 28.799613 Si / 1000 Ang^3
#
#
#
# Elastic Constant Matrix: (Units=GPa)
#
#
# Indices 1 2 3 4 5 6 
#
# 1 129.1824 46.3298 54.0890 -11.5373 -4.0888 6.4940
# 2 46.3298 173.7511 63.2777 -20.5336 4.5644 2.3176
# 3 54.0890 63.2777 206.9513 -9.6150 -13.9441 -10.1799
# 4 -11.5373 -20.5336 -9.6150 56.4980 6.0448 6.9190
# 5 -4.0888 4.5644 -13.9441 6.0448 43.2169 7.3861
# 6 6.4940 2.3176 -10.1799 6.9190 7.3861 57.9457
#
#
#
# Elastic Compliance Matrix: (Units=1/GPa)
#
#
# Indices 1 2 3 4 5 6 
#
# 1 0.009330 -0.001652 -0.001920 0.001106 0.000542 -0.001518
# 2 -0.001652 0.007160 -0.001794 0.002200 -0.001721 -0.000460
# 3 -0.001920 -0.001794 0.006045 -0.000351 0.001809 0.001160
# 4 0.001106 0.002200 -0.000351 0.019212 -0.002545 -0.002243
# 5 0.000542 -0.001721 0.001809 -0.002545 0.024743 -0.002524
# 6 -0.001518 -0.000460 0.001160 -0.002243 -0.002524 0.018239
#
#
# Mechanical properties :
#
#
# Convention : Reuss Voigt Hill
#
# Bulk Modulus (GPa) = 84.72085 93.03088 88.87586
# Shear Modulus (GPa) = 50.30360 54.61136 52.45748
#
# Velocity S-wave (km/s) = 4.18386 4.35932 4.27249
# Velocity P-wave (km/s) = 7.26779 7.59679 7.43411
#
# Compressibility (1/GPa) = 0.01180347
#
# Stress axis : x y z
#
# Youngs Moduli (GPa) = 107.18625 139.65533 165.42320
#
# Poissons Ratio (x) = 0.23067 0.31763
# Poissons Ratio (y) = 0.17704 0.29678
# Poissons Ratio (z) = 0.20581 0.25055
#
# Static dielectric constant tensor:
#      x y z
#    x 2.309450 0.077430 -0.067080 
#    y 0.077430 2.345740 0.011950 
#    z -0.067080 0.011950 2.320810 
# 
# From -- ./inp_files/133515.got.cif
#   From: 2010.05.17/outbox.cif.g08.bks.cpg/sg2_67_cif.got.tgz:133515.got - 2010.06.03 11:33:40.
