data_PCOD9079922
_publ_section_title
;
Structure prediction by ZEFSAII (Michael W. Deem and Ramdas Pophale) SiO2 
 PCOD9079922
Probable space group: P -1
;
_chemical_formula_sum "Si O2"
_cell_formula_units_Z 16
_cell_length_a 10.786281
_cell_length_b 8.458923
_cell_length_c 12.166510
_cell_angle_alpha 95.668317
_cell_angle_beta 119.437521
_cell_angle_gamma 43.290518
_cell_volume 597.326667
_symmetry_space_group_name_H-M "P -1"
_symmetry_group_IT_number 2
_symmetry_cell_setting 'triclinic'
loop_
_space_group_symop_operation_xyz
x,y,z
-x,-y,-z
loop_
_atom_site_type_symbol
_atom_site_label
_atom_site_fract_x
_atom_site_fract_y
_atom_site_fract_z
Si Si1 0.307164 0.190694 0.216666
Si Si2 0.300982 0.251323 0.801191
Si Si3 0.792474 0.322605 0.119588
Si Si4 0.806908 0.980801 0.163189
Si Si5 0.095327 0.659673 0.051515
Si Si6 0.806596 0.337941 0.501408
Si Si7 0.230904 0.285831 0.447850
Si Si8 0.155812 0.014450 0.436698
O O1 0.069645 0.312140 0.088463
O O2 0.298045 0.202106 0.344652
O O3 0.505589 0.928732 0.218857
O O4 0.292350 0.379832 0.172009
O O5 0.306528 0.418289 0.872523
O O6 0.047076 0.462609 0.651810
O O7 0.312931 0.083563 0.871846
O O8 0.682066 0.260067 0.119440
O O9 0.048655 0.097534 0.273664
O O10 0.815577 0.295827 0.996495
O O11 0.990167 0.831913 0.331364
O O12 0.946110 0.848897 0.101338
O O13 0.681451 0.616314 0.472954
O O14 0.930539 0.213266 0.430203
O O15 0.694547 0.267574 0.479991
O O16 0.274337 0.079772 0.511608
#
# Coordination Sequence:
#
# PCOD9079922 Si02
#       8
#     2   2   2   2   2   2   2   2
#     4  11  21  35  59  82 111 152 183 221 277 328
#     4  10  20  38  57  78 114 149 180 228 273 323
#     4  10  20  36  56  82 113 144 184 228 271 327
#     4  10  20  36  56  82 113 144 184 228 271 327
#     4  11  19  36  56  83 111 146 185 225 272 325
#     4   9  17  31  56  83 105 140 184 224 271 321
#     4  10  18  38  54  81 110 144 183 225 270 321
#     4   9  17  31  56  83 105 140 184 224 271 321
#
# _framework density 26.786014000000002
#
# number of rings (size 3 to 8) (size 9 to 14) (size 15 to 20)
#    0.000    2.000    5.000    1.500    0.000    2.000 
#    0.000    5.000    0.000   12.000    0.000   15.750 
#    0.000    0.000    0.000    0.000    0.000    0.000 
#
# Total GULP energy -89583.287719 kJ/mol
# GULP energy per Si atom -5598.955482 kJ/mol
# Density = 2.672505 g / cm^3
# Si number density = 26.786014 Si / 1000 Ang^3
#
#
#
# Elastic Constant Matrix: (Units=GPa)
#
#
# Indices 1 2 3 4 5 6 
#
# 1 118.6651 71.6515 41.6337 -19.1962 -19.5982 45.1308
# 2 71.6515 154.6053 32.8543 2.3574 -26.9431 39.2350
# 3 41.6337 32.8543 114.8842 10.4491 -34.3836 18.0224
# 4 -19.1962 2.3574 10.4491 43.4378 7.1485 -13.0754
# 5 -19.5982 -26.9431 -34.3836 7.1485 47.0054 -4.0784
# 6 45.1308 39.2350 18.0224 -13.0754 -4.0784 66.7702
#
#
#
# Elastic Compliance Matrix: (Units=1/GPa)
#
#
# Indices 1 2 3 4 5 6 
#
# 1 0.016362 -0.005642 -0.004560 0.007294 -0.001305 -0.005165
# 2 -0.005642 0.010704 0.001729 -0.005515 0.005567 -0.003683
# 3 -0.004560 0.001729 0.014131 -0.008030 0.010415 -0.002685
# 4 0.007294 -0.005515 -0.008030 0.032018 -0.010333 0.006117
# 5 -0.001305 0.005567 0.010415 -0.010333 0.032657 -0.005229
# 6 -0.005165 -0.003683 -0.002685 0.006117 -0.005229 0.022235
#
#
# Mechanical properties :
#
#
# Convention : Reuss Voigt Hill
#
# Bulk Modulus (GPa) = 41.23359 75.60374 58.41866
# Shear Modulus (GPa) = 32.65044 47.57701 40.11372
#
# Velocity S-wave (km/s) = 3.49511 4.21906 3.87403
# Velocity P-wave (km/s) = 5.63160 7.21251 6.47052
#
# Compressibility (1/GPa) = 0.02425207
#
# Stress axis : x y z
#
# Youngs Moduli (GPa) = 61.11588 93.41895 70.76645
#
# Poissons Ratio (x) = 0.52707 0.32269
# Poissons Ratio (y) = 0.34482 -0.12236
# Poissons Ratio (z) = 0.27868 -0.16153
#
# Static dielectric constant tensor:
#      x y z
#    x 2.099150 0.053600 0.038000 
#    y 0.053600 2.147540 -0.070990 
#    z 0.038000 -0.070990 2.101100 
# 
# From -- ./inp_files/417375.got.cif
#   From: 2010.05.17/outbox.cif.g08.bks.cpg/sg2_209_cif.got.tgz:417375.got - 2010.06.03 11:33:40.
