data_PCOD9079054
_publ_section_title
;
Structure prediction by ZEFSAII (Michael W. Deem and Ramdas Pophale) SiO2 
 PCOD9079054
Probable space group: P -1
;
_chemical_formula_sum "Si O2"
_cell_formula_units_Z 16
_cell_length_a 9.181396
_cell_length_b 28.472357
_cell_length_c 14.070841
_cell_angle_alpha 156.528336
_cell_angle_beta 135.073750
_cell_angle_gamma 33.909721
_cell_volume 793.540312
_symmetry_space_group_name_H-M "P -1"
_symmetry_group_IT_number 2
_symmetry_cell_setting 'triclinic'
loop_
_space_group_symop_operation_xyz
x,y,z
-x,-y,-z
loop_
_atom_site_type_symbol
_atom_site_label
_atom_site_fract_x
_atom_site_fract_y
_atom_site_fract_z
Si Si1 0.819595 0.249086 0.118700
Si Si2 0.201662 0.647942 0.433125
Si Si3 0.729017 0.127253 0.666116
Si Si4 0.193132 0.506392 0.354430
Si Si5 0.484555 0.595246 0.030440
Si Si6 0.948685 0.347833 0.932299
Si Si7 0.820521 0.109640 0.032392
Si Si8 0.287363 0.106236 0.477727
O O1 0.511471 0.369819 0.236614
O O2 0.899039 0.357238 0.362418
O O3 0.809968 0.185828 0.897714
O O4 0.966548 0.115892 0.019897
O O5 0.122924 0.586004 0.365399
O O6 0.433162 0.510960 0.219959
O O7 0.940008 0.770851 0.476308
O O8 0.313843 0.727020 0.677928
O O9 0.558666 0.080154 0.539309
O O10 0.533781 0.266522 0.760853
O O11 0.000000 0.000000 0.500000
O O12 0.078738 0.420611 0.163499
O O13 0.202837 0.666300 0.081113
O O14 0.716292 0.480485 0.999668
O O15 0.153083 0.193496 0.678042
O O16 0.675386 0.047249 0.807560
O O17 0.000000 0.000000 0.000000
#
# Coordination Sequence:
#
# PCOD9079054 Si02
#       8
#     2   2   2   2   2   2   2   2
#     4  10  21  36  59  82 113 152 192 235 281 338
#     4   9  17  37  64  83 111 146 189 243 277 337
#     4  12  25  39  55  83 124 155 187 236 283 341
#     4  10  18  36  62  83 107 146 197 233 282 340
#     4  10  21  37  57  89 116 144 193 238 290 323
#     4  10  20  36  63  86 112 149 190 246 277 334
#     4   9  20  36  60  87 112 148 194 234 280 342
#     4  10  20  37  61  83 112 156 195 225 286 343
#
# _framework density 20.162807999999998
#
# number of rings (size 3 to 8) (size 9 to 14) (size 15 to 20)
#    0.000    2.000    2.500    0.750    1.750    3.500 
#    2.250    0.625    0.000    3.000    0.000    0.000 
#    0.000    0.000    0.000    0.000    0.000    0.000 
#
# Total GULP energy -89183.463183 kJ/mol
# GULP energy per Si atom -5573.966449 kJ/mol
# Density = 2.011692 g / cm^3
# Si number density = 20.162808 Si / 1000 Ang^3
#
#
#
# Elastic Constant Matrix: (Units=GPa)
#
#
# Indices 1 2 3 4 5 6 
#
# 1 69.2176 18.3907 47.7701 -7.6755 -4.0256 -15.5811
# 2 18.3907 45.2606 29.9140 -4.0513 -5.6053 10.2337
# 3 47.7701 29.9140 118.3685 -22.6708 -5.6393 -17.8396
# 4 -7.6755 -4.0513 -22.6708 32.7387 0.5009 7.8487
# 5 -4.0256 -5.6053 -5.6393 0.5009 33.2962 2.6465
# 6 -15.5811 10.2337 -17.8396 7.8487 2.6465 29.5303
#
#
#
# Elastic Compliance Matrix: (Units=1/GPa)
#
#
# Indices 1 2 3 4 5 6 
#
# 1 0.023302 -0.008770 -0.005832 -0.002666 -0.000606 0.012574
# 2 -0.008770 0.038067 -0.009075 0.002127 0.005717 -0.024380
# 3 -0.005832 -0.009075 0.015467 0.006368 -0.000325 0.007749
# 4 -0.002666 0.002127 0.006368 0.036519 0.001210 -0.008111
# 5 -0.000606 0.005717 -0.000325 0.001210 0.031296 -0.005624
# 6 0.012574 -0.024380 0.007749 -0.008111 -0.005624 0.056287
#
#
# Mechanical properties :
#
#
# Convention : Reuss Voigt Hill
#
# Bulk Modulus (GPa) = 33.92060 47.22180 40.57120
# Shear Modulus (GPa) = 19.37080 28.23118 23.80099
#
# Velocity S-wave (km/s) = 3.10291 3.74593 3.43948
# Velocity P-wave (km/s) = 5.44952 6.49465 5.99490
#
# Compressibility (1/GPa) = 0.02948061
#
# Stress axis : x y z
#
# Youngs Moduli (GPa) = 42.91510 26.26956 64.65294
#
# Poissons Ratio (x) = 0.23040 0.37705
# Poissons Ratio (y) = 0.37638 0.58674
# Poissons Ratio (z) = 0.25028 0.23840
#
# Static dielectric constant tensor:
#      x y z
#    x 1.685720 0.036490 0.026500 
#    y 0.036490 1.781120 -0.000920 
#    z 0.026500 -0.000920 1.739140 
# 
# From -- ./inp_files/257526.got.cif
#   From: 2010.05.17/outbox.cif.g08.bks.cpg/sg2_129_cif.got.tgz:257526.got - 2010.06.03 11:33:40.
