data_PCOD9079778
_publ_section_title
;
Structure prediction by ZEFSAII (Michael W. Deem and Ramdas Pophale) SiO2 
 PCOD9079778
Probable space group: P -1
;
_chemical_formula_sum "Si O2"
_cell_formula_units_Z 16
_cell_length_a 6.754365
_cell_length_b 5.746014
_cell_length_c 22.355224
_cell_angle_alpha 117.248245
_cell_angle_beta 130.983768
_cell_angle_gamma 67.845406
_cell_volume 578.454675
_symmetry_space_group_name_H-M "P -1"
_symmetry_group_IT_number 2
_symmetry_cell_setting 'triclinic'
loop_
_space_group_symop_operation_xyz
x,y,z
-x,-y,-z
loop_
_atom_site_type_symbol
_atom_site_label
_atom_site_fract_x
_atom_site_fract_y
_atom_site_fract_z
Si Si1 0.143888 0.587931 0.754937
Si Si2 0.192860 0.072468 0.125728
Si Si3 0.209255 0.228702 0.407717
Si Si4 0.137113 0.758371 0.275306
Si Si5 0.179356 0.577917 0.990206
Si Si6 0.449828 0.038159 0.713674
Si Si7 0.216806 0.757713 0.532956
Si Si8 0.250071 0.076140 0.886430
O O1 0.335795 0.773464 0.848089
O O2 0.991942 0.692435 0.677712
O O3 0.901447 0.531406 0.743564
O O4 0.298331 0.310101 0.738184
O O5 0.437040 0.099640 0.219577
O O6 0.283830 0.846819 0.067145
O O7 0.033064 0.318966 0.090602
O O8 0.984812 0.965813 0.117804
O O9 0.155955 0.459540 0.472953
O O10 0.516389 0.226212 0.450715
O O11 0.174095 0.918417 0.363622
O O12 0.357801 0.850099 0.285199
O O13 0.881386 0.818531 0.189218
O O14 0.362002 0.315211 0.972617
O O15 0.000000 0.500000 0.000000
O O16 0.293175 0.831741 0.623744
O O17 0.000000 0.000000 0.500000
#
# Coordination Sequence:
#
# PCOD9079778 Si02
#       8
#     2   2   2   2   2   2   2   2
#     4  11  20  38  63  89 129 168 212 264 319 379
#     4   9  18  35  60  89 124 166 210 259 319 386
#     4   9  20  37  61  89 128 172 213 271 324 372
#     4   9  20  38  60  89 124 167 209 259 318 376
#     4   9  17  33  61  91 122 164 211 257 319 385
#     4  10  21  38  64  94 125 168 214 264 320 382
#     4  10  18  37  65  87 130 172 211 273 323 373
#     4   9  18  33  57  89 122 163 204 256 316 373
#
# _framework density 27.659901000000001
#
# number of rings (size 3 to 8) (size 9 to 14) (size 15 to 20)
#    0.000    2.500    1.250    1.500    0.000    0.000 
#    0.000   24.375    0.000   10.500    0.000   10.500 
#    0.000    0.000    0.000    0.000    0.000    0.000 
#
# Total GULP energy -89378.927122 kJ/mol
# GULP energy per Si atom -5586.182945 kJ/mol
# Density = 2.759695 g / cm^3
# Si number density = 27.659901 Si / 1000 Ang^3
#
#
#
# Elastic Constant Matrix: (Units=GPa)
#
#
# Indices 1 2 3 4 5 6 
#
# 1 86.2781 31.6446 39.7525 21.8655 -15.8220 -7.6245
# 2 31.6446 93.9534 88.6194 49.1922 -8.4586 -20.7408
# 3 39.7525 88.6194 197.5891 29.7377 -12.6705 -11.0495
# 4 21.8655 49.1922 29.7377 74.0875 -2.2516 -5.4659
# 5 -15.8220 -8.4586 -12.6705 -2.2516 43.6730 17.7441
# 6 -7.6245 -20.7408 -11.0495 -5.4659 17.7441 59.9371
#
#
#
# Elastic Compliance Matrix: (Units=1/GPa)
#
#
# Indices 1 2 3 4 5 6 
#
# 1 0.014324 -0.002210 -0.001316 -0.002147 0.004567 -0.000733
# 2 -0.002210 0.031153 -0.010940 -0.015133 -0.001826 0.007643
# 3 -0.001316 -0.010940 0.009640 0.003658 0.001294 -0.002225
# 4 -0.002147 -0.015133 0.003658 0.022502 -0.000406 -0.002663
# 5 0.004567 -0.001826 0.001294 -0.000406 0.027840 -0.008091
# 6 -0.000733 0.007643 -0.002225 -0.002663 -0.008091 0.020978
#
#
# Mechanical properties :
#
#
# Convention : Reuss Voigt Hill
#
# Bulk Modulus (GPa) = 38.18751 77.53929 57.86340
# Shear Modulus (GPa) = 30.46993 50.05981 40.26487
#
# Velocity S-wave (km/s) = 3.32263 4.25883 3.81952
# Velocity P-wave (km/s) = 5.34377 7.23032 6.35741
#
# Compressibility (1/GPa) = 0.02618657
#
# Stress axis : x y z
#
# Youngs Moduli (GPa) = 69.81275 32.10014 103.73224
#
# Poissons Ratio (x) = 0.07094 0.13647
# Poissons Ratio (y) = 0.15428 1.13479
# Poissons Ratio (z) = 0.09185 0.35116
#
# Static dielectric constant tensor:
#      x y z
#    x 2.301580 -0.042610 0.021130 
#    y -0.042610 2.221470 0.080200 
#    z 0.021130 0.080200 2.139870 
# 
# From -- ./inp_files/605749.got.cif
#   From: 2010.05.17/outbox.cif.g08.bks.cpg/sg2_303_cif.got.tgz:605749.got - 2010.06.03 11:33:40.
