data_PCOD9079493
_publ_section_title
;
Structure prediction by ZEFSAII (Michael W. Deem and Ramdas Pophale) SiO2 
 PCOD9079493
Probable space group: P -1
;
_chemical_formula_sum "Si O2"
_cell_formula_units_Z 16
_cell_length_a 8.957975
_cell_length_b 14.562292
_cell_length_c 8.109402
_cell_angle_alpha 97.394617
_cell_angle_beta 108.283935
_cell_angle_gamma 129.807161
_cell_volume 688.380805
_symmetry_space_group_name_H-M "P -1"
_symmetry_group_IT_number 2
_symmetry_cell_setting 'triclinic'
loop_
_space_group_symop_operation_xyz
x,y,z
-x,-y,-z
loop_
_atom_site_type_symbol
_atom_site_label
_atom_site_fract_x
_atom_site_fract_y
_atom_site_fract_z
Si Si1 0.231707 0.338306 0.030077
Si Si2 0.174276 0.911610 0.975246
Si Si3 0.758667 0.382191 0.196496
Si Si4 0.308916 0.473948 0.579630
Si Si5 0.381901 0.264477 0.807784
Si Si6 0.323668 0.837232 0.738133
Si Si7 0.806814 0.489199 0.805104
Si Si8 0.013850 0.164130 0.442849
O O1 0.427930 0.416070 0.253610
O O2 0.156083 0.411844 0.029027
O O3 0.018522 0.186852 0.980109
O O4 0.335879 0.344763 0.898534
O O5 0.254735 0.849224 0.899207
O O6 0.064905 0.914007 0.776157
O O7 0.406399 0.050252 0.158936
O O8 0.783167 0.492594 0.310547
O O9 0.771276 0.306711 0.320480
O O10 0.953055 0.454149 0.143229
O O11 0.506578 0.263828 0.999824
O O12 0.263439 0.498845 0.393491
O O13 0.195837 0.324530 0.508153
O O14 0.579712 0.343320 0.758071
O O15 0.140794 0.149553 0.607626
O O16 0.203009 0.863429 0.587082
#
# Coordination Sequence:
#
# PCOD9079493 Si02
#       8
#     2   2   2   2   2   2   2   2
#     4  11  20  35  56  90 115 151 187 236 277 343
#     4   9  18  37  67  80 101 153 208 234 262 329
#     4  11  23  37  54  90 124 146 178 243 292 333
#     4  11  21  33  61  87 120 142 193 234 284 339
#     4  11  25  34  52  88 127 149 180 227 299 344
#     4   9  19  38  64  82 106 148 207 232 273 324
#     4  12  19  35  55  83 119 156 183 223 282 351
#     4  10  18  37  60  83 112 150 191 231 275 343
#
# _framework density 23.242948999999999
#
# number of rings (size 3 to 8) (size 9 to 14) (size 15 to 20)
#    0.750    0.750    5.000    2.250    1.750    0.000 
#    0.000    3.750    0.000    0.000    0.000    0.000 
#    0.000    0.000    0.000    0.000    0.000    0.000 
#
# Total GULP energy -89160.537095 kJ/mol
# GULP energy per Si atom -5572.533568 kJ/mol
# Density = 2.319005 g / cm^3
# Si number density = 23.242949 Si / 1000 Ang^3
#
#
#
# Elastic Constant Matrix: (Units=GPa)
#
#
# Indices 1 2 3 4 5 6 
#
# 1 115.9452 20.0848 30.1004 6.2619 10.7446 19.9600
# 2 20.0848 43.9801 30.0159 17.7065 13.0949 16.6098
# 3 30.1004 30.0159 100.8986 4.5849 44.1021 14.0403
# 4 6.2619 17.7065 4.5849 28.8394 6.4390 10.6535
# 5 10.7446 13.0949 44.1021 6.4390 44.8923 -0.2366
# 6 19.9600 16.6098 14.0403 10.6535 -0.2366 23.9905
#
#
#
# Elastic Compliance Matrix: (Units=1/GPa)
#
#
# Indices 1 2 3 4 5 6 
#
# 1 0.010565 -0.001452 -0.001090 0.002060 -0.001373 -0.008076
# 2 -0.001452 0.043148 -0.009290 -0.019162 -0.000441 -0.014723
# 3 -0.001090 -0.009290 0.023810 0.011501 -0.022133 -0.011921
# 4 0.002060 -0.019162 0.011501 0.054534 -0.014127 -0.019535
# 5 -0.001373 -0.000441 -0.022133 -0.014127 0.046613 0.021133
# 6 -0.008076 -0.014723 -0.011921 -0.019535 0.021133 0.074456
#
#
# Mechanical properties :
#
#
# Convention : Reuss Voigt Hill
#
# Bulk Modulus (GPa) = 18.56724 46.80289 32.68507
# Shear Modulus (GPa) = 16.96384 31.58596 24.27490
#
# Velocity S-wave (km/s) = 2.70450 3.69039 3.23522
# Velocity P-wave (km/s) = 4.21404 6.19183 5.29608
#
# Compressibility (1/GPa) = 0.05385829
#
# Stress axis : x y z
#
# Youngs Moduli (GPa) = 94.64860 23.17629 41.99888
#
# Poissons Ratio (x) = 0.03366 0.04577
# Poissons Ratio (y) = 0.13744 0.39019
# Poissons Ratio (z) = 0.10315 0.21532
#
# Static dielectric constant tensor:
#      x y z
#    x 1.931690 -0.013440 0.062630 
#    y -0.013440 1.891490 -0.010800 
#    z 0.062630 -0.010800 1.936190 
# 
# From -- ./inp_files/218069.got.cif
#   From: 2010.05.17/outbox.cif.g08.bks.cpg/sg2_110_cif.got.tgz:218069.got - 2010.06.03 11:33:40.
