data_PCOD9079397
_publ_section_title
;
Structure prediction by ZEFSAII (Michael W. Deem and Ramdas Pophale) SiO2 
 PCOD9079397
Probable space group: P -1
;
_chemical_formula_sum "Si O2"
_cell_formula_units_Z 16
_cell_length_a 12.115302
_cell_length_b 11.820678
_cell_length_c 7.279626
_cell_angle_alpha 102.716346
_cell_angle_beta 143.298504
_cell_angle_gamma 84.721232
_cell_volume 601.361395
_symmetry_space_group_name_H-M "P -1"
_symmetry_group_IT_number 2
_symmetry_cell_setting 'triclinic'
loop_
_space_group_symop_operation_xyz
x,y,z
-x,-y,-z
loop_
_atom_site_type_symbol
_atom_site_label
_atom_site_fract_x
_atom_site_fract_y
_atom_site_fract_z
Si Si1 0.500007 0.630127 0.187556
Si Si2 0.892989 0.766752 0.399666
Si Si3 0.332790 0.939195 0.630704
Si Si4 0.852803 0.508845 0.142935
Si Si5 0.474092 0.723240 0.818231
Si Si6 0.956083 0.885692 0.176833
Si Si7 0.057937 0.331089 0.189005
Si Si8 0.472845 0.168184 0.446361
O O1 0.440002 0.623296 0.890108
O O2 0.719804 0.620656 0.496956
O O3 0.483317 0.763156 0.282393
O O4 0.351322 0.545116 0.077358
O O5 0.862661 0.647745 0.191568
O O6 0.682122 0.784044 0.174173
O O7 0.989246 0.736167 0.703432
O O8 0.986300 0.865737 0.426044
O O9 0.130190 0.977367 0.374308
O O10 0.401592 0.919561 0.508997
O O11 0.320312 0.808694 0.657942
O O12 0.500000 0.000000 0.000000
O O13 0.000000 0.500000 0.500000
O O14 0.926794 0.432819 0.052041
O O15 0.499929 0.724002 0.631612
O O16 0.969792 0.769266 0.033644
O O17 0.739191 0.895490 0.868576
#
# Coordination Sequence:
#
# PCOD9079397 Si02
#       8
#     2   2   2   2   2   2   2   2
#     4  10  18  37  56  73 111 149 170 214 265 298
#     4   9  19  37  51  78 110 139 183 212 255 311
#     4  10  21  37  58  83 103 131 177 221 266 325
#     4  10  21  31  51  83 110 138 186 221 241 303
#     4   8  19  35  55  76 104 141 175 210 267 316
#     4  10  19  37  58  73 106 145 170 215 274 307
#     4   9  20  34  55  79 103 145 183 213 253 307
#     4   8  19  36  56  79 104 139 175 215 264 316
#
# _framework density 26.606297000000001
#
# number of rings (size 3 to 8) (size 9 to 14) (size 15 to 20)
#    0.750    2.000    0.000    0.750    3.500    5.500 
#    0.000    8.750    0.000    2.250    0.000    0.000 
#    0.000    0.000    0.000    0.000    0.000    0.000 
#
# Total GULP energy -89285.482121 kJ/mol
# GULP energy per Si atom -5580.342633 kJ/mol
# Density = 2.654574 g / cm^3
# Si number density = 26.606297 Si / 1000 Ang^3
#
#
#
# Elastic Constant Matrix: (Units=GPa)
#
#
# Indices 1 2 3 4 5 6 
#
# 1 142.9846 38.2637 32.2110 -3.4920 9.6576 -11.6012
# 2 38.2637 56.6251 24.1421 -4.2477 4.0236 -4.7533
# 3 32.2110 24.1421 87.5718 10.5540 14.6958 -0.9964
# 4 -3.4920 -4.2477 10.5540 23.5780 -0.9076 -2.5099
# 5 9.6576 4.0236 14.6958 -0.9076 41.6686 -5.8181
# 6 -11.6012 -4.7533 -0.9964 -2.5099 -5.8181 31.2392
#
#
#
# Elastic Compliance Matrix: (Units=1/GPa)
#
#
# Indices 1 2 3 4 5 6 
#
# 1 0.009043 -0.004849 -0.002076 0.001652 -0.000497 0.002595
# 2 -0.004849 0.024018 -0.005822 0.006526 0.001341 0.002442
# 3 -0.002076 -0.005822 0.015675 -0.008868 -0.005071 -0.002814
# 4 0.001652 0.006526 -0.008868 0.048592 0.004007 0.005974
# 5 -0.000497 0.001341 -0.005071 0.004007 0.026577 0.005129
# 6 0.002595 0.002442 -0.002814 0.005974 0.005129 0.034692
#
#
# Mechanical properties :
#
#
# Convention : Reuss Voigt Hill
#
# Bulk Modulus (GPa) = 43.02143 52.93503 47.97823
# Shear Modulus (GPa) = 26.06365 32.13480 29.09923
#
# Velocity S-wave (km/s) = 3.13326 3.47910 3.31070
# Velocity P-wave (km/s) = 5.41244 6.00647 5.71717
#
# Compressibility (1/GPa) = 0.02324423
#
# Stress axis : x y z
#
# Youngs Moduli (GPa) = 110.57745 41.63548 63.79460
#
# Poissons Ratio (x) = 0.20189 0.13242
# Poissons Ratio (y) = 0.53619 0.37139
# Poissons Ratio (z) = 0.22953 0.24238
#
# Static dielectric constant tensor:
#      x y z
#    x 2.099910 -0.027790 -0.006930 
#    y -0.027790 2.139770 0.030180 
#    z -0.006930 0.030180 2.039740 
# 
# From -- ./inp_files/273945.got.cif
#   From: 2010.05.17/outbox.cif.g08.bks.cpg/sg2_137_cif.got.tgz:273945.got - 2010.06.03 11:33:40.
