data_PCOD9079930
_publ_section_title
;
Structure prediction by ZEFSAII (Michael W. Deem and Ramdas Pophale) SiO2 
 PCOD9079930
Probable space group: P -1
;
_chemical_formula_sum "Si O2"
_cell_formula_units_Z 12
_cell_length_a 8.251477
_cell_length_b 10.404974
_cell_length_c 16.191780
_cell_angle_alpha 151.736290
_cell_angle_beta 42.841625
_cell_angle_gamma 133.647936
_cell_volume 443.340591
_symmetry_space_group_name_H-M "P -1"
_symmetry_group_IT_number 2
_symmetry_cell_setting 'triclinic'
loop_
_space_group_symop_operation_xyz
x,y,z
-x,-y,-z
loop_
_atom_site_type_symbol
_atom_site_label
_atom_site_fract_x
_atom_site_fract_y
_atom_site_fract_z
Si Si1 0.918858 0.884375 0.067785
Si Si2 0.549558 0.949468 0.711907
Si Si3 0.685279 0.600020 0.600037
Si Si4 0.014605 0.672141 0.219714
Si Si5 0.706825 0.698853 0.201348
Si Si6 0.195112 0.461079 0.291031
O O1 0.851353 0.921383 0.211886
O O2 0.650763 0.853688 0.114242
O O3 0.034747 0.603577 0.863100
O O4 0.080854 0.157123 0.131411
O O5 0.573200 0.843768 0.736471
O O6 0.459846 0.681208 0.539728
O O7 0.810401 0.091506 0.668271
O O8 0.700457 0.598497 0.691357
O O9 0.958784 0.608170 0.469904
O O10 0.794803 0.740386 0.285783
O O11 0.196193 0.572077 0.024812
O O12 0.420270 0.646493 0.270290
#
# Coordination Sequence:
#
# PCOD9079930 Si02
#       6
#     2   2   2   2   2   2
#     4   9  19  35  60  85 108 146 177 234 284 317
#     4  10  18  38  57  77 122 145 178 231 280 329
#     4   9  21  35  59  83 108 157 183 224 273 327
#     4   9  19  37  57  88 108 143 186 230 284 323
#     4   9  20  36  59  88 106 145 186 233 278 319
#     4  10  19  40  59  82 111 143 197 225 267 332
#
# _framework density 27.067226000000002
#
# number of rings (size 3 to 8) (size 9 to 14) (size 15 to 20)
#    1.000    1.667    0.000    1.500    0.000    0.667 
#    0.000   23.333    0.000    0.000    0.000    0.000 
#    0.000    0.000    0.000    0.000    0.000    0.000 
#
# Total GULP energy -67150.890987 kJ/mol
# GULP energy per Si atom -5595.907582 kJ/mol
# Density = 2.700562 g / cm^3
# Si number density = 27.067226 Si / 1000 Ang^3
#
#
#
# Elastic Constant Matrix: (Units=GPa)
#
#
# Indices 1 2 3 4 5 6 
#
# 1 128.7262 15.2796 22.1878 4.2244 -14.4799 12.2104
# 2 15.2796 125.9231 38.6267 -7.0281 -0.7872 31.1775
# 3 22.1878 38.6267 29.8723 1.6141 -6.9391 6.9001
# 4 4.2244 -7.0281 1.6141 42.7825 -1.8288 1.1616
# 5 -14.4799 -0.7872 -6.9391 -1.8288 29.6403 11.8534
# 6 12.2104 31.1775 6.9001 1.1616 11.8534 51.1582
#
#
#
# Elastic Compliance Matrix: (Units=1/GPa)
#
#
# Indices 1 2 3 4 5 6 
#
# 1 0.009771 0.002319 -0.008424 0.000016 0.004307 -0.003608
# 2 0.002319 0.016236 -0.021166 0.003439 -0.000122 -0.007644
# 3 -0.008424 -0.021166 0.068825 -0.004920 0.009739 0.003482
# 4 0.000016 0.003439 -0.004920 0.024244 0.001364 -0.002303
# 5 0.004307 -0.000122 0.009739 0.001364 0.043117 -0.012288
# 6 -0.003608 -0.007644 0.003482 -0.002303 -0.012288 0.027496
#
#
# Mechanical properties :
#
#
# Convention : Reuss Voigt Hill
#
# Bulk Modulus (GPa) = 24.81865 48.52331 36.67098
# Shear Modulus (GPa) = 19.40533 38.61138 29.00835
#
# Velocity S-wave (km/s) = 2.68046 3.78100 3.27726
# Velocity P-wave (km/s) = 4.33232 6.08499 5.28186
#
# Compressibility (1/GPa) = 0.04029228
#
# Stress axis : x y z
#
# Youngs Moduli (GPa) = 102.34118 61.59107 14.52952
#
# Poissons Ratio (x) = -0.14286 0.12240
# Poissons Ratio (y) = -0.23738 0.30753
# Poissons Ratio (z) = 0.86212 1.30362
#
# Static dielectric constant tensor:
#      x y z
#    x 2.106300 -0.021490 0.073180 
#    y -0.021490 2.086090 -0.008920 
#    z 0.073180 -0.008920 2.135620 
# 
# From -- ./inp_files/228123.got.cif
#   From: 2010.05.17/outbox.cif.g08.bks.cpg/sg2_115_cif.got.tgz:228123.got - 2010.06.03 11:33:40.
