data_PCOD9079444
_publ_section_title
;
Structure prediction by ZEFSAII (Michael W. Deem and Ramdas Pophale) SiO2 
 PCOD9079444
Probable space group: P -1
;
_chemical_formula_sum "Si O2"
_cell_formula_units_Z 14
_cell_length_a 14.353637
_cell_length_b 7.435283
_cell_length_c 11.222527
_cell_angle_alpha 47.087413
_cell_angle_beta 139.661078
_cell_angle_gamma 110.016400
_cell_volume 526.899479
_symmetry_space_group_name_H-M "P -1"
_symmetry_group_IT_number 2
_symmetry_cell_setting 'triclinic'
loop_
_space_group_symop_operation_xyz
x,y,z
-x,-y,-z
loop_
_atom_site_type_symbol
_atom_site_label
_atom_site_fract_x
_atom_site_fract_y
_atom_site_fract_z
Si Si1 0.972125 0.738371 0.626010
Si Si2 0.992161 0.698706 0.291828
Si Si3 0.251310 0.002611 0.913256
Si Si4 0.573255 0.586832 0.649730
Si Si5 0.301371 0.601842 0.503488
Si Si6 0.774298 0.739331 0.613787
Si Si7 0.501101 0.760417 0.948202
O O1 0.069224 0.442518 0.808779
O O2 0.825501 0.805077 0.360329
O O3 0.942291 0.727135 0.742364
O O4 0.000000 0.000000 0.500000
O O5 0.151052 0.729757 0.386117
O O6 0.000000 0.500000 0.500000
O O7 0.867673 0.959289 0.110585
O O8 0.384372 0.098593 0.049965
O O9 0.314657 0.702962 0.064156
O O10 0.500000 0.500000 0.500000
O O11 0.422156 0.734807 0.517013
O O12 0.688876 0.726810 0.657539
O O13 0.239798 0.494082 0.377613
O O14 0.426889 0.346732 0.805911
O O15 0.667393 0.020908 0.326188
O O16 0.500000 0.500000 0.000000
#
# Coordination Sequence:
#
# PCOD9079444 Si02
#       7
#     2   2   2   2   2   2   2
#     4  10  21  36  63  88 114 152 201 245 289 344
#     4   9  18  33  56  80 118 143 187 240 292 332
#     4  11  20  39  58  87 121 150 195 246 295 342
#     4  10  20  36  65  81 116 163 197 233 294 351
#     4  10  18  37  58  85 112 155 196 241 289 344
#     4  10  20  38  60  85 116 154 202 237 289 353
#     4  12  22  32  60  89 119 149 196 248 295 337
#
# _framework density 26.570533000000001
#
# number of rings (size 3 to 8) (size 9 to 14) (size 15 to 20)
#    0.000    1.714    7.143    1.286    2.000    0.000 
#    0.000    7.857    0.000    0.000    0.000    0.000 
#    0.000    0.000    0.000    0.000    0.000    0.000 
#
# Total GULP energy -77969.946855 kJ/mol
# GULP energy per Si atom -5569.281918 kJ/mol
# Density = 2.651006 g / cm^3
# Si number density = 26.570533 Si / 1000 Ang^3
#
#
#
# Elastic Constant Matrix: (Units=GPa)
#
#
# Indices 1 2 3 4 5 6 
#
# 1 224.1862 47.9845 12.4168 -17.1762 47.4522 36.3301
# 2 47.9845 95.9950 -4.9196 -3.5811 13.0494 10.3296
# 3 12.4168 -4.9196 34.7445 -8.3292 -2.7756 -12.6230
# 4 -17.1762 -3.5811 -8.3292 19.3896 -3.4828 -0.2176
# 5 47.4522 13.0494 -2.7756 -3.4828 44.2895 -3.8312
# 6 36.3301 10.3296 -12.6230 -0.2176 -3.8312 28.2262
#
#
#
# Elastic Compliance Matrix: (Units=1/GPa)
#
#
# Indices 1 2 3 4 5 6 
#
# 1 0.014057 -0.002535 -0.016104 0.001621 -0.017508 -0.026731
# 2 -0.002535 0.011931 0.002855 0.001091 -0.000525 0.000111
# 3 -0.016104 0.002855 0.059103 0.016833 0.025743 0.049738
# 4 0.001621 0.001091 0.016833 0.061292 0.004344 0.006104
# 5 -0.017508 -0.000525 0.025743 0.004344 0.046962 0.040647
# 6 -0.026731 0.000111 0.049738 0.006104 0.040647 0.097600
#
#
# Mechanical properties :
#
#
# Convention : Reuss Voigt Hill
#
# Bulk Modulus (GPa) = 18.68349 51.76546 35.22447
# Shear Modulus (GPa) = 14.69058 38.34399 26.51729
#
# Velocity S-wave (km/s) = 2.35391 3.80294 3.16253
# Velocity P-wave (km/s) = 3.79931 6.22958 5.15958
#
# Compressibility (1/GPa) = 0.05352320
#
# Stress axis : x y z
#
# Youngs Moduli (GPa) = 71.13933 83.81628 16.91959
#
# Poissons Ratio (x) = 0.21247 0.27247
# Poissons Ratio (y) = 0.18034 -0.04831
# Poissons Ratio (z) = 1.14563 -0.23931
#
# Static dielectric constant tensor:
#      x y z
#    x 2.278850 0.067390 0.048250 
#    y 0.067390 2.204610 0.047150 
#    z 0.048250 0.047150 2.302580 
# 
# From -- ./inp_files/528121.got.cif
#   From: 2010.05.17/outbox.cif.g08.bks.cpg/sg2_265_cif.got.tgz:528121.got - 2010.06.03 11:33:40.
