data_PCOD9079648
_publ_section_title
;
Structure prediction by ZEFSAII (Michael W. Deem and Ramdas Pophale) SiO2 
 PCOD9079648
Probable space group: P -1
;
_chemical_formula_sum "Si O2"
_cell_formula_units_Z 14
_cell_length_a 11.734781
_cell_length_b 18.863447
_cell_length_c 9.229165
_cell_angle_alpha 128.493448
_cell_angle_beta 132.064670
_cell_angle_gamma 24.772578
_cell_volume 634.855926
_symmetry_space_group_name_H-M "P -1"
_symmetry_group_IT_number 2
_symmetry_cell_setting 'triclinic'
loop_
_space_group_symop_operation_xyz
x,y,z
-x,-y,-z
loop_
_atom_site_type_symbol
_atom_site_label
_atom_site_fract_x
_atom_site_fract_y
_atom_site_fract_z
Si Si1 0.165831 0.684021 0.989008
Si Si2 0.736744 0.536451 0.666220
Si Si3 0.358654 0.278254 0.964333
Si Si4 0.741395 0.946848 0.708576
Si Si5 0.078154 0.751776 0.482248
Si Si6 0.237905 0.188877 0.958738
Si Si7 0.227307 0.808231 0.421524
O O1 0.157698 0.785934 0.191683
O O2 0.024532 0.687915 0.995087
O O3 0.500000 0.500000 0.000000
O O4 0.947353 0.795337 0.809102
O O5 0.752158 0.419194 0.528221
O O6 0.563812 0.661237 0.539565
O O7 0.065084 0.408246 0.791543
O O8 0.617392 0.631305 0.842752
O O9 0.329809 0.240866 0.047646
O O10 0.602427 0.104316 0.864046
O O11 0.942237 0.873531 0.652585
O O12 0.500000 0.000000 0.500000
O O13 0.205973 0.753294 0.473020
O O14 0.839091 0.820511 0.269948
O O15 0.500000 0.000000 0.000000
O O16 0.000000 0.000000 0.500000
#
# Coordination Sequence:
#
# PCOD9079648 Si02
#       7
#     2   2   2   2   2   2   2
#     4  11  24  38  64  97 134 165 213 273 325 371
#     4  10  20  39  60  91 125 161 215 261 308 382
#     4  10  21  35  65  93 121 170 217 263 305 388
#     4  12  20  39  63  95 126 166 215 263 317 381
#     4  10  22  38  65  90 119 173 207 258 321 384
#     4  10  18  37  62  92 124 170 214 251 322 382
#     4  11  24  43  64  91 129 169 212 261 327 389
#
# _framework density 22.052247000000001
#
# number of rings (size 3 to 8) (size 9 to 14) (size 15 to 20)
#    0.000    1.429    4.286    2.143    2.000    2.286 
#    0.000    8.571    0.000    2.571    0.000    0.000 
#    0.000    0.000    0.000    0.000    0.000    0.000 
#
# Total GULP energy -78060.496068 kJ/mol
# GULP energy per Si atom -5575.749719 kJ/mol
# Density = 2.200205 g / cm^3
# Si number density = 22.052247 Si / 1000 Ang^3
#
#
#
# Elastic Constant Matrix: (Units=GPa)
#
#
# Indices 1 2 3 4 5 6 
#
# 1 24.5084 18.7404 17.2253 9.5071 -15.9118 -11.5428
# 2 18.7404 160.2442 45.8218 4.4016 -11.0247 5.3156
# 3 17.2253 45.8218 98.1853 1.2789 -14.4131 -7.1994
# 4 9.5071 4.4016 1.2789 59.1977 -1.9846 -10.6595
# 5 -15.9118 -11.0247 -14.4131 -1.9846 30.4725 4.5949
# 6 -11.5428 5.3156 -7.1994 -10.6595 4.5949 22.5605
#
#
#
# Elastic Compliance Matrix: (Units=1/GPa)
#
#
# Indices 1 2 3 4 5 6 
#
# 1 0.096501 -0.008492 -0.004300 -0.006441 0.038981 0.039020
# 2 -0.008492 0.008260 -0.003162 -0.000536 -0.001896 -0.007167
# 3 -0.004300 -0.003162 0.012954 0.001225 0.002400 0.002769
# 4 -0.006441 -0.000536 0.001225 0.019071 -0.002760 0.006795
# 5 0.038981 -0.001896 0.002400 -0.002760 0.052045 0.009252
# 6 0.039020 -0.007167 0.002769 0.006795 0.009252 0.068188
#
#
# Mechanical properties :
#
#
# Convention : Reuss Voigt Hill
#
# Bulk Modulus (GPa) = 11.65384 49.61254 30.63319
# Shear Modulus (GPa) = 15.74660 35.85617 25.80138
#
# Velocity S-wave (km/s) = 2.67509 4.03670 3.42425
# Velocity P-wave (km/s) = 3.85196 6.65381 5.43648
#
# Compressibility (1/GPa) = 0.08580861
#
# Stress axis : x y z
#
# Youngs Moduli (GPa) = 10.36256 121.06905 77.19564
#
# Poissons Ratio (x) = 1.02810 0.33191
# Poissons Ratio (y) = 0.08800 0.24407
# Poissons Ratio (z) = 0.04456 0.38279
#
# Static dielectric constant tensor:
#      x y z
#    x 1.956140 -0.006540 0.068790 
#    y -0.006540 2.140490 -0.121340 
#    z 0.068790 -0.121340 1.870740 
# 
# From -- ./inp_files/320172.got.cif
#   From: 2010.05.17/outbox.cif.g08.bks.cpg/sg2_161_cif.got.tgz:320172.got - 2010.06.03 11:33:40.
