data_PCOD9079735
_publ_section_title
;
Structure prediction by ZEFSAII (Michael W. Deem and Ramdas Pophale) SiO2 
 PCOD9079735
Probable space group: P -1
;
_chemical_formula_sum "Si O2"
_cell_formula_units_Z 16
_cell_length_a 9.989963
_cell_length_b 16.924681
_cell_length_c 12.652293
_cell_angle_alpha 40.593340
_cell_angle_beta 112.603760
_cell_angle_gamma 79.582323
_cell_volume 792.999367
_symmetry_space_group_name_H-M "P -1"
_symmetry_group_IT_number 2
_symmetry_cell_setting 'triclinic'
loop_
_space_group_symop_operation_xyz
x,y,z
-x,-y,-z
loop_
_atom_site_type_symbol
_atom_site_label
_atom_site_fract_x
_atom_site_fract_y
_atom_site_fract_z
Si Si1 0.679902 0.992954 0.047625
Si Si2 0.263447 0.858256 0.904862
Si Si3 0.848341 0.332586 0.964408
Si Si4 0.982461 0.376784 0.342862
Si Si5 0.358718 0.990755 0.402578
Si Si6 0.497651 0.718171 0.896030
Si Si7 0.420209 0.238063 0.521127
Si Si8 0.173313 0.725795 0.749054
O O1 0.631587 0.075689 0.833000
O O2 0.644107 0.124567 0.986832
O O3 0.500000 0.000000 0.000000
O O4 0.922144 0.772809 0.383062
O O5 0.272478 0.708274 0.078608
O O6 0.400962 0.804863 0.895236
O O7 0.998844 0.073685 0.574138
O O8 0.924723 0.236556 0.202054
O O9 0.677697 0.559692 0.703223
O O10 0.082309 0.207924 0.094736
O O11 0.849023 0.385743 0.204667
O O12 0.196332 0.305554 0.425020
O O13 0.763870 0.591283 0.106052
O O14 0.375430 0.865776 0.612667
O O15 0.486785 0.868539 0.456226
O O16 0.500000 0.000000 0.500000
O O17 0.422521 0.626255 0.946997
#
# Coordination Sequence:
#
# PCOD9079735 Si02
#       8
#     2   2   2   2   2   2   2   2
#     4   9  22  44  64  81 121 168 211 261 300 359
#     4  10  20  40  66  88 123 163 209 254 309 361
#     4  11  21  40  62  93 129 163 201 258 311 374
#     4  10  21  38  62  89 121 162 208 257 303 365
#     4  12  24  37  64  94 133 162 198 256 320 375
#     4  11  20  35  61  99 116 156 205 253 318 368
#     4  11  25  43  58  92 129 169 207 252 313 365
#     4  10  18  37  64  87 128 156 200 254 313 367
#
# _framework density 20.176561
#
# number of rings (size 3 to 8) (size 9 to 14) (size 15 to 20)
#    0.000    1.500    2.500    3.375    3.500    3.000 
#    2.250    1.875    0.000    0.000    0.000    0.000 
#    0.000    0.000    0.000    0.000    0.000    0.000 
#
# Total GULP energy -89111.750011 kJ/mol
# GULP energy per Si atom -5569.484376 kJ/mol
# Density = 2.013064 g / cm^3
# Si number density = 20.176561 Si / 1000 Ang^3
#
#
#
# Elastic Constant Matrix: (Units=GPa)
#
#
# Indices 1 2 3 4 5 6 
#
# 1 91.7105 61.1962 23.1938 -0.1455 0.3926 -1.8984
# 2 61.1962 128.0170 43.4656 9.2551 1.3228 5.9542
# 3 23.1938 43.4656 50.8037 1.3641 -3.1229 -1.2093
# 4 -0.1455 9.2551 1.3641 26.3119 0.3134 3.0610
# 5 0.3926 1.3228 -3.1229 0.3134 28.1953 -9.0296
# 6 -1.8984 5.9542 -1.2093 3.0610 -9.0296 32.0607
#
#
#
# Elastic Compliance Matrix: (Units=1/GPa)
#
#
# Indices 1 2 3 4 5 6 
#
# 1 0.016414 -0.007927 -0.000676 0.002626 0.000806 0.002395
# 2 -0.007927 0.015463 -0.009772 -0.004462 -0.002967 -0.004119
# 3 -0.000676 -0.009772 0.028717 0.001406 0.004952 0.004118
# 4 0.002626 -0.004462 0.001406 0.039888 -0.001102 -0.003081
# 5 0.000806 -0.002967 0.004952 -0.001102 0.040053 0.012171
# 6 0.002395 -0.004119 0.004118 -0.003081 0.012171 0.035975
#
#
# Mechanical properties :
#
#
# Convention : Reuss Voigt Hill
#
# Bulk Modulus (GPa) = 41.93528 58.47138 50.20333
# Shear Modulus (GPa) = 22.60311 26.82531 24.71421
#
# Velocity S-wave (km/s) = 3.35067 3.65023 3.50365
# Velocity P-wave (km/s) = 5.98319 6.84166 6.42677
#
# Compressibility (1/GPa) = 0.02384627
#
# Stress axis : x y z
#
# Youngs Moduli (GPa) = 60.92223 64.66971 34.82252
#
# Poissons Ratio (x) = 0.51261 0.02354
# Poissons Ratio (y) = 0.48291 0.34027
# Poissons Ratio (z) = 0.04118 0.63192
#
# Static dielectric constant tensor:
#      x y z
#    x 1.757070 0.022640 -0.010930 
#    y 0.022640 1.763180 -0.069990 
#    z -0.010930 -0.069990 1.772020 
# 
# From -- ./inp_files/401840.got.cif
#   From: 2010.05.17/outbox.cif.g08.bks.cpg/sg2_201_cif.got.tgz:401840.got - 2010.06.03 11:33:40.
