data_PCOD9079111
_publ_section_title
;
Structure prediction by ZEFSAII (Michael W. Deem and Ramdas Pophale) SiO2 
 PCOD9079111
Probable space group: P -1
;
_chemical_formula_sum "Si O2"
_cell_formula_units_Z 14
_cell_length_a 21.132781
_cell_length_b 9.208593
_cell_length_c 9.914927
_cell_angle_alpha 52.666478
_cell_angle_beta 43.283357
_cell_angle_gamma 31.695962
_cell_volume 694.598751
_symmetry_space_group_name_H-M "P -1"
_symmetry_group_IT_number 2
_symmetry_cell_setting 'triclinic'
loop_
_space_group_symop_operation_xyz
x,y,z
-x,-y,-z
loop_
_atom_site_type_symbol
_atom_site_label
_atom_site_fract_x
_atom_site_fract_y
_atom_site_fract_z
Si Si1 0.155712 0.778490 0.437701
Si Si2 0.676548 0.784890 0.602765
Si Si3 0.189697 0.368052 0.233003
Si Si4 0.413491 0.928037 0.922533
Si Si5 0.634716 0.331810 0.030779
Si Si6 0.119089 0.056973 0.606191
Si Si7 0.340855 0.760141 0.651480
O O1 0.217958 0.483745 0.503042
O O2 0.253753 0.748395 0.200726
O O3 0.153910 0.874283 0.531096
O O4 0.000000 0.000000 0.500000
O O5 0.723645 0.685133 0.742563
O O6 0.526004 0.920133 0.734869
O O7 0.681657 0.989339 0.450986
O O8 0.151494 0.216947 0.419674
O O9 0.047060 0.691966 0.248942
O O10 0.283145 0.205728 0.046844
O O11 0.490883 0.657710 0.046689
O O12 0.382246 0.855556 0.878743
O O13 0.674931 0.293914 0.144104
O O14 0.223189 0.858152 0.678794
O O15 0.500000 0.500000 0.500000
#
# Coordination Sequence:
#
# PCOD9079111 Si02
#       7
#     2   2   2   2   2   2   2
#     4  11  21  42  68  95 123 162 218 261 299 380
#     4  10  22  36  67  93 124 159 217 254 310 362
#     4  10  18  36  62  92 118 164 214 252 304 371
#     4  10  20  37  66  93 121 161 222 256 297 377
#     4  10  22  39  65  93 124 168 206 257 323 366
#     4  10  21  38  63  88 126 168 205 255 317 366
#     4  11  25  43  62  93 135 165 200 262 326 371
#
# _framework density 20.155521
#
# number of rings (size 3 to 8) (size 9 to 14) (size 15 to 20)
#    0.000    1.714    2.857    2.143    4.000    1.714 
#    0.000    3.571    0.000    0.000    0.000    0.000 
#    0.000    0.000    0.000    0.000    0.000    0.000 
#
# Total GULP energy -78219.702628 kJ/mol
# GULP energy per Si atom -5587.121616 kJ/mol
# Density = 2.010965 g / cm^3
# Si number density = 20.155521 Si / 1000 Ang^3
#
#
#
# Elastic Constant Matrix: (Units=GPa)
#
#
# Indices 1 2 3 4 5 6 
#
# 1 120.0472 43.4493 34.8662 7.2454 25.6689 3.7478
# 2 43.4493 102.3345 47.7684 33.1098 20.1507 2.8644
# 3 34.8662 47.7684 50.1145 24.0853 16.7500 -5.2488
# 4 7.2454 33.1098 24.0853 32.1878 0.3536 1.2248
# 5 25.6689 20.1507 16.7500 0.3536 39.2431 -0.1614
# 6 3.7478 2.8644 -5.2488 1.2248 -0.1614 38.0249
#
#
#
# Elastic Compliance Matrix: (Units=1/GPa)
#
#
# Indices 1 2 3 4 5 6 
#
# 1 0.011968 -0.002693 -0.007869 0.006085 -0.003151 -0.002272
# 2 -0.002693 0.021022 -0.010849 -0.012761 -0.004297 -0.002423
# 3 -0.007869 -0.010849 0.054316 -0.027957 -0.012173 0.009939
# 4 0.006085 -0.012761 -0.027957 0.063799 0.013907 -0.005494
# 5 -0.003151 -0.004297 -0.012173 0.013907 0.034815 -0.001346
# 6 -0.002272 -0.002423 0.009939 -0.005494 -0.001346 0.028248
#
#
# Mechanical properties :
#
#
# Convention : Reuss Voigt Hill
#
# Bulk Modulus (GPa) = 22.48015 58.29598 40.38807
# Shear Modulus (GPa) = 18.39475 31.65198 25.02336
#
# Velocity S-wave (km/s) = 3.02427 3.96711 3.52734
# Velocity P-wave (km/s) = 4.83451 7.06893 6.05567
#
# Compressibility (1/GPa) = 0.04448368
#
# Stress axis : x y z
#
# Youngs Moduli (GPa) = 83.55962 47.56910 18.41092
#
# Poissons Ratio (x) = 0.12810 0.14487
# Poissons Ratio (y) = 0.22503 0.19974
# Poissons Ratio (z) = 0.65752 0.51607
#
# Static dielectric constant tensor:
#      x y z
#    x 1.737870 -0.018760 -0.003600 
#    y -0.018760 1.744770 -0.018990 
#    z -0.003600 -0.018990 1.705180 
# 
# From -- ./inp_files/175890.got.cif
#   From: 2010.05.17/outbox.cif.g08.bks.cpg/sg2_88_cif.got.tgz:175890.got - 2010.06.03 11:33:40.
