data_PCOD9079746
_publ_section_title
;
Structure prediction by ZEFSAII (Michael W. Deem and Ramdas Pophale) SiO2 
 PCOD9079746
Probable space group: P -1
;
_chemical_formula_sum "Si O2"
_cell_formula_units_Z 16
_cell_length_a 11.581189
_cell_length_b 8.167823
_cell_length_c 12.593058
_cell_angle_alpha 116.705541
_cell_angle_beta 116.591327
_cell_angle_gamma 107.191306
_cell_volume 745.245240
_symmetry_space_group_name_H-M "P -1"
_symmetry_group_IT_number 2
_symmetry_cell_setting 'triclinic'
loop_
_space_group_symop_operation_xyz
x,y,z
-x,-y,-z
loop_
_atom_site_type_symbol
_atom_site_label
_atom_site_fract_x
_atom_site_fract_y
_atom_site_fract_z
Si Si1 0.374934 0.365840 0.312764
Si Si2 0.073060 0.897003 0.071630
Si Si3 0.525148 0.436379 0.824043
Si Si4 0.379721 0.995749 0.530836
Si Si5 0.112847 0.459031 0.265283
Si Si6 0.972737 0.279122 0.373221
Si Si7 0.768046 0.766268 0.205193
Si Si8 0.893658 0.974251 0.637669
O O1 0.500000 0.500000 0.500000
O O2 0.435709 0.446410 0.241169
O O3 0.245988 0.414865 0.297832
O O4 0.269815 0.085768 0.194396
O O5 0.042793 0.916938 0.187112
O O6 0.985101 0.638695 0.914874
O O7 0.000000 0.000000 0.000000
O O8 0.492691 0.190816 0.722253
O O9 0.356748 0.360728 0.786164
O O10 0.671354 0.606259 0.016113
O O11 0.500000 0.000000 0.500000
O O12 0.228352 0.731092 0.420847
O O13 0.276435 0.074541 0.462987
O O14 0.978766 0.309962 0.258082
O O15 0.000000 0.500000 0.500000
O O16 0.117894 0.255838 0.444093
O O17 0.817684 0.023364 0.276698
O O18 0.948933 0.835766 0.315892
#
# Coordination Sequence:
#
# PCOD9079746 Si02
#       8
#     2   2   2   2   2   2   2   2
#     4  11  20  35  62  95 127 168 219 270 330 381
#     4  10  18  37  64  89 125 171 217 269 323 391
#     4  11  21  39  63  94 134 173 211 268 333 392
#     4  12  26  39  60  99 135 169 216 280 335 383
#     4  11  22  38  60  90 128 170 216 273 327 378
#     4  10  20  40  68  92 121 166 225 266 315 398
#     4   9  21  41  68  90 126 180 214 261 330 398
#     4  10  22  41  64  96 126 176 219 258 336 395
#
# _framework density 21.469442000000001
#
# number of rings (size 3 to 8) (size 9 to 14) (size 15 to 20)
#    0.750    0.750    3.750    3.750    0.000    1.000 
#    0.000    0.000    0.000    0.750    0.000    0.000 
#    0.000    0.000    0.000    0.000    0.000    0.000 
#
# Total GULP energy -89140.529869 kJ/mol
# GULP energy per Si atom -5571.283117 kJ/mol
# Density = 2.142058 g / cm^3
# Si number density = 21.469442 Si / 1000 Ang^3
#
#
#
# Elastic Constant Matrix: (Units=GPa)
#
#
# Indices 1 2 3 4 5 6 
#
# 1 108.6664 22.7076 38.6901 -4.6164 -7.6801 12.5213
# 2 22.7076 43.0979 29.3714 14.0004 -6.2737 15.4827
# 3 38.6901 29.3714 141.5199 18.0574 -14.5524 -1.3551
# 4 -4.6164 14.0004 18.0574 36.6344 5.3515 -4.8668
# 5 -7.6801 -6.2737 -14.5524 5.3515 30.0197 2.3671
# 6 12.5213 15.4827 -1.3551 -4.8668 2.3671 42.0872
#
#
#
# Elastic Compliance Matrix: (Units=1/GPa)
#
#
# Indices 1 2 3 4 5 6 
#
# 1 0.011610 -0.005579 -0.002670 0.004831 -0.000279 -0.000913
# 2 -0.005579 0.042471 -0.004024 -0.018668 0.010152 -0.016823
# 3 -0.002670 -0.004024 0.009498 -0.003747 0.003594 0.001945
# 4 0.004831 -0.018668 -0.003747 0.040124 -0.012474 0.010651
# 5 -0.000279 0.010152 0.003594 -0.012474 0.039897 -0.007222
# 6 -0.000913 -0.016823 0.001945 0.010651 -0.007222 0.031921
#
#
# Mechanical properties :
#
#
# Convention : Reuss Voigt Hill
#
# Bulk Modulus (GPa) = 25.62034 52.75803 39.18919
# Shear Modulus (GPa) = 23.46556 35.24929 29.35742
#
# Velocity S-wave (km/s) = 3.30960 4.05635 3.70186
# Velocity P-wave (km/s) = 5.15402 6.82390 6.04688
#
# Compressibility (1/GPa) = 0.03903149
#
# Stress axis : x y z
#
# Youngs Moduli (GPa) = 86.13536 23.54535 105.28995
#
# Poissons Ratio (x) = 0.13136 0.28111
# Poissons Ratio (y) = 0.48057 0.42373
# Poissons Ratio (z) = 0.22997 0.09476
#
# Static dielectric constant tensor:
#      x y z
#    x 2.217420 -0.588300 0.345640 
#    y -0.588300 2.747510 -0.427900 
#    z 0.345640 -0.427900 2.146880 
# 
# From -- ./inp_files/418221.got.cif
#   From: 2010.05.17/outbox.cif.g08.bks.cpg/sg2_210_cif.got.tgz:418221.got - 2010.06.03 11:33:40.
