data_PCOD9079792
_publ_section_title
;
Structure prediction by ZEFSAII (Michael W. Deem and Ramdas Pophale) SiO2 
 PCOD9079792
Probable space group: P -1
;
_chemical_formula_sum "Si O2"
_cell_formula_units_Z 16
_cell_length_a 13.425709
_cell_length_b 14.650526
_cell_length_c 7.423849
_cell_angle_alpha 107.907467
_cell_angle_beta 71.211638
_cell_angle_gamma 47.035749
_cell_volume 656.674102
_symmetry_space_group_name_H-M "P -1"
_symmetry_group_IT_number 2
_symmetry_cell_setting 'triclinic'
loop_
_space_group_symop_operation_xyz
x,y,z
-x,-y,-z
loop_
_atom_site_type_symbol
_atom_site_label
_atom_site_fract_x
_atom_site_fract_y
_atom_site_fract_z
Si Si1 0.110990 0.641058 0.894579
Si Si2 0.423708 0.416210 0.104889
Si Si3 0.288802 0.672066 0.609597
Si Si4 0.836062 0.604182 0.365024
Si Si5 0.462205 0.864265 0.003595
Si Si6 0.025526 0.295162 0.593821
Si Si7 0.453511 0.147985 0.640202
Si Si8 0.590352 0.235153 0.515003
O O1 0.119200 0.733073 0.832958
O O2 0.058127 0.583814 0.785591
O O3 0.357464 0.432676 0.683531
O O4 0.985539 0.736854 0.213815
O O5 0.372380 0.558458 0.306463
O O6 0.193129 0.558427 0.279241
O O7 0.528624 0.258534 0.086420
O O8 0.561254 0.295777 0.773314
O O9 0.500000 0.500000 0.500000
O O10 0.248796 0.817034 0.698717
O O11 0.950697 0.609575 0.360142
O O12 0.760368 0.670056 0.240805
O O13 0.621747 0.776315 0.710054
O O14 0.542416 0.831293 0.137353
O O15 0.228228 0.088759 0.257974
O O16 0.612305 0.102628 0.434034
O O17 0.500000 0.000000 0.500000
#
# Coordination Sequence:
#
# PCOD9079792 Si02
#       8
#     2   2   2   2   2   2   2   2
#     4   9  19  36  59  92 128 165 219 268 328 383
#     4  10  21  40  63  96 127 168 226 268 331 394
#     4  10  18  37  65  93 118 173 220 267 330 395
#     4  11  21  41  63  95 134 178 223 266 329 402
#     4  11  23  42  65  97 134 180 221 265 338 394
#     4  11  23  39  62  96 138 168 218 281 325 393
#     4  10  20  37  61  97 128 167 219 259 324 391
#     4   8  18  33  63  89 119 167 218 263 317 391
#
# _framework density 24.365207000000002
#
# number of rings (size 3 to 8) (size 9 to 14) (size 15 to 20)
#    0.000    2.000    2.500    1.875    0.000    0.500 
#    4.500    0.000    0.000   22.500    0.000    0.000 
#    0.000    0.000    0.000    0.000    0.000    0.000 
#
# Total GULP energy -89414.396037 kJ/mol
# GULP energy per Si atom -5588.399752 kJ/mol
# Density = 2.430975 g / cm^3
# Si number density = 24.365207 Si / 1000 Ang^3
#
#
#
# Elastic Constant Matrix: (Units=GPa)
#
#
# Indices 1 2 3 4 5 6 
#
# 1 114.0327 45.4061 17.9191 -0.3842 -0.6668 46.1607
# 2 45.4061 88.6085 23.8618 7.0231 -5.8801 46.6401
# 3 17.9191 23.8618 90.5660 -4.6280 -2.9785 20.0560
# 4 -0.3842 7.0231 -4.6280 33.6094 0.5257 -0.3817
# 5 -0.6668 -5.8801 -2.9785 0.5257 27.9697 -2.6464
# 6 46.1607 46.6401 20.0560 -0.3817 -2.6464 52.7132
#
#
#
# Elastic Compliance Matrix: (Units=1/GPa)
#
#
# Indices 1 2 3 4 5 6 
#
# 1 0.013698 -0.001457 0.000044 0.000360 -0.001001 -0.010771
# 2 -0.001457 0.022536 -0.001869 -0.005232 0.002914 -0.017844
# 3 0.000044 -0.001869 0.012320 0.002044 0.000595 -0.003028
# 4 0.000360 -0.005232 0.002044 0.031192 -0.001109 0.003706
# 5 -0.001001 0.002914 0.000595 -0.001109 0.036416 -0.000108
# 6 -0.010771 -0.017844 -0.003028 0.003706 -0.000108 0.045364
#
#
# Mechanical properties :
#
#
# Convention : Reuss Voigt Hill
#
# Bulk Modulus (GPa) = 23.81515 51.95348 37.88432
# Shear Modulus (GPa) = 27.45952 36.59313 32.02632
#
# Velocity S-wave (km/s) = 3.36072 3.87959 3.62944
# Velocity P-wave (km/s) = 4.98545 6.43719 5.75726
#
# Compressibility (1/GPa) = 0.04199007
#
# Stress axis : x y z
#
# Youngs Moduli (GPa) = 73.00376 44.37310 81.16953
#
# Poissons Ratio (x) = 0.06465 -0.00360
# Poissons Ratio (y) = 0.10637 0.15173
# Poissons Ratio (z) = -0.00324 0.08295
#
# Static dielectric constant tensor:
#      x y z
#    x 1.932210 0.026760 0.001720 
#    y 0.026760 2.008280 -0.016120 
#    z 0.001720 -0.016120 1.990180 
# 
# From -- ./inp_files/311666.got.cif
#   From: 2010.05.17/outbox.cif.g08.bks.cpg/sg2_156_cif.got.tgz:311666.got - 2010.06.03 11:33:40.
