data_PCOD9079825
_publ_section_title
;
Structure prediction by ZEFSAII (Michael W. Deem and Ramdas Pophale) SiO2 
 PCOD9079825
Probable space group: P -1
;
_chemical_formula_sum "Si O2"
_cell_formula_units_Z 16
_cell_length_a 8.115419
_cell_length_b 15.730120
_cell_length_c 9.018246
_cell_angle_alpha 122.958993
_cell_angle_beta 56.039439
_cell_angle_gamma 89.004840
_cell_volume 710.701731
_symmetry_space_group_name_H-M "P -1"
_symmetry_group_IT_number 2
_symmetry_cell_setting 'triclinic'
loop_
_space_group_symop_operation_xyz
x,y,z
-x,-y,-z
loop_
_atom_site_type_symbol
_atom_site_label
_atom_site_fract_x
_atom_site_fract_y
_atom_site_fract_z
Si Si1 0.999985 0.618292 0.098799
Si Si2 0.685315 0.782716 0.615513
Si Si3 0.960150 0.747827 0.967451
Si Si4 0.188505 0.370043 0.310355
Si Si5 0.687041 0.280289 0.872642
Si Si6 0.268603 0.909654 0.528804
Si Si7 0.370970 0.071768 0.456141
Si Si8 0.190944 0.874532 0.048331
O O1 0.170471 0.649363 0.136255
O O2 0.749385 0.707737 0.361499
O O3 0.000000 0.500000 0.000000
O O4 0.055030 0.638396 0.923087
O O5 0.808593 0.684062 0.581464
O O6 0.725389 0.883951 0.616935
O O7 0.437744 0.851283 0.866718
O O8 0.853320 0.715991 0.856151
O O9 0.137169 0.793171 0.886747
O O10 0.785943 0.846819 0.256218
O O11 0.000000 0.500000 0.500000
O O12 0.434004 0.355565 0.130174
O O13 0.688782 0.215937 0.658398
O O14 0.803337 0.180966 0.845255
O O15 0.393461 0.927261 0.626980
O O16 0.372083 0.953518 0.383231
O O17 0.006625 0.998499 0.748709
#
# Coordination Sequence:
#
# PCOD9079825 Si02
#       8
#     2   2   2   2   2   2   2   2
#     4  10  21  40  63  85 118 163 207 251 303 355
#     4  10  22  40  57  95 128 151 207 266 299 345
#     4   9  18  38  60  84 118 166 198 241 301 382
#     4  11  22  39  62  89 123 163 207 257 312 353
#     4  10  21  39  63  91 120 163 208 246 297 384
#     4  10  18  37  66  89 120 168 208 230 309 384
#     4   9  19  36  65  89 122 164 201 248 298 371
#     4   9  20  35  61  89 125 159 199 245 311 364
#
# _framework density 22.512958999999999
#
# number of rings (size 3 to 8) (size 9 to 14) (size 15 to 20)
#    0.000    2.250    1.250    1.875    0.000    1.500 
#    2.250   11.875    0.000    0.000    0.000    0.000 
#    0.000    0.000    0.000    0.000    0.000    0.000 
#
# Total GULP energy -89133.590811 kJ/mol
# GULP energy per Si atom -5570.849426 kJ/mol
# Density = 2.246172 g / cm^3
# Si number density = 22.512959 Si / 1000 Ang^3
#
#
#
# Elastic Constant Matrix: (Units=GPa)
#
#
# Indices 1 2 3 4 5 6 
#
# 1 73.6362 24.5695 27.7947 11.6595 -3.8845 0.1773
# 2 24.5695 95.8663 21.3205 5.9689 6.5252 -2.4172
# 3 27.7947 21.3205 61.7086 3.3761 -12.4371 1.3279
# 4 11.6595 5.9689 3.3761 26.7506 0.1581 0.3498
# 5 -3.8845 6.5252 -12.4371 0.1581 31.5979 14.4833
# 6 0.1773 -2.4172 1.3279 0.3498 14.4833 32.2412
#
#
#
# Elastic Compliance Matrix: (Units=1/GPa)
#
#
# Indices 1 2 3 4 5 6 
#
# 1 0.018090 -0.002729 -0.006826 -0.006415 0.000140 -0.000016
# 2 -0.002729 0.012772 -0.004558 -0.001100 -0.006673 0.004170
# 3 -0.006826 -0.004558 0.023463 0.001047 0.012492 -0.006893
# 4 -0.006415 -0.001100 0.001047 0.040299 -0.000137 -0.000466
# 5 0.000140 -0.006673 0.012492 -0.000137 0.048389 -0.022751
# 6 -0.000016 0.004170 -0.006893 -0.000466 -0.022751 0.041838
#
#
# Mechanical properties :
#
#
# Convention : Reuss Voigt Hill
#
# Bulk Modulus (GPa) = 38.31381 42.06452 40.18916
# Shear Modulus (GPa) = 22.54517 28.61970 25.58243
#
# Velocity S-wave (km/s) = 3.16797 3.56933 3.37463
# Velocity P-wave (km/s) = 5.51696 5.97595 5.75104
#
# Compressibility (1/GPa) = 0.02610025
#
# Stress axis : x y z
#
# Youngs Moduli (GPa) = 55.27765 78.29548 42.61985
#
# Poissons Ratio (x) = 0.21366 0.29092
# Poissons Ratio (y) = 0.15085 0.19426
# Poissons Ratio (z) = 0.37732 0.35688
#
# Static dielectric constant tensor:
#      x y z
#    x 1.963160 -0.028980 -0.024060 
#    y -0.028980 1.971980 0.032330 
#    z -0.024060 0.032330 1.847550 
# 
# From -- ./inp_files/218538.got.cif
#   From: 2010.05.17/outbox.cif.g08.bks.cpg/sg2_110_cif.got.tgz:218538.got - 2010.06.03 11:33:40.
