data_PCOD9079180
_publ_section_title
;
Structure prediction by ZEFSAII (Michael W. Deem and Ramdas Pophale) SiO2 
 PCOD9079180
Probable space group: P -1
;
_chemical_formula_sum "Si O2"
_cell_formula_units_Z 16
_cell_length_a 7.683337
_cell_length_b 8.137056
_cell_length_c 12.268298
_cell_angle_alpha 104.300144
_cell_angle_beta 98.760499
_cell_angle_gamma 66.764452
_cell_volume 681.663589
_symmetry_space_group_name_H-M "P -1"
_symmetry_group_IT_number 2
_symmetry_cell_setting 'triclinic'
loop_
_space_group_symop_operation_xyz
x,y,z
-x,-y,-z
loop_
_atom_site_type_symbol
_atom_site_label
_atom_site_fract_x
_atom_site_fract_y
_atom_site_fract_z
Si Si1 0.358902 0.222207 0.394617
Si Si2 0.786476 0.051074 0.948791
Si Si3 0.890522 0.782431 0.430921
Si Si4 0.828562 0.658394 0.826419
Si Si5 0.433927 0.352138 0.029636
Si Si6 0.778584 0.622292 0.191397
Si Si7 0.615328 0.187543 0.724869
Si Si8 0.263276 0.783101 0.497492
O O1 0.221631 0.328583 0.302840
O O2 0.538369 0.281828 0.431750
O O3 0.746428 0.746739 0.494810
O O4 0.416622 0.004117 0.336751
O O5 0.630137 0.182577 0.037742
O O6 0.742450 0.144896 0.839453
O O7 0.754972 0.863820 0.897674
O O8 0.000000 0.000000 0.000000
O O9 0.883043 0.712911 0.297450
O O10 0.099094 0.707985 0.492724
O O11 0.823541 0.000403 0.451145
O O12 0.054263 0.568939 0.849759
O O13 0.703178 0.570921 0.868678
O O14 0.307539 0.294164 0.919172
O O15 0.500000 0.500000 0.000000
O O16 0.585509 0.651265 0.242750
O O17 0.703504 0.231249 0.631557
#
# Coordination Sequence:
#
# PCOD9079180 Si02
#       8
#     2   2   2   2   2   2   2   2
#     4  10  19  41  60  88 137 162 215 274 316 383
#     4  10  22  42  67  98 129 164 215 276 331 388
#     4  10  20  35  63  97 122 176 219 260 326 386
#     4  11  25  42  64  97 130 173 209 274 341 374
#     4  11  25  46  68  93 127 173 221 267 325 400
#     4  11  21  39  66  88 128 167 217 267 318 392
#     4   9  18  36  63  90 127 174 211 262 320 383
#     4  10  18  36  63  94 128 172 225 258 317 397
#
# _framework density 23.471986999999999
#
# number of rings (size 3 to 8) (size 9 to 14) (size 15 to 20)
#    0.000    1.750    2.500    2.250    0.000    3.500 
#   11.250    0.625    0.000    0.000    0.000    0.000 
#    0.000    0.000    0.000    0.000    0.000    0.000 
#
# Total GULP energy -89387.531306 kJ/mol
# GULP energy per Si atom -5586.720707 kJ/mol
# Density = 2.341856 g / cm^3
# Si number density = 23.471987 Si / 1000 Ang^3
#
#
#
# Elastic Constant Matrix: (Units=GPa)
#
#
# Indices 1 2 3 4 5 6 
#
# 1 48.8851 35.4109 24.1937 -10.1377 17.0816 -16.0462
# 2 35.4109 86.9684 4.5720 -0.8534 2.7814 -22.5049
# 3 24.1937 4.5720 93.8296 -14.6700 11.4458 -8.6078
# 4 -10.1377 -0.8534 -14.6700 35.9840 -18.3528 7.7426
# 5 17.0816 2.7814 11.4458 -18.3528 37.6157 -10.6312
# 6 -16.0462 -22.5049 -8.6078 7.7426 -10.6312 31.0742
#
#
#
# Elastic Compliance Matrix: (Units=1/GPa)
#
#
# Indices 1 2 3 4 5 6 
#
# 1 0.041433 -0.015135 -0.007881 0.000082 -0.014316 0.003333
# 2 -0.015135 0.019870 0.002818 -0.001377 0.006698 0.009991
# 3 -0.007881 0.002818 0.013052 0.003696 0.001539 0.001193
# 4 0.000082 -0.001377 0.003696 0.038633 0.016703 -0.003843
# 5 -0.014316 0.006698 0.001539 0.016703 0.042618 0.008303
# 6 0.003333 0.009991 0.001193 -0.003843 0.008303 0.045266
#
#
# Mechanical properties :
#
#
# Convention : Reuss Voigt Hill
#
# Bulk Modulus (GPa) = 29.44606 39.78182 34.61394
# Shear Modulus (GPa) = 19.79509 31.96856 25.88183
#
# Velocity S-wave (km/s) = 2.90720 3.69452 3.32425
# Velocity P-wave (km/s) = 4.88278 5.93167 5.43260
#
# Compressibility (1/GPa) = 0.03396040
#
# Stress axis : x y z
#
# Youngs Moduli (GPa) = 24.13527 50.32634 76.61738
#
# Poissons Ratio (x) = 0.76168 0.60382
# Poissons Ratio (y) = 0.36529 -0.21594
# Poissons Ratio (z) = 0.19021 -0.14184
#
# Static dielectric constant tensor:
#      x y z
#    x 1.895970 0.010950 0.026250 
#    y 0.010950 1.941320 0.043200 
#    z 0.026250 0.043200 1.887520 
# 
# From -- ./inp_files/477105.got.cif
#   From: 2010.05.17/outbox.cif.g08.bks.cpg/sg2_239_cif.got.tgz:477105.got - 2010.06.03 11:33:40.
