data_PCOD9079576
_publ_section_title
;
Structure prediction by ZEFSAII (Michael W. Deem and Ramdas Pophale) SiO2 
 PCOD9079576
Probable space group: P -1
;
_chemical_formula_sum "Si O2"
_cell_formula_units_Z 16
_cell_length_a 11.994539
_cell_length_b 9.175101
_cell_length_c 10.649668
_cell_angle_alpha 57.353231
_cell_angle_beta 112.784932
_cell_angle_gamma 132.025962
_cell_volume 732.429813
_symmetry_space_group_name_H-M "P -1"
_symmetry_group_IT_number 2
_symmetry_cell_setting 'triclinic'
loop_
_space_group_symop_operation_xyz
x,y,z
-x,-y,-z
loop_
_atom_site_type_symbol
_atom_site_label
_atom_site_fract_x
_atom_site_fract_y
_atom_site_fract_z
Si Si1 0.785740 0.040718 0.658542
Si Si2 0.583941 0.163167 0.575906
Si Si3 0.975625 0.381689 0.410625
Si Si4 0.410271 0.817803 0.149075
Si Si5 0.018174 0.966176 0.802626
Si Si6 0.752607 0.648595 0.437311
Si Si7 0.295312 0.346193 0.310631
Si Si8 0.065473 0.648045 0.083721
O O1 0.724500 0.148961 0.657253
O O2 0.826976 0.147266 0.488166
O O3 0.500000 0.000000 0.500000
O O4 0.934836 0.072103 0.761625
O O5 0.519274 0.113832 0.711584
O O6 0.639422 0.403533 0.454555
O O7 0.329544 0.213373 0.297555
O O8 0.977324 0.502475 0.234441
O O9 0.000000 0.500000 0.500000
O O10 0.105270 0.350726 0.462971
O O11 0.387595 0.596781 0.206574
O O12 0.240524 0.746035 0.117002
O O13 0.500000 0.000000 0.000000
O O14 0.884876 0.785415 0.734912
O O15 0.045621 0.836579 0.971034
O O16 0.173226 0.151627 0.717075
O O17 0.689207 0.675459 0.524736
O O18 0.000000 0.500000 0.000000
#
# Coordination Sequence:
#
# PCOD9079576 Si02
#       8
#     2   2   2   2   2   2   2   2
#     4   9  20  37  66  96 127 160 211 276 326 379
#     4  11  23  45  67  89 124 185 228 256 312 404
#     4  11  19  35  65  91 129 169 201 260 335 377
#     4  11  24  45  64  91 138 181 214 265 325 388
#     4   9  20  33  64 101 131 154 208 276 341 371
#     4  10  18  37  61  91 126 168 210 263 317 388
#     4   9  18  37  63  91 129 167 208 262 328 377
#     4  12  21  38  67 102 133 165 217 270 327 392
#
# _framework density 21.845098
#
# number of rings (size 3 to 8) (size 9 to 14) (size 15 to 20)
#    0.750    1.000    5.000    0.375    1.750    1.000 
#    2.250    7.500    2.750    0.000    0.000    0.000 
#    0.000    0.000    0.000    0.000    0.000    0.000 
#
# Total GULP energy -89177.929541 kJ/mol
# GULP energy per Si atom -5573.620596 kJ/mol
# Density = 2.179538 g / cm^3
# Si number density = 21.845098 Si / 1000 Ang^3
#
#
#
# Elastic Constant Matrix: (Units=GPa)
#
#
# Indices 1 2 3 4 5 6 
#
# 1 37.1910 2.6353 24.9984 -3.0752 -6.1842 -5.6961
# 2 2.6353 105.2848 46.8478 -5.8255 -27.8235 -15.8229
# 3 24.9984 46.8478 165.5950 -32.6349 -17.7674 -11.5608
# 4 -3.0752 -5.8255 -32.6349 37.8983 -0.5529 1.8893
# 5 -6.1842 -27.8235 -17.7674 -0.5529 31.1392 1.3009
# 6 -5.6961 -15.8229 -11.5608 1.8893 1.3009 24.0056
#
#
#
# Elastic Compliance Matrix: (Units=1/GPa)
#
#
# Indices 1 2 3 4 5 6 
#
# 1 0.032266 0.004442 -0.005084 -0.001364 0.007124 0.007857
# 2 0.004442 0.015424 -0.003099 -0.000207 0.012513 0.009066
# 3 -0.005084 -0.003099 0.009301 0.007115 0.001630 0.000582
# 4 -0.001364 -0.000207 0.007115 0.032422 0.004171 0.000188
# 5 0.007124 0.012513 0.001630 0.004171 0.045382 0.007935
# 6 0.007857 0.009066 0.000582 0.000188 0.007935 0.049332
#
#
# Mechanical properties :
#
#
# Convention : Reuss Voigt Hill
#
# Bulk Modulus (GPa) = 20.19833 50.78155 35.48994
# Shear Modulus (GPa) = 24.02570 34.18124 29.10347
#
# Velocity S-wave (km/s) = 3.31995 3.95993 3.65398
# Velocity P-wave (km/s) = 4.89514 6.64867 5.83811
#
# Compressibility (1/GPa) = 0.04950905
#
# Stress axis : x y z
#
# Youngs Moduli (GPa) = 30.99272 64.83490 107.51792
#
# Poissons Ratio (x) = -0.28803 0.54658
# Poissons Ratio (y) = -0.13768 0.33325
# Poissons Ratio (z) = 0.15755 0.20095
#
# Static dielectric constant tensor:
#      x y z
#    x 1.868790 0.046320 0.046620 
#    y 0.046320 1.917610 0.011080 
#    z 0.046620 0.011080 1.802120 
# 
# From -- ./inp_files/262275.got.cif
#   From: 2010.05.17/outbox.cif.g08.bks.cpg/sg2_132_cif.got.tgz:262275.got - 2010.06.03 11:33:40.
