data_PCOD9079375
_publ_section_title
;
Structure prediction by ZEFSAII (Michael W. Deem and Ramdas Pophale) SiO2 
 PCOD9079375
Probable space group: P -1
;
_chemical_formula_sum "Si O2"
_cell_formula_units_Z 13
_cell_length_a 9.552328
_cell_length_b 9.652663
_cell_length_c 10.359727
_cell_angle_alpha 76.987679
_cell_angle_beta 45.278709
_cell_angle_gamma 108.480022
_cell_volume 480.709847
_symmetry_space_group_name_H-M "P -1"
_symmetry_group_IT_number 2
_symmetry_cell_setting 'triclinic'
loop_
_space_group_symop_operation_xyz
x,y,z
-x,-y,-z
loop_
_atom_site_type_symbol
_atom_site_label
_atom_site_fract_x
_atom_site_fract_y
_atom_site_fract_z
Si Si1 0.586065 0.696283 0.851493
Si Si2 0.952581 0.085311 0.126877
Si Si3 0.945076 0.829095 0.363242
Si Si4 0.500000 0.500000 0.500000
Si Si5 0.724040 0.269718 0.753521
Si Si6 0.870931 0.556017 0.988607
Si Si7 0.606610 0.212242 0.547798
O O1 0.489296 0.755679 0.011221
O O2 0.387139 0.630213 0.874671
O O3 0.500000 0.500000 0.000000
O O4 0.860786 0.806996 0.572515
O O5 0.169128 0.321096 0.926490
O O6 0.650594 0.987349 0.312844
O O7 0.994347 0.013560 0.241521
O O8 0.000000 0.000000 0.000000
O O9 0.175506 0.823377 0.222487
O O10 0.721071 0.657904 0.442923
O O11 0.584928 0.369139 0.494040
O O12 0.597243 0.188283 0.711734
O O13 0.000000 0.500000 0.500000
O O14 0.106885 0.710080 0.701391
O O15 0.000000 0.500000 0.000000
#
# Coordination Sequence:
#
# PCOD9079375 Si02
#       7
#     2   2   2   1   2   2   2
#     4  12  24  41  76 106 143 189 241 288 355 431
#     4  11  29  46  71 103 147 186 236 304 371 412
#     4  11  24  45  67 106 146 187 236 297 352 430
#     4  10  18  36  70  98 138 180 224 288 350 404
#     4  12  22  42  73 108 143 190 242 285 356 433
#     4  12  26  45  75 105 134 187 246 296 359 434
#     4  11  23  44  70 102 150 180 238 298 352 432
#
# _framework density 27.043340000000001
#
# number of rings (size 3 to 8) (size 9 to 14) (size 15 to 20)
#    0.000    0.615    4.615    2.308   12.923    0.000 
#    0.000    5.385    0.000    0.000    0.000    0.000 
#    0.000    0.000    0.000    0.000    0.000    0.000 
#
# Total GULP energy -72699.223455 kJ/mol
# GULP energy per Si atom -5592.247958 kJ/mol
# Density = 2.698179 g / cm^3
# Si number density = 27.043340 Si / 1000 Ang^3
#
#
#
# Elastic Constant Matrix: (Units=GPa)
#
#
# Indices 1 2 3 4 5 6 
#
# 1 167.9668 43.7503 7.1057 2.7656 5.7005 -9.3181
# 2 43.7503 137.2223 21.5666 10.0006 -1.5931 3.6402
# 3 7.1057 21.5666 70.2525 21.1942 -2.1197 1.6232
# 4 2.7656 10.0006 21.1942 62.2193 -3.3791 10.3262
# 5 5.7005 -1.5931 -2.1197 -3.3791 55.6324 -2.5013
# 6 -9.3181 3.6402 1.6232 10.3262 -2.5013 38.3328
#
#
#
# Elastic Compliance Matrix: (Units=1/GPa)
#
#
# Indices 1 2 3 4 5 6 
#
# 1 0.006645 -0.002157 0.000017 -0.000299 -0.000677 0.001856
# 2 -0.002157 0.008380 -0.002233 -0.000287 0.000308 -0.001128
# 3 0.000017 -0.002233 0.016541 -0.005426 0.000280 0.000996
# 4 -0.000299 -0.000287 -0.005426 0.018823 0.000741 -0.004838
# 5 -0.000677 0.000308 0.000280 0.000741 0.018144 0.000779
# 6 0.001856 -0.001128 0.000996 -0.004838 0.000779 0.027957
#
#
# Mechanical properties :
#
#
# Convention : Reuss Voigt Hill
#
# Bulk Modulus (GPa) = 43.81859 57.80965 50.81412
# Shear Modulus (GPa) = 44.30932 51.43817 47.87374
#
# Velocity S-wave (km/s) = 4.05218 4.36600 4.21201
# Velocity P-wave (km/s) = 6.17509 6.84390 6.51808
#
# Compressibility (1/GPa) = 0.02282137
#
# Stress axis : x y z
#
# Youngs Moduli (GPa) = 150.47890 119.32667 60.45755
#
# Poissons Ratio (x) = 0.25735 -0.00102
# Poissons Ratio (y) = 0.32454 0.13498
# Poissons Ratio (z) = -0.00254 0.26642
#
# Static dielectric constant tensor:
#      x y z
#    x 2.043700 0.030880 -0.146180 
#    y 0.030880 2.174640 0.018380 
#    z -0.146180 0.018380 2.409480 
# 
# From -- ./inp_files/378556.got.cif
#   From: 2010.05.17/outbox.cif.g08.bks.cpg/sg2_190_cif.got.tgz:378556.got - 2010.06.03 11:33:40.
