data_PCOD9079224
_publ_section_title
;
Structure prediction by ZEFSAII (Michael W. Deem and Ramdas Pophale) SiO2 
 PCOD9079224
Probable space group: P -1
;
_chemical_formula_sum "Si O2"
_cell_formula_units_Z 14
_cell_length_a 12.326713
_cell_length_b 12.773601
_cell_length_c 20.145808
_cell_angle_alpha 156.536821
_cell_angle_beta 145.513531
_cell_angle_gamma 46.836454
_cell_volume 677.647129
_symmetry_space_group_name_H-M "P -1"
_symmetry_group_IT_number 2
_symmetry_cell_setting 'triclinic'
loop_
_space_group_symop_operation_xyz
x,y,z
-x,-y,-z
loop_
_atom_site_type_symbol
_atom_site_label
_atom_site_fract_x
_atom_site_fract_y
_atom_site_fract_z
Si Si1 0.412615 0.465044 0.039036
Si Si2 0.798077 0.061633 0.295513
Si Si3 0.961595 0.177305 0.297209
Si Si4 0.781186 0.809576 0.355173
Si Si5 0.450087 0.189506 0.144415
Si Si6 0.257283 0.652588 0.288144
Si Si7 0.806624 0.201972 0.806290
O O1 0.301221 0.310184 0.827265
O O2 0.342713 0.247485 0.936928
O O3 0.648068 0.590104 0.214208
O O4 0.328621 0.713840 0.159177
O O5 0.643304 0.236677 0.316378
O O6 0.900108 0.074260 0.282051
O O7 0.984078 0.149322 0.490941
O O8 0.000000 0.500000 0.500000
O O9 0.154943 0.085085 0.326151
O O10 0.768718 0.011364 0.058844
O O11 0.738161 0.098634 0.515064
O O12 0.407829 0.473136 0.269691
O O13 0.500000 0.000000 0.000000
O O14 0.279183 0.780776 0.300035
O O15 0.030191 0.433350 0.052967
#
# Coordination Sequence:
#
# PCOD9079224 Si02
#       7
#     2   2   2   2   2   2   2
#     4  11  24  39  66  93 122 160 218 253 307 363
#     4  11  21  41  62  87 128 168 193 259 312 358
#     4  10  21  36  62  97 128 159 206 254 311 373
#     4  11  24  41  65  93 120 165 216 254 298 382
#     4   9  20  34  58  90 127 159 196 252 308 362
#     4  10  19  38  64  93 120 159 212 248 311 369
#     4  10  18  36  64  92 120 160 204 263 302 364
#
# _framework density 20.659721000000001
#
# number of rings (size 3 to 8) (size 9 to 14) (size 15 to 20)
#    0.000    1.714    2.857    3.000    2.000    2.857 
#    0.000    0.714    0.000    2.571    0.000    0.000 
#    0.000    0.000    0.000    0.000    0.000    0.000 
#
# Total GULP energy -78169.511025 kJ/mol
# GULP energy per Si atom -5583.536502 kJ/mol
# Density = 2.061270 g / cm^3
# Si number density = 20.659721 Si / 1000 Ang^3
#
#
#
# Elastic Constant Matrix: (Units=GPa)
#
#
# Indices 1 2 3 4 5 6 
#
# 1 58.9223 26.0334 22.6582 14.3754 -0.6981 -9.3788
# 2 26.0334 165.3669 52.7523 4.8520 -6.5485 -29.3395
# 3 22.6582 52.7523 82.7288 5.1012 3.2460 -4.1154
# 4 14.3754 4.8520 5.1012 26.1672 -2.9598 4.2039
# 5 -0.6981 -6.5485 3.2460 -2.9598 36.2593 7.9860
# 6 -9.3788 -29.3395 -4.1154 4.2039 7.9860 16.3737
#
#
#
# Elastic Compliance Matrix: (Units=1/GPa)
#
#
# Indices 1 2 3 4 5 6 
#
# 1 0.027055 0.002910 -0.006525 -0.019100 -0.005836 0.026822
# 2 0.002910 0.012387 -0.006862 -0.007036 -0.003295 0.025552
# 3 -0.006525 -0.006862 0.017399 0.003511 0.000146 -0.012632
# 4 -0.019100 -0.007036 0.003511 0.057713 0.012340 -0.043501
# 5 -0.005836 -0.003295 0.000146 0.012340 0.034274 -0.029094
# 6 0.026822 0.025552 -0.012632 -0.043501 -0.029094 0.144407
#
#
# Mechanical properties :
#
#
# Convention : Reuss Voigt Hill
#
# Bulk Modulus (GPa) = 27.86334 56.65620 42.25977
# Shear Modulus (GPa) = 15.33032 29.46499 22.39766
#
# Velocity S-wave (km/s) = 2.72699 3.78061 3.29617
# Velocity P-wave (km/s) = 4.84060 6.82205 5.91489
#
# Compressibility (1/GPa) = 0.03588945
#
# Stress axis : x y z
#
# Youngs Moduli (GPa) = 36.96215 80.72767 57.47310
#
# Poissons Ratio (x) = -0.23494 0.37499
# Poissons Ratio (y) = -0.10757 0.39436
# Poissons Ratio (z) = 0.24116 0.55393
#
# Static dielectric constant tensor:
#      x y z
#    x 1.749110 0.006100 0.020420 
#    y 0.006100 1.781630 -0.018450 
#    z 0.020420 -0.018450 1.787870 
# 
# From -- ./inp_files/610586.got.cif
#   From: 2010.05.17/outbox.cif.g08.bks.cpg/sg2_306_cif.got.tgz:610586.got - 2010.06.03 11:33:40.
