data_PCOD9079349
_publ_section_title
;
Structure prediction by ZEFSAII (Michael W. Deem and Ramdas Pophale) SiO2 
 PCOD9079349
Probable space group: P -1
;
_chemical_formula_sum "Si O2"
_cell_formula_units_Z 15
_cell_length_a 14.213275
_cell_length_b 10.883176
_cell_length_c 7.469809
_cell_angle_alpha 84.809562
_cell_angle_beta 91.182900
_cell_angle_gamma 30.744475
_cell_volume 577.175533
_symmetry_space_group_name_H-M "P -1"
_symmetry_group_IT_number 2
_symmetry_cell_setting 'triclinic'
loop_
_space_group_symop_operation_xyz
x,y,z
-x,-y,-z
loop_
_atom_site_type_symbol
_atom_site_label
_atom_site_fract_x
_atom_site_fract_y
_atom_site_fract_z
Si Si1 0.554643 0.259712 0.724532
Si Si2 0.000000 0.500000 0.000000
Si Si3 0.811508 0.263669 0.206683
Si Si4 0.964939 0.205601 0.659231
Si Si5 0.436145 0.897205 0.621427
Si Si6 0.947348 0.815842 0.931376
Si Si7 0.813559 0.623395 0.595188
Si Si8 0.627301 0.457540 0.788878
O O1 0.346816 0.468957 0.755682
O O2 0.585032 0.158510 0.552971
O O3 0.557007 0.406568 0.720735
O O4 0.733170 0.015985 0.879387
O O5 0.068093 0.558954 0.932935
O O6 0.917069 0.563235 0.779558
O O7 0.995763 0.136567 0.198205
O O8 0.874289 0.073715 0.348014
O O9 0.730674 0.317715 0.000978
O O10 0.930603 0.376401 0.546817
O O11 0.771321 0.351305 0.664034
O O12 0.016125 0.183131 0.867383
O O13 0.622218 0.771912 0.639277
O O14 0.476154 0.738662 0.779824
O O15 0.261233 0.189017 0.572010
#
# Coordination Sequence:
#
# PCOD9079349 Si02
#       8
#     2   1   2   2   2   2   2   2
#     4  12  21  35  62  92 123 161 200 251 313 367
#     4  10  18  36  68  88 106 170 214 242 290 366
#     4  11  21  36  62  96 122 152 209 265 292 352
#     4   9  17  34  60  86 119 156 202 257 293 342
#     4  10  21  37  59  91 126 162 199 250 318 366
#     4  10  19  35  60  90 120 152 207 252 300 351
#     4   9  19  35  62  86 117 163 211 242 299 370
#     4  10  19  36  59  86 124 164 200 247 309 366
#
# _framework density 25.988629
#
# number of rings (size 3 to 8) (size 9 to 14) (size 15 to 20)
#    0.000    1.867    4.000    2.400    0.000    0.000 
#    0.000    3.333    0.000    1.600    0.000    0.000 
#    0.000    0.000    0.000    0.000    0.000    0.000 
#
# Total GULP energy -83548.366329 kJ/mol
# GULP energy per Si atom -5569.891089 kJ/mol
# Density = 2.592948 g / cm^3
# Si number density = 25.988629 Si / 1000 Ang^3
#
#
#
# Elastic Constant Matrix: (Units=GPa)
#
#
# Indices 1 2 3 4 5 6 
#
# 1 86.7124 26.6553 29.6383 -0.8780 4.9347 21.9131
# 2 26.6553 72.2375 2.9824 -4.0653 -16.4427 8.7651
# 3 29.6383 2.9824 83.3762 -2.4739 32.6071 -0.0250
# 4 -0.8780 -4.0653 -2.4739 20.8476 9.9797 -5.6327
# 5 4.9347 -16.4427 32.6071 9.9797 30.6718 -10.1268
# 6 21.9131 8.7651 -0.0250 -5.6327 -10.1268 43.3242
#
#
#
# Elastic Compliance Matrix: (Units=1/GPa)
#
#
# Indices 1 2 3 4 5 6 
#
# 1 0.017312 -0.005978 -0.004760 -0.001791 -0.003160 -0.008521
# 2 -0.005978 0.021479 -0.009194 -0.008756 0.026316 0.003686
# 3 -0.004760 -0.009194 0.034427 0.025031 -0.050298 -0.004215
# 4 -0.001791 -0.008756 0.025031 0.075742 -0.055829 -0.000510
# 5 -0.003160 0.026316 -0.050298 -0.055829 0.124856 0.018171
# 6 -0.008521 0.003686 -0.004215 -0.000510 0.018171 0.030825
#
#
# Mechanical properties :
#
#
# Convention : Reuss Voigt Hill
#
# Bulk Modulus (GPa) = 29.98065 40.09758 35.03912
# Shear Modulus (GPa) = 14.05990 31.17204 22.61597
#
# Velocity S-wave (km/s) = 2.32847 3.46706 2.95316
# Velocity P-wave (km/s) = 4.33476 5.61157 5.01397
#
# Compressibility (1/GPa) = 0.03335484
#
# Stress axis : x y z
#
# Youngs Moduli (GPa) = 57.76341 46.55799 29.04691
#
# Poissons Ratio (x) = 0.27831 0.13826
# Poissons Ratio (y) = 0.34529 0.26705
# Poissons Ratio (z) = 0.27495 0.42804
#
# Static dielectric constant tensor:
#      x y z
#    x 2.011190 0.016220 -0.016650 
#    y 0.016220 2.195770 -0.073140 
#    z -0.016650 -0.073140 2.036370 
# 
# From -- ./inp_files/307560.got.cif
#   From: 2010.05.17/outbox.cif.g08.bks.cpg/sg2_154_cif.got.tgz:307560.got - 2010.06.03 11:33:40.
