data_PCOD9079683
_publ_section_title
;
Structure prediction by ZEFSAII (Michael W. Deem and Ramdas Pophale) SiO2 
 PCOD9079683
Probable space group: P -1
;
_chemical_formula_sum "Si O2"
_cell_formula_units_Z 16
_cell_length_a 12.284308
_cell_length_b 20.454959
_cell_length_c 8.711022
_cell_angle_alpha 127.220928
_cell_angle_beta 49.037251
_cell_angle_gamma 157.295620
_cell_volume 637.976190
_symmetry_space_group_name_H-M "P -1"
_symmetry_group_IT_number 2
_symmetry_cell_setting 'triclinic'
loop_
_space_group_symop_operation_xyz
x,y,z
-x,-y,-z
loop_
_atom_site_type_symbol
_atom_site_label
_atom_site_fract_x
_atom_site_fract_y
_atom_site_fract_z
Si Si1 0.307020 0.634615 0.624342
Si Si2 0.352157 0.084444 0.064880
Si Si3 0.268273 0.308103 0.254830
Si Si4 0.328863 0.243229 0.808039
Si Si5 0.619605 0.908292 0.302346
Si Si6 0.189894 0.831103 0.151493
Si Si7 0.739417 0.529140 0.375344
Si Si8 0.691825 0.195533 0.282110
O O1 0.447763 0.646435 0.382846
O O2 0.128568 0.487727 0.697541
O O3 0.189641 0.656742 0.675693
O O4 0.554488 0.799352 0.737588
O O5 0.428323 0.142509 0.900338
O O6 0.554482 0.106441 0.944610
O O7 0.001822 0.896665 0.133950
O O8 0.436902 0.358958 0.322076
O O9 0.306656 0.424760 0.388307
O O10 0.404740 0.335251 0.016052
O O11 0.920124 0.111680 0.305256
O O12 0.318254 0.143224 0.732514
O O13 0.354247 0.822865 0.518066
O O14 0.928264 0.672458 0.277435
O O15 0.346480 0.996624 0.273790
O O16 0.129080 0.778405 0.954736
#
# Coordination Sequence:
#
# PCOD9079683 Si02
#       8
#     2   2   2   2   2   2   2   2
#     4  10  21  37  61  87 117 150 192 240 286 341
#     4  10  20  34  61  93 111 151 192 243 288 335
#     4  10  21  37  59  85 119 156 190 232 294 340
#     4  10  20  37  60  90 118 144 195 249 284 330
#     4  10  18  37  63  88 116 144 199 245 283 331
#     4  10  21  39  58  86 119 151 193 235 287 346
#     4  11  22  38  59  84 121 158 189 229 287 357
#     4   9  20  38  59  84 114 153 193 237 284 330
#
# _framework density 25.079307
#
# number of rings (size 3 to 8) (size 9 to 14) (size 15 to 20)
#    0.000    2.000    1.250    3.375    0.000    5.000 
#    2.250    1.250    0.000    6.000    0.000    0.000 
#    0.000    0.000    0.000    0.000    0.000    0.000 
#
# Total GULP energy -89327.441631 kJ/mol
# GULP energy per Si atom -5582.965102 kJ/mol
# Density = 2.502223 g / cm^3
# Si number density = 25.079307 Si / 1000 Ang^3
#
#
#
# Elastic Constant Matrix: (Units=GPa)
#
#
# Indices 1 2 3 4 5 6 
#
# 1 60.1562 29.6614 8.6504 -1.0057 -4.4459 -14.2130
# 2 29.6614 62.4196 22.8773 5.2905 4.1067 -12.3120
# 3 8.6504 22.8773 153.1832 13.5104 11.6221 -6.4610
# 4 -1.0057 5.2905 13.5104 33.1244 -2.9240 2.7699
# 5 -4.4459 4.1067 11.6221 -2.9240 28.2064 -0.7687
# 6 -14.2130 -12.3120 -6.4610 2.7699 -0.7687 36.1443
#
#
#
# Elastic Compliance Matrix: (Units=1/GPa)
#
#
# Indices 1 2 3 4 5 6 
#
# 1 0.023712 -0.010702 -0.000168 0.002542 0.005780 0.005577
# 2 -0.010702 0.023170 -0.002019 -0.003897 -0.004536 0.003526
# 3 -0.000168 -0.002019 0.007369 -0.003019 -0.003062 0.000729
# 4 0.002542 -0.003897 -0.003019 0.032882 0.005532 -0.003270
# 5 0.005780 -0.004536 -0.003062 0.005532 0.038875 0.000583
# 6 0.005577 0.003526 0.000729 -0.003270 0.000583 0.031454
#
#
# Mechanical properties :
#
#
# Convention : Reuss Voigt Hill
#
# Bulk Modulus (GPa) = 35.12265 44.23746 39.68005
# Shear Modulus (GPa) = 25.94283 33.79966 29.87125
#
# Velocity S-wave (km/s) = 3.21975 3.67510 3.45493
# Velocity P-wave (km/s) = 5.27801 5.97376 5.63663
#
# Compressibility (1/GPa) = 0.02847166
#
# Stress axis : x y z
#
# Youngs Moduli (GPa) = 42.17349 43.15872 135.71131
#
# Poissons Ratio (x) = 0.46187 0.02284
# Poissons Ratio (y) = 0.45133 0.27407
# Poissons Ratio (z) = 0.00710 0.08716
#
# Static dielectric constant tensor:
#      x y z
#    x 2.020920 -0.005030 0.024080 
#    y -0.005030 1.996750 -0.017550 
#    z 0.024080 -0.017550 2.029380 
# 
# From -- ./inp_files/320170.got.cif
#   From: 2010.05.17/outbox.cif.g08.bks.cpg/sg2_161_cif.got.tgz:320170.got - 2010.06.03 11:33:40.
