data_PCOD9079347
_publ_section_title
;
Structure prediction by ZEFSAII (Michael W. Deem and Ramdas Pophale) SiO2 
 PCOD9079347
Probable space group: P -1
;
_chemical_formula_sum "Si O2"
_cell_formula_units_Z 16
_cell_length_a 10.214186
_cell_length_b 14.240797
_cell_length_c 11.143002
_cell_angle_alpha 147.991633
_cell_angle_beta 80.324463
_cell_angle_gamma 109.308172
_cell_volume 790.093175
_symmetry_space_group_name_H-M "P -1"
_symmetry_group_IT_number 2
_symmetry_cell_setting 'triclinic'
loop_
_space_group_symop_operation_xyz
x,y,z
-x,-y,-z
loop_
_atom_site_type_symbol
_atom_site_label
_atom_site_fract_x
_atom_site_fract_y
_atom_site_fract_z
Si Si1 0.705394 0.609806 0.363406
Si Si2 0.575995 0.535804 0.900278
Si Si3 0.797460 0.798215 0.793343
Si Si4 0.780016 0.910706 0.183566
Si Si5 0.905503 0.238340 0.230835
Si Si6 0.924947 0.994563 0.633820
Si Si7 0.908026 0.380394 0.116882
Si Si8 0.788784 0.321102 0.582366
O O1 0.549926 0.512278 0.228599
O O2 0.699979 0.666352 0.564622
O O3 0.792774 0.469353 0.195138
O O4 0.800121 0.799524 0.479857
O O5 0.667550 0.404197 0.717293
O O6 0.500000 0.500000 0.000000
O O7 0.683745 0.752741 0.115961
O O8 0.940616 0.748058 0.726619
O O9 0.748350 0.808264 0.947591
O O10 0.832587 0.013430 0.976745
O O11 0.946657 0.964247 0.244614
O O12 0.754223 0.107633 0.402689
O O13 0.911230 0.344262 0.220455
O O14 0.821455 0.304740 0.418185
O O15 0.000000 0.000000 0.500000
O O16 0.878176 0.176210 0.841664
O O17 0.064314 0.531928 0.226163
#
# Coordination Sequence:
#
# PCOD9079347 Si02
#       8
#     2   2   2   2   2   2   2   2
#     4  12  26  42  67 108 132 173 230 288 333 392
#     4  12  29  49  65  92 142 186 224 273 347 405
#     4  10  18  39  69 101 142 165 219 287 336 397
#     4  11  23  45  69 101 133 179 222 277 342 401
#     4  10  18  36  68 105 139 170 215 276 347 395
#     4  12  24  42  69 100 137 175 228 282 322 397
#     4  12  22  39  72 106 132 174 228 278 338 397
#     4  11  23  41  72  97 129 185 225 267 339 412
#
# _framework density 20.250775000000001
#
# number of rings (size 3 to 8) (size 9 to 14) (size 15 to 20)
#    0.000    0.750    6.250    1.875    1.750    3.500 
#    0.000    1.250    0.000    0.000    0.000    0.000 
#    0.000    0.000    0.000    0.000    0.000    0.000 
#
# Total GULP energy -89470.028292 kJ/mol
# GULP energy per Si atom -5591.876768 kJ/mol
# Density = 2.020468 g / cm^3
# Si number density = 20.250775 Si / 1000 Ang^3
#
#
#
# Elastic Constant Matrix: (Units=GPa)
#
#
# Indices 1 2 3 4 5 6 
#
# 1 116.0022 7.4996 35.5095 8.9442 -25.6564 2.0705
# 2 7.4996 70.0120 24.0077 10.4026 -29.5238 14.3342
# 3 35.5095 24.0077 84.5803 17.1143 -39.3956 -3.0169
# 4 8.9442 10.4026 17.1143 28.6064 -5.5876 5.5051
# 5 -25.6564 -29.5238 -39.3956 -5.5876 40.3903 0.4163
# 6 2.0705 14.3342 -3.0169 5.5051 0.4163 20.7398
#
#
#
# Elastic Compliance Matrix: (Units=1/GPa)
#
#
# Indices 1 2 3 4 5 6 
#
# 1 0.010798 0.003593 -0.001939 -0.001371 0.007442 -0.003629
# 2 0.003593 0.027886 0.002068 -0.004153 0.024302 -0.018717
# 3 -0.001939 0.002068 0.025610 -0.011858 0.023566 0.005164
# 4 -0.001371 -0.004153 -0.011858 0.044155 -0.009258 -0.010253
# 5 0.007442 0.024302 0.023566 -0.009258 0.069088 -0.013040
# 6 -0.003629 -0.018717 0.005164 -0.010253 -0.013040 0.065249
#
#
# Mechanical properties :
#
#
# Convention : Reuss Voigt Hill
#
# Bulk Modulus (GPa) = 13.93945 44.95868 29.44907
# Shear Modulus (GPa) = 19.28595 31.51914 25.40254
#
# Velocity S-wave (km/s) = 3.08937 3.94946 3.54559
# Velocity P-wave (km/s) = 4.42990 6.56100 5.59780
#
# Compressibility (1/GPa) = 0.07173882
#
# Stress axis : x y z
#
# Youngs Moduli (GPa) = 92.60767 35.85991 39.04695
#
# Poissons Ratio (x) = -0.12885 0.07571
# Poissons Ratio (y) = -0.33276 -0.08074
# Poissons Ratio (z) = 0.17957 -0.07415
#
# Static dielectric constant tensor:
#      x y z
#    x 1.669710 -0.010170 0.000780 
#    y -0.010170 1.756480 -0.021760 
#    z 0.000780 -0.021760 1.736030 
# 
# From -- ./inp_files/208142.got.cif
#   From: 2010.05.17/outbox.cif.g08.bks.cpg/sg2_105_cif.got.tgz:208142.got - 2010.06.03 11:33:40.
