data_PCOD9079803
_publ_section_title
;
Structure prediction by ZEFSAII (Michael W. Deem and Ramdas Pophale) SiO2 
 PCOD9079803
Probable space group: P -1
;
_chemical_formula_sum "Si O2"
_cell_formula_units_Z 14
_cell_length_a 16.337978
_cell_length_b 7.668759
_cell_length_c 13.009101
_cell_angle_alpha 46.618618
_cell_angle_beta 155.773764
_cell_angle_gamma 132.105238
_cell_volume 480.751904
_symmetry_space_group_name_H-M "P -1"
_symmetry_group_IT_number 2
_symmetry_cell_setting 'triclinic'
loop_
_space_group_symop_operation_xyz
x,y,z
-x,-y,-z
loop_
_atom_site_type_symbol
_atom_site_label
_atom_site_fract_x
_atom_site_fract_y
_atom_site_fract_z
Si Si1 0.128334 0.554894 0.394351
Si Si2 0.898471 0.987599 0.692028
Si Si3 0.385635 0.208883 0.386467
Si Si4 0.203050 0.871905 0.793436
Si Si5 0.660029 0.813358 0.899407
Si Si6 0.206831 0.489525 0.300559
Si Si7 0.491036 0.706411 0.013752
O O1 0.129822 0.738443 0.417619
O O2 0.190158 0.661010 0.310356
O O3 0.307635 0.393760 0.675855
O O4 0.912172 0.389429 0.196589
O O5 0.816937 0.834395 0.761771
O O6 0.791252 0.798141 0.562165
O O7 0.127068 0.028145 0.900107
O O8 0.333289 0.238125 0.195188
O O9 0.578932 0.412396 0.541464
O O10 0.482944 0.974374 0.630919
O O11 0.383980 0.042108 0.993187
O O12 0.326312 0.803400 0.860863
O O13 0.000000 0.000000 0.500000
O O14 0.627129 0.570459 0.030258
O O15 0.000000 0.500000 0.000000
#
# Coordination Sequence:
#
# PCOD9079803 Si02
#       7
#     2   2   2   2   2   2   2
#     4  11  22  41  62  91 130 165 208 262 318 370
#     4  12  24  38  64  88 122 176 211 255 321 367
#     4  11  22  40  56  89 133 167 213 262 312 367
#     4   9  20  35  66  98 119 160 210 264 321 378
#     4  11  20  36  65  92 122 169 214 262 309 385
#     4  12  26  40  59  96 132 170 221 259 302 384
#     4  10  18  37  65  97 121 160 217 256 317 385
#
# _framework density 29.121051000000001
#
# number of rings (size 3 to 8) (size 9 to 14) (size 15 to 20)
#    0.000    1.143    5.714    1.714    2.000    0.000 
#    2.571    0.000    0.000    8.571    0.000    0.000 
#    0.000    0.000    0.000    0.000    0.000    0.000 
#
# Total GULP energy -78016.007624 kJ/mol
# GULP energy per Si atom -5572.571973 kJ/mol
# Density = 2.905477 g / cm^3
# Si number density = 29.121051 Si / 1000 Ang^3
#
#
#
# Elastic Constant Matrix: (Units=GPa)
#
#
# Indices 1 2 3 4 5 6 
#
# 1 104.7552 53.1950 50.2086 3.9311 24.7666 10.5306
# 2 53.1950 232.0094 56.7047 37.5607 15.6528 8.6417
# 3 50.2086 56.7047 99.4096 -15.9013 27.2750 6.4399
# 4 3.9311 37.5607 -15.9013 62.6125 7.0256 28.8098
# 5 24.7666 15.6528 27.2750 7.0256 51.9617 8.1164
# 6 10.5306 8.6417 6.4399 28.8098 8.1164 64.3693
#
#
#
# Elastic Compliance Matrix: (Units=1/GPa)
#
#
# Indices 1 2 3 4 5 6 
#
# 1 0.013659 -0.001543 -0.005182 -0.000485 -0.003120 -0.000899
# 2 -0.001543 0.006625 -0.004632 -0.006376 0.001647 0.002473
# 3 -0.005182 -0.004632 0.019259 0.010812 -0.007017 -0.004412
# 4 -0.000485 -0.006376 0.010812 0.028887 -0.005495 -0.012382
# 5 -0.003120 0.001647 -0.007017 -0.005495 0.024608 0.000348
# 6 -0.000899 0.002473 -0.004412 -0.012382 0.000348 0.021290
#
#
# Mechanical properties :
#
#
# Convention : Reuss Voigt Hill
#
# Bulk Modulus (GPa) = 59.41680 84.04342 71.73011
# Shear Modulus (GPa) = 35.05045 54.19308 44.62176
#
# Velocity S-wave (km/s) = 3.47307 4.31856 3.91869
# Velocity P-wave (km/s) = 6.04406 7.33412 6.72012
#
# Compressibility (1/GPa) = 0.01683026
#
# Stress axis : x y z
#
# Youngs Moduli (GPa) = 73.20943 150.94381 51.92318
#
# Poissons Ratio (x) = 0.23289 0.26908
# Poissons Ratio (y) = 0.11295 0.24049
# Poissons Ratio (z) = 0.37938 0.69912
#
# Static dielectric constant tensor:
#      x y z
#    x 2.406420 -0.066080 -0.033700 
#    y -0.066080 2.424450 -0.100750 
#    z -0.033700 -0.100750 2.229350 
# 
# From -- ./inp_files/195490.got.cif
#   From: 2010.05.17/outbox.cif.g08.bks.cpg/sg2_98_cif.got.tgz:195490.got - 2010.06.03 11:33:40.
