data_PCOD9079285
_publ_section_title
;
Structure prediction by ZEFSAII (Michael W. Deem and Ramdas Pophale) SiO2 
 PCOD9079285
Probable space group: P -1
;
_chemical_formula_sum "Si O2"
_cell_formula_units_Z 16
_cell_length_a 8.865129
_cell_length_b 13.923797
_cell_length_c 13.006988
_cell_angle_alpha 44.141333
_cell_angle_beta 45.489833
_cell_angle_gamma 49.578766
_cell_volume 762.477633
_symmetry_space_group_name_H-M "P -1"
_symmetry_group_IT_number 2
_symmetry_cell_setting 'triclinic'
loop_
_space_group_symop_operation_xyz
x,y,z
-x,-y,-z
loop_
_atom_site_type_symbol
_atom_site_label
_atom_site_fract_x
_atom_site_fract_y
_atom_site_fract_z
Si Si1 0.033301 0.128194 0.458854
Si Si2 0.481107 0.020805 0.635035
Si Si3 0.502318 0.308999 0.360340
Si Si4 0.178658 0.823415 0.874371
Si Si5 0.557001 0.201081 0.637652
Si Si6 0.703421 0.856707 0.023834
Si Si7 0.165021 0.347496 0.077962
Si Si8 0.591526 0.417863 0.914185
O O1 0.063159 0.263622 0.276435
O O2 0.557543 0.301968 0.460595
O O3 0.265234 0.057696 0.458701
O O4 0.000000 0.000000 0.500000
O O5 0.397646 0.177400 0.502365
O O6 0.513480 0.061646 0.707369
O O7 0.323083 0.926141 0.760313
O O8 0.712238 0.259660 0.219671
O O9 0.358492 0.464520 0.274387
O O10 0.922900 0.895524 0.922496
O O11 0.209624 0.712681 0.039995
O O12 0.798583 0.171837 0.594663
O O13 0.369072 0.242240 0.780307
O O14 0.500000 0.000000 0.000000
O O15 0.765216 0.763433 0.963737
O O16 0.389136 0.371238 0.998137
O O17 0.000000 0.500000 0.000000
O O18 0.500000 0.500000 0.000000
#
# Coordination Sequence:
#
# PCOD9079285 Si02
#       8
#     2   2   2   2   2   2   2   2
#     4  10  18  36  65  94 131 173 221 278 323 395
#     4   9  19  35  66  95 124 174 232 274 327 383
#     4   9  20  38  65  96 129 174 224 279 329 397
#     4  11  21  40  68  96 132 173 237 279 328 402
#     4   9  21  38  59  91 142 168 216 271 346 389
#     4  12  27  43  65 102 144 181 220 282 349 407
#     4  12  24  43  71 103 129 183 236 275 331 408
#     4  10  21  41  66  99 130 169 225 286 331 387
#
# _framework density 20.984221000000002
#
# number of rings (size 3 to 8) (size 9 to 14) (size 15 to 20)
#    0.750    1.000    1.250    4.875    1.750    0.500 
#    0.000    3.125    0.000    1.500    0.000    0.000 
#    0.000    0.000    0.000    0.000    0.000    0.000 
#
# Total GULP energy -89177.222031 kJ/mol
# GULP energy per Si atom -5573.576377 kJ/mol
# Density = 2.093646 g / cm^3
# Si number density = 20.984221 Si / 1000 Ang^3
#
#
#
# Elastic Constant Matrix: (Units=GPa)
#
#
# Indices 1 2 3 4 5 6 
#
# 1 123.9608 40.1881 36.1650 -9.7515 -18.6575 -12.5857
# 2 40.1881 49.0275 23.4657 -12.6086 -5.4865 -12.6021
# 3 36.1650 23.4657 105.6285 -19.5954 4.6875 -10.9848
# 4 -9.7515 -12.6086 -19.5954 37.8862 -5.4861 6.6379
# 5 -18.6575 -5.4865 4.6875 -5.4861 31.0461 -1.9328
# 6 -12.5857 -12.6021 -10.9848 6.6379 -1.9328 20.7260
#
#
#
# Elastic Compliance Matrix: (Units=1/GPa)
#
#
# Indices 1 2 3 4 5 6 
#
# 1 0.012584 -0.007758 -0.002683 -0.000140 0.006707 0.002173
# 2 -0.007758 0.033060 -0.002416 0.006060 0.003393 0.012486
# 3 -0.002683 -0.002416 0.011968 0.003958 -0.003041 0.001694
# 4 -0.000140 0.006060 0.003958 0.031962 0.005788 -0.003999
# 5 0.006707 0.003393 -0.003041 0.005788 0.038713 0.006280
# 6 0.002173 0.012486 0.001694 -0.003999 0.006280 0.059924
#
#
# Mechanical properties :
#
#
# Convention : Reuss Voigt Hill
#
# Bulk Modulus (GPa) = 31.35008 53.13937 42.24473
# Shear Modulus (GPa) = 22.26610 29.85153 26.05881
#
# Velocity S-wave (km/s) = 3.26097 3.77579 3.52778
# Velocity P-wave (km/s) = 5.39915 6.66238 6.06375
#
# Compressibility (1/GPa) = 0.03189784
#
# Stress axis : x y z
#
# Youngs Moduli (GPa) = 79.46613 30.24818 83.55782
#
# Poissons Ratio (x) = 0.23467 0.22416
# Poissons Ratio (y) = 0.61651 0.20189
# Poissons Ratio (z) = 0.21318 0.07308
#
# Static dielectric constant tensor:
#      x y z
#    x 1.785360 -0.013010 0.071500 
#    y -0.013010 1.768710 -0.034060 
#    z 0.071500 -0.034060 1.866450 
# 
# From -- ./inp_files/476239.got.cif
#   From: 2010.05.17/outbox.cif.g08.bks.cpg/sg2_239_cif.got.tgz:476239.got - 2010.06.03 11:33:40.
