data_PCOD9079022
_publ_section_title
;
Structure prediction by ZEFSAII (Michael W. Deem and Ramdas Pophale) SiO2 
 PCOD9079022
Probable space group: P -1
;
_chemical_formula_sum "Si O2"
_cell_formula_units_Z 16
_cell_length_a 12.055593
_cell_length_b 27.136549
_cell_length_c 8.788345
_cell_angle_alpha 153.325774
_cell_angle_beta 40.195329
_cell_angle_gamma 149.424989
_cell_volume 656.332234
_symmetry_space_group_name_H-M "P -1"
_symmetry_group_IT_number 2
_symmetry_cell_setting 'triclinic'
loop_
_space_group_symop_operation_xyz
x,y,z
-x,-y,-z
loop_
_atom_site_type_symbol
_atom_site_label
_atom_site_fract_x
_atom_site_fract_y
_atom_site_fract_z
Si Si1 0.061026 0.369398 0.313990
Si Si2 0.241910 0.671809 0.957994
Si Si3 0.586796 0.288642 0.634118
Si Si4 0.852689 0.809834 0.737814
Si Si5 0.184365 0.419100 0.666115
Si Si6 0.362864 0.336650 0.734562
Si Si7 0.354730 0.095487 0.610172
Si Si8 0.273009 0.889563 0.349048
O O1 0.202929 0.531889 0.566834
O O2 0.142357 0.374060 0.411947
O O3 0.811971 0.313015 0.431334
O O4 0.137931 0.300183 0.936375
O O5 0.446640 0.782631 0.154745
O O6 0.226787 0.743713 0.024934
O O7 0.037892 0.621080 0.140195
O O8 0.481303 0.305512 0.645510
O O9 0.424182 0.146319 0.506021
O O10 0.644797 0.415977 0.033540
O O11 0.767865 0.669759 0.531166
O O12 0.698451 0.757866 0.609333
O O13 0.089961 0.880672 0.614933
O O14 0.843573 0.907161 0.130971
O O15 0.500000 0.500000 0.000000
O O16 0.306993 0.953971 0.324740
O O17 0.500000 0.000000 0.500000
#
# Coordination Sequence:
#
# PCOD9079022 Si02
#       8
#     2   2   2   2   2   2   2   2
#     4  11  21  39  64  92 132 166 201 256 315 372
#     4   9  17  33  59  91 118 150 203 262 304 353
#     4  11  22  39  61  95 124 169 209 248 317 377
#     4  11  23  39  60  95 128 161 202 261 312 372
#     4  10  18  36  61  90 123 156 212 255 301 366
#     4  12  26  40  56  97 142 166 197 240 321 403
#     4  11  19  37  66  88 118 155 214 268 304 345
#     4   9  21  39  61  90 117 154 218 269 303 351
#
# _framework density 24.377897000000001
#
# number of rings (size 3 to 8) (size 9 to 14) (size 15 to 20)
#    0.000    1.500    3.750    2.625    0.000    1.500 
#    6.750    0.625    0.000    0.750    0.000    0.000 
#    0.000    0.000    0.000    0.000    0.000    0.000 
#
# Total GULP energy -89593.706546 kJ/mol
# GULP energy per Si atom -5599.606659 kJ/mol
# Density = 2.432241 g / cm^3
# Si number density = 24.377897 Si / 1000 Ang^3
#
#
#
# Elastic Constant Matrix: (Units=GPa)
#
#
# Indices 1 2 3 4 5 6 
#
# 1 140.5537 63.7705 16.4487 -4.4783 -18.7191 -23.4473
# 2 63.7705 122.5514 20.9910 1.9725 -6.1127 -24.3775
# 3 16.4487 20.9910 54.8951 -10.8136 0.9657 -9.5589
# 4 -4.4783 1.9725 -10.8136 32.2977 -4.3578 -9.7324
# 5 -18.7191 -6.1127 0.9657 -4.3578 21.9229 9.6019
# 6 -23.4473 -24.3775 -9.5589 -9.7324 9.6019 45.3736
#
#
#
# Elastic Compliance Matrix: (Units=1/GPa)
#
#
# Indices 1 2 3 4 5 6 
#
# 1 0.010819 -0.004814 -0.000560 0.003234 0.007710 0.001949
# 2 -0.004814 0.011709 -0.002708 -0.001600 -0.002546 0.003428
# 3 -0.000560 -0.002708 0.022130 0.008740 -0.002833 0.005392
# 4 0.003234 -0.001600 0.008740 0.038067 0.005245 0.009708
# 5 0.007710 -0.002546 -0.002833 0.005245 0.056516 -0.008815
# 6 0.001949 0.003428 0.005392 0.009708 -0.008815 0.029972
#
#
# Mechanical properties :
#
#
# Convention : Reuss Voigt Hill
#
# Bulk Modulus (GPa) = 35.09524 57.82451 46.45988
# Shear Modulus (GPa) = 25.65709 34.37149 30.01429
#
# Velocity S-wave (km/s) = 3.24770 3.75900 3.51267
# Velocity P-wave (km/s) = 5.33770 6.52776 5.96249
#
# Compressibility (1/GPa) = 0.02849389
#
# Stress axis : x y z
#
# Youngs Moduli (GPa) = 92.42739 85.40166 45.18661
#
# Poissons Ratio (x) = 0.41110 0.02532
# Poissons Ratio (y) = 0.44492 0.12239
# Poissons Ratio (z) = 0.05180 0.23131
#
# Static dielectric constant tensor:
#      x y z
#    x 1.961660 0.027460 -0.005810 
#    y 0.027460 1.954700 -0.003680 
#    z -0.005810 -0.003680 1.910360 
# 
# From -- ./inp_files/285878.got.cif
#   From: 2010.05.17/outbox.cif.g08.bks.cpg/sg2_143_cif.got.tgz:285878.got - 2010.06.03 11:33:40.
