data_PCOD9079772
_publ_section_title
;
Structure prediction by ZEFSAII (Michael W. Deem and Ramdas Pophale) SiO2 
 PCOD9079772
Probable space group: P -1
;
_chemical_formula_sum "Si O2"
_cell_formula_units_Z 16
_cell_length_a 15.226454
_cell_length_b 8.805852
_cell_length_c 11.585996
_cell_angle_alpha 39.266374
_cell_angle_beta 59.466841
_cell_angle_gamma 77.132838
_cell_volume 804.339808
_symmetry_space_group_name_H-M "P -1"
_symmetry_group_IT_number 2
_symmetry_cell_setting 'triclinic'
loop_
_space_group_symop_operation_xyz
x,y,z
-x,-y,-z
loop_
_atom_site_type_symbol
_atom_site_label
_atom_site_fract_x
_atom_site_fract_y
_atom_site_fract_z
Si Si1 0.609551 0.938572 0.453464
Si Si2 0.217986 0.581376 0.853129
Si Si3 0.533884 0.391151 0.924171
Si Si4 0.704127 0.826087 0.830051
Si Si5 0.213304 0.166294 0.706413
Si Si6 0.079674 0.631810 0.136319
Si Si7 0.166956 0.594310 0.616127
Si Si8 0.238140 0.432945 0.287285
O O1 0.570766 0.640424 0.675735
O O2 0.688189 0.952057 0.284852
O O3 0.500000 0.000000 0.500000
O O4 0.688656 0.147256 0.361470
O O5 0.167614 0.557555 0.774938
O O6 0.269146 0.362569 0.983782
O O7 0.131475 0.579847 0.010963
O O8 0.648091 0.346198 0.894140
O O9 0.500000 0.500000 0.000000
O O10 0.422533 0.198292 0.069391
O O11 0.734108 0.722205 0.748023
O O12 0.774733 0.114957 0.625057
O O13 0.226812 0.409930 0.630425
O O14 0.206394 0.256487 0.525412
O O15 0.110804 0.933901 0.945406
O O16 0.142563 0.532900 0.251621
O O17 0.953690 0.495023 0.299064
#
# Coordination Sequence:
#
# PCOD9079772 Si02
#       8
#     2   2   2   2   2   2   2   2
#     4  10  18  37  65  82 110 151 203 241 273 348
#     4  10  21  37  61  91 116 151 203 241 292 341
#     4   9  16  31  59  87 109 139 191 249 283 329
#     4  10  20  36  59  87 117 152 191 245 297 343
#     4  10  23  39  58  88 118 151 202 241 296 350
#     4  10  22  40  63  82 112 162 210 240 278 342
#     4  12  24  38  55  88 129 156 186 243 304 353
#     4   9  20  38  61  88 107 150 210 243 279 343
#
# _framework density 19.89209
#
# number of rings (size 3 to 8) (size 9 to 14) (size 15 to 20)
#    0.000    2.000    1.250    3.750    1.750    4.500 
#    0.000    3.125    0.000    0.000    0.000    0.000 
#    0.000    0.000    0.000    0.000    0.000    0.000 
#
# Total GULP energy -89115.441204 kJ/mol
# GULP energy per Si atom -5569.715075 kJ/mol
# Density = 1.984681 g / cm^3
# Si number density = 19.892090 Si / 1000 Ang^3
#
#
#
# Elastic Constant Matrix: (Units=GPa)
#
#
# Indices 1 2 3 4 5 6 
#
# 1 24.6939 -13.9376 6.5161 -0.4172 3.4919 -27.9965
# 2 -13.9376 33.7158 -3.2495 -12.0204 5.1067 -14.8915
# 3 6.5161 -3.2495 85.3249 -25.2543 -5.8546 -0.6850
# 4 -0.4172 -12.0204 -25.2543 14.8554 2.8126 -2.2691
# 5 3.4919 5.1067 -5.8546 2.8126 39.1383 4.4034
# 6 -27.9965 -14.8915 -0.6850 -2.2691 4.4034 14.7886
#
#
#
# Elastic Compliance Matrix: (Units=1/GPa)
#
#
# Indices 1 2 3 4 5 6 
#
# 1 0.009559 -0.024841 -0.016909 -0.052287 0.005572 -0.017382
# 2 -0.024841 0.016053 0.009480 0.023620 0.002957 -0.027679
# 3 -0.016909 0.009480 0.029840 0.055478 0.002238 -0.013237
# 4 -0.052287 0.023620 0.055478 0.171527 0.002862 -0.047165
# 5 0.005572 0.002957 0.002238 0.002862 0.024018 0.006917
# 6 -0.017382 -0.027679 -0.013237 -0.047165 0.006917 -0.003067
#
#
# Mechanical properties :
#
#
# Convention : Reuss Voigt Hill
#
# Bulk Modulus (GPa) = -110.04093 13.59916 -48.22088
# Shear Modulus (GPa) = 16.15821 24.05017 20.10419
#
# Velocity S-wave (km/s) = 2.85317 3.48089 3.18254
# Velocity P-wave (km/s) = 6.67720 4.79653 3.28468
#
# Compressibility (1/GPa) = -0.00908753
#
# Stress axis : x y z
#
# Youngs Moduli (GPa) = 104.61119 62.29462 33.51217
#
# Poissons Ratio (x) = 1.54744 0.56666
# Poissons Ratio (y) = 2.59862 -0.31770
# Poissons Ratio (z) = 1.76888 -0.59056
#
# Static dielectric constant tensor:
#      x y z
#    x 1.793620 -0.033260 -0.013740 
#    y -0.033260 1.690890 0.009990 
#    z -0.013740 0.009990 1.695930 
# 
# From -- ./inp_files/257826.got.cif
#   From: 2010.05.17/outbox.cif.g08.bks.cpg/sg2_129_cif.got.tgz:257826.got - 2010.06.03 11:33:40.
