data_PCOD9079442
_publ_section_title
;
Structure prediction by ZEFSAII (Michael W. Deem and Ramdas Pophale) SiO2 
 PCOD9079442
Probable space group: P -1
;
_chemical_formula_sum "Si O2"
_cell_formula_units_Z 16
_cell_length_a 9.351025
_cell_length_b 20.211534
_cell_length_c 7.356892
_cell_angle_alpha 56.786173
_cell_angle_beta 69.006597
_cell_angle_gamma 34.692578
_cell_volume 649.604340
_symmetry_space_group_name_H-M "P -1"
_symmetry_group_IT_number 2
_symmetry_cell_setting 'triclinic'
loop_
_space_group_symop_operation_xyz
x,y,z
-x,-y,-z
loop_
_atom_site_type_symbol
_atom_site_label
_atom_site_fract_x
_atom_site_fract_y
_atom_site_fract_z
Si Si1 0.201987 0.569856 0.889454
Si Si2 0.616503 0.498455 0.617513
Si Si3 0.571422 0.658574 0.621676
Si Si4 0.940377 0.125689 0.232437
Si Si5 0.907581 0.768984 0.041878
Si Si6 0.607983 0.974354 0.284961
Si Si7 0.270634 0.939077 0.690802
Si Si8 0.226170 0.269459 0.430825
O O1 0.455077 0.515910 0.814958
O O2 0.014154 0.703488 0.889677
O O3 0.052186 0.607757 0.717660
O O4 0.263236 0.466555 0.132563
O O5 0.500000 0.500000 0.500000
O O6 0.559708 0.614391 0.505319
O O7 0.919234 0.361143 0.719802
O O8 0.295305 0.774743 0.668519
O O9 0.689703 0.697247 0.515952
O O10 0.986597 0.188515 0.020402
O O11 0.880378 0.079672 0.193764
O O12 0.179600 0.009606 0.428994
O O13 0.606983 0.903357 0.937608
O O14 0.784851 0.975151 0.256434
O O15 0.500000 0.000000 0.500000
O O16 0.726051 0.842293 0.367707
O O17 0.571602 0.799316 0.727413
#
# Coordination Sequence:
#
# PCOD9079442 Si02
#       8
#     2   2   2   2   2   2   2   2
#     4  11  18  33  54  77 105 132 170 215 259 306
#     4  11  24  38  52  70 101 143 182 216 251 299
#     4  10  20  32  52  81 103 133 173 212 255 303
#     4  10  15  27  47  81 110 129 160 206 252 304
#     4  11  17  33  54  79 103 134 169 211 256 304
#     4  10  16  28  48  83 115 127 154 207 267 308
#     4   9  17  24  44  83 118 128 150 201 265 306
#     4  10  18  28  50  83 112 129 156 212 268 306
#
# _framework density 24.630379000000001
#
# number of rings (size 3 to 8) (size 9 to 14) (size 15 to 20)
#    0.000    1.750    7.500    1.125    0.000    0.000 
#    0.000    0.625    0.000    1.500    0.000    0.000 
#    0.000    0.000    0.000    0.000    0.000    0.000 
#
# Total GULP energy -89361.095386 kJ/mol
# GULP energy per Si atom -5585.068462 kJ/mol
# Density = 2.457432 g / cm^3
# Si number density = 24.630379 Si / 1000 Ang^3
#
#
#
# Elastic Constant Matrix: (Units=GPa)
#
#
# Indices 1 2 3 4 5 6 
#
# 1 169.7447 53.2435 18.8565 -3.5108 16.0109 46.1593
# 2 53.2435 93.6134 21.5047 -8.9673 13.1156 32.6636
# 3 18.8565 21.5047 64.1136 1.8214 19.1166 7.4644
# 4 -3.5108 -8.9673 1.8214 32.6143 3.5029 7.1078
# 5 16.0109 13.1156 19.1166 3.5029 35.9172 -0.7228
# 6 46.1593 32.6636 7.4644 7.1078 -0.7228 57.3760
#
#
#
# Elastic Compliance Matrix: (Units=1/GPa)
#
#
# Indices 1 2 3 4 5 6 
#
# 1 0.008530 -0.002087 -0.000207 0.001998 -0.003245 -0.005936
# 2 -0.002087 0.016740 -0.002883 0.006847 -0.004485 -0.008380
# 3 -0.000207 -0.002883 0.019463 -0.000756 -0.009156 -0.000746
# 4 0.001998 0.006847 -0.000756 0.035677 -0.006668 -0.009911
# 5 -0.003245 -0.004485 -0.009156 -0.006668 0.036603 0.007642
# 6 -0.005936 -0.008380 -0.000746 -0.009911 0.007642 0.028397
#
#
# Mechanical properties :
#
#
# Convention : Reuss Voigt Hill
#
# Bulk Modulus (GPa) = 29.08652 57.18676 43.13664
# Shear Modulus (GPa) = 29.90008 40.77263 35.33636
#
# Velocity S-wave (km/s) = 3.48796 4.07305 3.79181
# Velocity P-wave (km/s) = 5.29679 6.73706 6.05987
#
# Compressibility (1/GPa) = 0.03438019
#
# Stress axis : x y z
#
# Youngs Moduli (GPa) = 117.22733 59.73827 51.37864
#
# Poissons Ratio (x) = 0.12467 0.01064
# Poissons Ratio (y) = 0.24464 0.14811
# Poissons Ratio (z) = 0.02428 0.17220
#
# Static dielectric constant tensor:
#      x y z
#    x 1.973070 0.001000 -0.019670 
#    y 0.001000 2.078020 0.064340 
#    z -0.019670 0.064340 2.013270 
# 
# From -- ./inp_files/189339.got.cif
#   From: 2010.05.17/outbox.cif.g08.bks.cpg/sg2_95_cif.got.tgz:189339.got - 2010.06.03 11:33:40.
