data_PCOD9079379
_publ_section_title
;
Structure prediction by ZEFSAII (Michael W. Deem and Ramdas Pophale) SiO2 
 PCOD9079379
Probable space group: P -1
;
_chemical_formula_sum "Si O2"
_cell_formula_units_Z 13
_cell_length_a 14.981132
_cell_length_b 11.745090
_cell_length_c 24.513989
_cell_angle_alpha 26.630617
_cell_angle_beta 17.488789
_cell_angle_gamma 25.294221
_cell_volume 536.828340
_symmetry_space_group_name_H-M "P -1"
_symmetry_group_IT_number 2
_symmetry_cell_setting 'triclinic'
loop_
_space_group_symop_operation_xyz
x,y,z
-x,-y,-z
loop_
_atom_site_type_symbol
_atom_site_label
_atom_site_fract_x
_atom_site_fract_y
_atom_site_fract_z
Si Si1 0.278179 0.251334 0.333974
Si Si2 0.411361 0.504407 0.865689
Si Si3 0.690783 0.559163 0.250599
Si Si4 0.161848 0.787417 0.546434
Si Si5 0.564770 0.686068 0.583235
Si Si6 0.506460 0.857683 0.932905
Si Si7 0.500000 0.500000 0.000000
O O1 0.490386 0.282360 0.247067
O O2 0.928381 0.496219 0.436220
O O3 0.223568 0.969297 0.480261
O O4 0.455779 0.280148 0.163114
O O5 0.503588 0.537437 0.736480
O O6 0.570272 0.220252 0.929156
O O7 0.042073 0.545029 0.064067
O O8 0.483426 0.591331 0.412789
O O9 0.663418 0.323803 0.329247
O O10 0.543994 0.832241 0.181196
O O11 0.882700 0.680756 0.771732
O O12 0.000000 0.000000 0.500000
O O13 0.500000 0.000000 0.500000
O O14 0.327350 0.748391 0.039369
#
# Coordination Sequence:
#
# PCOD9079379 Si02
#       7
#     2   2   2   2   2   2   1
#     4  11  22  45  69 103 136 176 233 279 347 404
#     4  11  28  42  67 108 135 186 229 279 338 414
#     4  11  23  48  71 101 139 179 234 281 346 404
#     4  10  18  41  75  98 130 182 223 284 354 399
#     4  12  27  47  70  95 144 189 230 280 337 415
#     4  10  21  42  71  99 139 179 220 285 345 401
#     4  10  18  36  72  98 130 174 212 282 348 388
#
# _framework density 24.216307
#
# number of rings (size 3 to 8) (size 9 to 14) (size 15 to 20)
#    0.000    1.231    6.154    0.923    4.308    3.077 
#    2.769    0.000    0.000    0.000    0.000    0.000 
#    0.000    0.000    0.000    0.000    0.000    0.000 
#
# Total GULP energy -72437.820472 kJ/mol
# GULP energy per Si atom -5572.140036 kJ/mol
# Density = 2.416119 g / cm^3
# Si number density = 24.216307 Si / 1000 Ang^3
#
#
#
# Elastic Constant Matrix: (Units=GPa)
#
#
# Indices 1 2 3 4 5 6 
#
# 1 113.5682 20.3706 39.3209 9.8938 -3.1140 13.2957
# 2 20.3706 90.0858 12.3082 -14.7538 -4.9424 10.7425
# 3 39.3209 12.3082 69.1910 13.9584 21.4016 1.5781
# 4 9.8938 -14.7538 13.9584 28.8973 -1.0291 -9.3764
# 5 -3.1140 -4.9424 21.4016 -1.0291 60.1266 -12.5550
# 6 13.2957 10.7425 1.5781 -9.3764 -12.5550 24.3722
#
#
#
# Elastic Compliance Matrix: (Units=1/GPa)
#
#
# Indices 1 2 3 4 5 6 
#
# 1 0.012429 -0.001840 -0.006069 -0.004378 0.001190 -0.006648
# 2 -0.001840 0.013858 -0.004358 0.010090 0.002881 0.000544
# 3 -0.006069 -0.004358 0.025753 -0.015822 -0.011919 -0.008663
# 4 -0.004378 0.010090 -0.015822 0.058533 0.013135 0.028250
# 5 0.001190 0.002881 -0.011919 0.013135 0.024890 0.016728
# 6 -0.006648 0.000544 -0.008663 0.028250 0.016728 0.064463
#
#
# Mechanical properties :
#
#
# Convention : Reuss Voigt Hill
#
# Bulk Modulus (GPa) = 36.35793 46.31605 41.33699
# Shear Modulus (GPa) = 21.40137 36.06891 28.73514
#
# Velocity S-wave (km/s) = 2.97603 3.86352 3.44845
# Velocity P-wave (km/s) = 5.18222 6.25059 5.74131
#
# Compressibility (1/GPa) = 0.02750432
#
# Stress axis : x y z
#
# Youngs Moduli (GPa) = 80.45720 72.16149 38.83013
#
# Poissons Ratio (x) = 0.13280 0.23566
# Poissons Ratio (y) = 0.14807 0.16924
# Poissons Ratio (z) = 0.48830 0.31451
#
# Static dielectric constant tensor:
#      x y z
#    x 2.013000 -0.090930 -0.052590 
#    y -0.090930 1.952070 -0.018850 
#    z -0.052590 -0.018850 1.984020 
# 
# From -- ./inp_files/611905.got.cif
#   From: 2010.05.17/outbox.cif.g08.bks.cpg/sg2_306_cif.got.tgz:611905.got - 2010.06.03 11:33:40.
