data_PCOD9079909
_publ_section_title
;
Structure prediction by ZEFSAII (Michael W. Deem and Ramdas Pophale) SiO2 
 PCOD9079909
Probable space group: P -1
;
_chemical_formula_sum "Si O2"
_cell_formula_units_Z 14
_cell_length_a 12.820544
_cell_length_b 27.526808
_cell_length_c 9.463975
_cell_angle_alpha 147.298609
_cell_angle_beta 33.873055
_cell_angle_gamma 160.368466
_cell_volume 593.019392
_symmetry_space_group_name_H-M "P -1"
_symmetry_group_IT_number 2
_symmetry_cell_setting 'triclinic'
loop_
_space_group_symop_operation_xyz
x,y,z
-x,-y,-z
loop_
_atom_site_type_symbol
_atom_site_label
_atom_site_fract_x
_atom_site_fract_y
_atom_site_fract_z
Si Si1 0.223807 0.568480 0.548693
Si Si2 0.177390 0.203209 0.182619
Si Si3 0.268692 0.805979 0.401167
Si Si4 0.405823 0.953492 0.153623
Si Si5 0.328845 0.102040 0.095645
Si Si6 0.784245 0.506084 0.086163
Si Si7 0.287356 0.350201 0.690208
O O1 0.386938 0.535577 0.309463
O O2 0.000000 0.500000 0.500000
O O3 0.528721 0.752447 0.644149
O O4 0.004959 0.515648 0.794775
O O5 0.452230 0.338893 0.100038
O O6 0.296974 0.271447 0.371636
O O7 0.886732 0.160937 0.394712
O O8 0.029673 0.051373 0.930049
O O9 0.468389 0.842922 0.138160
O O10 0.968553 0.622589 0.297022
O O11 0.471555 0.911980 0.567205
O O12 0.594140 0.942418 0.981501
O O13 0.036289 0.789623 0.200470
O O14 0.500000 0.000000 0.000000
O O15 0.738022 0.567920 0.172916
#
# Coordination Sequence:
#
# PCOD9079909 Si02
#       7
#     2   2   2   2   2   2   2
#     4  11  26  44  63  91 138 174 215 272 329 389
#     4  10  18  37  71 101 123 166 227 266 322 384
#     4   9  16  36  65  91 131 165 211 271 314 378
#     4  11  20  36  65 105 128 167 222 263 330 398
#     4  10  19  43  66  89 136 170 215 282 312 380
#     4  10  22  42  68  97 130 169 221 275 316 387
#     4  11  21  42  70  94 127 179 214 260 343 385
#
# _framework density 23.607997000000001
#
# number of rings (size 3 to 8) (size 9 to 14) (size 15 to 20)
#    0.000    1.714    5.714    2.571    0.000    4.000 
#    7.714    2.857    0.000    0.000    0.000    0.000 
#    0.000    0.000    0.000    0.000    0.000    0.000 
#
# Total GULP energy -78247.321489 kJ/mol
# GULP energy per Si atom -5589.094392 kJ/mol
# Density = 2.355426 g / cm^3
# Si number density = 23.607997 Si / 1000 Ang^3
#
#
#
# Elastic Constant Matrix: (Units=GPa)
#
#
# Indices 1 2 3 4 5 6 
#
# 1 132.2064 47.5923 39.7297 -14.4152 9.7881 11.8647
# 2 47.5923 135.5130 16.3928 4.1820 1.0820 -8.1724
# 3 39.7297 16.3928 56.1295 -1.3326 -3.2089 -0.1576
# 4 -14.4152 4.1820 -1.3326 27.6041 4.7807 2.6493
# 5 9.7881 1.0820 -3.2089 4.7807 31.1283 -8.5248
# 6 11.8647 -8.1724 -0.1576 2.6493 -8.5248 26.5973
#
#
#
# Elastic Compliance Matrix: (Units=1/GPa)
#
#
# Indices 1 2 3 4 5 6 
#
# 1 0.015971 -0.005493 -0.010110 0.011992 -0.011479 -0.013746
# 2 -0.005493 0.009759 0.001176 -0.005774 0.004437 0.007453
# 3 -0.010110 0.001176 0.025015 -0.006650 0.009092 0.008596
# 4 0.011992 -0.005774 -0.006650 0.047494 -0.016232 -0.017096
# 5 -0.011479 0.004437 0.009092 -0.016232 0.045213 0.022646
# 6 -0.013746 0.007453 0.008596 -0.017096 0.022646 0.055032
#
#
# Mechanical properties :
#
#
# Convention : Reuss Voigt Hill
#
# Bulk Modulus (GPa) = 45.68579 59.03094 52.35836
# Shear Modulus (GPa) = 21.30975 31.74155 26.52565
#
# Velocity S-wave (km/s) = 3.00767 3.67076 3.35563
# Velocity P-wave (km/s) = 5.60850 6.55933 6.10246
#
# Compressibility (1/GPa) = 0.02188864
#
# Stress axis : x y z
#
# Youngs Moduli (GPa) = 62.61489 102.47346 39.97629
#
# Poissons Ratio (x) = 0.56291 0.40417
# Poissons Ratio (y) = 0.34396 -0.04700
# Poissons Ratio (z) = 0.63305 -0.12048
#
# Static dielectric constant tensor:
#      x y z
#    x 1.935280 0.035010 -0.034760 
#    y 0.035010 1.928030 0.084070 
#    z -0.034760 0.084070 1.962980 
# 
# From -- ./inp_files/285839.got.cif
#   From: 2010.05.17/outbox.cif.g08.bks.cpg/sg2_143_cif.got.tgz:285839.got - 2010.06.03 11:33:40.
