data_PCOD9079539
_publ_section_title
;
Structure prediction by ZEFSAII (Michael W. Deem and Ramdas Pophale) SiO2 
 PCOD9079539
Probable space group: P -1
;
_chemical_formula_sum "Si O2"
_cell_formula_units_Z 16
_cell_length_a 11.587998
_cell_length_b 7.732455
_cell_length_c 18.822154
_cell_angle_alpha 69.031748
_cell_angle_beta 148.722289
_cell_angle_gamma 95.042562
_cell_volume 730.361428
_symmetry_space_group_name_H-M "P -1"
_symmetry_group_IT_number 2
_symmetry_cell_setting 'triclinic'
loop_
_space_group_symop_operation_xyz
x,y,z
-x,-y,-z
loop_
_atom_site_type_symbol
_atom_site_label
_atom_site_fract_x
_atom_site_fract_y
_atom_site_fract_z
Si Si1 0.757520 0.416396 0.360338
Si Si2 0.751746 0.805915 0.260729
Si Si3 0.585437 0.533401 0.615579
Si Si4 0.782277 0.885938 0.001868
Si Si5 0.296857 0.698126 0.157263
Si Si6 0.956119 0.136677 0.720673
Si Si7 0.667893 0.698165 0.831103
Si Si8 0.737399 0.846099 0.693156
O O1 0.745734 0.585581 0.270578
O O2 0.587982 0.587185 0.304750
O O3 0.603060 0.283989 0.290926
O O4 0.030324 0.271533 0.553599
O O5 0.492559 0.983956 0.126635
O O6 0.846141 0.890993 0.231602
O O7 0.500000 0.500000 0.500000
O O8 0.692772 0.330825 0.749508
O O9 0.314799 0.706385 0.476433
O O10 0.776223 0.630277 0.710851
O O11 0.833365 0.071880 0.971034
O O12 0.770034 0.758615 0.945747
O O13 0.965653 0.779615 0.179736
O O14 0.205907 0.543561 0.093398
O O15 0.935916 0.930991 0.766936
O O16 0.670346 0.830351 0.743192
O O17 0.500000 0.000000 0.500000
#
# Coordination Sequence:
#
# PCOD9079539 Si02
#       8
#     2   2   2   2   2   2   2   2
#     4   8  16  35  62  80 108 153 196 248 279 330
#     4  10  18  37  61  83 118 160 197 241 297 341
#     4  10  20  39  61  86 114 156 200 244 295 351
#     4  11  23  35  63  88 120 164 192 238 302 362
#     4   8  18  39  58  81 118 149 195 247 282 338
#     4  11  22  39  56  91 124 153 193 243 306 347
#     4   9  19  39  57  88 118 152 203 246 289 349
#     4   9  19  37  61  80 118 150 188 258 287 337
#
# _framework density 21.906960999999999
#
# number of rings (size 3 to 8) (size 9 to 14) (size 15 to 20)
#    0.750    1.750    1.250    1.125    3.500    1.000 
#    2.250    3.125    0.000    0.000    0.000    0.000 
#    0.000    0.000    0.000    0.000    0.000    0.000 
#
# Total GULP energy -89100.917196 kJ/mol
# GULP energy per Si atom -5568.807325 kJ/mol
# Density = 2.185710 g / cm^3
# Si number density = 21.906961 Si / 1000 Ang^3
#
#
#
# Elastic Constant Matrix: (Units=GPa)
#
#
# Indices 1 2 3 4 5 6 
#
# 1 121.1335 62.3810 45.0653 12.0562 -9.8126 23.4227
# 2 62.3810 91.3495 48.5824 12.3595 -12.6568 17.9425
# 3 45.0653 48.5824 119.1327 5.3635 -4.1427 6.5173
# 4 12.0562 12.3595 5.3635 36.8613 -5.4428 0.0770
# 5 -9.8126 -12.6568 -4.1427 -5.4428 32.7501 1.4907
# 6 23.4227 17.9425 6.5173 0.0770 1.4907 37.8585
#
#
#
# Elastic Compliance Matrix: (Units=1/GPa)
#
#
# Indices 1 2 3 4 5 6 
#
# 1 0.013826 -0.007042 -0.001974 -0.001699 0.001113 -0.004917
# 2 -0.007042 0.020490 -0.005129 -0.003094 0.004858 -0.004656
# 3 -0.001974 -0.005129 0.011068 0.000580 -0.001159 0.001791
# 4 -0.001699 -0.003094 0.000580 0.029091 0.003101 0.002236
# 5 0.001113 0.004858 -0.001159 0.003101 0.033301 -0.004109
# 6 -0.004917 -0.004656 0.001791 0.002236 -0.004109 0.031512
#
#
# Mechanical properties :
#
#
# Convention : Reuss Voigt Hill
#
# Bulk Modulus (GPa) = 58.50111 71.51924 65.01018
# Shear Modulus (GPa) = 28.85573 33.19977 31.02775
#
# Velocity S-wave (km/s) = 3.63325 3.89715 3.76751
# Velocity P-wave (km/s) = 6.66056 7.27792 6.97607
#
# Compressibility (1/GPa) = 0.01709369
#
# Stress axis : x y z
#
# Youngs Moduli (GPa) = 72.32567 48.80518 90.35022
#
# Poissons Ratio (x) = 0.34368 0.17838
# Poissons Ratio (y) = 0.50931 0.46341
# Poissons Ratio (z) = 0.14279 0.25032
#
# Static dielectric constant tensor:
#      x y z
#    x 1.933300 0.059630 0.086350 
#    y 0.059630 1.900230 0.014640 
#    z 0.086350 0.014640 1.819050 
# 
# From -- ./inp_files/566698.got.cif
#   From: 2010.05.17/outbox.cif.g08.bks.cpg/sg2_284_cif.got.tgz:566698.got - 2010.06.03 11:33:40.
