data_PCOD9079943
_publ_section_title
;
Structure prediction by ZEFSAII (Michael W. Deem and Ramdas Pophale) SiO2 
 PCOD9079943
Probable space group: P -1
;
_chemical_formula_sum "Si O2"
_cell_formula_units_Z 15
_cell_length_a 9.667314
_cell_length_b 7.526107
_cell_length_c 11.754327
_cell_angle_alpha 96.924215
_cell_angle_beta 62.467878
_cell_angle_gamma 127.449148
_cell_volume 586.199013
_symmetry_space_group_name_H-M "P -1"
_symmetry_group_IT_number 2
_symmetry_cell_setting 'triclinic'
loop_
_space_group_symop_operation_xyz
x,y,z
-x,-y,-z
loop_
_atom_site_type_symbol
_atom_site_label
_atom_site_fract_x
_atom_site_fract_y
_atom_site_fract_z
Si Si1 0.386945 0.546602 0.897935
Si Si2 0.772923 0.962060 0.656486
Si Si3 0.499215 0.285487 0.477824
Si Si4 0.503140 0.263831 0.721767
Si Si5 0.640524 0.221436 0.887976
Si Si6 0.000000 0.500000 0.000000
Si Si7 0.049064 0.281693 0.417855
Si Si8 0.084869 0.593629 0.739661
O O1 0.592142 0.793133 0.798896
O O2 0.392100 0.350048 0.831333
O O3 0.193516 0.506746 0.918533
O O4 0.369778 0.583574 0.041907
O O5 0.656358 0.866655 0.573581
O O6 0.925871 0.912384 0.626325
O O7 0.924219 0.227017 0.576468
O O8 0.500000 0.500000 0.500000
O O9 0.428656 0.157152 0.617230
O O10 0.715976 0.368669 0.365355
O O11 0.553517 0.154889 0.789772
O O12 0.725068 0.496638 0.627160
O O13 0.872926 0.330661 0.825112
O O14 0.500000 0.000000 0.000000
O O15 0.096331 0.689125 0.868049
O O16 0.972052 0.321645 0.337528
#
# Coordination Sequence:
#
# PCOD9079943 Si02
#       8
#     2   2   2   2   2   1   2   2
#     4  10  19  37  66  82 121 165 202 243 300 368
#     4  10  20  38  61  96 121 159 197 260 300 369
#     4  12  21  39  62  91 127 158 201 251 318 356
#     4  10  21  40  64  90 122 166 201 249 311 372
#     4  10  23  41  61  94 120 160 210 258 299 358
#     4  10  18  38  58  84 114 160 214 230 296 354
#     4   9  20  38  59  92 121 154 210 242 311 363
#     4  10  22  38  63  86 119 167 197 255 300 373
#
# _framework density 25.588578999999999
#
# number of rings (size 3 to 8) (size 9 to 14) (size 15 to 20)
#    0.000    1.867    4.000    0.400    0.000    5.867 
#    7.200    0.000    0.000    4.000    0.000    0.000 
#    0.000    0.000    0.000    0.000    0.000    0.000 
#
# Total GULP energy -83522.736810 kJ/mol
# GULP energy per Si atom -5568.182454 kJ/mol
# Density = 2.553034 g / cm^3
# Si number density = 25.588579 Si / 1000 Ang^3
#
#
#
# Elastic Constant Matrix: (Units=GPa)
#
#
# Indices 1 2 3 4 5 6 
#
# 1 136.7014 12.2474 30.0199 4.0036 -37.3655 -3.2270
# 2 12.2474 33.6029 12.4132 0.6739 -11.7761 1.2082
# 3 30.0199 12.4132 116.9214 14.6529 -23.7659 -11.8599
# 4 4.0036 0.6739 14.6529 42.4686 2.1270 0.8198
# 5 -37.3655 -11.7761 -23.7659 2.1270 60.9847 -2.1813
# 6 -3.2270 1.2082 -11.8599 0.8198 -2.1813 29.1447
#
#
#
# Elastic Compliance Matrix: (Units=1/GPa)
#
#
# Indices 1 2 3 4 5 6 
#
# 1 0.009051 -0.001210 -0.000977 -0.000767 0.004995 0.001050
# 2 -0.001210 0.032785 -0.002506 0.000274 0.004526 -0.002182
# 3 -0.000977 -0.002506 0.010719 -0.003828 0.003397 0.004719
# 4 -0.000767 0.000274 -0.003828 0.025129 -0.002877 -0.002576
# 5 0.004995 0.004526 0.003397 -0.002877 0.021880 0.003466
# 6 0.001050 -0.002182 0.004719 -0.002576 0.003466 0.036771
#
#
# Mechanical properties :
#
#
# Convention : Reuss Voigt Hill
#
# Bulk Modulus (GPa) = 23.16493 44.06518 33.61505
# Shear Modulus (GPa) = 31.22869 42.02261 36.62565
#
# Velocity S-wave (km/s) = 3.49723 4.05685 3.78739
# Velocity P-wave (km/s) = 5.03786 6.26116 5.68252
#
# Compressibility (1/GPa) = 0.04316871
#
# Stress axis : x y z
#
# Youngs Moduli (GPa) = 110.48632 30.50195 93.29653
#
# Poissons Ratio (x) = 0.03689 0.09119
# Poissons Ratio (y) = 0.13363 0.23379
# Poissons Ratio (z) = 0.10799 0.07643
#
# Static dielectric constant tensor:
#      x y z
#    x 1.973550 -0.058840 0.033950 
#    y -0.058840 2.062960 0.132830 
#    z 0.033950 0.132830 2.220670 
# 
# From -- ./inp_files/378602.got.cif
#   From: 2010.05.17/outbox.cif.g08.bks.cpg/sg2_190_cif.got.tgz:378602.got - 2010.06.03 11:33:40.
