data_PCOD9079206
_publ_section_title
;
Structure prediction by ZEFSAII (Michael W. Deem and Ramdas Pophale) SiO2 
 PCOD9079206
Probable space group: P -1
;
_chemical_formula_sum "Si O2"
_cell_formula_units_Z 16
_cell_length_a 14.072138
_cell_length_b 20.870339
_cell_length_c 7.512987
_cell_angle_alpha 113.806048
_cell_angle_beta 108.905701
_cell_angle_gamma 20.309811
_cell_volume 690.293072
_symmetry_space_group_name_H-M "P -1"
_symmetry_group_IT_number 2
_symmetry_cell_setting 'triclinic'
loop_
_space_group_symop_operation_xyz
x,y,z
-x,-y,-z
loop_
_atom_site_type_symbol
_atom_site_label
_atom_site_fract_x
_atom_site_fract_y
_atom_site_fract_z
Si Si1 0.242645 0.905379 0.216009
Si Si2 0.342032 0.202200 0.093275
Si Si3 0.458537 0.891138 0.521708
Si Si4 0.230849 0.616073 0.068795
Si Si5 0.073666 0.513456 0.332203
Si Si6 0.191905 0.194412 0.726781
Si Si7 0.137002 0.816070 0.034999
Si Si8 0.219099 0.489815 0.742803
O O1 0.255154 0.960908 0.424337
O O2 0.570546 0.672901 0.158002
O O3 0.122401 0.906747 0.195430
O O4 0.093726 0.031489 0.090530
O O5 0.545900 0.088317 0.248527
O O6 0.228972 0.351776 0.136103
O O7 0.086647 0.331689 0.184432
O O8 0.402476 0.106320 0.872321
O O9 0.781438 0.672953 0.413068
O O10 0.353191 0.031750 0.529346
O O11 0.549516 0.404388 0.095095
O O12 0.030040 0.705605 0.180220
O O13 0.123756 0.762416 0.111365
O O14 0.242147 0.558753 0.834480
O O15 0.985426 0.635310 0.298112
O O16 0.260223 0.423728 0.505965
#
# Coordination Sequence:
#
# PCOD9079206 Si02
#       8
#     2   2   2   2   2   2   2   2
#     4  10  18  36  64  89 107 147 206 242 286 346
#     4  10  19  39  56  84 125 161 192 234 283 351
#     4  11  21  38  58  90 125 155 191 241 288 351
#     4   9  20  41  60  84 117 152 195 246 302 339
#     4  11  20  37  61  89 120 164 194 226 285 366
#     4  11  24  36  57  92 126 153 192 240 295 349
#     4   9  20  38  67  85 106 151 205 252 290 345
#     4   9  17  34  63  85 112 154 200 234 280 358
#
# _framework density 23.178559
#
# number of rings (size 3 to 8) (size 9 to 14) (size 15 to 20)
#    0.000    2.000    2.500    1.875    1.750    0.000 
#    4.500    2.500    0.000    0.000    0.000    0.000 
#    0.000    0.000    0.000    0.000    0.000    0.000 
#
# Total GULP energy -89148.933531 kJ/mol
# GULP energy per Si atom -5571.808346 kJ/mol
# Density = 2.312580 g / cm^3
# Si number density = 23.178559 Si / 1000 Ang^3
#
#
#
# Elastic Constant Matrix: (Units=GPa)
#
#
# Indices 1 2 3 4 5 6 
#
# 1 93.1858 60.5438 45.5607 -12.2771 15.7160 31.6155
# 2 60.5438 120.8302 38.3878 -19.0158 15.4905 21.4805
# 3 45.5607 38.3878 85.5914 -15.8660 32.0995 1.8275
# 4 -12.2771 -19.0158 -15.8660 39.4654 0.9618 6.1774
# 5 15.7160 15.4905 32.0995 0.9618 32.5557 4.6953
# 6 31.6155 21.4805 1.8275 6.1774 4.6953 43.7293
#
#
#
# Elastic Compliance Matrix: (Units=1/GPa)
#
#
# Indices 1 2 3 4 5 6 
#
# 1 0.025406 -0.006498 -0.011397 0.002515 0.004227 -0.015509
# 2 -0.006498 0.013110 -0.000740 0.004380 -0.002199 -0.002094
# 3 -0.011397 -0.000740 0.027660 0.006366 -0.022906 0.009007
# 4 0.002515 0.004380 0.006366 0.032238 -0.009405 -0.007780
# 5 0.004227 -0.002199 -0.022906 -0.009405 0.053367 -0.005420
# 6 -0.015509 -0.002094 0.009007 -0.007780 -0.005420 0.036413
#
#
# Mechanical properties :
#
#
# Convention : Reuss Voigt Hill
#
# Bulk Modulus (GPa) = 34.59471 65.39909 49.99690
# Shear Modulus (GPa) = 21.26761 33.49109 27.37935
#
# Velocity S-wave (km/s) = 3.03240 3.80533 3.44064
# Velocity P-wave (km/s) = 5.21712 6.89811 6.11565
#
# Compressibility (1/GPa) = 0.02890616
#
# Stress axis : x y z
#
# Youngs Moduli (GPa) = 39.36155 76.27516 36.15295
#
# Poissons Ratio (x) = 0.49564 0.41204
# Poissons Ratio (y) = 0.25577 0.02674
# Poissons Ratio (z) = 0.44861 0.05642
#
# Static dielectric constant tensor:
#      x y z
#    x 1.911900 0.045330 0.026250 
#    y 0.045330 1.979100 0.025090 
#    z 0.026250 0.025090 1.970620 
# 
# From -- ./inp_files/318052.got.cif
#   From: 2010.05.17/outbox.cif.g08.bks.cpg/sg2_160_cif.got.tgz:318052.got - 2010.06.03 11:33:40.
