data_PCOD9079674
_publ_section_title
;
Structure prediction by ZEFSAII (Michael W. Deem and Ramdas Pophale) SiO2 
 PCOD9079674
Probable space group: P -1
;
_chemical_formula_sum "Si O2"
_cell_formula_units_Z 16
_cell_length_a 20.089747
_cell_length_b 18.737276
_cell_length_c 9.104904
_cell_angle_alpha 136.293605
_cell_angle_beta 43.259155
_cell_angle_gamma 159.172521
_cell_volume 822.480131
_symmetry_space_group_name_H-M "P -1"
_symmetry_group_IT_number 2
_symmetry_cell_setting 'triclinic'
loop_
_space_group_symop_operation_xyz
x,y,z
-x,-y,-z
loop_
_atom_site_type_symbol
_atom_site_label
_atom_site_fract_x
_atom_site_fract_y
_atom_site_fract_z
Si Si1 0.011163 0.531417 0.697955
Si Si2 0.512266 0.627932 0.610657
Si Si3 0.078845 0.323568 0.560761
Si Si4 0.308538 0.744602 0.763696
Si Si5 0.738999 0.132093 0.722144
Si Si6 0.625534 0.573173 0.771705
Si Si7 0.151175 0.066556 0.268575
Si Si8 0.898018 0.662759 0.118651
O O1 0.215591 0.690950 0.678830
O O2 0.000000 0.500000 0.500000
O O3 0.856385 0.316670 0.705000
O O4 0.955854 0.598707 0.911031
O O5 0.500000 0.500000 0.500000
O O6 0.496290 0.599680 0.417511
O O7 0.698271 0.837395 0.708888
O O8 0.327542 0.521572 0.804481
O O9 0.186340 0.533673 0.700632
O O10 0.216176 0.363322 0.329717
O O11 0.057870 0.270507 0.683388
O O12 0.873121 0.156582 0.571933
O O13 0.530828 0.919186 0.674623
O O14 0.283440 0.821723 0.023272
O O15 0.737073 0.765899 0.787135
O O16 0.500000 0.500000 0.000000
O O17 0.000000 0.000000 0.500000
O O18 0.023567 0.854159 0.101827
#
# Coordination Sequence:
#
# PCOD9079674 Si02
#       8
#     2   2   2   2   2   2   2   2
#     4  11  23  41  58  88 129 159 195 259 309 365
#     4   9  19  37  62  86 118 157 202 252 294 361
#     4  10  18  37  63  86 120 157 202 251 301 362
#     4  10  20  38  64  90 115 153 207 250 301 367
#     4  10  20  38  65  89 118 153 205 254 298 368
#     4  10  22  41  61  89 131 159 198 261 311 357
#     4  11  20  39  66  89 118 163 214 250 291 382
#     4  11  20  37  65  89 116 163 212 243 307 364
#
# _framework density 19.453358000000001
#
# number of rings (size 3 to 8) (size 9 to 14) (size 15 to 20)
#    0.000    1.750    6.250    0.750    0.000    3.500 
#   11.250    0.625    0.000    0.000    0.000    0.000 
#    0.000    0.000    0.000    0.000    0.000    0.000 
#
# Total GULP energy -89220.558833 kJ/mol
# GULP energy per Si atom -5576.284927 kJ/mol
# Density = 1.940908 g / cm^3
# Si number density = 19.453358 Si / 1000 Ang^3
#
#
#
# Elastic Constant Matrix: (Units=GPa)
#
#
# Indices 1 2 3 4 5 6 
#
# 1 102.4130 56.9790 39.0071 -13.3072 -10.6715 28.3955
# 2 56.9790 122.7080 32.1953 -15.9697 0.8534 33.1000
# 3 39.0071 32.1953 65.8027 -26.2088 1.5507 13.7679
# 4 -13.3072 -15.9697 -26.2088 19.1460 7.2722 -5.5754
# 5 -10.6715 0.8534 1.5507 7.2722 30.3528 -2.7417
# 6 28.3955 33.1000 13.7679 -5.5754 -2.7417 40.9866
#
#
#
# Elastic Compliance Matrix: (Units=1/GPa)
#
#
# Indices 1 2 3 4 5 6 
#
# 1 0.018863 -0.005957 -0.014318 -0.017175 0.011191 -0.005035
# 2 -0.005957 0.013438 0.003179 0.011800 -0.006057 -0.006593
# 3 -0.014318 0.003179 0.052539 0.073793 -0.025666 -0.001975
# 4 -0.017175 0.011800 0.073793 0.169744 -0.051057 -0.002744
# 5 0.011191 -0.006057 -0.025666 -0.051057 0.050795 0.002213
# 6 -0.005035 -0.006593 -0.001975 -0.002744 0.002213 0.033649
#
#
# Mechanical properties :
#
#
# Convention : Reuss Voigt Hill
#
# Bulk Modulus (GPa) = 19.74461 60.80959 40.27710
# Shear Modulus (GPa) = 12.81717 28.94656 20.88186
#
# Velocity S-wave (km/s) = 2.56962 3.86164 3.27988
# Velocity P-wave (km/s) = 4.35611 7.15612 5.92393
#
# Compressibility (1/GPa) = 0.05064674
#
# Stress axis : x y z
#
# Youngs Moduli (GPa) = 53.01500 74.41697 19.03364
#
# Poissons Ratio (x) = 0.44330 0.27252
# Poissons Ratio (y) = 0.31581 -0.06050
# Poissons Ratio (z) = 0.75906 -0.23655
#
# Static dielectric constant tensor:
#      x y z
#    x 1.705330 0.002350 -0.017840 
#    y 0.002350 1.793230 0.034380 
#    z -0.017840 0.034380 1.700510 
# 
# From -- ./inp_files/349722.got.cif
#   From: 2010.05.17/outbox.cif.g08.bks.cpg/sg2_175_cif.got.tgz:349722.got - 2010.06.03 11:33:40.
