data_PCOD9079065
_publ_section_title
;
Structure prediction by ZEFSAII (Michael W. Deem and Ramdas Pophale) SiO2 
 PCOD9079065
Probable space group: P -1
;
_chemical_formula_sum "Si O2"
_cell_formula_units_Z 12
_cell_length_a 12.070791
_cell_length_b 11.127757
_cell_length_c 10.145258
_cell_angle_alpha 95.495032
_cell_angle_beta 106.001053
_cell_angle_gamma 148.287101
_cell_volume 521.149734
_symmetry_space_group_name_H-M "P -1"
_symmetry_group_IT_number 2
_symmetry_cell_setting 'triclinic'
loop_
_space_group_symop_operation_xyz
x,y,z
-x,-y,-z
loop_
_atom_site_type_symbol
_atom_site_label
_atom_site_fract_x
_atom_site_fract_y
_atom_site_fract_z
Si Si1 0.508965 0.158936 0.424092
Si Si2 0.615119 0.849248 0.361524
Si Si3 0.303921 0.201298 0.365126
Si Si4 0.835893 0.451524 0.118165
Si Si5 0.694042 0.580336 0.012966
Si Si6 0.335725 0.878449 0.728901
O O1 0.688350 0.232760 0.415073
O O2 0.176366 0.798527 0.259645
O O3 0.567692 0.240186 0.606468
O O4 0.504035 0.288990 0.377285
O O5 0.793453 0.947047 0.539174
O O6 0.425980 0.577233 0.184661
O O7 0.781000 0.101360 0.347513
O O8 0.500000 0.500000 0.500000
O O9 0.020370 0.943306 0.159356
O O10 0.775556 0.304560 0.203800
O O11 0.702130 0.459331 0.081869
O O12 0.666395 0.229518 0.916394
O O13 0.500000 0.500000 0.000000
#
# Coordination Sequence:
#
# PCOD9079065 Si02
#       6
#     2   2   2   2   2   2
#     4   9  19  37  57  87 123 157 193 254 303 351
#     4   9  21  37  59  91 120 156 203 248 302 369
#     4   9  21  40  58  90 119 157 210 250 294 369
#     4   9  20  36  59  94 118 156 208 246 294 376
#     4  10  21  41  61  85 126 162 202 257 303 352
#     4  10  18  36  62  85 125 157 197 244 315 359
#
# _framework density 23.026012999999999
#
# number of rings (size 3 to 8) (size 9 to 14) (size 15 to 20)
#    1.000    1.667    0.000    1.000    0.000    3.333 
#    3.000    8.333    0.000    0.000    0.000    0.000 
#    0.000    0.000    0.000    0.000    0.000    0.000 
#
# Total GULP energy -66849.029621 kJ/mol
# GULP energy per Si atom -5570.752468 kJ/mol
# Density = 2.297360 g / cm^3
# Si number density = 23.026013 Si / 1000 Ang^3
#
#
#
# Elastic Constant Matrix: (Units=GPa)
#
#
# Indices 1 2 3 4 5 6 
#
# 1 110.4161 24.3271 49.1014 9.7548 -19.7809 -7.0655
# 2 24.3271 37.0371 19.8208 4.0303 -11.0266 -18.7537
# 3 49.1014 19.8208 162.0270 8.4817 -34.2509 1.0834
# 4 9.7548 4.0303 8.4817 37.8201 -9.4016 -7.6564
# 5 -19.7809 -11.0266 -34.2509 -9.4016 42.0636 4.1509
# 6 -7.0655 -18.7537 1.0834 -7.6564 4.1509 17.7570
#
#
#
# Elastic Compliance Matrix: (Units=1/GPa)
#
#
# Indices 1 2 3 4 5 6 
#
# 1 0.012128 -0.009406 -0.001991 -0.002575 0.001681 -0.006490
# 2 -0.009406 0.081732 -0.007310 0.014566 0.005623 0.087989
# 3 -0.001991 -0.007310 0.008911 -0.001654 0.005115 -0.010965
# 4 -0.002575 0.014566 -0.001654 0.032917 0.005927 0.027268
# 5 0.001681 0.005623 0.005115 0.005927 0.031378 0.001516
# 6 -0.006490 0.087989 -0.010965 0.027268 0.001516 0.158733
#
#
# Mechanical properties :
#
#
# Convention : Reuss Voigt Hill
#
# Bulk Modulus (GPa) = 15.30066 55.10876 35.20471
# Shear Modulus (GPa) = 12.98702 33.94354 23.46528
#
# Velocity S-wave (km/s) = 2.37748 3.84362 3.19576
# Velocity P-wave (km/s) = 3.76774 6.60932 5.37954
#
# Compressibility (1/GPa) = 0.06535665
#
# Stress axis : x y z
#
# Youngs Moduli (GPa) = 82.45557 12.23507 112.22444
#
# Poissons Ratio (x) = 0.11508 0.22345
# Poissons Ratio (y) = 0.77555 0.82039
# Poissons Ratio (z) = 0.16417 0.08944
#
# Static dielectric constant tensor:
#      x y z
#    x 1.935030 -0.004580 0.039560 
#    y -0.004580 1.929590 -0.007730 
#    z 0.039560 -0.007730 1.867630 
# 
# From -- ./inp_files/385206.got.cif
#   From: 2010.05.17/outbox.cif.g08.bks.cpg/sg2_193_cif.got.tgz:385206.got - 2010.06.03 11:33:40.
