data_PCOD9079411
_publ_section_title
;
Structure prediction by ZEFSAII (Michael W. Deem and Ramdas Pophale) SiO2 
 PCOD9079411
Probable space group: P -1
;
_chemical_formula_sum "Si O2"
_cell_formula_units_Z 14
_cell_length_a 13.583845
_cell_length_b 8.991267
_cell_length_c 10.042500
_cell_angle_alpha 58.761446
_cell_angle_beta 44.117527
_cell_angle_gamma 47.206752
_cell_volume 625.411267
_symmetry_space_group_name_H-M "P -1"
_symmetry_group_IT_number 2
_symmetry_cell_setting 'triclinic'
loop_
_space_group_symop_operation_xyz
x,y,z
-x,-y,-z
loop_
_atom_site_type_symbol
_atom_site_label
_atom_site_fract_x
_atom_site_fract_y
_atom_site_fract_z
Si Si1 0.836778 0.551394 0.362909
Si Si2 0.062784 0.226418 0.644950
Si Si3 0.515639 0.863673 0.419811
Si Si4 0.774260 0.220851 0.268724
Si Si5 0.817834 0.185159 0.556634
Si Si6 0.329512 0.055620 0.245753
Si Si7 0.814832 0.541670 0.913742
O O1 0.825499 0.711442 0.408111
O O2 0.704569 0.682503 0.318640
O O3 0.797420 0.389949 0.540746
O O4 0.028518 0.449749 0.182903
O O5 0.148115 0.173591 0.443132
O O6 0.884275 0.416853 0.763654
O O7 0.087362 0.017652 0.776920
O O8 0.396394 0.772077 0.597164
O O9 0.500000 0.000000 0.500000
O O10 0.455968 0.973126 0.283979
O O11 0.795351 0.240429 0.395998
O O12 0.782548 0.393491 0.101558
O O13 0.687990 0.112603 0.741026
O O14 0.000000 0.000000 0.500000
O O15 0.328898 0.229593 0.079196
#
# Coordination Sequence:
#
# PCOD9079411 Si02
#       7
#     2   2   2   2   2   2   2
#     4  10  19  32  63  75 106 141 190 210 266 321
#     4   8  17  31  54  77  99 141 184 213 253 316
#     4  10  18  37  57  77 106 145 182 217 263 326
#     4  10  21  33  56  78 116 136 175 231 274 308
#     4  10  19  36  54  84 104 143 186 221 256 324
#     4  10  19  33  56  77 112 141 178 226 259 321
#     4  10  19  33  55  84 105 141 180 225 274 303
#
# _framework density 22.385269999999998
#
# number of rings (size 3 to 8) (size 9 to 14) (size 15 to 20)
#    0.857    1.714    4.286    0.857    0.000    2.857 
#    0.000    0.714    3.143    1.714    0.000    0.000 
#    0.000    0.000    0.000    0.000    0.000    0.000 
#
# Total GULP energy -77975.213580 kJ/mol
# GULP energy per Si atom -5569.658113 kJ/mol
# Density = 2.233432 g / cm^3
# Si number density = 22.385270 Si / 1000 Ang^3
#
#
#
# Elastic Constant Matrix: (Units=GPa)
#
#
# Indices 1 2 3 4 5 6 
#
# 1 124.5802 33.5931 39.0006 -14.5095 -11.1800 -19.7776
# 2 33.5931 45.8765 39.7463 -32.0003 -2.1046 -3.5833
# 3 39.0006 39.7463 128.3670 -38.6007 5.6550 -11.0298
# 4 -14.5095 -32.0003 -38.6007 48.5607 -3.4138 3.9926
# 5 -11.1800 -2.1046 5.6550 -3.4138 18.5283 -4.6687
# 6 -19.7776 -3.5833 -11.0298 3.9926 -4.6687 38.7724
#
#
#
# Elastic Compliance Matrix: (Units=1/GPa)
#
#
# Indices 1 2 3 4 5 6 
#
# 1 0.012358 -0.009300 -0.001845 -0.003867 0.007829 0.006260
# 2 -0.009300 0.053699 -0.005739 0.028807 0.006645 -0.003580
# 3 -0.001845 -0.005739 0.011797 0.004670 -0.004281 0.000888
# 4 -0.003867 0.028807 0.004670 0.042752 0.007002 -0.001541
# 5 0.007829 0.006645 -0.004281 0.007002 0.064682 0.010457
# 6 0.006260 -0.003580 0.000888 -0.001541 0.010457 0.030325
#
#
# Mechanical properties :
#
#
# Convention : Reuss Voigt Hill
#
# Bulk Modulus (GPa) = 22.68306 58.16709 40.42508
# Shear Modulus (GPa) = 18.93392 33.60450 26.26921
#
# Velocity S-wave (km/s) = 2.91145 3.87872 3.42936
# Velocity P-wave (km/s) = 4.63218 6.78972 5.81194
#
# Compressibility (1/GPa) = 0.04408576
#
# Stress axis : x y z
#
# Youngs Moduli (GPa) = 80.91664 18.62234 84.76762
#
# Poissons Ratio (x) = 0.17319 0.15638
# Poissons Ratio (y) = 0.75254 0.48650
# Poissons Ratio (z) = 0.14928 0.10688
#
# Static dielectric constant tensor:
#      x y z
#    x 1.857970 0.057850 -0.011710 
#    y 0.057850 1.974590 0.000780 
#    z -0.011710 0.000780 1.862890 
# 
# From -- ./inp_files/526126.got.cif
#   From: 2010.05.17/outbox.cif.g08.bks.cpg/sg2_264_cif.got.tgz:526126.got - 2010.06.03 11:33:40.
