data_PCOD9079058
_publ_section_title
;
Structure prediction by ZEFSAII (Michael W. Deem and Ramdas Pophale) SiO2 
 PCOD9079058
Probable space group: P -1
;
_chemical_formula_sum "Si O2"
_cell_formula_units_Z 12
_cell_length_a 19.277724
_cell_length_b 22.197567
_cell_length_c 10.079223
_cell_angle_alpha 156.516931
_cell_angle_beta 28.598501
_cell_angle_gamma 160.815450
_cell_volume 562.496123
_symmetry_space_group_name_H-M "P -1"
_symmetry_group_IT_number 2
_symmetry_cell_setting 'triclinic'
loop_
_space_group_symop_operation_xyz
x,y,z
-x,-y,-z
loop_
_atom_site_type_symbol
_atom_site_label
_atom_site_fract_x
_atom_site_fract_y
_atom_site_fract_z
Si Si1 0.738436 0.115180 0.500060
Si Si2 0.122912 0.498076 0.123074
Si Si3 0.342607 0.814933 0.745203
Si Si4 0.432051 0.322777 0.857128
Si Si5 0.103328 0.831787 0.384642
Si Si6 0.482333 0.354621 0.130729
O O1 0.909280 0.226541 0.558079
O O2 0.201603 0.712993 0.358288
O O3 0.526307 0.999078 0.705029
O O4 0.685448 0.911950 0.113307
O O5 0.712021 0.126291 0.914566
O O6 0.291056 0.556233 0.057327
O O7 0.090055 0.356461 0.766330
O O8 0.403304 0.692528 0.442716
O O9 0.114114 0.657846 0.741044
O O10 0.202779 0.074771 0.708990
O O11 0.500000 0.500000 0.000000
O O12 0.436010 0.385568 0.126653
O O13 0.500000 0.500000 0.500000
#
# Coordination Sequence:
#
# PCOD9079058 Si02
#       6
#     2   2   2   2   2   2
#     4  10  18  36  62  84 120 156 191 241 307 343
#     4  10  20  37  61  89 115 147 204 248 295 346
#     4   8  19  35  62  87 114 142 207 243 287 344
#     4  10  20  39  62  84 123 162 193 238 306 351
#     4   8  18  36  57  90 115 145 204 247 280 358
#     4  10  23  40  55  87 128 158 191 248 296 356
#
# _framework density 21.333479000000001
#
# number of rings (size 3 to 8) (size 9 to 14) (size 15 to 20)
#    1.000    2.000    0.000    3.000    0.000    5.333 
#    3.000    2.500    0.000    0.000    0.000    0.000 
#    0.000    0.000    0.000    0.000    0.000    0.000 
#
# Total GULP energy -66841.569074 kJ/mol
# GULP energy per Si atom -5570.130756 kJ/mol
# Density = 2.128492 g / cm^3
# Si number density = 21.333479 Si / 1000 Ang^3
#
#
#
# Elastic Constant Matrix: (Units=GPa)
#
#
# Indices 1 2 3 4 5 6 
#
# 1 58.9346 10.6880 34.4230 27.9807 0.5728 -8.8740
# 2 10.6880 27.4105 3.0142 10.0715 -3.8332 0.3013
# 3 34.4230 3.0142 107.8792 13.2031 38.0539 -5.8340
# 4 27.9807 10.0715 13.2031 29.1161 4.4372 5.0703
# 5 0.5728 -3.8332 38.0539 4.4372 31.8384 9.4881
# 6 -8.8740 0.3013 -5.8340 5.0703 9.4881 32.7193
#
#
#
# Elastic Compliance Matrix: (Units=1/GPa)
#
#
# Indices 1 2 3 4 5 6 
#
# 1 0.051780 0.003081 -0.019481 -0.047799 0.026310 0.010319
# 2 0.003081 0.044523 -0.005406 -0.017813 0.014872 -0.002091
# 3 -0.019481 -0.005406 0.028176 0.012086 -0.038356 0.009040
# 4 -0.047799 -0.017813 0.012086 0.087486 -0.022669 -0.017629
# 5 0.026310 0.014872 -0.038356 -0.022669 0.088262 -0.021922
# 6 0.010319 -0.002091 0.009040 -0.017629 -0.021922 0.044082
#
#
# Mechanical properties :
#
#
# Convention : Reuss Voigt Hill
#
# Bulk Modulus (GPa) = 12.36601 32.27496 22.32048
# Shear Modulus (GPa) = 12.05174 28.47469 20.26321
#
# Velocity S-wave (km/s) = 2.37939 3.65738 3.08528
# Velocity P-wave (km/s) = 3.65483 5.74429 4.81428
#
# Compressibility (1/GPa) = 0.08086682
#
# Stress axis : x y z
#
# Youngs Moduli (GPa) = 19.31247 22.46014 35.49066
#
# Poissons Ratio (x) = -0.06920 0.69140
# Poissons Ratio (y) = -0.05950 0.19187
# Poissons Ratio (z) = 0.37623 0.12142
#
# Static dielectric constant tensor:
#      x y z
#    x 1.779020 0.045940 0.083570 
#    y 0.045940 1.818190 -0.007510 
#    z 0.083570 -0.007510 1.854920 
# 
# From -- ./inp_files/473042.got.cif
#   From: 2010.05.17/outbox.cif.g08.bks.cpg/sg2_237_cif.got.tgz:473042.got - 2010.06.03 11:33:40.
