data_PCOD9079176
_publ_section_title
;
Structure prediction by ZEFSAII (Michael W. Deem and Ramdas Pophale) SiO2 
 PCOD9079176
Probable space group: P -1
;
_chemical_formula_sum "Si O2"
_cell_formula_units_Z 14
_cell_length_a 17.672856
_cell_length_b 9.745590
_cell_length_c 5.427315
_cell_angle_alpha 70.524558
_cell_angle_beta 117.169706
_cell_angle_gamma 131.210648
_cell_volume 624.877723
_symmetry_space_group_name_H-M "P -1"
_symmetry_group_IT_number 2
_symmetry_cell_setting 'triclinic'
loop_
_space_group_symop_operation_xyz
x,y,z
-x,-y,-z
loop_
_atom_site_type_symbol
_atom_site_label
_atom_site_fract_x
_atom_site_fract_y
_atom_site_fract_z
Si Si1 0.131459 0.766384 0.030328
Si Si2 0.778306 0.376610 0.376574
Si Si3 0.596644 0.130610 0.884633
Si Si4 0.351265 0.103391 0.113013
Si Si5 0.394924 0.312399 0.558897
Si Si6 0.077659 0.418327 0.917197
Si Si7 0.292607 0.502449 0.411085
O O1 0.191838 0.719642 0.335776
O O2 0.035519 0.744520 0.046279
O O3 0.083510 0.599005 0.869425
O O4 0.224394 0.964091 0.948413
O O5 0.705296 0.230074 0.146247
O O6 0.888643 0.557244 0.330372
O O7 0.710366 0.439171 0.351208
O O8 0.601676 0.011444 0.757311
O O9 0.612535 0.306520 0.690013
O O10 0.500000 0.000000 0.000000
O O11 0.407315 0.241921 0.881280
O O12 0.360618 0.179510 0.353651
O O13 0.500000 0.500000 0.500000
O O14 0.312121 0.355898 0.474726
O O15 0.177004 0.438265 0.181494
#
# Coordination Sequence:
#
# PCOD9079176 Si02
#       7
#     2   2   2   2   2   2   2
#     4  10  19  37  62 102 125 168 210 285 329 391
#     4  10  18  36  63  93 131 165 220 265 334 392
#     4  11  23  38  66  96 128 166 226 289 323 379
#     4  12  25  45  68 101 132 171 230 278 322 399
#     4  12  29  47  67  92 140 187 217 266 345 400
#     4   9  19  36  66  93 133 163 218 265 350 381
#     4  10  23  41  62  92 128 177 221 263 332 406
#
# _framework density 22.404384
#
# number of rings (size 3 to 8) (size 9 to 14) (size 15 to 20)
#    0.000    1.429    4.286    2.571    6.000    0.571 
#    0.000    1.429    0.000    0.000    0.000    0.000 
#    0.000    0.000    0.000    0.000    0.000    0.000 
#
# Total GULP energy -78144.143895 kJ/mol
# GULP energy per Si atom -5581.724564 kJ/mol
# Density = 2.235339 g / cm^3
# Si number density = 22.404384 Si / 1000 Ang^3
#
#
#
# Elastic Constant Matrix: (Units=GPa)
#
#
# Indices 1 2 3 4 5 6 
#
# 1 127.8327 27.7373 5.6923 -1.4204 -14.2339 -0.5617
# 2 27.7373 49.4522 -0.3753 2.3421 -5.4673 -6.1030
# 3 5.6923 -0.3753 40.8213 -1.5722 -11.6958 -19.7982
# 4 -1.4204 2.3421 -1.5722 28.3759 2.7608 -12.4940
# 5 -14.2339 -5.4673 -11.6958 2.7608 38.5825 -5.3958
# 6 -0.5617 -6.1030 -19.7982 -12.4940 -5.3958 57.4989
#
#
#
# Elastic Compliance Matrix: (Units=1/GPa)
#
#
# Indices 1 2 3 4 5 6 
#
# 1 0.009205 -0.004982 -0.000845 0.000412 0.002346 -0.000420
# 2 -0.004982 0.023925 0.003757 -0.000590 0.003288 0.003965
# 3 -0.000845 0.003757 0.036205 0.007292 0.012862 0.015648
# 4 0.000412 -0.000590 0.007292 0.040627 0.000962 0.011370
# 5 0.002346 0.003288 0.012862 0.000962 0.032203 0.008032
# 6 -0.000420 0.003965 0.015648 0.011370 0.008032 0.026421
#
#
# Mechanical properties :
#
#
# Convention : Reuss Voigt Hill
#
# Bulk Modulus (GPa) = 15.33873 31.57941 23.45907
# Shear Modulus (GPa) = 25.71250 37.22826 31.47038
#
# Velocity S-wave (km/s) = 3.39138 4.08076 3.75194
# Velocity P-wave (km/s) = 4.71131 6.02737 5.40951
#
# Compressibility (1/GPa) = 0.06519446
#
# Stress axis : x y z
#
# Youngs Moduli (GPa) = 108.63450 41.79743 27.62070
#
# Poissons Ratio (x) = 0.20822 0.02335
# Poissons Ratio (y) = 0.54117 -0.10376
# Poissons Ratio (z) = 0.09184 -0.15702
#
# Static dielectric constant tensor:
#      x y z
#    x 1.882590 0.032800 -0.055620 
#    y 0.032800 1.871860 0.014160 
#    z -0.055620 0.014160 1.917840 
# 
# From -- ./inp_files/35461.got.cif
#   From: 2010.05.17/outbox.cif.g08.bks.cpg/sg2_18_cif.got.tgz:35461.got - 2010.06.03 11:33:40.
