data_PCOD9079983
_publ_section_title
;
Structure prediction by ZEFSAII (Michael W. Deem and Ramdas Pophale) SiO2 
 PCOD9079983
Probable space group: P -1
;
_chemical_formula_sum "Si O2"
_cell_formula_units_Z 16
_cell_length_a 8.270549
_cell_length_b 7.057760
_cell_length_c 11.470726
_cell_angle_alpha 77.757690
_cell_angle_beta 86.904904
_cell_angle_gamma 96.205141
_cell_volume 648.462616
_symmetry_space_group_name_H-M "P -1"
_symmetry_group_IT_number 2
_symmetry_cell_setting 'triclinic'
loop_
_space_group_symop_operation_xyz
x,y,z
-x,-y,-z
loop_
_atom_site_type_symbol
_atom_site_label
_atom_site_fract_x
_atom_site_fract_y
_atom_site_fract_z
Si Si1 0.774535 0.035996 0.461607
Si Si2 0.222452 0.846304 0.989453
Si Si3 0.967019 0.108912 0.215125
Si Si4 0.939974 0.573150 0.167747
Si Si5 0.528150 0.791135 0.643859
Si Si6 0.062998 0.680696 0.394089
Si Si7 0.696568 0.075266 0.775808
Si Si8 0.598146 0.444261 0.115318
O O1 0.857736 0.019218 0.337106
O O2 0.633460 0.177246 0.425343
O O3 0.900126 0.146784 0.534145
O O4 0.683173 0.835672 0.546132
O O5 0.330271 0.921646 0.086030
O O6 0.086963 0.684186 0.073034
O O7 0.113913 0.965215 0.894754
O O8 0.333263 0.751412 0.905422
O O9 0.968089 0.343357 0.196896
O O10 0.148209 0.049812 0.221403
O O11 0.762948 0.585782 0.117302
O O12 0.946594 0.653853 0.288575
O O13 0.500686 0.605217 0.754629
O O14 0.561246 0.971582 0.710358
O O15 0.235565 0.716158 0.311231
O O16 0.000000 0.500000 0.500000
O O17 0.500000 0.500000 0.000000
#
# Coordination Sequence:
#
# PCOD9079983 Si02
#       8
#     2   2   2   2   2   2   2   2
#     4  10  20  38  64  87 119 165 199 253 306 363
#     4  10  22  41  58  89 123 161 209 250 304 354
#     4  11  19  38  60  91 118 159 210 249 300 357
#     4  10  21  38  64  88 120 161 204 254 304 360
#     4  10  21  38  58  89 126 160 199 242 314 369
#     4  10  18  38  60  85 116 155 204 250 300 350
#     4  10  24  35  59  91 120 161 202 256 302 355
#     4  11  22  38  62  93 126 163 199 245 313 373
#
# _framework density 24.673743000000002
#
# number of rings (size 3 to 8) (size 9 to 14) (size 15 to 20)
#    0.000    1.750    3.750    1.875    3.500    2.500 
#    0.000    0.000    0.000    3.750    0.000    0.000 
#    0.000    0.000    0.000    0.000    0.000    0.000 
#
# Total GULP energy -89330.343495 kJ/mol
# GULP energy per Si atom -5583.146468 kJ/mol
# Density = 2.461758 g / cm^3
# Si number density = 24.673743 Si / 1000 Ang^3
#
#
#
# Elastic Constant Matrix: (Units=GPa)
#
#
# Indices 1 2 3 4 5 6 
#
# 1 63.2734 28.9588 38.6300 -13.5502 -1.8467 9.5522
# 2 28.9588 59.6555 24.9750 5.6090 -3.5888 11.0857
# 3 38.6300 24.9750 184.6030 -0.5413 -8.1686 11.4809
# 4 -13.5502 5.6090 -0.5413 51.3562 8.5197 -2.2147
# 5 -1.8467 -3.5888 -8.1686 8.5197 51.9199 5.8080
# 6 9.5522 11.0857 11.4809 -2.2147 5.8080 28.9461
#
#
#
# Elastic Compliance Matrix: (Units=1/GPa)
#
#
# Indices 1 2 3 4 5 6 
#
# 1 0.025078 -0.011182 -0.003682 0.007994 -0.001593 -0.001601
# 2 -0.011182 0.024375 -0.000435 -0.006398 0.003003 -0.006565
# 3 -0.003682 -0.000435 0.006388 -0.001118 0.001193 -0.001476
# 4 0.007994 -0.006398 -0.001118 0.023133 -0.004456 0.002920
# 5 -0.001593 0.003003 0.001193 -0.004456 0.020962 -0.005644
# 6 -0.001601 -0.006565 -0.001476 0.002920 -0.005644 0.039531
#
#
# Mechanical properties :
#
#
# Convention : Reuss Voigt Hill
#
# Bulk Modulus (GPa) = 39.61725 54.73996 47.17861
# Shear Modulus (GPa) = 28.01438 40.77565 34.39502
#
# Velocity S-wave (km/s) = 3.37321 4.06962 3.73767
# Velocity P-wave (km/s) = 5.59131 6.65703 6.14731
#
# Compressibility (1/GPa) = 0.02524153
#
# Stress axis : x y z
#
# Youngs Moduli (GPa) = 39.87637 41.02508 156.54736
#
# Poissons Ratio (x) = 0.45873 0.57647
# Poissons Ratio (y) = 0.44589 0.06817
# Poissons Ratio (z) = 0.14684 0.01787
#
# Static dielectric constant tensor:
#      x y z
#    x 2.018020 -0.027510 0.056620 
#    y -0.027510 2.038670 -0.042920 
#    z 0.056620 -0.042920 2.017450 
# 
# From -- ./inp_files/381725.got.cif
#   From: 2010.05.17/outbox.cif.g08.bks.cpg/sg2_191_cif.got.tgz:381725.got - 2010.06.03 11:33:40.
