data_PCOD9079687
_publ_section_title
;
Structure prediction by ZEFSAII (Michael W. Deem and Ramdas Pophale) SiO2 
 PCOD9079687
Probable space group: P -1
;
_chemical_formula_sum "Si O2"
_cell_formula_units_Z 14
_cell_length_a 8.460436
_cell_length_b 15.929817
_cell_length_c 9.332566
_cell_angle_alpha 139.773146
_cell_angle_beta 63.962508
_cell_angle_gamma 90.761075
_cell_volume 607.286883
_symmetry_space_group_name_H-M "P -1"
_symmetry_group_IT_number 2
_symmetry_cell_setting 'triclinic'
loop_
_space_group_symop_operation_xyz
x,y,z
-x,-y,-z
loop_
_atom_site_type_symbol
_atom_site_label
_atom_site_fract_x
_atom_site_fract_y
_atom_site_fract_z
Si Si1 0.723929 0.133180 0.604227
Si Si2 0.429609 0.816939 0.887193
Si Si3 0.935395 0.198053 0.823256
Si Si4 0.762432 0.146039 0.279831
Si Si5 0.586740 0.885969 0.174811
Si Si6 0.872404 0.505200 0.338242
Si Si7 0.928603 0.351612 0.413644
O O1 0.871101 0.189298 0.674709
O O2 0.683942 0.146463 0.469703
O O3 0.492630 0.224034 0.884917
O O4 0.862311 0.958924 0.395116
O O5 0.347931 0.878115 0.840523
O O6 0.648760 0.650333 0.565579
O O7 0.255184 0.790670 0.993655
O O8 0.473443 0.923926 0.112217
O O9 0.953713 0.344265 0.016820
O O10 0.781069 0.292287 0.435000
O O11 0.000000 0.000000 0.000000
O O12 0.500000 0.000000 0.500000
O O13 0.835193 0.793640 0.922327
O O14 0.028473 0.563454 0.366617
O O15 0.843831 0.462226 0.454429
#
# Coordination Sequence:
#
# PCOD9079687 Si02
#       7
#     2   2   2   2   2   2   2
#     4  10  22  36  64  91 122 150 208 243 315 346
#     4  10  21  34  65  88 117 160 212 234 303 362
#     4  10  18  37  63  89 111 165 204 251 281 373
#     4  12  21  39  60  93 124 156 196 265 297 354
#     4  10  20  39  59  90 119 157 197 251 296 365
#     4  10  19  38  61  86 117 164 210 243 285 373
#     4  10  22  36  64  90 120 156 206 249 304 349
#
# _framework density 23.053355
#
# number of rings (size 3 to 8) (size 9 to 14) (size 15 to 20)
#    0.000    1.714    2.857    2.143    0.000    0.000 
#    0.000    7.857    0.000    0.000    0.000    0.000 
#    0.000    0.000    0.000    0.000    0.000    0.000 
#
# Total GULP energy -78015.978226 kJ/mol
# GULP energy per Si atom -5572.569873 kJ/mol
# Density = 2.300088 g / cm^3
# Si number density = 23.053355 Si / 1000 Ang^3
#
#
#
# Elastic Constant Matrix: (Units=GPa)
#
#
# Indices 1 2 3 4 5 6 
#
# 1 96.0824 34.3458 42.0759 -3.5940 23.2087 -30.2713
# 2 34.3458 77.3196 14.0691 -16.5688 3.9563 -25.3791
# 3 42.0759 14.0691 79.3338 3.1457 34.0790 -10.9707
# 4 -3.5940 -16.5688 3.1457 30.5598 1.7352 5.9456
# 5 23.2087 3.9563 34.0790 1.7352 45.1600 -4.7785
# 6 -30.2713 -25.3791 -10.9707 5.9456 -4.7785 51.8324
#
#
#
# Elastic Compliance Matrix: (Units=1/GPa)
#
#
# Indices 1 2 3 4 5 6 
#
# 1 0.017535 -0.004547 -0.006170 -0.000850 -0.003236 0.006508
# 2 -0.004547 0.018715 -0.001335 0.008584 0.001949 0.005420
# 3 -0.006170 -0.001335 0.021778 -0.002845 -0.013093 -0.000528
# 4 -0.000850 0.008584 -0.002845 0.037790 0.000252 -0.001207
# 5 -0.003236 0.001949 -0.013093 0.000252 0.033438 -0.000653
# 6 0.006508 0.005420 -0.000528 -0.001207 -0.000653 0.025714
#
#
# Mechanical properties :
#
#
# Convention : Reuss Voigt Hill
#
# Bulk Modulus (GPa) = 29.47755 48.19082 38.83419
# Shear Modulus (GPa) = 26.26282 36.32676 31.29479
#
# Velocity S-wave (km/s) = 3.37889 3.97390 3.68842
# Velocity P-wave (km/s) = 5.29500 6.48115 5.91787
#
# Compressibility (1/GPa) = 0.03392412
#
# Stress axis : x y z
#
# Youngs Moduli (GPa) = 57.02795 53.43266 45.91752
#
# Poissons Ratio (x) = 0.24296 0.28331
# Poissons Ratio (y) = 0.25931 0.06131
# Poissons Ratio (z) = 0.35186 0.07134
#
# Static dielectric constant tensor:
#      x y z
#    x 2.039330 -0.002520 0.120560 
#    y -0.002520 1.957450 -0.071200 
#    z 0.120560 -0.071200 2.028850 
# 
# From -- ./inp_files/208880.got.cif
#   From: 2010.05.17/outbox.cif.g08.bks.cpg/sg2_105_cif.got.tgz:208880.got - 2010.06.03 11:33:40.
