data_PCOD9079804
_publ_section_title
;
Structure prediction by ZEFSAII (Michael W. Deem and Ramdas Pophale) SiO2 
 PCOD9079804
Probable space group: P -1
;
_chemical_formula_sum "Si O2"
_cell_formula_units_Z 16
_cell_length_a 16.889745
_cell_length_b 7.541694
_cell_length_c 8.149076
_cell_angle_alpha 129.856652
_cell_angle_beta 103.292568
_cell_angle_gamma 103.906222
_cell_volume 662.891923
_symmetry_space_group_name_H-M "P -1"
_symmetry_group_IT_number 2
_symmetry_cell_setting 'triclinic'
loop_
_space_group_symop_operation_xyz
x,y,z
-x,-y,-z
loop_
_atom_site_type_symbol
_atom_site_label
_atom_site_fract_x
_atom_site_fract_y
_atom_site_fract_z
Si Si1 0.215854 0.541327 0.523789
Si Si2 0.930397 0.108796 0.517203
Si Si3 0.376481 0.304929 0.215096
Si Si4 0.375679 0.094967 0.755694
Si Si5 0.495517 0.093035 0.237757
Si Si6 0.772829 0.954102 0.613930
Si Si7 0.107726 0.657122 0.826793
Si Si8 0.836319 0.828201 0.987746
O O1 0.303342 0.824478 0.667562
O O2 0.152500 0.579870 0.650442
O O3 0.242469 0.328422 0.487150
O O4 0.161538 0.406617 0.246758
O O5 0.867549 0.074612 0.621331
O O6 0.005247 0.414572 0.685516
O O7 0.856334 0.897381 0.225968
O O8 0.000000 0.000000 0.500000
O O9 0.397425 0.093917 0.194554
O O10 0.432492 0.592439 0.501563
O O11 0.268239 0.220057 0.112900
O O12 0.406338 0.320146 0.046506
O O13 0.465922 0.067201 0.734652
O O14 0.315988 0.103708 0.578395
O O15 0.500000 0.000000 0.000000
O O16 0.809526 0.195631 0.908374
O O17 0.091450 0.895077 0.903191
#
# Coordination Sequence:
#
# PCOD9079804 Si02
#       8
#     2   2   2   2   2   2   2   2
#     4  11  23  40  63  95 127 172 217 264 320 383
#     4  12  24  42  62  90 130 170 218 274 322 370
#     4  10  18  37  65  97 127 164 217 258 318 391
#     4  11  21  39  68  95 127 171 211 263 325 376
#     4   9  20  34  63 102 127 162 210 262 317 389
#     4  11  25  42  64  95 129 172 220 267 320 385
#     4  11  24  43  61  89 131 172 217 272 318 377
#     4  11  23  40  66  93 123 175 217 262 324 390
#
# _framework density 24.136665000000001
#
# number of rings (size 3 to 8) (size 9 to 14) (size 15 to 20)
#    0.000    1.250    5.000    0.750    1.750    1.500 
#    2.250    0.000    0.000    9.750    0.000    0.000 
#    0.000    0.000    0.000    0.000    0.000    0.000 
#
# Total GULP energy -89308.947860 kJ/mol
# GULP energy per Si atom -5581.809241 kJ/mol
# Density = 2.408173 g / cm^3
# Si number density = 24.136665 Si / 1000 Ang^3
#
#
#
# Elastic Constant Matrix: (Units=GPa)
#
#
# Indices 1 2 3 4 5 6 
#
# 1 86.5115 13.9223 49.9852 -13.7307 4.4225 -13.2293
# 2 13.9223 42.7015 16.8091 4.7126 -2.3131 -1.0786
# 3 49.9852 16.8091 131.1724 6.0683 -26.1022 4.3775
# 4 -13.7307 4.7126 6.0683 25.4779 -4.0317 -2.5305
# 5 4.4225 -2.3131 -26.1022 -4.0317 34.3897 -2.9158
# 6 -13.2293 -1.0786 4.3775 -2.5305 -2.9158 22.0976
#
#
#
# Elastic Compliance Matrix: (Units=1/GPa)
#
#
# Indices 1 2 3 4 5 6 
#
# 1 0.025929 -0.005594 -0.012520 0.018334 -0.009489 0.018578
# 2 -0.005594 0.026331 -0.000614 -0.007872 0.000870 -0.002728
# 3 -0.012520 -0.000614 0.015516 -0.009544 0.011363 -0.010193
# 4 0.018334 -0.007872 -0.009544 0.054341 -0.002199 0.018415
# 5 -0.009489 0.000870 0.011363 -0.002199 0.038464 -0.003066
# 6 0.018578 -0.002728 -0.010193 0.018415 -0.003066 0.059966
#
#
# Mechanical properties :
#
#
# Convention : Reuss Voigt Hill
#
# Bulk Modulus (GPa) = 32.98183 46.86872 39.92528
# Shear Modulus (GPa) = 18.64902 28.37096 23.50999
#
# Velocity S-wave (km/s) = 2.78266 3.43217 3.12434
# Velocity P-wave (km/s) = 4.90087 5.93015 5.43991
#
# Compressibility (1/GPa) = 0.03031973
#
# Stress axis : x y z
#
# Youngs Moduli (GPa) = 38.56618 37.97816 64.44909
#
# Poissons Ratio (x) = 0.21243 0.80693
# Poissons Ratio (y) = 0.21572 0.03959
# Poissons Ratio (z) = 0.48287 0.02333
#
# Static dielectric constant tensor:
#      x y z
#    x 1.921940 -0.042390 -0.010280 
#    y -0.042390 1.991860 0.004480 
#    z -0.010280 0.004480 2.047710 
# 
# From -- ./inp_files/329621.got.cif
#   From: 2010.05.17/outbox.cif.g08.bks.cpg/sg2_165_cif.got.tgz:329621.got - 2010.06.03 11:33:40.
