data_PCOD9079970
_publ_section_title
;
Structure prediction by ZEFSAII (Michael W. Deem and Ramdas Pophale) SiO2 
 PCOD9079970
Probable space group: P -1
;
_chemical_formula_sum "Si O2"
_cell_formula_units_Z 14
_cell_length_a 24.115982
_cell_length_b 11.343991
_cell_length_c 9.538844
_cell_angle_alpha 57.410596
_cell_angle_beta 38.373173
_cell_angle_gamma 30.378380
_cell_volume 736.174563
_symmetry_space_group_name_H-M "P -1"
_symmetry_group_IT_number 2
_symmetry_cell_setting 'triclinic'
loop_
_space_group_symop_operation_xyz
x,y,z
-x,-y,-z
loop_
_atom_site_type_symbol
_atom_site_label
_atom_site_fract_x
_atom_site_fract_y
_atom_site_fract_z
Si Si1 0.343572 0.307058 0.586885
Si Si2 0.826955 0.889971 0.839367
Si Si3 0.867493 0.519984 0.875479
Si Si4 0.115823 0.458686 0.716121
Si Si5 0.669296 0.864763 0.772294
Si Si6 0.239521 0.959647 0.437885
Si Si7 0.523411 0.568211 0.773749
O O1 0.224549 0.395037 0.653277
O O2 0.396335 0.389080 0.377509
O O3 0.500000 0.000000 0.500000
O O4 0.244265 0.441388 0.843406
O O5 0.843998 0.702874 0.881121
O O6 0.985108 0.724519 0.719924
O O7 0.812222 0.982564 0.659621
O O8 0.661252 0.144120 0.090563
O O9 0.794342 0.633873 0.790006
O O10 0.060141 0.223262 0.693592
O O11 0.238778 0.241825 0.490621
O O12 0.000000 0.500000 0.000000
O O13 0.649235 0.048805 0.752335
O O14 0.500000 0.000000 0.000000
O O15 0.356665 0.672581 0.415835
O O16 0.500000 0.500000 0.000000
#
# Coordination Sequence:
#
# PCOD9079970 Si02
#       7
#     2   2   2   2   2   2   2
#     4  12  23  39  65  94 124 166 216 255 305 381
#     4  10  18  38  59  89 120 168 201 250 307 375
#     4  11  19  39  63  86 123 163 211 251 307 374
#     4  12  21  36  63  97 125 157 218 265 300 365
#     4  11  22  35  63  96 122 161 215 261 307 369
#     4  10  20  39  60  87 129 164 199 254 323 368
#     4  10  23  39  61  91 129 168 201 256 321 372
#
# _framework density 19.017229
#
# number of rings (size 3 to 8) (size 9 to 14) (size 15 to 20)
#    0.000    1.143    5.714    1.714    4.000    0.571 
#    0.000    4.286    0.000   10.286    0.000    0.000 
#    0.000    0.000    0.000    0.000    0.000    0.000 
#
# Total GULP energy -78011.732459 kJ/mol
# GULP energy per Si atom -5572.266604 kJ/mol
# Density = 1.897395 g / cm^3
# Si number density = 19.017229 Si / 1000 Ang^3
#
#
#
# Elastic Constant Matrix: (Units=GPa)
#
#
# Indices 1 2 3 4 5 6 
#
# 1 93.2277 43.7656 36.8602 3.9126 -19.7915 -9.6835
# 2 43.7656 85.4585 47.0904 29.9112 -9.2696 16.9966
# 3 36.8602 47.0904 108.2063 9.5308 -9.3740 6.8915
# 4 3.9126 29.9112 9.5308 46.6051 -3.5564 0.8159
# 5 -19.7915 -9.2696 -9.3740 -3.5564 35.9514 0.3011
# 6 -9.6835 16.9966 6.8915 0.8159 0.3011 21.5689
#
#
#
# Elastic Compliance Matrix: (Units=1/GPa)
#
#
# Indices 1 2 3 4 5 6 
#
# 1 0.025460 -0.020768 -0.001642 0.011741 0.009162 0.027748
# 2 -0.020768 0.041434 -0.006836 -0.023114 -0.004493 -0.038853
# 3 -0.001642 -0.006836 0.012638 0.001994 0.000821 0.000525
# 4 0.011741 -0.023114 0.001994 0.034849 0.004291 0.021469
# 5 0.009162 -0.004493 0.000821 0.004291 0.032282 0.006778
# 6 0.027748 -0.038853 0.000525 0.021469 0.006778 0.088364
#
#
# Mechanical properties :
#
#
# Convention : Reuss Voigt Hill
#
# Bulk Modulus (GPa) = 47.53027 60.25832 53.89430
# Shear Modulus (GPa) = 16.63707 31.43684 24.03695
#
# Velocity S-wave (km/s) = 2.96098 4.07021 3.55907
# Velocity P-wave (km/s) = 6.06114 7.33783 6.72983
#
# Compressibility (1/GPa) = 0.02103922
#
# Stress axis : x y z
#
# Youngs Moduli (GPa) = 39.27777 24.13454 79.12487
#
# Poissons Ratio (x) = 0.50122 0.12996
# Poissons Ratio (y) = 0.81572 0.54092
# Poissons Ratio (z) = 0.06451 0.16499
#
# Static dielectric constant tensor:
#      x y z
#    x 1.671050 -0.001170 0.026450 
#    y -0.001170 1.720570 0.013060 
#    z 0.026450 0.013060 1.750380 
# 
# From -- ./inp_files/237992.got.cif
#   From: 2010.05.17/outbox.cif.g08.bks.cpg/sg2_119_cif.got.tgz:237992.got - 2010.06.03 11:33:40.
