data_PCOD9079060
_publ_section_title
;
Structure prediction by ZEFSAII (Michael W. Deem and Ramdas Pophale) SiO2 
 PCOD9079060
Probable space group: P -1
;
_chemical_formula_sum "Si O2"
_cell_formula_units_Z 16
_cell_length_a 13.487058
_cell_length_b 8.117107
_cell_length_c 6.957210
_cell_angle_alpha 106.096593
_cell_angle_beta 77.796150
_cell_angle_gamma 120.802737
_cell_volume 626.330483
_symmetry_space_group_name_H-M "P -1"
_symmetry_group_IT_number 2
_symmetry_cell_setting 'triclinic'
loop_
_space_group_symop_operation_xyz
x,y,z
-x,-y,-z
loop_
_atom_site_type_symbol
_atom_site_label
_atom_site_fract_x
_atom_site_fract_y
_atom_site_fract_z
Si Si1 0.454976 0.589240 0.387265
Si Si2 0.319396 0.043200 0.552548
Si Si3 0.120007 0.011635 0.404109
Si Si4 0.237762 0.618571 0.552611
Si Si5 0.631908 0.051160 0.928467
Si Si6 0.004078 0.557335 0.290039
Si Si7 0.196986 0.505806 0.076459
Si Si8 0.286044 0.247116 0.081834
O O1 0.500000 0.500000 0.500000
O O2 0.358034 0.624266 0.541267
O O3 0.394860 0.434103 0.192850
O O4 0.566140 0.788076 0.344238
O O5 0.217607 0.091781 0.555173
O O6 0.260270 0.838385 0.617970
O O7 0.360344 0.005935 0.315184
O O8 0.089393 0.787668 0.306370
O O9 0.178964 0.148615 0.243518
O O10 0.000000 0.000000 0.500000
O O11 0.215886 0.551487 0.315646
O O12 0.128794 0.489651 0.690655
O O13 0.717107 0.284601 0.985612
O O14 0.675972 0.921722 0.989385
O O15 0.500000 0.000000 0.000000
O O16 0.060775 0.449906 0.107685
O O17 0.000000 0.500000 0.500000
O O18 0.238053 0.343577 0.975024
#
# Coordination Sequence:
#
# PCOD9079060 Si02
#       8
#     2   2   2   2   2   2   2   2
#     4  11  18  29  45  65 100 128 157 188 237 289
#     4  10  19  32  44  69 101 131 154 194 233 285
#     4  11  17  25  43  69  98 129 153 186 239 291
#     4   9  18  28  44  68  96 132 153 186 240 294
#     4  10  19  33  48  68  97 129 165 198 233 277
#     4  10  15  27  44  66  98 127 152 190 240 295
#     4   9  17  31  46  68  98 123 156 198 239 285
#     4  10  20  32  48  72  99 130 154 197 240 286
#
# _framework density 25.54562
#
# number of rings (size 3 to 8) (size 9 to 14) (size 15 to 20)
#    0.000    2.000    7.500    2.625    0.000    0.500 
#    0.000    0.000    0.000    0.000    0.000    0.875 
#    0.000    2.000    0.000    0.250    0.000    0.000 
#
# Total GULP energy -89486.992099 kJ/mol
# GULP energy per Si atom -5592.937006 kJ/mol
# Density = 2.548748 g / cm^3
# Si number density = 25.545620 Si / 1000 Ang^3
#
#
#
# Elastic Constant Matrix: (Units=GPa)
#
#
# Indices 1 2 3 4 5 6 
#
# 1 198.4758 47.1940 22.2291 -16.8783 -40.6229 3.0728
# 2 47.1940 168.6364 34.0714 -13.9534 -7.9531 2.6827
# 3 22.2291 34.0714 90.7394 -1.8345 -11.9573 8.4492
# 4 -16.8783 -13.9534 -1.8345 26.5618 14.1711 -4.2486
# 5 -40.6229 -7.9531 -11.9573 14.1711 21.0691 -2.7071
# 6 3.0728 2.6827 8.4492 -4.2486 -2.7071 56.0877
#
#
#
# Elastic Compliance Matrix: (Units=1/GPa)
#
#
# Indices 1 2 3 4 5 6 
#
# 1 0.009688 -0.002550 0.001578 -0.007818 0.023859 -0.000087
# 2 -0.002550 0.007425 -0.003150 0.006514 -0.008238 0.000355
# 3 0.001578 -0.003150 0.013773 -0.007850 0.014707 -0.001895
# 4 -0.007818 0.006514 -0.007850 0.070171 -0.063813 0.003535
# 5 0.023859 -0.008238 0.014707 -0.063813 0.141477 -0.001134
# 6 -0.000087 0.000355 -0.001895 0.003535 -0.001134 0.018316
#
#
# Mechanical properties :
#
#
# Convention : Reuss Voigt Hill
#
# Bulk Modulus (GPa) = 44.16700 73.87120 59.01910
# Shear Modulus (GPa) = 18.07401 44.36753 31.22077
#
# Velocity S-wave (km/s) = 2.66281 4.17201 3.49973
# Velocity P-wave (km/s) = 5.17504 7.22411 6.28366
#
# Compressibility (1/GPa) = 0.02264134
#
# Stress axis : x y z
#
# Youngs Moduli (GPa) = 103.22064 134.68071 72.60811
#
# Poissons Ratio (x) = 0.34349 -0.11461
# Poissons Ratio (y) = 0.26326 0.22873
# Poissons Ratio (z) = -0.16293 0.42427
#
# Static dielectric constant tensor:
#      x y z
#    x 1.995530 -0.002650 0.069110 
#    y -0.002650 2.122780 0.090640 
#    z 0.069110 0.090640 2.117310 
# 
# From -- ./inp_files/299126.got.cif
#   From: 2010.05.17/outbox.cif.g08.bks.cpg/sg2_150_cif.got.tgz:299126.got - 2010.06.03 11:33:40.
