data_PCOD9079942
_publ_section_title
;
Structure prediction by ZEFSAII (Michael W. Deem and Ramdas Pophale) SiO2 
 PCOD9079942
Probable space group: P -1
;
_chemical_formula_sum "Si O2"
_cell_formula_units_Z 16
_cell_length_a 6.540518
_cell_length_b 9.248532
_cell_length_c 20.181647
_cell_angle_alpha 53.532972
_cell_angle_beta 45.094426
_cell_angle_gamma 68.219123
_cell_volume 692.823974
_symmetry_space_group_name_H-M "P -1"
_symmetry_group_IT_number 2
_symmetry_cell_setting 'triclinic'
loop_
_space_group_symop_operation_xyz
x,y,z
-x,-y,-z
loop_
_atom_site_type_symbol
_atom_site_label
_atom_site_fract_x
_atom_site_fract_y
_atom_site_fract_z
Si Si1 0.188473 0.742386 0.385250
Si Si2 0.862576 0.546259 0.849196
Si Si3 0.435470 0.151269 0.356977
Si Si4 0.017757 0.808439 0.011994
Si Si5 0.544206 0.592249 0.604471
Si Si6 0.767763 0.637197 0.992899
Si Si7 0.407153 0.146312 0.216997
Si Si8 0.231283 0.758837 0.523296
O O1 0.358584 0.600707 0.344426
O O2 0.294162 0.717785 0.443545
O O3 0.845307 0.690485 0.480444
O O4 0.267681 0.945507 0.291545
O O5 0.844388 0.655727 0.893021
O O6 0.849526 0.721879 0.757571
O O7 0.025308 0.368527 0.881586
O O8 0.562223 0.445740 0.915196
O O9 0.567608 0.301790 0.335869
O O10 0.551230 0.151110 0.256018
O O11 0.102441 0.199813 0.413287
O O12 0.413132 0.949449 0.446416
O O13 0.340627 0.806550 0.906859
O O14 0.808211 0.785096 0.001623
O O15 0.000000 0.000000 0.000000
O O16 0.313963 0.603835 0.595667
O O17 0.000000 0.500000 0.000000
#
# Coordination Sequence:
#
# PCOD9079942 Si02
#       8
#     2   2   2   2   2   2   2   2
#     4   9  21  35  57  84 124 151 190 251 284 349
#     4  10  19  41  65  83 114 159 194 243 303 360
#     4   9  20  33  55  84 113 146 198 248 271 351
#     4  11  23  41  63  88 121 158 196 249 309 358
#     4  10  18  38  58  83 116 164 192 228 312 340
#     4   9  16  37  64  83 102 156 194 230 296 360
#     4  11  20  42  55  86 124 151 199 251 289 350
#     4   9  17  36  57  78 113 154 193 231 296 347
#
# _framework density 23.093889000000001
#
# number of rings (size 3 to 8) (size 9 to 14) (size 15 to 20)
#    0.000    2.250    3.750    1.500    0.000    0.500 
#   11.250    0.000    0.000    0.000    0.000    0.000 
#    0.000    0.000    0.000    0.000    0.000    0.000 
#
# Total GULP energy -89137.297250 kJ/mol
# GULP energy per Si atom -5571.081078 kJ/mol
# Density = 2.304133 g / cm^3
# Si number density = 23.093889 Si / 1000 Ang^3
#
#
#
# Elastic Constant Matrix: (Units=GPa)
#
#
# Indices 1 2 3 4 5 6 
#
# 1 89.4205 26.7068 4.1617 -3.0118 -0.4077 1.4361
# 2 26.7068 107.5474 16.5648 -7.0614 -12.4582 5.7137
# 3 4.1617 16.5648 39.8558 -8.2800 -7.2015 -15.6013
# 4 -3.0118 -7.0614 -8.2800 35.2300 -2.3540 1.6954
# 5 -0.4077 -12.4582 -7.2015 -2.3540 22.2250 -2.2976
# 6 1.4361 5.7137 -15.6013 1.6954 -2.2976 36.2785
#
#
#
# Elastic Compliance Matrix: (Units=1/GPa)
#
#
# Indices 1 2 3 4 5 6 
#
# 1 0.012136 -0.003127 -0.000302 0.000242 -0.001627 -0.000232
# 2 -0.003127 0.011631 -0.004731 0.001436 0.004719 -0.003511
# 3 -0.000302 -0.004731 0.037736 0.007873 0.012202 0.017390
# 4 0.000242 0.001436 0.007873 0.030899 0.006855 0.002140
# 5 -0.001627 0.004719 0.012202 0.006855 0.053076 0.007610
# 6 -0.000232 -0.003511 0.017390 0.002140 0.007610 0.035987
#
#
# Mechanical properties :
#
#
# Convention : Reuss Voigt Hill
#
# Bulk Modulus (GPa) = 22.13249 36.85448 29.49348
# Shear Modulus (GPa) = 23.49134 31.37272 27.43203
#
# Velocity S-wave (km/s) = 3.19283 3.68976 3.45026
# Velocity P-wave (km/s) = 4.81630 5.84343 5.35455
#
# Compressibility (1/GPa) = 0.04518245
#
# Stress axis : x y z
#
# Youngs Moduli (GPa) = 82.40189 85.97803 26.50019
#
# Poissons Ratio (x) = 0.26888 0.00800
# Poissons Ratio (y) = 0.25769 0.12536
# Poissons Ratio (z) = 0.02487 0.40674
#
# Static dielectric constant tensor:
#      x y z
#    x 1.917990 0.056940 -0.068670 
#    y 0.056940 1.910030 -0.015090 
#    z -0.068670 -0.015090 2.097940 
# 
# From -- ./inp_files/581852.got.cif
#   From: 2010.05.17/outbox.cif.g08.bks.cpg/sg2_291_cif.got.tgz:581852.got - 2010.06.03 11:33:40.
