data_PCOD9079532
_publ_section_title
;
Structure prediction by ZEFSAII (Michael W. Deem and Ramdas Pophale) SiO2 
 PCOD9079532
Probable space group: P -1
;
_chemical_formula_sum "Si O2"
_cell_formula_units_Z 12
_cell_length_a 17.620863
_cell_length_b 9.075837
_cell_length_c 5.225124
_cell_angle_alpha 117.768203
_cell_angle_beta 95.339380
_cell_angle_gamma 43.234530
_cell_volume 462.741906
_symmetry_space_group_name_H-M "P -1"
_symmetry_group_IT_number 2
_symmetry_cell_setting 'triclinic'
loop_
_space_group_symop_operation_xyz
x,y,z
-x,-y,-z
loop_
_atom_site_type_symbol
_atom_site_label
_atom_site_fract_x
_atom_site_fract_y
_atom_site_fract_z
Si Si1 0.126865 0.884572 0.514188
Si Si2 0.286775 0.338384 0.967795
Si Si3 0.153510 0.573114 0.619926
Si Si4 0.918718 0.794792 0.642102
Si Si5 0.448037 0.798246 0.446376
Si Si6 0.347842 0.795908 0.909396
O O1 0.162936 0.752149 0.696082
O O2 0.105356 0.104872 0.578631
O O3 0.243792 0.604718 0.175234
O O4 0.000000 0.000000 0.500000
O O5 0.214022 0.400193 0.749392
O O6 0.419253 0.038073 0.715356
O O7 0.223947 0.378639 0.238897
O O8 0.208933 0.012734 0.110834
O O9 0.000000 0.500000 0.500000
O O10 0.013307 0.771501 0.750975
O O11 0.370978 0.825265 0.655330
O O12 0.582163 0.499802 0.287216
O O13 0.409102 0.811758 0.158370
#
# Coordination Sequence:
#
# PCOD9079532 Si02
#       6
#     2   2   2   2   2   2
#     4   8  20  36  54  85 116 153 182 229 278 346
#     4  10  18  37  61  81 107 160 190 218 279 345
#     4   9  21  36  59  83 119 147 184 228 283 340
#     4  11  20  37  58  88 117 146 188 239 283 329
#     4  10  20  40  60  80 115 153 188 232 283 336
#     4  10  23  37  57  87 115 147 191 235 281 334
#
# _framework density 25.932379999999998
#
# number of rings (size 3 to 8) (size 9 to 14) (size 15 to 20)
#    1.000    1.333    0.000    3.000    0.000    4.000 
#    3.000    4.167    0.000    1.000    0.000    0.000 
#    0.000    0.000    0.000    0.000    0.000    0.000 
#
# Total GULP energy -66879.536979 kJ/mol
# GULP energy per Si atom -5573.294748 kJ/mol
# Density = 2.587336 g / cm^3
# Si number density = 25.932380 Si / 1000 Ang^3
#
#
#
# Elastic Constant Matrix: (Units=GPa)
#
#
# Indices 1 2 3 4 5 6 
#
# 1 68.5962 23.1875 14.3943 0.2498 -28.1705 4.2429
# 2 23.1875 126.0741 48.6680 36.4800 -6.9856 17.6800
# 3 14.3943 48.6680 121.8385 13.9397 -17.0112 2.4960
# 4 0.2498 36.4800 13.9397 77.3457 -5.2281 -6.5877
# 5 -28.1705 -6.9856 -17.0112 -5.2281 33.6972 1.5783
# 6 4.2429 17.6800 2.4960 -6.5877 1.5783 25.5057
#
#
#
# Elastic Compliance Matrix: (Units=1/GPa)
#
#
# Indices 1 2 3 4 5 6 
#
# 1 0.024444 -0.004626 0.001540 0.003104 0.020805 -0.001496
# 2 -0.004626 0.013578 -0.004457 -0.006674 -0.003884 -0.009690
# 3 0.001540 -0.004457 0.010483 0.000733 0.005693 0.001645
# 4 0.003104 -0.006674 0.000733 0.016888 0.003819 0.008163
# 5 0.020805 -0.003884 0.005693 0.003819 0.049890 -0.003426
# 6 -0.001496 -0.009690 0.001645 0.008163 -0.003426 0.048332
#
#
# Mechanical properties :
#
#
# Convention : Reuss Voigt Hill
#
# Bulk Modulus (GPa) = 29.92310 54.33426 42.12868
# Shear Modulus (GPa) = 26.33779 42.66030 34.49904
#
# Velocity S-wave (km/s) = 3.19036 4.06033 3.65135
# Velocity P-wave (km/s) = 5.01349 6.55588 5.83586
#
# Compressibility (1/GPa) = 0.03341899
#
# Stress axis : x y z
#
# Youngs Moduli (GPa) = 40.91015 73.64880 95.38908
#
# Poissons Ratio (x) = 0.34069 -0.14692
# Poissons Ratio (y) = 0.18925 0.42519
# Poissons Ratio (z) = -0.06301 0.32829
#
# Static dielectric constant tensor:
#      x y z
#    x 2.054250 0.077380 0.157010 
#    y 0.077380 2.174770 0.059140 
#    z 0.157010 0.059140 2.278230 
# 
# From -- ./inp_files/91969.got.cif
#   From: 2010.05.17/outbox.cif.g08.bks.cpg/sg2_46_cif.got.tgz:91969.got - 2010.06.03 11:33:40.
