data_PCOD9079091
_publ_section_title
;
Structure prediction by ZEFSAII (Michael W. Deem and Ramdas Pophale) SiO2 
 PCOD9079091
Probable space group: P -1
;
_chemical_formula_sum "Si O2"
_cell_formula_units_Z 14
_cell_length_a 12.483166
_cell_length_b 18.201658
_cell_length_c 14.789127
_cell_angle_alpha 150.883122
_cell_angle_beta 150.523058
_cell_angle_gamma 28.102909
_cell_volume 693.182654
_symmetry_space_group_name_H-M "P -1"
_symmetry_group_IT_number 2
_symmetry_cell_setting 'triclinic'
loop_
_space_group_symop_operation_xyz
x,y,z
-x,-y,-z
loop_
_atom_site_type_symbol
_atom_site_label
_atom_site_fract_x
_atom_site_fract_y
_atom_site_fract_z
Si Si1 0.312798 0.891359 0.853375
Si Si2 0.967006 0.092537 0.169591
Si Si3 0.105396 0.358557 0.618266
Si Si4 0.001550 0.286345 0.011105
Si Si5 0.394013 0.802455 0.298844
Si Si6 0.829052 0.875060 0.413553
Si Si7 0.873810 0.687360 0.061848
O O1 0.269767 0.882262 0.919323
O O2 0.098599 0.862814 0.618550
O O3 0.595775 0.749273 0.884846
O O4 0.232772 0.090066 0.986065
O O5 0.963231 0.275109 0.369707
O O6 0.213382 0.951689 0.254816
O O7 0.000000 0.000000 0.000000
O O8 0.344056 0.314701 0.683871
O O9 0.184967 0.254743 0.661838
O O10 0.961712 0.562450 0.755929
O O11 0.966269 0.313960 0.907366
O O12 0.756883 0.291762 0.881208
O O13 0.387828 0.926057 0.508857
O O14 0.830936 0.821240 0.254562
O O15 0.000000 0.500000 0.000000
#
# Coordination Sequence:
#
# PCOD9079091 Si02
#       7
#     2   2   2   2   2   2   2
#     4   9  23  40  59  86 128 158 191 257 304 349
#     4   9  19  34  59  88 117 157 201 238 296 359
#     4  10  18  36  62  88 120 154 195 250 297 353
#     4  10  21  40  57  92 124 158 194 246 312 350
#     4   9  20  35  60  84 123 157 189 250 298 353
#     4   9  20  39  60  93 115 157 209 236 306 353
#     4  12  23  38  68  88 115 160 213 246 288 370
#
# _framework density 20.196697
#
# number of rings (size 3 to 8) (size 9 to 14) (size 15 to 20)
#    0.000    2.857    1.429    2.571    4.000    2.857 
#    0.000    2.857    6.286    0.000    0.000    0.000 
#    0.000    0.000    0.000    0.000    0.000    0.000 
#
# Total GULP energy -78065.588455 kJ/mol
# GULP energy per Si atom -5576.113461 kJ/mol
# Density = 2.015073 g / cm^3
# Si number density = 20.196697 Si / 1000 Ang^3
#
#
#
# Elastic Constant Matrix: (Units=GPa)
#
#
# Indices 1 2 3 4 5 6 
#
# 1 79.1741 33.6456 50.7353 14.7440 -6.4670 1.4389
# 2 33.6456 69.4909 25.8601 16.6207 15.8476 -2.6485
# 3 50.7353 25.8601 68.5158 23.0054 -13.2500 2.6381
# 4 14.7440 16.6207 23.0054 26.6344 -1.0167 4.3464
# 5 -6.4670 15.8476 -13.2500 -1.0167 31.8320 7.4938
# 6 1.4389 -2.6485 2.6381 4.3464 7.4938 17.4024
#
#
#
# Elastic Compliance Matrix: (Units=1/GPa)
#
#
# Indices 1 2 3 4 5 6 
#
# 1 0.027268 -0.009139 -0.018293 0.007250 0.003715 -0.004283
# 2 -0.009139 0.030573 -0.005914 -0.013157 -0.024724 0.020238
# 3 -0.018293 -0.005914 0.040484 -0.019141 0.017408 -0.008240
# 4 0.007250 -0.013157 -0.019141 0.061400 0.006183 -0.017698
# 5 0.003715 -0.024724 0.017408 0.006183 0.059942 -0.034065
# 6 -0.004283 0.020238 -0.008240 -0.017698 -0.034065 0.081236
#
#
# Mechanical properties :
#
#
# Convention : Reuss Voigt Hill
#
# Bulk Modulus (GPa) = 31.61417 48.62918 40.12168
# Shear Modulus (GPa) = 13.22267 22.30308 17.76288
#
# Velocity S-wave (km/s) = 2.56148 3.32670 2.96884
# Velocity P-wave (km/s) = 4.94321 6.23586 5.62678
#
# Compressibility (1/GPa) = 0.03163138
#
# Stress axis : x y z
#
# Youngs Moduli (GPa) = 36.67369 32.70874 24.70122
#
# Poissons Ratio (x) = 0.29893 0.45185
# Poissons Ratio (y) = 0.33517 0.14609
# Poissons Ratio (z) = 0.67086 0.19345
#
# Static dielectric constant tensor:
#      x y z
#    x 1.753750 -0.010900 -0.003820 
#    y -0.010900 1.709200 -0.000150 
#    z -0.003820 -0.000150 1.775040 
# 
# From -- ./inp_files/318767.got.cif
#   From: 2010.05.17/outbox.cif.g08.bks.cpg/sg2_160_cif.got.tgz:318767.got - 2010.06.03 11:33:40.
