data_PCOD9079651
_publ_section_title
;
Structure prediction by ZEFSAII (Michael W. Deem and Ramdas Pophale) SiO2 
 PCOD9079651
Probable space group: P -1
;
_chemical_formula_sum "Si O2"
_cell_formula_units_Z 16
_cell_length_a 14.705371
_cell_length_b 8.521009
_cell_length_c 8.597920
_cell_angle_alpha 119.868672
_cell_angle_beta 62.783593
_cell_angle_gamma 85.999134
_cell_volume 766.485777
_symmetry_space_group_name_H-M "P -1"
_symmetry_group_IT_number 2
_symmetry_cell_setting 'triclinic'
loop_
_space_group_symop_operation_xyz
x,y,z
-x,-y,-z
loop_
_atom_site_type_symbol
_atom_site_label
_atom_site_fract_x
_atom_site_fract_y
_atom_site_fract_z
Si Si1 0.234742 0.462809 0.621221
Si Si2 0.007986 0.312503 0.008662
Si Si3 0.508698 0.839088 0.283834
Si Si4 0.692278 0.553408 0.796533
Si Si5 0.934019 0.470678 0.682043
Si Si6 0.878462 0.854693 0.442063
Si Si7 0.336227 0.797712 0.184326
Si Si8 0.419657 0.512792 0.711140
O O1 0.295562 0.443625 0.397873
O O2 0.194014 0.282237 0.575767
O O3 0.313405 0.480058 0.705827
O O4 0.115830 0.648418 0.819229
O O5 0.078803 0.343717 0.108129
O O6 0.072608 0.131212 0.759170
O O7 0.000000 0.500000 0.000000
O O8 0.404410 0.900130 0.278834
O O9 0.521082 0.655754 0.293822
O O10 0.500000 0.000000 0.500000
O O11 0.613937 0.754920 0.041926
O O12 0.815390 0.484533 0.733633
O O13 0.651887 0.387527 0.808098
O O14 0.000000 0.500000 0.500000
O O15 0.014380 0.267256 0.598225
O O16 0.791595 0.061599 0.666876
O O17 0.385092 0.712407 0.936119
O O18 0.500000 0.500000 0.500000
#
# Coordination Sequence:
#
# PCOD9079651 Si02
#       8
#     2   2   2   2   2   2   2   2
#     4  10  19  39  63  87 113 165 202 241 295 352
#     4   8  18  32  58  86 116 150 200 236 283 349
#     4  11  25  42  64  89 117 161 205 249 297 363
#     4  11  22  39  65  88 126 159 196 255 301 354
#     4  10  18  37  62  93 117 158 203 244 295 350
#     4  10  22  38  62  89 124 156 203 246 288 369
#     4  11  25  41  58  93 125 154 199 250 311 354
#     4  11  23  41  64  85 123 160 199 251 306 355
#
# _framework density 20.874489000000001
#
# number of rings (size 3 to 8) (size 9 to 14) (size 15 to 20)
#    0.000    2.000    2.500    3.750   12.250    1.500 
#    0.000    4.375    0.000    0.000    0.000    0.000 
#    0.000    0.000    0.000    0.000    0.000    0.000 
#
# Total GULP energy -89199.695060 kJ/mol
# GULP energy per Si atom -5574.980941 kJ/mol
# Density = 2.082698 g / cm^3
# Si number density = 20.874489 Si / 1000 Ang^3
#
#
#
# Elastic Constant Matrix: (Units=GPa)
#
#
# Indices 1 2 3 4 5 6 
#
# 1 115.5732 -0.3944 15.3638 1.0581 2.6354 -12.4783
# 2 -0.3944 15.8661 28.1041 -6.2913 -4.1016 -6.2646
# 3 15.3638 28.1041 173.0101 -10.0160 -2.0960 -12.8064
# 4 1.0581 -6.2913 -10.0160 35.3076 -7.3442 -3.9499
# 5 2.6354 -4.1016 -2.0960 -7.3442 28.1858 -4.3873
# 6 -12.4783 -6.2646 -12.8064 -3.9499 -4.3873 24.6090
#
#
#
# Elastic Compliance Matrix: (Units=1/GPa)
#
#
# Indices 1 2 3 4 5 6 
#
# 1 0.009437 0.005486 -0.001204 0.001242 0.001076 0.005946
# 2 0.005486 0.124021 -0.016064 0.027391 0.029013 0.035562
# 3 -0.001204 -0.016064 0.008352 -0.000967 -0.001990 -0.000863
# 4 0.001242 0.027391 -0.000967 0.038067 0.016223 0.016101
# 5 0.001076 0.029013 -0.001990 0.016223 0.046447 0.017780
# 6 0.005946 0.035562 -0.000863 0.016101 0.017780 0.058008
#
#
# Mechanical properties :
#
#
# Convention : Reuss Voigt Hill
#
# Bulk Modulus (GPa) = 8.45689 43.39959 25.92824
# Shear Modulus (GPa) = 14.39626 35.04555 24.72090
#
# Velocity S-wave (km/s) = 2.62898 4.10185 3.44505
# Velocity P-wave (km/s) = 3.64356 6.57795 5.31718
#
# Compressibility (1/GPa) = 0.11824681
#
# Stress axis : x y z
#
# Youngs Moduli (GPa) = 105.96083 8.06316 119.72706
#
# Poissons Ratio (x) = -0.04423 0.14417
# Poissons Ratio (y) = -0.58130 1.92327
# Poissons Ratio (z) = 0.12759 0.12952
#
# Static dielectric constant tensor:
#      x y z
#    x 1.754170 0.016760 0.009510 
#    y 0.016760 1.781520 0.009050 
#    z 0.009510 0.009050 1.831570 
# 
# From -- ./inp_files/299466.got.cif
#   From: 2010.05.17/outbox.cif.g08.bks.cpg/sg2_150_cif.got.tgz:299466.got - 2010.06.03 11:33:40.
