data_PCOD9079398
_publ_section_title
;
Structure prediction by ZEFSAII (Michael W. Deem and Ramdas Pophale) SiO2 
 PCOD9079398
Probable space group: P -1
;
_chemical_formula_sum "Si O2"
_cell_formula_units_Z 15
_cell_length_a 7.258131
_cell_length_b 10.997489
_cell_length_c 17.485519
_cell_angle_alpha 32.188519
_cell_angle_beta 68.444303
_cell_angle_gamma 90.257832
_cell_volume 533.249053
_symmetry_space_group_name_H-M "P -1"
_symmetry_group_IT_number 2
_symmetry_cell_setting 'triclinic'
loop_
_space_group_symop_operation_xyz
x,y,z
-x,-y,-z
loop_
_atom_site_type_symbol
_atom_site_label
_atom_site_fract_x
_atom_site_fract_y
_atom_site_fract_z
Si Si1 0.146461 0.903084 0.072891
Si Si2 0.317283 0.255809 0.337914
Si Si3 0.197346 0.329143 0.152315
Si Si4 0.605459 0.526829 0.637114
Si Si5 0.500000 0.500000 0.500000
Si Si6 0.205690 0.097374 0.124957
Si Si7 0.436599 0.943884 0.803400
Si Si8 0.260514 0.730907 0.569085
O O1 0.024019 0.582917 0.229219
O O2 0.085660 0.886508 0.180904
O O3 0.441407 0.180841 0.866899
O O4 0.000000 0.000000 0.000000
O O5 0.173433 0.233726 0.294754
O O6 0.222778 0.299898 0.407656
O O7 0.310460 0.976772 0.486559
O O8 0.607959 0.566654 0.116810
O O9 0.073964 0.120456 0.207655
O O10 0.500000 0.500000 0.000000
O O11 0.194867 0.602070 0.005796
O O12 0.665272 0.556567 0.523203
O O13 0.428895 0.627730 0.612742
O O14 0.358770 0.146782 0.717683
O O15 0.396890 0.048736 0.158985
O O16 0.631753 0.100891 0.618177
#
# Coordination Sequence:
#
# PCOD9079398 Si02
#       8
#     2   2   2   2   1   2   2   2
#     4   9  19  30  43  72 105 126 147 193 254 291
#     4   9  14  27  46  71  93 119 156 197 239 276
#     4   8  13  26  46  69 101 114 148 200 240 281
#     4   9  19  30  45  67  97 129 158 195 238 277
#     4  10  20  32  48  68 100 126 172 196 218 280
#     4   9  15  29  48  71 105 122 149 196 249 284
#     4   9  16  29  47  76  97 127 156 196 234 278
#     4  10  15  27  47  74 101 118 151 200 244 289
#
# _framework density 28.129443999999999
#
# number of rings (size 3 to 8) (size 9 to 14) (size 15 to 20)
#    0.000    3.200    4.000    0.400    0.000    0.533 
#    0.000    6.000    0.000    0.800    3.467    4.667 
#    0.000    0.000    0.000    0.000    0.000    0.000 
#
# Total GULP energy -83617.800323 kJ/mol
# GULP energy per Si atom -5574.520022 kJ/mol
# Density = 2.806542 g / cm^3
# Si number density = 28.129444 Si / 1000 Ang^3
#
#
#
# Elastic Constant Matrix: (Units=GPa)
#
#
# Indices 1 2 3 4 5 6 
#
# 1 41.0451 17.8185 25.0007 3.2486 19.9834 -1.5442
# 2 17.8185 175.5976 68.0624 20.4034 -5.4013 34.3926
# 3 25.0007 68.0624 165.3822 -9.7176 26.8711 6.2437
# 4 3.2486 20.4034 -9.7176 68.2903 -4.0882 0.8647
# 5 19.9834 -5.4013 26.8711 -4.0882 39.1322 -2.6674
# 6 -1.5442 34.3926 6.2437 0.8647 -2.6674 43.4650
#
#
#
# Elastic Compliance Matrix: (Units=1/GPa)
#
#
# Indices 1 2 3 4 5 6 
#
# 1 0.036015 -0.004428 -0.000890 -0.001661 -0.018305 0.003821
# 2 -0.004428 0.009541 -0.004083 -0.002799 0.005632 -0.006719
# 3 -0.000890 -0.004083 0.008887 0.002155 -0.005883 0.001519
# 4 -0.001661 -0.002799 0.002155 0.015890 0.000749 0.001576
# 5 -0.018305 0.005632 -0.005883 0.000749 0.039672 -0.001842
# 6 0.003821 -0.006719 0.001519 0.001576 -0.001842 0.028097
#
#
# Mechanical properties :
#
#
# Convention : Reuss Voigt Hill
#
# Bulk Modulus (GPa) = 28.05752 67.08757 47.57255
# Shear Modulus (GPa) = 29.62373 48.25372 38.93872
#
# Velocity S-wave (km/s) = 3.24870 4.14625 3.72461
# Velocity P-wave (km/s) = 4.90593 6.84275 5.95363
#
# Compressibility (1/GPa) = 0.03564107
#
# Stress axis : x y z
#
# Youngs Moduli (GPa) = 27.76628 104.80822 112.52913
#
# Poissons Ratio (x) = 0.46410 0.10011
# Poissons Ratio (y) = 0.12295 0.45946
# Poissons Ratio (z) = 0.02470 0.42794
#
# Static dielectric constant tensor:
#      x y z
#    x 2.074800 0.000700 -0.225660 
#    y 0.000700 2.303790 -0.000100 
#    z -0.225660 -0.000100 2.230560 
# 
# From -- ./inp_files/463836.got.cif
#   From: 2010.05.17/outbox.cif.g08.bks.cpg/sg2_232_cif.got.tgz:463836.got - 2010.06.03 11:33:40.
