data_PCOD9079715
_publ_section_title
;
Structure prediction by ZEFSAII (Michael W. Deem and Ramdas Pophale) SiO2 
 PCOD9079715
Probable space group: P -1
;
_chemical_formula_sum "Si O2"
_cell_formula_units_Z 16
_cell_length_a 9.536333
_cell_length_b 11.749861
_cell_length_c 8.843480
_cell_angle_alpha 107.311452
_cell_angle_beta 128.572274
_cell_angle_gamma 59.067590
_cell_volume 664.147242
_symmetry_space_group_name_H-M "P -1"
_symmetry_group_IT_number 2
_symmetry_cell_setting 'triclinic'
loop_
_space_group_symop_operation_xyz
x,y,z
-x,-y,-z
loop_
_atom_site_type_symbol
_atom_site_label
_atom_site_fract_x
_atom_site_fract_y
_atom_site_fract_z
Si Si1 0.984709 0.266233 0.579100
Si Si2 0.608155 0.919053 0.282130
Si Si3 0.854347 0.081243 0.606273
Si Si4 0.108087 0.591950 0.143789
Si Si5 0.074686 0.829298 0.812544
Si Si6 0.544114 0.760128 0.447550
Si Si7 0.224426 0.159418 0.131548
Si Si8 0.420929 0.600829 0.124499
O O1 0.225443 0.210008 0.738933
O O2 0.914197 0.158717 0.553309
O O3 0.866946 0.394696 0.654591
O O4 0.947032 0.263270 0.372855
O O5 0.560215 0.865500 0.384755
O O6 0.733121 0.002430 0.432296
O O7 0.397509 0.028172 0.122899
O O8 0.686302 0.189873 0.640234
O O9 0.042149 0.969228 0.774978
O O10 0.295551 0.559551 0.146083
O O11 0.000000 0.500000 0.000000
O O12 0.946481 0.741446 0.051403
O O13 0.892534 0.871654 0.824178
O O14 0.275087 0.740245 0.000170
O O15 0.668759 0.759971 0.678934
O O16 0.590655 0.626758 0.334814
O O17 0.500000 0.500000 0.000000
#
# Coordination Sequence:
#
# PCOD9079715 Si02
#       8
#     2   2   2   2   2   2   2   2
#     4  11  22  39  64  97 130 159 194 256 319 359
#     4  10  19  35  67  97 127 155 199 246 309 385
#     4  10  18  37  63  98 130 155 192 251 318 374
#     4  11  27  47  60  86 127 166 213 259 301 354
#     4  10  20  40  67  91 125 165 200 244 314 373
#     4  11  19  39  67  96 123 157 202 254 305 369
#     4  10  20  40  68  91 123 166 202 244 308 376
#     4  11  27  45  63  88 119 167 224 254 286 367
#
# _framework density 24.091042999999999
#
# number of rings (size 3 to 8) (size 9 to 14) (size 15 to 20)
#    0.000    1.500    5.000    2.250    1.750    3.000 
#    6.750    3.750    0.000    0.000    0.000    0.000 
#    0.000    0.000    0.000    0.000    0.000    0.000 
#
# Total GULP energy -89393.801432 kJ/mol
# GULP energy per Si atom -5587.112590 kJ/mol
# Density = 2.403621 g / cm^3
# Si number density = 24.091043 Si / 1000 Ang^3
#
#
#
# Elastic Constant Matrix: (Units=GPa)
#
#
# Indices 1 2 3 4 5 6 
#
# 1 113.7001 14.5461 13.6871 8.3836 -7.8443 -14.2794
# 2 14.5461 27.4713 11.9105 8.1291 -1.8816 -4.8584
# 3 13.6871 11.9105 67.8914 11.4735 7.2468 -13.5016
# 4 8.3836 8.1291 11.4735 42.0018 -7.0232 -2.4892
# 5 -7.8443 -1.8816 7.2468 -7.0232 33.0289 12.4774
# 6 -14.2794 -4.8584 -13.5016 -2.4892 12.4774 37.3205
#
#
#
# Elastic Compliance Matrix: (Units=1/GPa)
#
#
# Indices 1 2 3 4 5 6 
#
# 1 0.009866 -0.004182 -0.000785 -0.000596 0.001205 0.002504
# 2 -0.004182 0.043026 -0.005592 -0.005725 0.000989 0.001266
# 3 -0.000785 -0.005592 0.019439 -0.005083 -0.009146 0.008723
# 4 -0.000596 -0.005725 -0.005083 0.027525 0.007863 -0.003605
# 5 0.001205 0.000989 -0.009146 0.007863 0.040205 -0.015636
# 6 0.002504 0.001266 0.008723 -0.003605 -0.015636 0.036061
#
#
# Mechanical properties :
#
#
# Convention : Reuss Voigt Hill
#
# Bulk Modulus (GPa) = 19.52634 32.15002 25.83818
# Shear Modulus (GPa) = 23.33068 33.73152 28.53110
#
# Velocity S-wave (km/s) = 3.11535 3.74594 3.44510
# Velocity P-wave (km/s) = 4.58948 5.66424 5.15495
#
# Compressibility (1/GPa) = 0.05121287
#
# Stress axis : x y z
#
# Youngs Moduli (GPa) = 101.35702 23.24179 51.44354
#
# Poissons Ratio (x) = 0.09720 0.04040
# Poissons Ratio (y) = 0.42388 0.28765
# Poissons Ratio (z) = 0.07960 0.12996
#
# Static dielectric constant tensor:
#      x y z
#    x 1.905550 -0.051710 -0.017570 
#    y -0.051710 2.021490 0.040790 
#    z -0.017570 0.040790 2.021900 
# 
# From -- ./inp_files/179424.got.cif
#   From: 2010.05.17/outbox.cif.g08.bks.cpg/sg2_90_cif.got.tgz:179424.got - 2010.06.03 11:33:40.
