data_PCOD9079400
_publ_section_title
;
Structure prediction by ZEFSAII (Michael W. Deem and Ramdas Pophale) SiO2 
 PCOD9079400
Probable space group: P -1
;
_chemical_formula_sum "Si O2"
_cell_formula_units_Z 14
_cell_length_a 7.781989
_cell_length_b 15.989722
_cell_length_c 12.211369
_cell_angle_alpha 131.259848
_cell_angle_beta 117.465326
_cell_angle_gamma 34.835327
_cell_volume 641.019956
_symmetry_space_group_name_H-M "P -1"
_symmetry_group_IT_number 2
_symmetry_cell_setting 'triclinic'
loop_
_space_group_symop_operation_xyz
x,y,z
-x,-y,-z
loop_
_atom_site_type_symbol
_atom_site_label
_atom_site_fract_x
_atom_site_fract_y
_atom_site_fract_z
Si Si1 0.642023 0.755515 0.519391
Si Si2 0.656007 0.939702 0.167164
Si Si3 0.977431 0.791752 0.916663
Si Si4 0.859299 0.410585 0.902916
Si Si5 0.595897 0.588548 0.201335
Si Si6 0.344413 0.442054 0.467115
Si Si7 0.532719 0.587299 0.754153
O O1 0.563680 0.722677 0.359638
O O2 0.642284 0.665180 0.538822
O O3 0.994047 0.638686 0.516769
O O4 0.402401 0.954281 0.656457
O O5 0.801370 0.761927 0.103230
O O6 0.328560 0.075248 0.129512
O O7 0.882792 0.879026 0.083820
O O8 0.122312 0.604862 0.824570
O O9 0.237792 0.734793 0.872030
O O10 0.691264 0.363769 0.815848
O O11 0.812889 0.476817 0.825014
O O12 0.668996 0.558110 0.068216
O O13 0.519726 0.466993 0.596868
O O14 0.458231 0.350757 0.302783
#
# Coordination Sequence:
#
# PCOD9079400 Si02
#       7
#     2   2   2   2   2   2   2
#     4  11  18  34  53  87 101 131 175 229 254 301
#     4  10  19  28  54  83 112 129 167 220 271 299
#     4   9  16  33  52  78 102 144 178 205 243 326
#     4   9  18  33  51  79 103 141 172 210 256 321
#     4   9  17  32  55  72 104 140 182 206 245 312
#     4  10  20  32  59  77 101 137 185 215 248 303
#     4  10  18  37  56  76  99 145 182 209 242 323
#
# _framework density 21.840192999999999
#
# number of rings (size 3 to 8) (size 9 to 14) (size 15 to 20)
#    0.000    2.286    4.286    1.714    0.000    0.571 
#    0.000    2.143    0.000    0.000    0.000    0.000 
#    0.000    0.000    0.000    0.000    0.000    0.000 
#
# Total GULP energy -78121.956339 kJ/mol
# GULP energy per Si atom -5580.139739 kJ/mol
# Density = 2.179048 g / cm^3
# Si number density = 21.840193 Si / 1000 Ang^3
#
#
#
# Elastic Constant Matrix: (Units=GPa)
#
#
# Indices 1 2 3 4 5 6 
#
# 1 35.9256 3.2841 8.0566 -3.5267 -12.3893 -5.4805
# 2 3.2841 69.2971 16.1458 -11.4703 -10.9842 -7.3831
# 3 8.0566 16.1458 121.2475 -7.4849 -23.9680 3.3284
# 4 -3.5267 -11.4703 -7.4849 36.9077 1.5805 -10.4057
# 5 -12.3893 -10.9842 -23.9680 1.5805 30.3941 -0.5351
# 6 -5.4805 -7.3831 3.3284 -10.4057 -0.5351 10.8276
#
#
#
# Elastic Compliance Matrix: (Units=1/GPa)
#
#
# Indices 1 2 3 4 5 6 
#
# 1 0.043818 0.009965 -0.000165 0.020332 0.021149 0.049609
# 2 0.009965 0.023440 -0.001542 0.018747 0.011047 0.040064
# 3 -0.000165 -0.001542 0.009996 0.000190 0.007184 -0.003671
# 4 0.020332 0.018747 0.000190 0.056233 0.013656 0.077733
# 5 0.021149 0.011047 0.007184 0.013656 0.051027 0.031675
# 6 0.049609 0.040064 -0.003671 0.077733 0.031675 0.222185
#
#
# Mechanical properties :
#
#
# Convention : Reuss Voigt Hill
#
# Bulk Modulus (GPa) = 10.66424 31.27146 20.96785
# Shear Modulus (GPa) = 11.86404 28.89145 20.37775
#
# Velocity S-wave (km/s) = 2.33324 3.64106 3.05788
# Velocity P-wave (km/s) = 3.48599 5.65913 4.69989
#
# Compressibility (1/GPa) = 0.09377137
#
# Stress axis : x y z
#
# Youngs Moduli (GPa) = 22.82142 42.66144 100.03502
#
# Poissons Ratio (x) = -0.42512 0.01647
# Poissons Ratio (y) = -0.22741 0.15428
# Poissons Ratio (z) = 0.00376 0.06579
#
# Static dielectric constant tensor:
#      x y z
#    x 1.850960 -0.024080 -0.002050 
#    y -0.024080 1.811030 -0.017740 
#    z -0.002050 -0.017740 1.828870 
# 
# From -- ./inp_files/254749.got.cif
#   From: 2010.05.17/outbox.cif.g08.bks.cpg/sg2_128_cif.got.tgz:254749.got - 2010.06.03 11:33:40.
