data_PCOD9079500
_publ_section_title
;
Structure prediction by ZEFSAII (Michael W. Deem and Ramdas Pophale) SiO2 
 PCOD9079500
Probable space group: P -1
;
_chemical_formula_sum "Si O2"
_cell_formula_units_Z 16
_cell_length_a 11.075749
_cell_length_b 9.099327
_cell_length_c 18.435644
_cell_angle_alpha 45.099647
_cell_angle_beta 123.688793
_cell_angle_gamma 139.761160
_cell_volume 849.640185
_symmetry_space_group_name_H-M "P -1"
_symmetry_group_IT_number 2
_symmetry_cell_setting 'triclinic'
loop_
_space_group_symop_operation_xyz
x,y,z
-x,-y,-z
loop_
_atom_site_type_symbol
_atom_site_label
_atom_site_fract_x
_atom_site_fract_y
_atom_site_fract_z
Si Si1 0.798672 0.206230 0.035445
Si Si2 0.202113 0.124721 0.337719
Si Si3 0.652661 0.466458 0.234386
Si Si4 0.689586 0.554899 0.878210
Si Si5 0.472509 0.541566 0.557357
Si Si6 0.219282 0.152711 0.722229
Si Si7 0.943136 0.977572 0.072475
Si Si8 0.403033 0.927926 0.414429
O O1 0.781663 0.047478 0.156163
O O2 0.811971 0.057991 0.023453
O O3 0.665347 0.286070 0.969011
O O4 0.000000 0.500000 0.000000
O O5 0.275873 0.365330 0.222718
O O6 0.332166 0.241076 0.411233
O O7 0.238183 0.944292 0.367520
O O8 0.986530 0.977749 0.328658
O O9 0.489803 0.473578 0.149866
O O10 0.712482 0.602549 0.286526
O O11 0.831368 0.674469 0.170923
O O12 0.548942 0.156174 0.324927
O O13 0.868530 0.803572 0.895133
O O14 0.500000 0.500000 0.500000
O O15 0.360985 0.274577 0.660848
O O16 0.354669 0.649289 0.478066
O O17 0.000000 0.000000 0.000000
O O18 0.500000 0.000000 0.500000
#
# Coordination Sequence:
#
# PCOD9079500 Si02
#       8
#     2   2   2   2   2   2   2   2
#     4   9  18  35  60  85 113 152 194 227 275 344
#     4  10  19  37  66  85 109 150 199 234 272 354
#     4  10  19  36  62  84 110 153 199 229 276 342
#     4  10  18  37  60  84 117 152 195 231 271 346
#     4  11  24  42  56  87 122 142 188 250 291 330
#     4  11  19  35  65  85 112 155 194 229 285 338
#     4  10  21  35  53  84 119 147 184 239 281 325
#     4   9  18  38  60  83 108 147 194 239 275 343
#
# _framework density 18.831502
#
# number of rings (size 3 to 8) (size 9 to 14) (size 15 to 20)
#    0.000    2.000    7.500    0.000    0.000    3.500 
#    4.500    2.500    0.000    0.000    0.000    0.000 
#    0.000    0.000    0.000    0.000    0.000    0.000 
#
# Total GULP energy -89086.720933 kJ/mol
# GULP energy per Si atom -5567.920058 kJ/mol
# Density = 1.878864 g / cm^3
# Si number density = 18.831502 Si / 1000 Ang^3
#
#
#
# Elastic Constant Matrix: (Units=GPa)
#
#
# Indices 1 2 3 4 5 6 
#
# 1 69.9630 23.8855 52.1838 8.4717 -10.6553 -2.9353
# 2 23.8855 50.3495 28.6126 5.2344 -1.7724 7.2046
# 3 52.1838 28.6126 105.4410 -6.0864 -9.1156 -10.8996
# 4 8.4717 5.2344 -6.0864 29.5355 -0.6339 0.5982
# 5 -10.6553 -1.7724 -9.1156 -0.6339 41.6463 3.7617
# 6 -2.9353 7.2046 -10.8996 0.5982 3.7617 27.8047
#
#
#
# Elastic Compliance Matrix: (Units=1/GPa)
#
#
# Indices 1 2 3 4 5 6 
#
# 1 0.026648 -0.004354 -0.012333 -0.009305 0.003902 -0.001221
# 2 -0.004354 0.027678 -0.006728 -0.004851 -0.000571 -0.010087
# 3 -0.012333 -0.006728 0.018691 0.008430 0.000094 0.007574
# 4 -0.009305 -0.004851 0.008430 0.039058 -0.000400 0.002793
# 5 0.003902 -0.000571 0.000094 -0.000400 0.025254 -0.002811
# 6 -0.001221 -0.010087 0.007574 0.002793 -0.002811 0.041739
#
#
# Mechanical properties :
#
#
# Convention : Reuss Voigt Hill
#
# Bulk Modulus (GPa) = 38.18644 48.34636 43.26640
# Shear Modulus (GPa) = 21.31037 27.86873 24.58955
#
# Velocity S-wave (km/s) = 3.36763 3.85112 3.61746
# Velocity P-wave (km/s) = 5.95342 6.74564 6.36187
#
# Compressibility (1/GPa) = 0.02618731
#
# Stress axis : x y z
#
# Youngs Moduli (GPa) = 37.52575 36.13043 53.50135
#
# Poissons Ratio (x) = 0.15730 0.65984
# Poissons Ratio (y) = 0.16338 0.35996
# Poissons Ratio (z) = 0.46281 0.24308
#
# Static dielectric constant tensor:
#      x y z
#    x 1.705720 0.034840 0.035900 
#    y 0.034840 1.687010 -0.025950 
#    z 0.035900 -0.025950 1.678370 
# 
# From -- ./inp_files/565754.got.cif
#   From: 2010.05.17/outbox.cif.g08.bks.cpg/sg2_283_cif.got.tgz:565754.got - 2010.06.03 11:33:40.
