data_PCOD9079369
_publ_section_title
;
Structure prediction by ZEFSAII (Michael W. Deem and Ramdas Pophale) SiO2 
 PCOD9079369
Probable space group: P -1
;
_chemical_formula_sum "Si O2"
_cell_formula_units_Z 14
_cell_length_a 12.593479
_cell_length_b 15.863937
_cell_length_c 11.751534
_cell_angle_alpha 24.767882
_cell_angle_beta 39.222143
_cell_angle_gamma 33.847410
_cell_volume 545.699555
_symmetry_space_group_name_H-M "P -1"
_symmetry_group_IT_number 2
_symmetry_cell_setting 'triclinic'
loop_
_space_group_symop_operation_xyz
x,y,z
-x,-y,-z
loop_
_atom_site_type_symbol
_atom_site_label
_atom_site_fract_x
_atom_site_fract_y
_atom_site_fract_z
Si Si1 0.308984 0.264661 0.743483
Si Si2 0.489537 0.471462 0.728569
Si Si3 0.935492 0.698530 0.438673
Si Si4 0.553874 0.735320 0.747152
Si Si5 0.220997 0.335928 0.991802
Si Si6 0.198341 0.994027 0.598435
Si Si7 0.830821 0.020600 0.913567
O O1 0.493913 0.300771 0.546996
O O2 0.314139 0.047032 0.946159
O O3 0.138191 0.476677 0.557926
O O4 0.249941 0.275662 0.909827
O O5 0.451130 0.386736 0.984088
O O6 0.337376 0.466715 0.773835
O O7 0.697985 0.279135 0.747739
O O8 0.766194 0.631332 0.649172
O O9 0.914587 0.862475 0.150148
O O10 0.887239 0.842422 0.419590
O O11 0.384380 0.767627 0.764039
O O12 0.500000 0.000000 0.500000
O O13 0.268393 0.119750 0.297794
O O14 0.000000 0.500000 0.000000
O O15 0.012731 0.972577 0.743357
#
# Coordination Sequence:
#
# PCOD9079369 Si02
#       7
#     2   2   2   2   2   2   2
#     4  12  27  40  63 101 127 168 209 255 320 376
#     4  12  22  44  69  89 128 169 209 261 314 371
#     4  11  19  42  65  95 126 163 212 260 314 366
#     4  10  18  36  70  93 118 167 218 253 311 369
#     4  12  23  44  68  90 127 169 214 255 311 382
#     4  11  20  39  69  93 119 174 208 256 317 364
#     4  12  24  41  67  96 131 160 210 267 313 372
#
# _framework density 25.655144
#
# number of rings (size 3 to 8) (size 9 to 14) (size 15 to 20)
#    0.000    0.571    8.571    2.143    0.000    1.143 
#    0.000    7.143    0.000    0.000    0.000    0.000 
#    0.000    0.000    0.000    0.000    0.000    0.000 
#
# Total GULP energy -78549.260488 kJ/mol
# GULP energy per Si atom -5610.661463 kJ/mol
# Density = 2.559675 g / cm^3
# Si number density = 25.655144 Si / 1000 Ang^3
#
#
#
# Elastic Constant Matrix: (Units=GPa)
#
#
# Indices 1 2 3 4 5 6 
#
# 1 120.3866 43.4453 39.3148 8.5872 -15.7922 -4.5798
# 2 43.4453 63.7594 17.3129 2.2016 -10.2593 -16.0269
# 3 39.3148 17.3129 94.6707 29.4390 2.5776 9.7360
# 4 8.5872 2.2016 29.4390 39.0211 -5.1177 -2.9364
# 5 -15.7922 -10.2593 2.5776 -5.1177 53.6028 10.0406
# 6 -4.5798 -16.0269 9.7360 -2.9364 10.0406 55.0528
#
#
#
# Elastic Compliance Matrix: (Units=1/GPa)
#
#
# Indices 1 2 3 4 5 6 
#
# 1 0.012535 -0.007163 -0.004259 0.001168 0.002776 -0.000733
# 2 -0.007163 0.023160 -0.002976 0.003211 0.001543 0.006563
# 3 -0.004259 -0.002976 0.017373 -0.012734 -0.003048 -0.004416
# 4 0.001168 0.003211 -0.012734 0.035673 0.004147 0.004430
# 5 0.002776 0.001543 -0.003048 0.004147 0.020750 -0.002344
# 6 -0.000733 0.006563 -0.004416 0.004430 -0.002344 0.021459
#
#
# Mechanical properties :
#
#
# Convention : Reuss Voigt Hill
#
# Bulk Modulus (GPa) = 41.20037 53.21805 47.20921
# Shear Modulus (GPa) = 29.79076 41.45157 35.62117
#
# Velocity S-wave (km/s) = 3.41134 4.02396 3.73025
# Velocity P-wave (km/s) = 5.62232 6.50987 6.08230
#
# Compressibility (1/GPa) = 0.02427163
#
# Stress axis : x y z
#
# Youngs Moduli (GPa) = 79.77403 43.17798 57.56155
#
# Poissons Ratio (x) = 0.30929 0.24515
# Poissons Ratio (y) = 0.57143 0.17131
# Poissons Ratio (z) = 0.33976 0.12850
#
# Static dielectric constant tensor:
#      x y z
#    x 2.082670 -0.028400 -0.061810 
#    y -0.028400 1.996030 -0.023110 
#    z -0.061810 -0.023110 2.013000 
# 
# From -- ./inp_files/436322.got.cif
#   From: 2010.05.17/outbox.cif.g08.bks.cpg/sg2_219_cif.got.tgz:436322.got - 2010.06.03 11:33:40.
