data_PCOD9079202
_publ_section_title
;
Structure prediction by ZEFSAII (Michael W. Deem and Ramdas Pophale) SiO2 
 PCOD9079202
Probable space group: P -1
;
_chemical_formula_sum "Si O2"
_cell_formula_units_Z 12
_cell_length_a 9.781002
_cell_length_b 9.103616
_cell_length_c 15.464953
_cell_angle_alpha 140.708063
_cell_angle_beta 70.001293
_cell_angle_gamma 83.027146
_cell_volume 623.583553
_symmetry_space_group_name_H-M "P -1"
_symmetry_group_IT_number 2
_symmetry_cell_setting 'triclinic'
loop_
_space_group_symop_operation_xyz
x,y,z
-x,-y,-z
loop_
_atom_site_type_symbol
_atom_site_label
_atom_site_fract_x
_atom_site_fract_y
_atom_site_fract_z
Si Si1 0.526864 0.027229 0.907160
Si Si2 0.563313 0.191904 0.547458
Si Si3 0.105285 0.145118 0.821423
Si Si4 0.385548 0.721637 0.706912
Si Si5 0.624669 0.336987 0.784407
Si Si6 0.782038 0.130394 0.831186
O O1 0.494260 0.834805 0.770487
O O2 0.727381 0.949574 0.809618
O O3 0.500000 0.000000 0.000000
O O4 0.371013 0.388402 0.085481
O O5 0.394745 0.523039 0.691620
O O6 0.641592 0.232638 0.636055
O O7 0.500000 0.000000 0.500000
O O8 0.724882 0.018324 0.360010
O O9 0.966949 0.076686 0.794246
O O10 0.188069 0.007521 0.836550
O O11 0.000000 0.500000 0.000000
O O12 0.500000 0.500000 0.500000
O O13 0.765793 0.096783 0.717141
O O14 0.404519 0.516115 0.943629
#
# Coordination Sequence:
#
# PCOD9079202 Si02
#       6
#     2   2   2   2   2   2
#     4  10  18  36  64  88 117 163 211 247 307 377
#     4  11  23  39  63  92 125 169 211 257 312 378
#     4  11  23  40  63  94 129 160 211 262 315 366
#     4  10  22  39  64  89 124 166 208 252 318 375
#     4   9  19  37  63  82 128 164 213 234 327 369
#     4   9  20  36  61  88 119 167 199 254 310 372
#
# _framework density 19.243611000000001
#
# number of rings (size 3 to 8) (size 9 to 14) (size 15 to 20)
#    1.000    1.000    1.667    2.000    4.667    0.667 
#    0.000   12.500    0.000    0.000    0.000    0.000 
#    0.000    0.000    0.000    0.000    0.000    0.000 
#
# Total GULP energy -66826.954993 kJ/mol
# GULP energy per Si atom -5568.912916 kJ/mol
# Density = 1.919981 g / cm^3
# Si number density = 19.243611 Si / 1000 Ang^3
#
#
#
# Elastic Constant Matrix: (Units=GPa)
#
#
# Indices 1 2 3 4 5 6 
#
# 1 133.9531 73.2450 28.3067 3.0286 15.8227 10.8804
# 2 73.2450 161.3083 34.4843 0.2989 10.0741 6.8360
# 3 28.3067 34.4843 62.5519 -2.6577 24.0181 -2.8804
# 4 3.0286 0.2989 -2.6577 28.9545 -4.1111 7.2106
# 5 15.8227 10.0741 24.0181 -4.1111 30.3170 4.0328
# 6 10.8804 6.8360 -2.8804 7.2106 4.0328 27.8953
#
#
#
# Elastic Compliance Matrix: (Units=1/GPa)
#
#
# Indices 1 2 3 4 5 6 
#
# 1 0.010666 -0.004209 -0.001664 -0.000929 -0.002619 -0.002682
# 2 -0.004209 0.008878 -0.004109 0.000760 0.002813 -0.001561
# 3 -0.001664 -0.004109 0.027234 -0.002226 -0.020713 0.008038
# 4 -0.000929 0.000760 -0.002226 0.038461 0.008709 -0.011254
# 5 -0.002619 0.002813 -0.020713 0.008709 0.052558 -0.011656
# 6 -0.002682 -0.001561 0.008038 -0.011254 -0.011656 0.042701
#
#
# Mechanical properties :
#
#
# Convention : Reuss Voigt Hill
#
# Bulk Modulus (GPa) = 37.29367 69.98724 53.64046
# Shear Modulus (GPa) = 23.87770 32.21851 28.04811
#
# Velocity S-wave (km/s) = 3.52634 4.09619 3.82190
# Velocity P-wave (km/s) = 6.00016 7.66940 6.88555
#
# Compressibility (1/GPa) = 0.02681421
#
# Stress axis : x y z
#
# Youngs Moduli (GPa) = 93.75217 112.63924 36.71912
#
# Poissons Ratio (x) = 0.47405 0.06110
# Poissons Ratio (y) = 0.39457 0.15089
# Poissons Ratio (z) = 0.15600 0.46288
#
# Static dielectric constant tensor:
#      x y z
#    x 1.654960 -0.013300 -0.022610 
#    y -0.013300 1.723730 0.033970 
#    z -0.022610 0.033970 1.699800 
# 
# From -- ./inp_files/190069.got.cif
#   From: 2010.05.17/outbox.cif.g08.bks.cpg/sg2_96_cif.got.tgz:190069.got - 2010.06.03 11:33:40.
