data_PCOD9079874
_publ_section_title
;
Structure prediction by ZEFSAII (Michael W. Deem and Ramdas Pophale) SiO2 
 PCOD9079874
Probable space group: P -1
;
_chemical_formula_sum "Si O2"
_cell_formula_units_Z 16
_cell_length_a 6.800054
_cell_length_b 23.168835
_cell_length_c 8.315939
_cell_angle_alpha 136.098141
_cell_angle_beta 58.267091
_cell_angle_gamma 133.039505
_cell_volume 662.498018
_symmetry_space_group_name_H-M "P -1"
_symmetry_group_IT_number 2
_symmetry_cell_setting 'triclinic'
loop_
_space_group_symop_operation_xyz
x,y,z
-x,-y,-z
loop_
_atom_site_type_symbol
_atom_site_label
_atom_site_fract_x
_atom_site_fract_y
_atom_site_fract_z
Si Si1 0.838466 0.885271 0.323130
Si Si2 0.182020 0.429330 0.519767
Si Si3 0.631242 0.102237 0.370496
Si Si4 0.653220 0.115542 0.010352
Si Si5 0.795557 0.389784 0.008560
Si Si6 0.831164 0.305708 0.137201
Si Si7 0.681947 0.713779 0.249143
Si Si8 0.142257 0.302278 0.555200
O O1 0.539791 0.866357 0.379096
O O2 0.790493 0.825873 0.389052
O O3 0.037875 0.863958 0.090779
O O4 0.000000 0.000000 0.500000
O O5 0.500000 0.500000 0.500000
O O6 0.098143 0.497691 0.785567
O O7 0.165049 0.337833 0.435554
O O8 0.995622 0.389175 0.364248
O O9 0.936979 0.187420 0.429708
O O10 0.535174 0.989266 0.205015
O O11 0.574397 0.107604 0.215248
O O12 0.648785 0.202941 0.098061
O O13 0.699750 0.337912 0.120769
O O14 0.558092 0.344659 0.889718
O O15 0.012966 0.363039 0.803900
O O16 0.069554 0.297148 0.933272
O O17 0.616703 0.678720 0.391007
#
# Coordination Sequence:
#
# PCOD9079874 Si02
#       8
#     2   2   2   2   2   2   2   2
#     4   9  18  36  61  91 130 170 212 260 315 383
#     4  12  24  44  65  93 126 165 212 274 330 375
#     4  10  18  37  67  94 127 175 209 264 330 384
#     4   9  19  36  66  96 132 163 218 268 317 391
#     4  11  23  43  64  90 126 168 216 260 320 392
#     4  10  21  42  64  92 129 164 209 269 321 381
#     4  10  21  41  62  93 131 167 211 264 319 383
#     4  11  24  42  66  91 131 166 214 268 320 391
#
# _framework density 24.151018000000001
#
# number of rings (size 3 to 8) (size 9 to 14) (size 15 to 20)
#    0.000    1.750    3.750    0.750    0.000    0.500 
#    9.000    2.500    0.000    2.250    0.000    0.000 
#    0.000    0.000    0.000    0.000    0.000    0.000 
#
# Total GULP energy -89302.334733 kJ/mol
# GULP energy per Si atom -5581.395921 kJ/mol
# Density = 2.409605 g / cm^3
# Si number density = 24.151018 Si / 1000 Ang^3
#
#
#
# Elastic Constant Matrix: (Units=GPa)
#
#
# Indices 1 2 3 4 5 6 
#
# 1 92.4721 30.6723 30.0756 13.1488 15.4492 -17.0657
# 2 30.6723 90.7922 18.5395 27.8105 13.8249 -9.9458
# 3 30.0756 18.5395 98.2802 17.4557 -3.4056 -2.5923
# 4 13.1488 27.8105 17.4557 31.2279 6.8869 -5.8968
# 5 15.4492 13.8249 -3.4056 6.8869 35.5695 -13.0367
# 6 -17.0657 -9.9458 -2.5923 -5.8968 -13.0367 29.3916
#
#
#
# Elastic Compliance Matrix: (Units=1/GPa)
#
#
# Indices 1 2 3 4 5 6 
#
# 1 0.014725 -0.003225 -0.004011 0.000778 -0.003601 0.005663
# 2 -0.003225 0.016360 0.000071 -0.012699 -0.002485 0.000020
# 3 -0.004011 0.000071 0.012649 -0.006447 0.003898 -0.000754
# 4 0.000778 -0.012699 -0.006447 0.048158 -0.004084 0.003436
# 5 -0.003601 -0.002485 0.003898 -0.004084 0.036491 0.012778
# 6 0.005663 0.000020 -0.000754 0.003436 0.012778 0.043609
#
#
# Mechanical properties :
#
#
# Convention : Reuss Voigt Hill
#
# Bulk Modulus (GPa) = 34.01028 48.90215 41.45621
# Shear Modulus (GPa) = 25.49417 32.72159 29.10788
#
# Velocity S-wave (km/s) = 3.25255 3.68485 3.47543
# Velocity P-wave (km/s) = 5.31209 6.19650 5.77126
#
# Compressibility (1/GPa) = 0.02940288
#
# Stress axis : x y z
#
# Youngs Moduli (GPa) = 67.91399 61.12616 79.05551
#
# Poissons Ratio (x) = 0.19712 0.31711
# Poissons Ratio (y) = 0.21901 -0.00559
# Poissons Ratio (z) = 0.27242 -0.00432
#
# Static dielectric constant tensor:
#      x y z
#    x 1.993220 0.075850 -0.082470 
#    y 0.075850 2.119010 -0.167090 
#    z -0.082470 -0.167090 2.044250 
# 
# From -- ./inp_files/141582.got.cif
#   From: 2010.05.17/outbox.cif.g08.bks.cpg/sg2_71_cif.got.tgz:141582.got - 2010.06.03 11:33:40.
