data_PCOD9079727
_publ_section_title
;
Structure prediction by ZEFSAII (Michael W. Deem and Ramdas Pophale) SiO2 
 PCOD9079727
Probable space group: P -1
;
_chemical_formula_sum "Si O2"
_cell_formula_units_Z 10
_cell_length_a 9.721996
_cell_length_b 7.211546
_cell_length_c 14.091088
_cell_angle_alpha 43.063956
_cell_angle_beta 137.803135
_cell_angle_gamma 113.740792
_cell_volume 431.897427
_symmetry_space_group_name_H-M "P -1"
_symmetry_group_IT_number 2
_symmetry_cell_setting 'triclinic'
loop_
_space_group_symop_operation_xyz
x,y,z
-x,-y,-z
loop_
_atom_site_type_symbol
_atom_site_label
_atom_site_fract_x
_atom_site_fract_y
_atom_site_fract_z
Si Si1 0.845198 0.178723 0.074901
Si Si2 0.284118 0.161727 0.231292
Si Si3 0.352467 0.143655 0.054611
Si Si4 0.904089 0.266346 0.284233
Si Si5 0.366645 0.271464 0.515366
O O1 0.097489 0.069322 0.220041
O O2 0.829112 0.169317 0.182949
O O3 0.748123 0.514943 0.875331
O O4 0.729196 0.006204 0.016317
O O5 0.235524 0.166288 0.090208
O O6 0.523597 0.945571 0.432414
O O7 0.576193 0.924789 0.286982
O O8 0.291340 0.475618 0.871283
O O9 0.112672 0.380436 0.332884
O O10 0.000000 0.000000 0.500000
O O11 0.500000 0.500000 0.500000
#
# Coordination Sequence:
#
# PCOD9079727 Si02
#       5
#     2   2   2   2   2
#     4  10  18  37  64  84 124 162 192 246 313 343
#     4   8  19  33  59  90 118 148 196 252 301 343
#     4   9  21  40  59  89 122 156 194 259 294 351
#     4  11  25  42  59  88 127 165 199 241 299 364
#     4  10  22  39  64  93 121 152 201 257 300 347
#
# _framework density 23.153645000000001
#
# number of rings (size 3 to 8) (size 9 to 14) (size 15 to 20)
#    1.200    1.200    0.000    1.800    8.400    2.400 
#    3.600    1.000    0.000    0.000    0.000    0.000 
#    0.000    0.000    0.000    0.000    0.000    0.000 
#
# Total GULP energy -55753.093782 kJ/mol
# GULP energy per Si atom -5575.309378 kJ/mol
# Density = 2.310095 g / cm^3
# Si number density = 23.153645 Si / 1000 Ang^3
#
#
#
# Elastic Constant Matrix: (Units=GPa)
#
#
# Indices 1 2 3 4 5 6 
#
# 1 27.9327 15.3534 14.5082 3.3935 8.8089 16.3267
# 2 15.3534 140.1463 36.9348 15.2242 6.7656 -11.7546
# 3 14.5082 36.9348 127.8588 0.2425 13.9893 11.8212
# 4 3.3935 15.2242 0.2425 24.8579 1.8303 -4.0761
# 5 8.8089 6.7656 13.9893 1.8303 41.9196 7.5734
# 6 16.3267 -11.7546 11.8212 -4.0761 7.5734 15.8059
#
#
#
# Elastic Compliance Matrix: (Units=1/GPa)
#
#
# Indices 1 2 3 4 5 6 
#
# 1 0.277328 -0.059983 0.018413 -0.062703 0.014472 -0.367951
# 2 -0.059983 0.022297 -0.007321 0.009550 -0.005027 0.088888
# 3 0.018413 -0.007321 0.010969 -0.003627 -0.000130 -0.033541
# 4 -0.062703 0.009550 -0.003627 0.058673 -0.006486 0.092824
# 5 0.014472 -0.005027 -0.000130 -0.006486 0.028040 -0.033698
# 6 -0.367951 0.088888 -0.033541 0.092824 -0.033698 0.574617
#
#
# Mechanical properties :
#
#
# Convention : Reuss Voigt Hill
#
# Bulk Modulus (GPa) = 4.69898 47.72561 26.21229
# Shear Modulus (GPa) = 4.38349 31.79276 18.08813
#
# Velocity S-wave (km/s) = 1.37744 3.70959 2.79807
# Velocity P-wave (km/s) = 2.13627 6.24543 4.66739
#
# Compressibility (1/GPa) = 0.21281212
#
# Stress axis : x y z
#
# Youngs Moduli (GPa) = 3.60584 44.84974 91.16836
#
# Poissons Ratio (x) = 2.69023 -1.67872
# Poissons Ratio (y) = 0.21629 0.66743
# Poissons Ratio (z) = -0.06640 0.32834
#
# Static dielectric constant tensor:
#      x y z
#    x 1.923750 0.046350 -0.041150 
#    y 0.046350 1.846370 -0.008100 
#    z -0.041150 -0.008100 1.938220 
# 
# From -- ./inp_files/59232.got.cif
#   From: 2010.05.17/outbox.cif.g08.bks.cpg/sg2_30_cif.got.tgz:59232.got - 2010.06.03 11:33:40.
