data_PCOD9079341
_publ_section_title
;
Structure prediction by ZEFSAII (Michael W. Deem and Ramdas Pophale) SiO2 
 PCOD9079341
Probable space group: P -1
;
_chemical_formula_sum "Si O2"
_cell_formula_units_Z 16
_cell_length_a 7.185330
_cell_length_b 23.827196
_cell_length_c 11.515668
_cell_angle_alpha 155.086511
_cell_angle_beta 125.079369
_cell_angle_gamma 50.954654
_cell_volume 644.983628
_symmetry_space_group_name_H-M "P -1"
_symmetry_group_IT_number 2
_symmetry_cell_setting 'triclinic'
loop_
_space_group_symop_operation_xyz
x,y,z
-x,-y,-z
loop_
_atom_site_type_symbol
_atom_site_label
_atom_site_fract_x
_atom_site_fract_y
_atom_site_fract_z
Si Si1 0.669343 0.733892 0.854582
Si Si2 0.932124 0.519021 0.701232
Si Si3 0.840011 0.601718 0.230574
Si Si4 0.163872 0.732502 0.726923
Si Si5 0.565802 0.069944 0.041263
Si Si6 0.426545 0.846985 0.449637
Si Si7 0.366279 0.199623 0.789244
Si Si8 0.971321 0.062268 0.327780
O O1 0.907694 0.615483 0.760212
O O2 0.983565 0.708372 0.520673
O O3 0.644875 0.800995 0.845426
O O4 0.614683 0.843675 0.149721
O O5 0.856548 0.380573 0.397119
O O6 0.156838 0.477039 0.791566
O O7 0.728708 0.631486 0.916907
O O8 0.583801 0.693966 0.264905
O O9 0.842799 0.853039 0.435052
O O10 0.000000 0.500000 0.000000
O O11 0.434314 0.684782 0.687267
O O12 0.086961 0.894283 0.039979
O O13 0.581841 0.951063 0.729833
O O14 0.796496 0.107403 0.237032
O O15 0.411156 0.842423 0.296691
O O16 0.189715 0.902507 0.546331
O O17 0.500000 0.000000 0.000000
#
# Coordination Sequence:
#
# PCOD9079341 Si02
#       8
#     2   2   2   2   2   2   2   2
#     4  10  21  40  68  98 137 179 235 277 341 412
#     4   8  20  37  65  94 135 179 224 276 338 408
#     4  10  18  36  67  98 130 177 228 273 341 403
#     4  10  20  36  67 100 133 181 233 272 347 416
#     4  10  22  38  61  95 134 175 222 284 337 396
#     4  11  21  41  66  95 142 177 225 290 334 405
#     4  10  23  42  66 103 138 180 229 281 341 411
#     4  11  24  39  69 103 135 180 231 282 344 399
#
# _framework density 24.806832
#
# number of rings (size 3 to 8) (size 9 to 14) (size 15 to 20)
#    1.500    0.500    2.500    1.125    1.750    3.000 
#    0.000    6.250    0.000   22.500    0.000    0.000 
#    0.000    0.000    0.000    0.000    0.000    0.000 
#
# Total GULP energy -89150.912782 kJ/mol
# GULP energy per Si atom -5571.932049 kJ/mol
# Density = 2.475037 g / cm^3
# Si number density = 24.806832 Si / 1000 Ang^3
#
#
#
# Elastic Constant Matrix: (Units=GPa)
#
#
# Indices 1 2 3 4 5 6 
#
# 1 60.6057 17.4696 31.4342 -7.5515 -14.2632 6.6016
# 2 17.4696 155.9756 31.1617 7.6012 7.0775 31.9344
# 3 31.4342 31.1617 96.3720 9.4932 -29.2314 -1.5220
# 4 -7.5515 7.6012 9.4932 38.2752 2.1408 0.2660
# 5 -14.2632 7.0775 -29.2314 2.1408 30.7955 -3.4503
# 6 6.6016 31.9344 -1.5220 0.2660 -3.4503 26.1272
#
#
#
# Elastic Compliance Matrix: (Units=1/GPa)
#
#
# Indices 1 2 3 4 5 6 
#
# 1 0.022200 -0.000492 -0.006892 0.006062 0.002862 -0.005093
# 2 -0.000492 0.011894 -0.007624 0.000220 -0.012057 -0.016452
# 3 -0.006892 -0.007624 0.022808 -0.006863 0.022414 0.015419
# 4 0.006062 0.000220 -0.006863 0.029349 -0.006169 -0.003315
# 5 0.002862 -0.012057 0.022414 -0.006169 0.060898 0.023425
# 6 -0.005093 -0.016452 0.015419 -0.003315 0.023425 0.063696
#
#
# Mechanical properties :
#
#
# Convention : Reuss Voigt Hill
#
# Bulk Modulus (GPa) = 37.19352 52.56490 44.87921
# Shear Modulus (GPa) = 20.01417 34.56544 27.28980
#
# Velocity S-wave (km/s) = 2.84350 3.73686 3.32036
# Velocity P-wave (km/s) = 5.08001 6.31304 5.72979
#
# Compressibility (1/GPa) = 0.02688640
#
# Stress axis : x y z
#
# Youngs Moduli (GPa) = 45.04499 84.07316 43.84456
#
# Poissons Ratio (x) = 0.04138 0.30216
# Poissons Ratio (y) = 0.02217 0.33428
# Poissons Ratio (z) = 0.31043 0.64099
#
# Static dielectric constant tensor:
#      x y z
#    x 2.022300 0.059530 -0.031440 
#    y 0.059530 2.096430 0.004800 
#    z -0.031440 0.004800 1.988460 
# 
# From -- ./inp_files/407227.got.cif
#   From: 2010.05.17/outbox.cif.g08.bks.cpg/sg2_204_cif.got.tgz:407227.got - 2010.06.03 11:33:40.
