data_PCOD9079548
_publ_section_title
;
Structure prediction by ZEFSAII (Michael W. Deem and Ramdas Pophale) SiO2 
 PCOD9079548
Probable space group: P -1
;
_chemical_formula_sum "Si O2"
_cell_formula_units_Z 16
_cell_length_a 24.434957
_cell_length_b 17.893107
_cell_length_c 5.998334
_cell_angle_alpha 130.413310
_cell_angle_beta 50.176639
_cell_angle_gamma 158.845777
_cell_volume 714.455985
_symmetry_space_group_name_H-M "P -1"
_symmetry_group_IT_number 2
_symmetry_cell_setting 'triclinic'
loop_
_space_group_symop_operation_xyz
x,y,z
-x,-y,-z
loop_
_atom_site_type_symbol
_atom_site_label
_atom_site_fract_x
_atom_site_fract_y
_atom_site_fract_z
Si Si1 0.886676 0.158019 0.133285
Si Si2 0.755407 0.554778 0.574807
Si Si3 0.177217 0.488658 0.311945
Si Si4 0.665646 0.238332 0.960583
Si Si5 0.884332 0.975922 0.466400
Si Si6 0.316466 0.190216 0.713807
Si Si7 0.947168 0.518896 0.008687
Si Si8 0.645368 0.588803 0.621605
O O1 0.042394 0.309350 0.138452
O O2 0.758575 0.998810 0.349779
O O3 0.848662 0.031894 0.802481
O O4 0.930316 0.306674 0.165783
O O5 0.742064 0.505929 0.774118
O O6 0.661073 0.525211 0.646417
O O7 0.932691 0.807244 0.586812
O O8 0.704616 0.393980 0.262476
O O9 0.298690 0.704953 0.285122
O O10 0.089489 0.434843 0.640592
O O11 0.788853 0.314377 0.894130
O O12 0.500000 0.000000 0.000000
O O13 0.809717 0.906724 0.288953
O O14 0.790735 0.773743 0.435663
O O15 0.479316 0.374173 0.525615
O O16 0.350653 0.303534 0.049753
O O17 0.000000 0.500000 0.000000
#
# Coordination Sequence:
#
# PCOD9079548 Si02
#       8
#     2   2   2   2   2   2   2   2
#     4  10  18  37  61  85 117 158 199 243 297 360
#     4  11  21  39  60  93 116 160 207 247 295 365
#     4  10  19  40  65  80 124 155 194 251 306 348
#     4  10  23  43  60  88 125 157 197 252 309 358
#     4  11  19  38  64  83 121 160 203 246 296 359
#     4  10  21  40  57  85 126 164 194 248 308 353
#     4  10  21  38  61  92 114 152 210 248 297 365
#     4  10  24  37  57  92 125 155 205 247 302 359
#
# _framework density 22.394662
#
# number of rings (size 3 to 8) (size 9 to 14) (size 15 to 20)
#    0.000    1.750    5.000    0.750    0.000    5.500 
#    9.000    0.000    0.000    0.000    0.000    0.000 
#    0.000    0.000    0.000    0.000    0.000    0.000 
#
# Total GULP energy -89185.068246 kJ/mol
# GULP energy per Si atom -5574.066765 kJ/mol
# Density = 2.234369 g / cm^3
# Si number density = 22.394662 Si / 1000 Ang^3
#
#
#
# Elastic Constant Matrix: (Units=GPa)
#
#
# Indices 1 2 3 4 5 6 
#
# 1 129.4889 42.5558 -5.3140 -11.1338 12.3580 -24.6626
# 2 42.5558 137.3126 22.4784 -9.5141 9.3002 -16.1498
# 3 -5.3140 22.4784 23.4111 -0.7940 10.1235 -9.1973
# 4 -11.1338 -9.5141 -0.7940 14.3819 -6.0838 8.9411
# 5 12.3580 9.3002 10.1235 -6.0838 26.9402 -8.8124
# 6 -24.6626 -16.1498 -9.1973 8.9411 -8.8124 25.9921
#
#
#
# Elastic Compliance Matrix: (Units=1/GPa)
#
#
# Indices 1 2 3 4 5 6 
#
# 1 0.012837 -0.004709 0.015501 -0.003613 -0.006384 0.013818
# 2 -0.004709 0.010875 -0.014593 0.006896 0.004196 -0.003824
# 3 0.015501 -0.014593 0.085760 -0.027230 -0.028808 0.035587
# 4 -0.003613 0.006896 -0.027230 0.101221 0.020365 -0.036694
# 5 -0.006384 0.004196 -0.028808 0.020365 0.053165 -0.002624
# 6 0.013818 -0.003824 0.035587 -0.036694 -0.002624 0.073534
#
#
# Mechanical properties :
#
#
# Convention : Reuss Voigt Hill
#
# Bulk Modulus (GPa) = 9.81640 45.51702 27.66671
# Shear Modulus (GPa) = 13.19440 28.82897 21.01168
#
# Velocity S-wave (km/s) = 2.42993 3.59181 3.06640
# Velocity P-wave (km/s) = 3.50223 6.12948 4.99180
#
# Compressibility (1/GPa) = 0.10187031
#
# Stress axis : x y z
#
# Youngs Moduli (GPa) = 77.90141 91.95634 11.66046
#
# Poissons Ratio (x) = 0.43300 -0.18075
# Poissons Ratio (y) = 0.36682 0.17016
# Poissons Ratio (z) = -1.20759 1.34194
#
# Static dielectric constant tensor:
#      x y z
#    x 1.860800 -0.034630 -0.009480 
#    y -0.034630 1.882020 -0.020530 
#    z -0.009480 -0.020530 1.893590 
# 
# From -- ./inp_files/38642.got.cif
#   From: 2010.05.17/outbox.cif.g08.bks.cpg/sg2_20_cif.got.tgz:38642.got - 2010.06.03 11:33:40.
