data_PCOD9079332
_publ_section_title
;
Structure prediction by ZEFSAII (Michael W. Deem and Ramdas Pophale) SiO2 
 PCOD9079332
Probable space group: P -1
;
_chemical_formula_sum "Si O2"
_cell_formula_units_Z 16
_cell_length_a 11.034481
_cell_length_b 24.366345
_cell_length_c 8.868123
_cell_angle_alpha 35.394546
_cell_angle_beta 133.622463
_cell_angle_gamma 146.107773
_cell_volume 769.464655
_symmetry_space_group_name_H-M "P -1"
_symmetry_group_IT_number 2
_symmetry_cell_setting 'triclinic'
loop_
_space_group_symop_operation_xyz
x,y,z
-x,-y,-z
loop_
_atom_site_type_symbol
_atom_site_label
_atom_site_fract_x
_atom_site_fract_y
_atom_site_fract_z
Si Si1 0.282344 0.451063 0.783844
Si Si2 0.652068 0.944889 0.621536
Si Si3 0.331836 0.676577 0.804847
Si Si4 0.895753 0.950355 0.353638
Si Si5 0.149560 0.495434 0.281839
Si Si6 0.104788 0.625840 0.211526
Si Si7 0.475364 0.330821 0.305275
Si Si8 0.482031 0.088975 0.067182
O O1 0.196285 0.432851 0.584168
O O2 0.415009 0.595153 0.612636
O O3 0.092053 0.372757 0.921462
O O4 0.432765 0.415406 0.000716
O O5 0.495637 0.811653 0.707754
O O6 0.602153 0.930265 0.789827
O O7 0.593569 0.024748 0.312310
O O8 0.897382 0.997664 0.688855
O O9 0.379515 0.674663 0.675240
O O10 0.080827 0.614878 0.739032
O O11 0.331214 0.582065 0.119366
O O12 0.744768 0.803699 0.559158
O O13 0.722708 0.965414 0.101359
O O14 0.000000 0.000000 0.500000
O O15 0.122932 0.584060 0.157210
O O16 0.000000 0.500000 0.500000
O O17 0.327008 0.763690 0.128128
#
# Coordination Sequence:
#
# PCOD9079332 Si02
#       8
#     2   2   2   2   2   2   2   2
#     4  10  22  38  63  92 122 164 207 260 320 383
#     4  11  25  46  66  94 131 177 222 262 318 392
#     4  11  22  40  62  91 129 161 209 264 322 377
#     4  12  25  42  65  97 131 168 216 273 319 379
#     4  10  21  37  65  92 122 163 208 261 318 384
#     4  10  18  36  67  94 119 161 210 261 314 380
#     4  11  23  40  60  92 127 161 209 262 321 380
#     4  11  25  44  70  94 128 178 222 262 321 390
#
# _framework density 20.793678
#
# number of rings (size 3 to 8) (size 9 to 14) (size 15 to 20)
#    0.000    1.250    3.750    2.625    1.750    2.000 
#    0.000    0.000    0.000    0.000    0.000    0.000 
#    0.000    0.000    0.000    0.000    0.000    0.000 
#
# Total GULP energy -89133.526951 kJ/mol
# GULP energy per Si atom -5570.845434 kJ/mol
# Density = 2.074635 g / cm^3
# Si number density = 20.793678 Si / 1000 Ang^3
#
#
#
# Elastic Constant Matrix: (Units=GPa)
#
#
# Indices 1 2 3 4 5 6 
#
# 1 48.3203 21.8915 16.8482 -3.2579 -11.3990 14.4320
# 2 21.8915 131.6026 37.8880 0.3429 -5.9881 26.7111
# 3 16.8482 37.8880 79.6311 6.7693 -2.8806 12.1083
# 4 -3.2579 0.3429 6.7693 41.0425 4.2022 -11.5242
# 5 -11.3990 -5.9881 -2.8806 4.2022 28.1341 4.4537
# 6 14.4320 26.7111 12.1083 -11.5242 4.4537 22.4188
#
#
#
# Elastic Compliance Matrix: (Units=1/GPa)
#
#
# Indices 1 2 3 4 5 6 
#
# 1 0.034090 0.002302 -0.002082 -0.007942 0.020290 -0.031677
# 2 0.002302 0.012104 -0.002702 -0.005415 0.006988 -0.018616
# 3 -0.002082 -0.002702 0.015824 -0.004900 0.002027 -0.006908
# 4 -0.007942 -0.005415 -0.004900 0.036359 -0.016015 0.036083
# 5 0.020290 0.006988 0.002027 -0.016015 0.054425 -0.041527
# 6 -0.031677 -0.018616 -0.006908 0.036083 -0.041527 0.117706
#
#
# Mechanical properties :
#
#
# Convention : Reuss Voigt Hill
#
# Bulk Modulus (GPa) = 17.52734 45.86770 31.69752
# Shear Modulus (GPa) = 16.97829 30.51416 23.74623
#
# Velocity S-wave (km/s) = 2.86057 3.83492 3.38300
# Velocity P-wave (km/s) = 4.39976 6.45873 5.52599
#
# Compressibility (1/GPa) = 0.05705371
#
# Stress axis : x y z
#
# Youngs Moduli (GPa) = 29.33372 82.61566 63.19320
#
# Poissons Ratio (x) = -0.19018 0.13159
# Poissons Ratio (y) = -0.06753 0.17077
# Poissons Ratio (z) = 0.06108 0.22326
#
# Static dielectric constant tensor:
#      x y z
#    x 1.797790 0.030830 0.043150 
#    y 0.030830 1.758980 0.066860 
#    z 0.043150 0.066860 1.841060 
# 
# From -- ./inp_files/284674.got.cif
#   From: 2010.05.17/outbox.cif.g08.bks.cpg/sg2_143_cif.got.tgz:284674.got - 2010.06.03 11:33:40.
