data_PCOD9079781
_publ_section_title
;
Structure prediction by ZEFSAII (Michael W. Deem and Ramdas Pophale) SiO2 
 PCOD9079781
Probable space group: P -1
;
_chemical_formula_sum "Si O2"
_cell_formula_units_Z 14
_cell_length_a 14.877113
_cell_length_b 12.084131
_cell_length_c 17.859231
_cell_angle_alpha 163.112252
_cell_angle_beta 41.604238
_cell_angle_gamma 133.718414
_cell_volume 614.321674
_symmetry_space_group_name_H-M "P -1"
_symmetry_group_IT_number 2
_symmetry_cell_setting 'triclinic'
loop_
_space_group_symop_operation_xyz
x,y,z
-x,-y,-z
loop_
_atom_site_type_symbol
_atom_site_label
_atom_site_fract_x
_atom_site_fract_y
_atom_site_fract_z
Si Si1 0.228648 0.525772 0.725826
Si Si2 0.980168 0.797645 0.637489
Si Si3 0.358777 0.448806 0.838199
Si Si4 0.554256 0.966455 0.031193
Si Si5 0.650238 0.138530 0.413810
Si Si6 0.145500 0.248425 0.736881
Si Si7 0.140358 0.706531 0.730718
O O1 0.200906 0.174132 0.570003
O O2 0.192176 0.544182 0.673435
O O3 0.108953 0.839278 0.035838
O O4 0.372181 0.684776 0.758817
O O5 0.895452 0.642572 0.523083
O O6 0.000000 0.500000 0.500000
O O7 0.121770 0.884227 0.566923
O O8 0.422635 0.834170 0.070013
O O9 0.485239 0.175069 0.542404
O O10 0.247332 0.500237 0.877523
O O11 0.305287 0.213326 0.786976
O O12 0.660344 0.573800 0.718509
O O13 0.500000 0.000000 0.000000
O O14 0.735480 0.107284 0.264825
O O15 0.000000 0.500000 0.000000
O O16 0.000000 0.000000 0.000000
#
# Coordination Sequence:
#
# PCOD9079781 Si02
#       7
#     2   2   2   2   2   2   2
#     4  11  22  39  62  93 124 165 211 258 319 376
#     4  11  21  40  64  88 123 169 205 258 315 368
#     4   9  18  37  65  87 122 166 211 256 308 374
#     4  10  18  37  65  88 121 160 210 255 314 372
#     4   9  20  37  63  88 124 166 209 258 309 368
#     4  10  22  35  62  96 124 165 215 254 319 379
#     4  12  24  38  64  98 129 162 215 263 313 380
#
# _framework density 22.789365
#
# number of rings (size 3 to 8) (size 9 to 14) (size 15 to 20)
#    0.857    0.857    4.286    0.857    2.000    0.571 
#    0.000    3.571    3.143    0.000    0.000    0.000 
#    0.000    0.000    0.000    0.000    0.000    0.000 
#
# Total GULP energy -77956.887958 kJ/mol
# GULP energy per Si atom -5568.349140 kJ/mol
# Density = 2.273749 g / cm^3
# Si number density = 22.789365 Si / 1000 Ang^3
#
#
#
# Elastic Constant Matrix: (Units=GPa)
#
#
# Indices 1 2 3 4 5 6 
#
# 1 135.6073 67.2696 8.4324 4.5803 17.8559 -15.8516
# 2 67.2696 190.3681 17.4979 15.4220 12.9768 -28.4976
# 3 8.4324 17.4979 25.0899 1.8524 -2.0958 -11.2106
# 4 4.5803 15.4220 1.8524 29.0431 1.1792 -7.5295
# 5 17.8559 12.9768 -2.0958 1.1792 29.5152 -1.1038
# 6 -15.8516 -28.4976 -11.2106 -7.5295 -1.1038 38.5314
#
#
#
# Elastic Compliance Matrix: (Units=1/GPa)
#
#
# Indices 1 2 3 4 5 6 
#
# 1 0.009595 -0.002800 -0.000999 0.000633 -0.004611 0.001578
# 2 -0.002800 0.007222 -0.002756 -0.002413 -0.001473 0.002874
# 3 -0.000999 -0.002756 0.047792 0.001429 0.005598 0.011895
# 4 0.000633 -0.002413 0.001429 0.037131 -0.000475 0.006134
# 5 -0.004611 -0.001473 0.005598 -0.000475 0.037721 -0.000370
# 6 0.001578 0.002874 0.011895 0.006134 -0.000370 0.033376
#
#
# Mechanical properties :
#
#
# Convention : Reuss Voigt Hill
#
# Bulk Modulus (GPa) = 19.41823 59.71835 39.56829
# Shear Modulus (GPa) = 24.61669 36.60896 30.61283
#
# Velocity S-wave (km/s) = 3.29018 4.01235 3.66907
# Velocity P-wave (km/s) = 4.79301 6.90844 5.94557
#
# Compressibility (1/GPa) = 0.05149801
#
# Stress axis : x y z
#
# Youngs Moduli (GPa) = 104.21678 138.47156 20.92410
#
# Poissons Ratio (x) = 0.38766 0.02091
# Poissons Ratio (y) = 0.29176 0.05768
# Poissons Ratio (z) = 0.10415 0.38169
#
# Static dielectric constant tensor:
#      x y z
#    x 1.892510 -0.063250 -0.053310 
#    y -0.063250 2.084930 0.092390 
#    z -0.053310 0.092390 1.934770 
# 
# From -- ./inp_files/573539.got.cif
#   From: 2010.05.17/outbox.cif.g08.bks.cpg/sg2_287_cif.got.tgz:573539.got - 2010.06.03 11:33:40.
