data_PCOD9079748
_publ_section_title
;
Structure prediction by ZEFSAII (Michael W. Deem and Ramdas Pophale) SiO2 
 PCOD9079748
Probable space group: P -1
;
_chemical_formula_sum "Si O2"
_cell_formula_units_Z 14
_cell_length_a 12.641903
_cell_length_b 14.289225
_cell_length_c 13.941480
_cell_angle_alpha 136.916128
_cell_angle_beta 32.543653
_cell_angle_gamma 112.675047
_cell_volume 721.350958
_symmetry_space_group_name_H-M "P -1"
_symmetry_group_IT_number 2
_symmetry_cell_setting 'triclinic'
loop_
_space_group_symop_operation_xyz
x,y,z
-x,-y,-z
loop_
_atom_site_type_symbol
_atom_site_label
_atom_site_fract_x
_atom_site_fract_y
_atom_site_fract_z
Si Si1 0.249640 0.381921 0.356821
Si Si2 0.441417 0.595763 0.346569
Si Si3 0.246459 0.983993 0.281111
Si Si4 0.076641 0.676451 0.329292
Si Si5 0.752808 0.186821 0.539583
Si Si6 0.451033 0.114773 0.841580
Si Si7 0.197907 0.935533 0.886363
O O1 0.273434 0.533516 0.443136
O O2 0.017620 0.421166 0.622038
O O3 0.262839 0.299316 0.181468
O O4 0.513211 0.214322 0.077982
O O5 0.363075 0.696199 0.379551
O O6 0.391848 0.727293 0.566256
O O7 0.731864 0.429004 0.983444
O O8 0.166031 0.133186 0.378742
O O9 0.336476 0.006978 0.331010
O O10 0.000000 0.000000 0.500000
O O11 0.216260 0.712311 0.326553
O O12 0.578496 0.142292 0.679337
O O13 0.030998 0.011430 0.166896
O O14 0.321799 0.029863 0.850374
O O15 0.000000 0.000000 0.000000
#
# Coordination Sequence:
#
# PCOD9079748 Si02
#       7
#     2   2   2   2   2   2   2
#     4  10  22  35  62  91 115 152 199 244 294 341
#     4  11  24  37  56  93 124 148 198 255 286 345
#     4  10  18  37  64  90 117 149 200 251 290 343
#     4  12  20  37  64  91 116 154 200 249 292 344
#     4  11  21  38  63  86 120 162 194 237 301 358
#     4  10  21  38  64  89 113 161 201 233 295 360
#     4  10  24  42  57  84 127 161 195 238 295 360
#
# _framework density 19.408028999999999
#
# number of rings (size 3 to 8) (size 9 to 14) (size 15 to 20)
#    0.857    0.571    5.714    0.857    0.000    6.286 
#    0.000    0.714    0.000    4.286    0.000    0.000 
#    0.000    0.000    0.000    0.000    0.000    0.000 
#
# Total GULP energy -78101.770448 kJ/mol
# GULP energy per Si atom -5578.697889 kJ/mol
# Density = 1.936386 g / cm^3
# Si number density = 19.408029 Si / 1000 Ang^3
#
#
#
# Elastic Constant Matrix: (Units=GPa)
#
#
# Indices 1 2 3 4 5 6 
#
# 1 31.3838 32.0570 8.7301 -3.2688 -11.9537 13.5121
# 2 32.0570 157.9407 21.1403 -30.5684 9.9645 26.8751
# 3 8.7301 21.1403 66.0111 -5.2473 18.6604 19.8466
# 4 -3.2688 -30.5684 -5.2473 35.3942 0.5153 -8.6342
# 5 -11.9537 9.9645 18.6604 0.5153 30.4308 2.2511
# 6 13.5121 26.8751 19.8466 -8.6342 2.2511 35.5851
#
#
#
# Elastic Compliance Matrix: (Units=1/GPa)
#
#
# Indices 1 2 3 4 5 6 
#
# 1 0.073322 -0.015940 -0.013763 -0.013105 0.043724 -0.014073
# 2 -0.015940 0.011971 0.002871 0.009069 -0.011975 -0.001631
# 3 -0.013763 0.002871 0.024853 0.003069 -0.020992 -0.008731
# 4 -0.013105 0.009069 0.003069 0.036977 -0.011076 0.006088
# 5 0.043724 -0.011975 -0.020992 -0.011076 0.067225 -0.002791
# 6 -0.014073 -0.001631 -0.008731 0.006088 -0.002791 0.041200
#
#
# Mechanical properties :
#
#
# Convention : Reuss Voigt Hill
#
# Bulk Modulus (GPa) = 17.70509 42.13226 29.91867
# Shear Modulus (GPa) = 15.24203 33.17587 24.20895
#
# Velocity S-wave (km/s) = 2.80544 4.13896 3.53564
# Velocity P-wave (km/s) = 4.43130 6.67811 5.66717
#
# Compressibility (1/GPa) = 0.05648093
#
# Stress axis : x y z
#
# Youngs Moduli (GPa) = 13.63838 83.53598 40.23681
#
# Poissons Ratio (x) = 1.33160 0.55378
# Poissons Ratio (y) = 0.21740 -0.11552
# Poissons Ratio (z) = 0.18771 -0.23982
#
# Static dielectric constant tensor:
#      x y z
#    x 1.664140 -0.019280 0.005560 
#    y -0.019280 1.668060 0.033900 
#    z 0.005560 0.033900 1.784050 
# 
# From -- ./inp_files/457499.got.cif
#   From: 2010.05.17/outbox.cif.g08.bks.cpg/sg2_229_cif.got.tgz:457499.got - 2010.06.03 11:33:40.
