data_PCOD9079365
_publ_section_title
;
Structure prediction by ZEFSAII (Michael W. Deem and Ramdas Pophale) SiO2 
 PCOD9079365
Probable space group: P -1
;
_chemical_formula_sum "Si O2"
_cell_formula_units_Z 14
_cell_length_a 9.704476
_cell_length_b 13.314300
_cell_length_c 7.173174
_cell_angle_alpha 99.130631
_cell_angle_beta 92.514737
_cell_angle_gamma 131.813173
_cell_volume 667.780716
_symmetry_space_group_name_H-M "P -1"
_symmetry_group_IT_number 2
_symmetry_cell_setting 'triclinic'
loop_
_space_group_symop_operation_xyz
x,y,z
-x,-y,-z
loop_
_atom_site_type_symbol
_atom_site_label
_atom_site_fract_x
_atom_site_fract_y
_atom_site_fract_z
Si Si1 0.340065 0.343494 0.882930
Si Si2 0.876540 0.452649 0.665820
Si Si3 0.422862 0.229123 0.541502
Si Si4 0.986706 0.720048 0.693292
Si Si5 0.988541 0.691284 0.269626
Si Si6 0.179707 0.150570 0.140146
Si Si7 0.688222 0.043800 0.450054
O O1 0.376334 0.307244 0.677696
O O2 0.158139 0.323882 0.866935
O O3 0.500000 0.500000 0.000000
O O4 0.316655 0.243863 0.004202
O O5 0.651703 0.335615 0.575511
O O6 0.939520 0.597116 0.775937
O O7 0.936666 0.385692 0.775002
O O8 0.000000 0.500000 0.500000
O O9 0.305459 0.169728 0.323214
O O10 0.346417 0.092765 0.610195
O O11 0.900938 0.781998 0.773069
O O12 0.901085 0.650923 0.463070
O O13 0.207600 0.851668 0.690795
O O14 0.163912 0.855978 0.348297
O O15 0.000000 0.000000 0.000000
O O16 0.500000 0.000000 0.500000
#
# Coordination Sequence:
#
# PCOD9079365 Si02
#       7
#     2   2   2   2   2   2   2
#     4  12  27  43  68 102 131 170 227 269 324 396
#     4  10  20  38  72  96 125 180 216 260 342 384
#     4  12  23  44  71  96 132 175 215 277 327 383
#     4   9  20  38  65  94 130 170 214 266 328 374
#     4   9  20  40  67  93 132 170 214 268 329 380
#     4  12  26  42  67 101 134 173 221 270 328 391
#     4  10  18  36  69  96 122 174 219 256 329 392
#
# _framework density 20.964967000000001
#
# number of rings (size 3 to 8) (size 9 to 14) (size 15 to 20)
#    0.857    0.571    2.857    2.571    4.000    2.857 
#    0.000    2.857    0.000    7.714    0.000    0.000 
#    0.000    0.000    0.000    0.000    0.000    0.000 
#
# Total GULP energy -77966.532668 kJ/mol
# GULP energy per Si atom -5569.038048 kJ/mol
# Density = 2.091725 g / cm^3
# Si number density = 20.964967 Si / 1000 Ang^3
#
#
#
# Elastic Constant Matrix: (Units=GPa)
#
#
# Indices 1 2 3 4 5 6 
#
# 1 116.1497 33.5407 37.0935 25.5388 -0.2454 -8.8897
# 2 33.5407 127.7412 34.3261 34.0843 11.0594 -7.8092
# 3 37.0935 34.3261 79.5567 9.2413 8.4237 -4.6254
# 4 25.5388 34.0843 9.2413 32.7279 1.8454 -2.3091
# 5 -0.2454 11.0594 8.4237 1.8454 26.5974 9.1973
# 6 -8.8897 -7.8092 -4.6254 -2.3091 9.1973 39.4085
#
#
#
# Elastic Compliance Matrix: (Units=1/GPa)
#
#
# Indices 1 2 3 4 5 6 
#
# 1 0.012007 0.000314 -0.004863 -0.008322 0.001638 0.001330
# 2 0.000314 0.012297 -0.003539 -0.011663 -0.003989 0.002340
# 3 -0.004863 -0.003539 0.016556 0.003158 -0.004514 0.001383
# 4 -0.008322 -0.011663 0.003158 0.048172 0.000842 -0.001192
# 5 0.001638 -0.003989 -0.004514 0.000842 0.044550 -0.011299
# 6 0.001330 0.002340 0.001383 -0.001192 -0.011299 0.028868
#
#
# Mechanical properties :
#
#
# Convention : Reuss Voigt Hill
#
# Bulk Modulus (GPa) = 40.51278 59.26313 49.88796
# Shear Modulus (GPa) = 26.75878 34.31258 30.53568
#
# Velocity S-wave (km/s) = 3.57649 4.04996 3.82057
# Velocity P-wave (km/s) = 6.03498 7.08510 6.58102
#
# Compressibility (1/GPa) = 0.02468357
#
# Stress axis : x y z
#
# Youngs Moduli (GPa) = 83.28410 81.31961 60.40196
#
# Poissons Ratio (x) = -0.02555 0.29375
# Poissons Ratio (y) = -0.02617 0.21377
# Poissons Ratio (z) = 0.40504 0.28780
#
# Static dielectric constant tensor:
#      x y z
#    x 1.757450 -0.030530 -0.017990 
#    y -0.030530 1.753540 -0.049380 
#    z -0.017990 -0.049380 1.763870 
# 
# From -- ./inp_files/203145.got.cif
#   From: 2010.05.17/outbox.cif.g08.bks.cpg/sg2_102_cif.got.tgz:203145.got - 2010.06.03 11:33:40.
