data_PCOD9079866
_publ_section_title
;
Structure prediction by ZEFSAII (Michael W. Deem and Ramdas Pophale) SiO2 
 PCOD9079866
Probable space group: P -1
;
_chemical_formula_sum "Si O2"
_cell_formula_units_Z 12
_cell_length_a 10.185634
_cell_length_b 20.847442
_cell_length_c 11.601022
_cell_angle_alpha 161.045018
_cell_angle_beta 38.871326
_cell_angle_gamma 142.256656
_cell_volume 483.944927
_symmetry_space_group_name_H-M "P -1"
_symmetry_group_IT_number 2
_symmetry_cell_setting 'triclinic'
loop_
_space_group_symop_operation_xyz
x,y,z
-x,-y,-z
loop_
_atom_site_type_symbol
_atom_site_label
_atom_site_fract_x
_atom_site_fract_y
_atom_site_fract_z
Si Si1 0.898494 0.687866 0.856382
Si Si2 0.616124 0.338042 0.082571
Si Si3 0.779341 0.857821 0.864868
Si Si4 0.406732 0.560385 0.997728
Si Si5 0.045288 0.439523 0.647920
Si Si6 0.293057 0.075448 0.234927
O O1 0.658369 0.656393 0.019397
O O2 0.000000 0.500000 0.500000
O O3 0.862228 0.647548 0.674819
O O4 0.072321 0.903960 0.130653
O O5 0.500000 0.500000 0.500000
O O6 0.418766 0.139093 0.910141
O O7 0.625814 0.376036 0.004534
O O8 0.821392 0.332283 0.015973
O O9 0.873837 0.655983 0.455509
O O10 0.718978 0.911776 0.872777
O O11 0.000000 0.000000 0.000000
O O12 0.344138 0.314486 0.640035
O O13 0.208880 0.616613 0.292735
O O14 0.500000 0.000000 0.000000
#
# Coordination Sequence:
#
# PCOD9079866 Si02
#       6
#     2   2   2   2   2   2
#     4  12  25  46  67  91 137 181 218 270 340 395
#     4  10  18  37  67  92 127 171 203 271 337 379
#     4  11  20  40  68  98 131 173 223 268 331 391
#     4  12  23  44  68 101 131 169 225 276 333 386
#     4  11  23  41  70  98 130 171 220 286 323 387
#     4  12  24  41  69  97 133 181 221 267 333 405
#
# _framework density 24.796211
#
# number of rings (size 3 to 8) (size 9 to 14) (size 15 to 20)
#    0.000    0.667   10.000    0.500    0.000    0.667 
#    3.000    2.500    0.000    0.000    0.000    0.000 
#    0.000    0.000    0.000    0.000    0.000    0.000 
#
# Total GULP energy -66869.722494 kJ/mol
# GULP energy per Si atom -5572.476874 kJ/mol
# Density = 2.473977 g / cm^3
# Si number density = 24.796211 Si / 1000 Ang^3
#
#
#
# Elastic Constant Matrix: (Units=GPa)
#
#
# Indices 1 2 3 4 5 6 
#
# 1 107.4157 33.3808 12.4464 -5.1869 -24.6964 19.1747
# 2 33.3808 145.7035 32.6647 -8.1986 -9.2420 49.0867
# 3 12.4464 32.6647 46.5966 -1.8450 -16.9489 4.7072
# 4 -5.1869 -8.1986 -1.8450 32.1272 6.7719 -6.8935
# 5 -24.6964 -9.2420 -16.9489 6.7719 31.4298 -3.2263
# 6 19.1747 49.0867 4.7072 -6.8935 -3.2263 52.2409
#
#
#
# Elastic Compliance Matrix: (Units=1/GPa)
#
#
# Indices 1 2 3 4 5 6 
#
# 1 0.012401 -0.001832 0.001891 -0.001044 0.010193 -0.002509
# 2 -0.001832 0.012532 -0.008522 0.000938 -0.003624 -0.010435
# 3 0.001891 -0.008522 0.032762 -0.002631 0.017739 0.005110
# 4 -0.001044 0.000938 -0.002631 0.033692 -0.008849 0.003638
# 5 0.010193 -0.003624 0.017739 -0.008849 0.050233 0.000000
# 6 -0.002509 -0.010435 0.005110 0.003638 0.000000 0.029888
#
#
# Mechanical properties :
#
#
# Convention : Reuss Voigt Hill
#
# Bulk Modulus (GPa) = 24.52883 50.74442 37.63663
# Shear Modulus (GPa) = 24.74976 37.90784 31.32880
#
# Velocity S-wave (km/s) = 3.16274 3.91420 3.55836
# Velocity P-wave (km/s) = 4.82192 6.39820 5.66515
#
# Compressibility (1/GPa) = 0.04076835
#
# Stress axis : x y z
#
# Youngs Moduli (GPa) = 80.64081 79.79556 30.52344
#
# Poissons Ratio (x) = 0.14619 -0.05773
# Poissons Ratio (y) = 0.14774 0.26013
# Poissons Ratio (z) = -0.15253 0.68005
#
# Static dielectric constant tensor:
#      x y z
#    x 1.299360 -0.877330 -0.645530 
#    y -0.877330 0.987780 -0.683810 
#    z -0.645530 -0.683810 1.485310 
# 
# From -- ./inp_files/469880.got.cif
#   From: 2010.05.17/outbox.cif.g08.bks.cpg/sg2_235_cif.got.tgz:469880.got - 2010.06.03 11:33:40.
