data_PCOD9079324
_publ_section_title
;
Structure prediction by ZEFSAII (Michael W. Deem and Ramdas Pophale) SiO2 
 PCOD9079324
Probable space group: P -1
;
_chemical_formula_sum "Si O2"
_cell_formula_units_Z 16
_cell_length_a 15.603995
_cell_length_b 9.185427
_cell_length_c 12.499805
_cell_angle_alpha 65.844676
_cell_angle_beta 51.971252
_cell_angle_gamma 33.100951
_cell_volume 746.539515
_symmetry_space_group_name_H-M "P -1"
_symmetry_group_IT_number 2
_symmetry_cell_setting 'triclinic'
loop_
_space_group_symop_operation_xyz
x,y,z
-x,-y,-z
loop_
_atom_site_type_symbol
_atom_site_label
_atom_site_fract_x
_atom_site_fract_y
_atom_site_fract_z
Si Si1 0.943878 0.583826 0.138113
Si Si2 0.253708 0.507294 0.421761
Si Si3 0.281747 0.311633 0.080102
Si Si4 0.240680 0.532952 0.668404
Si Si5 0.028347 0.642563 0.383151
Si Si6 0.814659 0.277984 0.121081
Si Si7 0.620436 0.195159 0.244841
Si Si8 0.646509 0.990693 0.499304
O O1 0.825569 0.569810 0.260030
O O2 0.125725 0.374260 0.136455
O O3 0.815971 0.894516 0.141901
O O4 0.000000 0.500000 0.000000
O O5 0.217215 0.616084 0.537723
O O6 0.076325 0.711895 0.417210
O O7 0.426262 0.401937 0.269848
O O8 0.307779 0.251430 0.454619
O O9 0.194641 0.449347 0.224338
O O10 0.257503 0.485247 0.962801
O O11 0.500000 0.000000 0.000000
O O12 0.141970 0.736065 0.783481
O O13 0.457761 0.264639 0.622630
O O14 0.000000 0.500000 0.500000
O O15 0.823169 0.896293 0.411694
O O16 0.659461 0.324308 0.217202
O O17 0.000000 0.000000 0.000000
O O18 0.588392 0.104530 0.390417
#
# Coordination Sequence:
#
# PCOD9079324 Si02
#       8
#     2   2   2   2   2   2   2   2
#     4  12  20  37  67  98 122 173 232 278 311 399
#     4  10  20  35  66  99 132 169 228 290 325 396
#     4  12  27  43  67 103 141 183 228 276 347 412
#     4  11  21  38  68 103 124 169 246 281 322 397
#     4  10  21  38  64  97 138 170 214 284 347 384
#     4  12  25  44  67  96 142 180 220 282 353 404
#     4  11  20  39  64  92 133 170 225 278 339 380
#     4  10  18  36  67 100 132 168 227 288 331 393
#
# _framework density 21.432220999999998
#
# number of rings (size 3 to 8) (size 9 to 14) (size 15 to 20)
#    0.000    1.000    6.250    1.500    5.250    2.000 
#    0.000    0.625    2.750    3.750    0.000    0.000 
#    0.000    0.000    0.000    0.000    0.000    0.000 
#
# Total GULP energy -89087.800863 kJ/mol
# GULP energy per Si atom -5567.987554 kJ/mol
# Density = 2.138344 g / cm^3
# Si number density = 21.432221 Si / 1000 Ang^3
#
#
#
# Elastic Constant Matrix: (Units=GPa)
#
#
# Indices 1 2 3 4 5 6 
#
# 1 157.9775 32.3768 41.4914 20.0714 -7.4304 -13.5178
# 2 32.3768 47.0173 19.2984 18.0578 0.4041 -11.2675
# 3 41.4914 19.2984 91.7331 21.5335 13.0981 -7.6680
# 4 20.0714 18.0578 21.5335 27.1401 2.9113 -5.5098
# 5 -7.4304 0.4041 13.0981 2.9113 44.9152 0.2338
# 6 -13.5178 -11.2675 -7.6680 -5.5098 0.2338 26.1793
#
#
#
# Elastic Compliance Matrix: (Units=1/GPa)
#
#
# Indices 1 2 3 4 5 6 
#
# 1 0.008234 -0.003633 -0.002842 -0.001349 0.002303 0.001551
# 2 -0.003633 0.032464 -0.000594 -0.016774 0.000324 0.008389
# 3 -0.002842 -0.000594 0.015068 -0.008821 -0.004292 0.000872
# 4 -0.001349 -0.016774 -0.008821 0.056408 -0.001163 0.001383
# 5 0.002303 0.000324 -0.004292 -0.001163 0.023971 -0.000388
# 6 0.001551 0.008389 0.000872 0.001383 -0.000388 0.043160
#
#
# Mechanical properties :
#
#
# Convention : Reuss Voigt Hill
#
# Bulk Modulus (GPa) = 24.02282 53.67346 38.84814
# Shear Modulus (GPa) = 24.11742 33.21767 28.66754
#
# Velocity S-wave (km/s) = 3.35817 3.94114 3.66128
# Velocity P-wave (km/s) = 5.12538 6.76815 6.00322
#
# Compressibility (1/GPa) = 0.04162708
#
# Stress axis : x y z
#
# Youngs Moduli (GPa) = 121.45486 30.80299 66.36595
#
# Poissons Ratio (x) = 0.11191 0.18863
# Poissons Ratio (y) = 0.44127 0.03941
# Poissons Ratio (z) = 0.34521 0.01829
#
# Static dielectric constant tensor:
#      x y z
#    x 1.858530 -0.102020 -0.018980 
#    y -0.102020 1.961830 0.061060 
#    z -0.018980 0.061060 1.867740 
# 
# From -- ./inp_files/445853.got.cif
#   From: 2010.05.17/outbox.cif.g08.bks.cpg/sg2_223_cif.got.tgz:445853.got - 2010.06.03 11:33:40.
