data_PCOD9079915
_publ_section_title
;
Structure prediction by ZEFSAII (Michael W. Deem and Ramdas Pophale) SiO2 
 PCOD9079915
Probable space group: P -1
;
_chemical_formula_sum "Si O2"
_cell_formula_units_Z 14
_cell_length_a 9.264070
_cell_length_b 12.434817
_cell_length_c 8.774423
_cell_angle_alpha 113.188177
_cell_angle_beta 119.453623
_cell_angle_gamma 47.477381
_cell_volume 645.701148
_symmetry_space_group_name_H-M "P -1"
_symmetry_group_IT_number 2
_symmetry_cell_setting 'triclinic'
loop_
_space_group_symop_operation_xyz
x,y,z
-x,-y,-z
loop_
_atom_site_type_symbol
_atom_site_label
_atom_site_fract_x
_atom_site_fract_y
_atom_site_fract_z
Si Si1 0.187971 0.912947 0.223901
Si Si2 0.928054 0.650770 0.833732
Si Si3 0.949422 0.389798 0.794189
Si Si4 0.513763 0.396512 0.320052
Si Si5 0.531443 0.152179 0.382189
Si Si6 0.931718 0.906588 0.333090
Si Si7 0.159857 0.757994 0.861845
O O1 0.370233 0.865793 0.410593
O O2 0.022906 0.892857 0.205781
O O3 0.261305 0.811762 0.057192
O O4 0.050624 0.085750 0.214070
O O5 0.980507 0.489747 0.760213
O O6 0.710640 0.772450 0.706521
O O7 0.097591 0.665982 0.863598
O O8 0.903254 0.677386 0.018878
O O9 0.719994 0.503380 0.809617
O O10 0.966831 0.256800 0.648928
O O11 0.500000 0.500000 0.500000
O O12 0.550980 0.261271 0.353814
O O13 0.685364 0.336201 0.247190
O O14 0.688023 0.998473 0.290603
O O15 0.000000 0.000000 0.500000
#
# Coordination Sequence:
#
# PCOD9079915 Si02
#       7
#     2   2   2   2   2   2   2
#     4  10  21  40  69 102 130 169 229 287 316 390
#     4  10  23  43  64  97 142 175 210 279 344 401
#     4  10  22  42  65  96 139 176 223 265 340 402
#     4  11  23  40  71  97 125 181 228 272 323 406
#     4  10  22  41  69  94 131 179 224 261 341 399
#     4  10  18  37  71  96 121 176 230 274 303 399
#     4  11  23  41  69 100 136 167 227 285 333 380
#
# _framework density 21.681854999999999
#
# number of rings (size 3 to 8) (size 9 to 14) (size 15 to 20)
#    0.000    1.714    2.857    1.714    2.000    1.714 
#    0.000    4.286    6.286    0.000    0.000    0.000 
#    0.000    0.000    0.000    0.000    0.000    0.000 
#
# Total GULP energy -78125.270675 kJ/mol
# GULP energy per Si atom -5580.376477 kJ/mol
# Density = 2.163251 g / cm^3
# Si number density = 21.681855 Si / 1000 Ang^3
#
#
#
# Elastic Constant Matrix: (Units=GPa)
#
#
# Indices 1 2 3 4 5 6 
#
# 1 65.3188 42.5685 26.9053 18.5144 -5.2890 11.2056
# 2 42.5685 138.3315 36.3084 11.8964 -0.4126 8.1044
# 3 26.9053 36.3084 100.1919 -10.6606 -2.5820 -18.9255
# 4 18.5144 11.8964 -10.6606 40.9597 -7.4718 0.2329
# 5 -5.2890 -0.4126 -2.5820 -7.4718 23.4848 4.1534
# 6 11.2056 8.1044 -18.9255 0.2329 4.1534 28.1918
#
#
#
# Elastic Compliance Matrix: (Units=1/GPa)
#
#
# Indices 1 2 3 4 5 6 
#
# 1 0.030808 -0.003832 -0.012115 -0.015080 0.004239 -0.019777
# 2 -0.003832 0.009665 -0.003358 -0.002141 -0.001156 -0.003322
# 3 -0.012115 -0.003358 0.019153 0.011260 -0.000389 0.018603
# 4 -0.015080 -0.002141 0.011260 0.035984 0.006981 0.012843
# 5 0.004239 -0.001156 -0.000389 0.006981 0.047219 -0.008628
# 6 -0.019777 -0.003322 0.018603 0.012843 -0.008628 0.057941
#
#
# Mechanical properties :
#
#
# Convention : Reuss Voigt Hill
#
# Bulk Modulus (GPa) = 47.58684 57.26740 52.42712
# Shear Modulus (GPa) = 20.29331 31.73126 26.01228
#
# Velocity S-wave (km/s) = 3.06266 3.82971 3.46746
# Velocity P-wave (km/s) = 5.87384 6.78421 6.34537
#
# Compressibility (1/GPa) = 0.02101422
#
# Stress axis : x y z
#
# Youngs Moduli (GPa) = 32.45936 103.46474 52.21016
#
# Poissons Ratio (x) = 0.39651 0.63254
# Poissons Ratio (y) = 0.12439 0.17535
# Poissons Ratio (z) = 0.39325 0.34748
#
# Static dielectric constant tensor:
#      x y z
#    x 1.760840 0.034680 0.052940 
#    y 0.034680 1.739470 -0.025020 
#    z 0.052940 -0.025020 1.917620 
# 
# From -- ./inp_files/189512.got.cif
#   From: 2010.05.17/outbox.cif.g08.bks.cpg/sg2_95_cif.got.tgz:189512.got - 2010.06.03 11:33:40.
