data_PCOD9079462
_publ_section_title
;
Structure prediction by ZEFSAII (Michael W. Deem and Ramdas Pophale) SiO2 
 PCOD9079462
Probable space group: P -1
;
_chemical_formula_sum "Si O2"
_cell_formula_units_Z 16
_cell_length_a 18.927267
_cell_length_b 6.854052
_cell_length_c 10.603211
_cell_angle_alpha 90.412638
_cell_angle_beta 144.025364
_cell_angle_gamma 110.447813
_cell_volume 643.566964
_symmetry_space_group_name_H-M "P -1"
_symmetry_group_IT_number 2
_symmetry_cell_setting 'triclinic'
loop_
_space_group_symop_operation_xyz
x,y,z
-x,-y,-z
loop_
_atom_site_type_symbol
_atom_site_label
_atom_site_fract_x
_atom_site_fract_y
_atom_site_fract_z
Si Si1 0.343685 0.375769 0.546402
Si Si2 0.144187 0.382564 0.634447
Si Si3 0.340834 0.557363 0.298454
Si Si4 0.463986 0.780024 0.211378
Si Si5 0.173906 0.777601 0.509559
Si Si6 0.044474 0.136439 0.758523
Si Si7 0.154482 0.532213 0.234622
Si Si8 0.462873 0.133706 0.047394
O O1 0.422057 0.520927 0.527650
O O2 0.384852 0.190116 0.609148
O O3 0.180187 0.322304 0.297224
O O4 0.430277 0.578014 0.781074
O O5 0.123850 0.571769 0.541315
O O6 0.066388 0.264801 0.655831
O O7 0.323041 0.546045 0.927895
O O8 0.059719 0.151045 0.417853
O O9 0.430398 0.723715 0.310101
O O10 0.253384 0.643625 0.250208
O O11 0.211257 0.282965 0.056550
O O12 0.458083 0.000901 0.166988
O O13 0.222468 0.696122 0.460127
O O14 0.297697 0.029950 0.761058
O O15 0.044311 0.798557 0.282604
O O16 0.000000 0.500000 0.000000
O O17 0.500000 0.000000 0.000000
#
# Coordination Sequence:
#
# PCOD9079462 Si02
#       8
#     2   2   2   2   2   2   2   2
#     4  10  21  39  59  86 117 155 194 236 291 343
#     4   9  21  34  57  90 109 147 198 234 284 345
#     4   9  20  37  61  84 119 156 192 242 285 341
#     4  10  21  39  61  87 118 151 197 242 290 340
#     4  11  19  37  57  82 117 149 191 237 287 339
#     4  10  18  37  59  80 117 152 186 241 288 332
#     4  10  20  38  61  82 116 156 188 236 290 343
#     4  11  22  38  59  89 116 155 195 240 294 343
#
# _framework density 24.861440000000002
#
# number of rings (size 3 to 8) (size 9 to 14) (size 15 to 20)
#    0.750    1.250    2.500    1.500    0.000    1.000 
#    2.250    3.125    0.000    0.000    0.000    0.000 
#    0.000    0.000    0.000    0.000    0.000    0.000 
#
# Total GULP energy -89217.609636 kJ/mol
# GULP energy per Si atom -5576.100602 kJ/mol
# Density = 2.480485 g / cm^3
# Si number density = 24.861440 Si / 1000 Ang^3
#
#
#
# Elastic Constant Matrix: (Units=GPa)
#
#
# Indices 1 2 3 4 5 6 
#
# 1 72.3257 24.9187 7.8348 -3.5493 -8.5901 -8.6541
# 2 24.9187 65.8797 26.3628 -7.6309 3.5187 -1.0996
# 3 7.8348 26.3628 80.6751 -2.5841 -3.6618 -5.4991
# 4 -3.5493 -7.6309 -2.5841 28.7237 -11.3821 3.7853
# 5 -8.5901 3.5187 -3.6618 -11.3821 41.7989 -8.9433
# 6 -8.6541 -1.0996 -5.4991 3.7853 -8.9433 34.2411
#
#
#
# Elastic Compliance Matrix: (Units=1/GPa)
#
#
# Indices 1 2 3 4 5 6 
#
# 1 0.017710 -0.007251 0.001396 0.002068 0.006188 0.005855
# 2 -0.007251 0.021010 -0.006472 0.003086 -0.003737 -0.003514
# 3 0.001396 -0.006472 0.014746 0.000526 0.002957 0.003227
# 4 0.002068 0.003086 0.000526 0.040424 0.011031 -0.000881
# 5 0.006188 -0.003737 0.002957 0.011031 0.030635 0.008701
# 6 0.005855 -0.003514 0.003227 -0.000881 0.008701 0.033460
#
#
# Mechanical properties :
#
#
# Convention : Reuss Voigt Hill
#
# Bulk Modulus (GPa) = 34.70720 37.45702 36.08211
# Shear Modulus (GPa) = 26.00885 31.60370 28.80628
#
# Velocity S-wave (km/s) = 3.23794 3.56925 3.40762
# Velocity P-wave (km/s) = 5.28862 5.66437 5.47972
#
# Compressibility (1/GPa) = 0.02881246
#
# Stress axis : x y z
#
# Youngs Moduli (GPa) = 56.46447 47.59688 67.81613
#
# Poissons Ratio (x) = 0.34510 -0.09464
# Poissons Ratio (y) = 0.40940 0.43889
# Poissons Ratio (z) = -0.07880 0.30804
#
# Static dielectric constant tensor:
#      x y z
#    x 2.042750 0.013110 0.037890 
#    y 0.013110 1.930480 0.007100 
#    z 0.037890 0.007100 2.044100 
# 
# From -- ./inp_files/468399.got.cif
#   From: 2010.05.17/outbox.cif.g08.bks.cpg/sg2_235_cif.got.tgz:468399.got - 2010.06.03 11:33:40.
