data_PCOD9079475
_publ_section_title
;
Structure prediction by ZEFSAII (Michael W. Deem and Ramdas Pophale) SiO2 
 PCOD9079475
Probable space group: P -1
;
_chemical_formula_sum "Si O2"
_cell_formula_units_Z 12
_cell_length_a 4.965766
_cell_length_b 14.850853
_cell_length_c 6.910491
_cell_angle_alpha 115.909593
_cell_angle_beta 99.102760
_cell_angle_gamma 79.906880
_cell_volume 449.379999
_symmetry_space_group_name_H-M "P -1"
_symmetry_group_IT_number 2
_symmetry_cell_setting 'triclinic'
loop_
_space_group_symop_operation_xyz
x,y,z
-x,-y,-z
loop_
_atom_site_type_symbol
_atom_site_label
_atom_site_fract_x
_atom_site_fract_y
_atom_site_fract_z
Si Si1 0.365493 0.867213 0.191221
Si Si2 0.451136 0.648425 0.061810
Si Si3 0.783413 0.528756 0.298094
Si Si4 0.385593 0.935492 0.696537
Si Si5 0.035436 0.157366 0.196406
Si Si6 0.258745 0.642927 0.453407
O O1 0.333213 0.903475 0.441672
O O2 0.513962 0.954514 0.189173
O O3 0.527215 0.754737 0.097525
O O4 0.080376 0.852659 0.040664
O O5 0.299865 0.582969 0.831789
O O6 0.701342 0.575529 0.116968
O O7 0.256741 0.670907 0.250024
O O8 0.578122 0.603008 0.477874
O O9 0.091224 0.548554 0.382481
O O10 0.112873 0.924079 0.773509
O O11 0.642924 0.860291 0.738497
O O12 0.892468 0.262893 0.363645
#
# Coordination Sequence:
#
# PCOD9079475 Si02
#       6
#     2   2   2   2   2   2
#     4  11  24  44  70 100 124 182 219 263 327 398
#     4   9  19  37  60  93 122 168 214 255 322 383
#     4   9  19  35  63  85 128 170 199 264 329 364
#     4  11  26  47  64  96 139 168 217 275 324 381
#     4  12  24  45  67  97 136 170 216 273 326 381
#     4  10  18  37  59  87 125 167 201 262 320 369
#
# _framework density 26.703455000000002
#
# number of rings (size 3 to 8) (size 9 to 14) (size 15 to 20)
#    1.000    0.667    1.667    3.500    0.000    4.000 
#    6.000    1.667    0.000    0.000    0.000    0.000 
#    0.000    0.000    0.000    0.000    0.000    0.000 
#
# Total GULP energy -67240.396592 kJ/mol
# GULP energy per Si atom -5603.366383 kJ/mol
# Density = 2.664268 g / cm^3
# Si number density = 26.703455 Si / 1000 Ang^3
#
#
#
# Elastic Constant Matrix: (Units=GPa)
#
#
# Indices 1 2 3 4 5 6 
#
# 1 95.1421 6.6097 21.6069 2.3807 4.8785 -9.1303
# 2 6.6097 118.9105 30.6013 33.3901 -6.1296 3.1564
# 3 21.6069 30.6013 156.9288 3.0436 -1.5801 -20.7941
# 4 2.3807 33.3901 3.0436 56.5998 0.1393 10.0917
# 5 4.8785 -6.1296 -1.5801 0.1393 21.1672 9.2986
# 6 -9.1303 3.1564 -20.7941 10.0917 9.2986 35.1097
#
#
#
# Elastic Compliance Matrix: (Units=1/GPa)
#
#
# Indices 1 2 3 4 5 6 
#
# 1 0.011392 -0.000484 -0.000994 -0.000816 -0.004526 0.003851
# 2 -0.000484 0.010919 -0.002128 -0.006019 0.003886 -0.001667
# 3 -0.000994 -0.002128 0.007557 0.000016 -0.001989 0.004931
# 4 -0.000816 -0.006019 0.000016 0.022389 0.001106 -0.006389
# 5 -0.004526 0.003886 -0.001989 0.001106 0.057243 -0.018183
# 6 0.003851 -0.001667 0.004931 -0.006389 -0.018183 0.039206
#
#
# Mechanical properties :
#
#
# Convention : Reuss Voigt Hill
#
# Bulk Modulus (GPa) = 44.13579 54.29080 49.21329
# Shear Modulus (GPa) = 30.58699 43.38623 36.98661
#
# Velocity S-wave (km/s) = 3.38809 4.03518 3.72571
# Velocity P-wave (km/s) = 5.64531 6.48733 6.08091
#
# Compressibility (1/GPa) = 0.02265735
#
# Stress axis : x y z
#
# Youngs Moduli (GPa) = 87.78174 91.58495 132.32761
#
# Poissons Ratio (x) = 0.04433 0.13149
# Poissons Ratio (y) = 0.04249 0.28153
# Poissons Ratio (z) = 0.08722 0.19485
#
# Static dielectric constant tensor:
#      x y z
#    x 1.979100 0.026060 -0.018430 
#    y 0.026060 2.186500 -0.069400 
#    z -0.018430 -0.069400 2.113820 
# 
# From -- ./inp_files/121978.got.cif
#   From: 2010.05.17/outbox.cif.g08.bks.cpg/sg2_61_cif.got.tgz:121978.got - 2010.06.03 11:33:40.
