data_PCOD9079468
_publ_section_title
;
Structure prediction by ZEFSAII (Michael W. Deem and Ramdas Pophale) SiO2 
 PCOD9079468
Probable space group: P -1
;
_chemical_formula_sum "Si O2"
_cell_formula_units_Z 16
_cell_length_a 22.480001
_cell_length_b 7.171477
_cell_length_c 28.783165
_cell_angle_alpha 135.700716
_cell_angle_beta 162.297164
_cell_angle_gamma 40.045304
_cell_volume 905.646571
_symmetry_space_group_name_H-M "P -1"
_symmetry_group_IT_number 2
_symmetry_cell_setting 'triclinic'
loop_
_space_group_symop_operation_xyz
x,y,z
-x,-y,-z
loop_
_atom_site_type_symbol
_atom_site_label
_atom_site_fract_x
_atom_site_fract_y
_atom_site_fract_z
Si Si1 0.273391 0.411273 0.149147
Si Si2 0.010608 0.190215 0.469010
Si Si3 0.315758 0.139863 0.426235
Si Si4 0.981273 0.094147 0.883682
Si Si5 0.389550 0.132520 0.587979
Si Si6 0.309589 0.732545 0.676691
Si Si7 0.247018 0.704687 0.087689
Si Si8 0.254082 0.783210 0.499686
O O1 0.179613 0.606346 0.159608
O O2 0.189719 0.623311 0.080727
O O3 0.526968 0.297185 0.321840
O O4 0.184774 0.161059 0.032924
O O5 0.799447 0.228354 0.347353
O O6 0.000000 0.500000 0.500000
O O7 0.065170 0.989712 0.428327
O O8 0.198605 0.024155 0.616492
O O9 0.392832 0.084446 0.527004
O O10 0.231447 0.485526 0.418423
O O11 0.500000 0.000000 0.500000
O O12 0.138481 0.011065 0.262650
O O13 0.059658 0.850172 0.938525
O O14 0.265838 0.474079 0.570643
O O15 0.292591 0.944771 0.511969
O O16 0.565077 0.592066 0.843858
O O17 0.372481 0.918191 0.226812
#
# Coordination Sequence:
#
# PCOD9079468 Si02
#       8
#     2   2   2   2   2   2   2   2
#     4  11  20  38  58  83 115 155 204 242 282 344
#     4  11  18  31  60  97 112 144 196 252 300 335
#     4  12  24  41  55  86 126 160 193 248 296 345
#     4  11  24  35  58  85 115 159 202 236 291 352
#     4  10  20  36  60  85 117 155 194 243 289 349
#     4   9  19  32  57  93 117 143 193 257 289 341
#     4  10  18  37  59  83 116 152 195 242 289 342
#     4  12  20  38  62  87 122 155 194 250 296 346
#
# _framework density 17.666936
#
# number of rings (size 3 to 8) (size 9 to 14) (size 15 to 20)
#    0.750    0.500    7.500    0.375    0.000    1.500 
#    0.000    0.000    0.000    0.750    0.000    3.500 
#    0.000    0.000    0.000    0.000    0.000    0.000 
#
# Total GULP energy -89178.879254 kJ/mol
# GULP energy per Si atom -5573.679953 kJ/mol
# Density = 1.762673 g / cm^3
# Si number density = 17.666936 Si / 1000 Ang^3
#
#
#
# Elastic Constant Matrix: (Units=GPa)
#
#
# Indices 1 2 3 4 5 6 
#
# 1 98.3545 22.1587 4.2760 8.1882 -2.7039 -3.9873
# 2 22.1587 80.6742 5.0817 10.2991 -1.3437 -0.0062
# 3 4.2760 5.0817 51.2743 10.6434 -7.3806 -8.6746
# 4 8.1882 10.2991 10.6434 26.0100 4.0958 -0.0711
# 5 -2.7039 -1.3437 -7.3806 4.0958 16.6980 -0.8986
# 6 -3.9873 -0.0062 -8.6746 -0.0711 -0.8986 35.4701
#
#
#
# Elastic Compliance Matrix: (Units=1/GPa)
#
#
# Indices 1 2 3 4 5 6 
#
# 1 0.011132 -0.002652 0.000623 -0.003133 0.002712 0.001466
# 2 -0.002652 0.013784 0.000132 -0.004985 0.001949 -0.000224
# 3 0.000623 0.000132 0.025391 -0.012962 0.014871 0.006630
# 4 -0.003133 -0.004985 -0.012962 0.049698 -0.019038 -0.003906
# 5 0.002712 0.001949 0.014871 -0.019038 0.072034 0.005729
# 6 0.001466 -0.000224 0.006630 -0.003906 0.005729 0.030116
#
#
# Mechanical properties :
#
#
# Convention : Reuss Voigt Hill
#
# Bulk Modulus (GPa) = 21.49841 32.59284 27.04563
# Shear Modulus (GPa) = 22.57804 28.88806 25.73305
#
# Velocity S-wave (km/s) = 3.57877 4.04808 3.82064
# Velocity P-wave (km/s) = 5.41035 6.35121 5.89957
#
# Compressibility (1/GPa) = 0.04651507
#
# Stress axis : x y z
#
# Youngs Moduli (GPa) = 89.82776 72.54569 39.38444
#
# Poissons Ratio (x) = 0.19237 -0.02454
# Poissons Ratio (y) = 0.23820 -0.00522
# Poissons Ratio (z) = -0.05597 -0.00961
#
# Static dielectric constant tensor:
#      x y z
#    x 1.632930 0.007220 0.031960 
#    y 0.007220 1.627830 -0.010760 
#    z 0.031960 -0.010760 1.586520 
# 
# From -- ./inp_files/620595.got.cif
#   From: 2010.05.17/outbox.cif.g08.bks.cpg/sg2_311_cif.got.tgz:620595.got - 2010.06.03 11:33:40.
