data_PCOD9079599
_publ_section_title
;
Structure prediction by ZEFSAII (Michael W. Deem and Ramdas Pophale) SiO2 
 PCOD9079599
Probable space group: P -1
;
_chemical_formula_sum "Si O2"
_cell_formula_units_Z 14
_cell_length_a 9.235580
_cell_length_b 9.751485
_cell_length_c 8.867698
_cell_angle_alpha 115.547612
_cell_angle_beta 93.654169
_cell_angle_gamma 58.235791
_cell_volume 598.582664
_symmetry_space_group_name_H-M "P -1"
_symmetry_group_IT_number 2
_symmetry_cell_setting 'triclinic'
loop_
_space_group_symop_operation_xyz
x,y,z
-x,-y,-z
loop_
_atom_site_type_symbol
_atom_site_label
_atom_site_fract_x
_atom_site_fract_y
_atom_site_fract_z
Si Si1 0.397879 0.443404 0.188957
Si Si2 0.769861 0.722091 0.479189
Si Si3 0.403557 0.143286 0.197471
Si Si4 0.200278 0.343385 0.895878
Si Si5 0.864747 0.352463 0.485530
Si Si6 0.132017 0.144084 0.011721
Si Si7 0.773742 0.251497 0.129491
O O1 0.459829 0.282250 0.240648
O O2 0.246226 0.612979 0.353348
O O3 0.579888 0.417479 0.152841
O O4 0.320425 0.387358 0.022176
O O5 0.607814 0.886534 0.641166
O O6 0.751596 0.684707 0.287925
O O7 0.812057 0.541404 0.487527
O O8 0.933816 0.741168 0.505229
O O9 0.200760 0.231841 0.174327
O O10 0.500000 0.000000 0.000000
O O11 0.209698 0.162618 0.870463
O O12 0.000000 0.500000 0.000000
O O13 0.822785 0.254488 0.308143
O O14 0.201086 0.943688 0.983457
O O15 0.924624 0.248156 0.044282
#
# Coordination Sequence:
#
# PCOD9079599 Si02
#       7
#     2   2   2   2   2   2   2
#     4  10  21  34  63  88 117 154 200 251 289 352
#     4  10  20  36  63  89 114 154 210 242 291 355
#     4  10  18  37  62  84 110 153 208 246 278 351
#     4  11  21  39  62  89 122 160 198 246 297 351
#     4  10  19  36  61  89 112 156 203 250 285 355
#     4  10  22  36  62  86 117 161 197 244 298 355
#     4  11  20  37  61  89 119 156 204 240 302 352
#
# _framework density 23.388583000000001
#
# number of rings (size 3 to 8) (size 9 to 14) (size 15 to 20)
#    0.000    1.714    4.286    1.286    0.000    0.000 
#    0.000    6.429    3.143    0.000    0.000    0.000 
#    0.000    0.000    0.000    0.000    0.000    0.000 
#
# Total GULP energy -78064.655014 kJ/mol
# GULP energy per Si atom -5576.046787 kJ/mol
# Density = 2.333535 g / cm^3
# Si number density = 23.388583 Si / 1000 Ang^3
#
#
#
# Elastic Constant Matrix: (Units=GPa)
#
#
# Indices 1 2 3 4 5 6 
#
# 1 131.6922 9.6480 47.2207 -12.1409 -15.6823 -21.4104
# 2 9.6480 25.5291 10.1499 -4.8810 -10.6193 0.7507
# 3 47.2207 10.1499 166.1316 -21.0603 -27.1730 -10.9092
# 4 -12.1409 -4.8810 -21.0603 25.1416 -4.7700 1.9342
# 5 -15.6823 -10.6193 -27.1730 -4.7700 43.9069 7.0268
# 6 -21.4104 0.7507 -10.9092 1.9342 7.0268 33.6083
#
#
#
# Elastic Compliance Matrix: (Units=1/GPa)
#
#
# Indices 1 2 3 4 5 6 
#
# 1 0.009602 -0.002033 -0.001707 0.002669 0.001343 0.005174
# 2 -0.002033 0.047709 0.001088 0.012221 0.013706 -0.005577
# 3 -0.001707 0.001088 0.008288 0.007391 0.005588 -0.000015
# 4 0.002669 0.012221 0.007391 0.052560 0.014552 -0.002241
# 5 0.001343 0.013706 0.005588 0.014552 0.032451 -0.005259
# 6 0.005174 -0.005577 -0.000015 -0.002241 -0.005259 0.034399
#
#
# Mechanical properties :
#
#
# Convention : Reuss Voigt Hill
#
# Bulk Modulus (GPa) = 16.58552 50.82113 33.70332
# Shear Modulus (GPa) = 23.76305 37.62033 30.69169
#
# Velocity S-wave (km/s) = 3.19095 4.01495 3.62643
# Velocity P-wave (km/s) = 4.54785 6.57794 5.65474
#
# Compressibility (1/GPa) = 0.06029355
#
# Stress axis : x y z
#
# Youngs Moduli (GPa) = 104.14875 20.96057 120.65619
#
# Poissons Ratio (x) = 0.04262 0.20599
# Poissons Ratio (y) = 0.21175 -0.13127
# Poissons Ratio (z) = 0.17780 -0.02280
#
# Static dielectric constant tensor:
#      x y z
#    x 1.915600 -0.071870 -0.065980 
#    y -0.071870 2.066650 0.043640 
#    z -0.065980 0.043640 1.932150 
# 
# From -- ./inp_files/174895.got.cif
#   From: 2010.05.17/outbox.cif.g08.bks.cpg/sg2_88_cif.got.tgz:174895.got - 2010.06.03 11:33:40.
