data_PCOD9079949
_publ_section_title
;
Structure prediction by ZEFSAII (Michael W. Deem and Ramdas Pophale) SiO2 
 PCOD9079949
Probable space group: P -1
;
_chemical_formula_sum "Si O2"
_cell_formula_units_Z 13
_cell_length_a 12.747411
_cell_length_b 7.123447
_cell_length_c 7.222901
_cell_angle_alpha 117.805347
_cell_angle_beta 103.584471
_cell_angle_gamma 102.694557
_cell_volume 520.915454
_symmetry_space_group_name_H-M "P -1"
_symmetry_group_IT_number 2
_symmetry_cell_setting 'triclinic'
loop_
_space_group_symop_operation_xyz
x,y,z
-x,-y,-z
loop_
_atom_site_type_symbol
_atom_site_label
_atom_site_fract_x
_atom_site_fract_y
_atom_site_fract_z
Si Si1 0.837216 0.299583 0.479068
Si Si2 0.000000 0.000000 0.000000
Si Si3 0.679861 0.382396 0.931987
Si Si4 0.755625 0.865239 0.051075
Si Si5 0.405100 0.116631 0.324251
Si Si6 0.072934 0.590369 0.856529
Si Si7 0.364538 0.556201 0.631026
O O1 0.889677 0.366221 0.324568
O O2 0.750480 0.434911 0.515065
O O3 0.946653 0.383158 0.699522
O O4 0.772446 0.025020 0.313267
O O5 0.882161 0.896870 0.040884
O O6 0.048031 0.809773 0.007792
O O7 0.671572 0.601561 0.929268
O O8 0.818184 0.437226 0.015530
O O9 0.639988 0.384544 0.128543
O O10 0.387676 0.871764 0.293697
O O11 0.690845 0.957716 0.914117
O O12 0.374721 0.309143 0.509980
O O13 0.527560 0.252100 0.338229
#
# Coordination Sequence:
#
# PCOD9079949 Si02
#       7
#     2   1   2   2   2   2   2
#     4   9  18  36  59  88 118 170 196 251 310 370
#     4  10  18  38  58  86 126 164 194 262 300 374
#     4  11  23  42  63 100 121 167 210 261 306 382
#     4  11  23  39  65  92 130 163 212 256 319 362
#     4  11  22  45  63  95 123 170 206 262 314 375
#     4   9  18  34  59  86 123 157 206 245 314 361
#     4  10  22  42  69  85 131 167 209 256 320 367
#
# _framework density 24.956067000000001
#
# number of rings (size 3 to 8) (size 9 to 14) (size 15 to 20)
#    0.000    1.846    4.615    1.385    0.000    3.077 
#    5.538    1.538    0.000    0.000    0.000    0.000 
#    0.000    0.000    0.000    0.000    0.000    0.000 
#
# Total GULP energy -72459.092220 kJ/mol
# GULP energy per Si atom -5573.776325 kJ/mol
# Density = 2.489927 g / cm^3
# Si number density = 24.956067 Si / 1000 Ang^3
#
#
#
# Elastic Constant Matrix: (Units=GPa)
#
#
# Indices 1 2 3 4 5 6 
#
# 1 107.6043 16.3542 29.0437 5.1373 -22.6283 2.8591
# 2 16.3542 113.3122 35.4373 33.0629 -27.8296 13.9771
# 3 29.0437 35.4373 57.7706 18.6604 1.2265 8.5991
# 4 5.1373 33.0629 18.6604 40.3779 -2.0338 0.5889
# 5 -22.6283 -27.8296 1.2265 -2.0338 27.7441 5.7855
# 6 2.8591 13.9771 8.5991 0.5889 5.7855 17.7000
#
#
#
# Elastic Compliance Matrix: (Units=1/GPa)
#
#
# Indices 1 2 3 4 5 6 
#
# 1 0.018358 0.012779 -0.013796 -0.004596 0.031504 -0.016499
# 2 0.012779 0.036873 -0.017726 -0.020274 0.055023 -0.039880
# 3 -0.013796 -0.017726 0.034843 -0.001631 -0.032794 0.010072
# 4 -0.004596 -0.020274 -0.001631 0.041027 -0.026163 0.024731
# 5 0.031504 0.055023 -0.032794 -0.026163 0.132085 -0.074910
# 6 -0.016499 -0.039880 0.010072 0.024731 -0.074910 0.109424
#
#
# Mechanical properties :
#
#
# Convention : Reuss Voigt Hill
#
# Bulk Modulus (GPa) = 19.01630 48.92860 33.97245
# Shear Modulus (GPa) = 11.69243 30.35454 21.02349
#
# Velocity S-wave (km/s) = 2.16688 3.49136 2.90560
# Velocity P-wave (km/s) = 3.72786 5.99177 4.98990
#
# Compressibility (1/GPa) = 0.05258648
#
# Stress axis : x y z
#
# Youngs Moduli (GPa) = 54.47248 27.11997 28.69989
#
# Poissons Ratio (x) = -0.34656 0.39596
# Poissons Ratio (y) = -0.69610 0.50874
# Poissons Ratio (z) = 0.75153 0.48074
#
# Static dielectric constant tensor:
#      x y z
#    x 1.945910 0.030020 -0.026610 
#    y 0.030020 1.971930 0.050450 
#    z -0.026610 0.050450 2.028320 
# 
# From -- ./inp_files/162640.got.cif
#   From: 2010.05.17/outbox.cif.g08.bks.cpg/sg2_82_cif.got.tgz:162640.got - 2010.06.03 11:33:40.
