data_PCOD9079103
_publ_section_title
;
Structure prediction by ZEFSAII (Michael W. Deem and Ramdas Pophale) SiO2 
 PCOD9079103
Probable space group: P -1
;
_chemical_formula_sum "Si O2"
_cell_formula_units_Z 15
_cell_length_a 9.348047
_cell_length_b 9.434232
_cell_length_c 12.285525
_cell_angle_alpha 92.147313
_cell_angle_beta 147.061995
_cell_angle_gamma 98.607660
_cell_volume 555.040884
_symmetry_space_group_name_H-M "P -1"
_symmetry_group_IT_number 2
_symmetry_cell_setting 'triclinic'
loop_
_space_group_symop_operation_xyz
x,y,z
-x,-y,-z
loop_
_atom_site_type_symbol
_atom_site_label
_atom_site_fract_x
_atom_site_fract_y
_atom_site_fract_z
Si Si1 0.364128 0.708009 0.383815
Si Si2 0.716083 0.538174 0.815295
Si Si3 0.037311 0.410634 0.693866
Si Si4 0.599382 0.352240 0.213109
Si Si5 0.007010 0.080013 0.668432
Si Si6 0.567306 0.021215 0.187093
Si Si7 0.500000 0.000000 0.500000
Si Si8 0.083906 0.855528 0.019292
O O1 0.484729 0.606613 0.381663
O O2 0.136771 0.587964 0.308895
O O3 0.261931 0.821145 0.238171
O O4 0.482497 0.843324 0.547238
O O5 0.603306 0.567452 0.860019
O O6 0.000000 0.500000 0.000000
O O7 0.827827 0.701567 0.836774
O O8 0.831772 0.381809 0.458011
O O9 0.124908 0.261917 0.758278
O O10 0.270624 0.563800 0.811865
O O11 0.492459 0.173319 0.133279
O O12 0.792982 0.046771 0.429544
O O13 0.805382 0.002843 0.636046
O O14 0.252490 0.013158 0.796498
O O15 0.296393 0.891198 0.055647
O O16 0.000000 0.000000 0.000000
#
# Coordination Sequence:
#
# PCOD9079103 Si02
#       8
#     2   2   2   2   2   2   1   2
#     4  10  22  39  61  95 117 163 201 256 316 356
#     4  10  23  38  62  88 121 174 212 242 299 371
#     4   9  21  37  60  88 124 152 198 264 319 362
#     4  10  20  39  60  92 124 160 202 254 313 367
#     4   9  19  33  61  90 115 155 196 256 317 364
#     4  10  19  35  60  89 115 158 207 248 304 363
#     4  10  18  36  62  90 120 144 194 266 306 362
#     4  11  21  39  64  87 125 168 215 251 290 376
#
# _framework density 27.025034999999999
#
# number of rings (size 3 to 8) (size 9 to 14) (size 15 to 20)
#    0.000    2.133    2.667    0.000    3.733    2.667 
#    0.000    8.000    0.000    4.000    0.000    0.000 
#    0.000    0.000    0.000    0.000    0.000    0.000 
#
# Total GULP energy -83699.574502 kJ/mol
# GULP energy per Si atom -5579.971633 kJ/mol
# Density = 2.696352 g / cm^3
# Si number density = 27.025035 Si / 1000 Ang^3
#
#
#
# Elastic Constant Matrix: (Units=GPa)
#
#
# Indices 1 2 3 4 5 6 
#
# 1 195.5476 56.9774 -0.7677 9.3960 26.5063 5.3869
# 2 56.9774 134.5810 11.3545 -12.1791 21.6366 -7.4754
# 3 -0.7677 11.3545 49.4010 -14.8459 -1.7521 -3.5890
# 4 9.3960 -12.1791 -14.8459 59.2266 -4.8094 4.8709
# 5 26.5063 21.6366 -1.7521 -4.8094 40.6331 7.0890
# 6 5.3869 -7.4754 -3.5890 4.8709 7.0890 60.0582
#
#
#
# Elastic Compliance Matrix: (Units=1/GPa)
#
#
# Indices 1 2 3 4 5 6 
#
# 1 0.006298 -0.002360 -0.000003 -0.001698 -0.002989 -0.000368
# 2 -0.002360 0.009383 -0.001777 0.001432 -0.003641 0.001587
# 3 -0.000003 -0.001777 0.022396 0.005419 0.002488 0.000384
# 4 -0.001698 0.001432 0.005419 0.019159 0.003066 -0.001261
# 5 -0.002989 -0.003641 0.002488 0.003066 0.029629 -0.003782
# 6 -0.000368 0.001587 0.000384 -0.001261 -0.003782 0.017453
#
#
# Mechanical properties :
#
#
# Convention : Reuss Voigt Hill
#
# Bulk Modulus (GPa) = 33.55908 57.18420 45.37164
# Shear Modulus (GPa) = 40.80701 52.78126 46.79413
#
# Velocity S-wave (km/s) = 3.89005 4.42413 4.16566
# Velocity P-wave (km/s) = 5.71151 6.87771 6.32156
#
# Compressibility (1/GPa) = 0.02979820
#
# Stress axis : x y z
#
# Youngs Moduli (GPa) = 158.77387 106.58137 44.65177
#
# Poissons Ratio (x) = 0.25152 0.00012
# Poissons Ratio (y) = 0.37468 0.07933
# Poissons Ratio (z) = 0.00042 0.18935
#
# Static dielectric constant tensor:
#      x y z
#    x 1.862860 0.152450 0.199170 
#    y 0.152450 1.826600 -0.333910 
#    z 0.199170 -0.333910 2.063290 
# 
# From -- ./inp_files/238260.got.cif
#   From: 2010.05.17/outbox.cif.g08.bks.cpg/sg2_120_cif.got.tgz:238260.got - 2010.06.03 11:33:40.
