data_PCOD9079704
_publ_section_title
;
Structure prediction by ZEFSAII (Michael W. Deem and Ramdas Pophale) SiO2 
 PCOD9079704
Probable space group: P -1
;
_chemical_formula_sum "Si O2"
_cell_formula_units_Z 16
_cell_length_a 11.609955
_cell_length_b 12.213686
_cell_length_c 11.900730
_cell_angle_alpha 91.207499
_cell_angle_beta 36.085751
_cell_angle_gamma 114.511548
_cell_volume 732.627315
_symmetry_space_group_name_H-M "P -1"
_symmetry_group_IT_number 2
_symmetry_cell_setting 'triclinic'
loop_
_space_group_symop_operation_xyz
x,y,z
-x,-y,-z
loop_
_atom_site_type_symbol
_atom_site_label
_atom_site_fract_x
_atom_site_fract_y
_atom_site_fract_z
Si Si1 0.257972 0.841915 0.308452
Si Si2 0.815503 0.780955 0.208280
Si Si3 0.403856 0.426005 0.826201
Si Si4 0.709499 0.980718 0.324327
Si Si5 0.889852 0.768195 0.408304
Si Si6 0.781569 0.549200 0.816137
Si Si7 0.531418 0.737790 0.050765
Si Si8 0.883512 0.018377 0.440705
O O1 0.499598 0.850697 0.113300
O O2 0.299474 0.970749 0.343434
O O3 0.149694 0.826712 0.269876
O O4 0.026871 0.688864 0.556098
O O5 0.684397 0.639829 0.229858
O O6 0.888208 0.769937 0.275151
O O7 0.636753 0.824827 0.357957
O O8 0.084134 0.913393 0.933870
O O9 0.655893 0.599539 0.626977
O O10 0.465435 0.336992 0.842692
O O11 0.192986 0.409292 0.072403
O O12 0.852505 0.031162 0.333579
O O13 0.500000 0.000000 0.500000
O O14 0.836437 0.872818 0.491027
O O15 0.711931 0.397954 0.836388
O O16 0.500000 0.500000 0.000000
O O17 0.812123 0.835332 0.769360
#
# Coordination Sequence:
#
# PCOD9079704 Si02
#       8
#     2   2   2   2   2   2   2   2
#     4  12  22  38  66  96 122 169 212 253 311 374
#     4  10  22  41  64  93 125 164 205 255 312 372
#     4  11  20  42  67  89 122 170 208 258 306 368
#     4  10  22  41  69  92 122 160 214 259 301 370
#     4  11  24  39  61  92 137 164 198 256 326 366
#     4  10  18  37  63  93 121 157 213 263 298 354
#     4  11  22  38  68  93 120 161 219 258 303 363
#     4  11  23  42  62  94 123 165 207 262 312 365
#
# _framework density 21.839210000000001
#
# number of rings (size 3 to 8) (size 9 to 14) (size 15 to 20)
#    0.000    1.250    6.250    1.125    1.750    0.500 
#    0.000    5.000    0.000    4.500    0.000    0.000 
#    0.000    0.000    0.000    0.000    0.000    0.000 
#
# Total GULP energy -89413.908296 kJ/mol
# GULP energy per Si atom -5588.369269 kJ/mol
# Density = 2.178950 g / cm^3
# Si number density = 21.839210 Si / 1000 Ang^3
#
#
#
# Elastic Constant Matrix: (Units=GPa)
#
#
# Indices 1 2 3 4 5 6 
#
# 1 83.3433 35.8292 27.6670 8.0343 37.4856 -3.4606
# 2 35.8292 113.5118 23.6357 8.1652 10.4452 3.2174
# 3 27.6670 23.6357 62.1897 12.6317 15.3105 -13.6372
# 4 8.0343 8.1652 12.6317 37.3704 -0.3714 0.7551
# 5 37.4856 10.4452 15.3105 -0.3714 29.5268 8.5093
# 6 -3.4606 3.2174 -13.6372 0.7551 8.5093 34.6471
#
#
#
# Elastic Compliance Matrix: (Units=1/GPa)
#
#
# Indices 1 2 3 4 5 6 
#
# 1 0.044592 -0.009548 0.007050 -0.011006 -0.063963 0.024065
# 2 -0.009548 0.011851 -0.005339 0.001544 0.012832 -0.007341
# 3 0.007050 -0.005339 0.027998 -0.010470 -0.027226 0.019135
# 4 -0.011006 0.001544 -0.010470 0.032787 0.022620 -0.011634
# 5 -0.063963 0.012832 -0.027226 0.022620 0.140278 -0.053242
# 6 0.024065 -0.007341 0.019135 -0.011634 -0.053242 0.052809
#
#
# Mechanical properties :
#
#
# Convention : Reuss Voigt Hill
#
# Bulk Modulus (GPa) = 14.54167 48.14539 31.34353
# Shear Modulus (GPa) = 14.33030 31.76973 23.05002
#
# Velocity S-wave (km/s) = 2.56437 3.81820 3.25228
# Velocity P-wave (km/s) = 3.92950 6.44449 5.33725
#
# Compressibility (1/GPa) = 0.06876790
#
# Stress axis : x y z
#
# Youngs Moduli (GPa) = 22.42561 84.37914 35.71707
#
# Poissons Ratio (x) = 0.80563 -0.25182
# Poissons Ratio (y) = 0.21411 0.19070
# Poissons Ratio (z) = -0.15811 0.45051
#
# Static dielectric constant tensor:
#      x y z
#    x 1.805330 0.019660 -0.001780 
#    y 0.019660 1.868660 0.014810 
#    z -0.001780 0.014810 1.778490 
# 
# From -- ./inp_files/423651.got.cif
#   From: 2010.05.17/outbox.cif.g08.bks.cpg/sg2_212_cif.got.tgz:423651.got - 2010.06.03 11:33:40.
