data_PCOD9079572
_publ_section_title
;
Structure prediction by ZEFSAII (Michael W. Deem and Ramdas Pophale) SiO2 
 PCOD9079572
Probable space group: P -1
;
_chemical_formula_sum "Si O2"
_cell_formula_units_Z 14
_cell_length_a 11.574618
_cell_length_b 18.632960
_cell_length_c 15.320046
_cell_angle_alpha 151.550632
_cell_angle_beta 25.661312
_cell_angle_gamma 146.881577
_cell_volume 665.188500
_symmetry_space_group_name_H-M "P -1"
_symmetry_group_IT_number 2
_symmetry_cell_setting 'triclinic'
loop_
_space_group_symop_operation_xyz
x,y,z
-x,-y,-z
loop_
_atom_site_type_symbol
_atom_site_label
_atom_site_fract_x
_atom_site_fract_y
_atom_site_fract_z
Si Si1 0.890492 0.567940 0.033675
Si Si2 0.450713 0.817833 0.343292
Si Si3 0.456504 0.288054 0.112358
Si Si4 0.075204 0.296013 0.543798
Si Si5 0.923927 0.143309 0.657268
Si Si6 0.220709 0.385574 0.036645
Si Si7 0.018349 0.610788 0.524344
O O1 0.670562 0.444883 0.107115
O O2 0.786409 0.623943 0.072806
O O3 0.998212 0.712978 0.175757
O O4 0.101108 0.464578 0.748782
O O5 0.228004 0.748167 0.344368
O O6 0.740798 0.766252 0.100369
O O7 0.288008 0.740647 0.458121
O O8 0.500000 0.000000 0.500000
O O9 0.217470 0.294413 0.213650
O O10 0.304156 0.288819 0.309170
O O11 0.608458 0.147002 0.855034
O O12 0.074155 0.181510 0.503177
O O13 0.000000 0.000000 0.500000
O O14 0.500000 0.500000 0.000000
O O15 0.995621 0.478871 0.322197
O O16 0.000000 0.500000 0.500000
#
# Coordination Sequence:
#
# PCOD9079572 Si02
#       7
#     2   2   2   2   2   2   2
#     4  11  21  40  65  91 118 166 218 254 311 377
#     4  10  21  36  62  92 130 166 192 260 329 374
#     4  10  20  40  67  87 122 160 211 270 300 368
#     4  10  21  42  64  92 118 163 216 256 316 370
#     4  11  27  41  59  91 127 168 209 261 321 377
#     4  10  18  37  61  90 125 160 207 254 306 383
#     4  10  20  37  64  98 123 162 218 255 311 383
#
# _framework density 21.046666999999999
#
# number of rings (size 3 to 8) (size 9 to 14) (size 15 to 20)
#    0.000    1.714    4.286    3.429    4.000    2.857 
#    0.000    3.571    0.000    0.000    0.000    0.000 
#    0.000    0.000    0.000    0.000    0.000    0.000 
#
# Total GULP energy -77957.743990 kJ/mol
# GULP energy per Si atom -5568.410285 kJ/mol
# Density = 2.099876 g / cm^3
# Si number density = 21.046667 Si / 1000 Ang^3
#
#
#
# Elastic Constant Matrix: (Units=GPa)
#
#
# Indices 1 2 3 4 5 6 
#
# 1 110.9746 32.0151 21.1634 2.5299 -0.8486 -43.0098
# 2 32.0151 78.5556 43.4566 12.7013 -0.8857 -39.5142
# 3 21.1634 43.4566 89.1614 5.6940 -22.2142 -25.1367
# 4 2.5299 12.7013 5.6940 37.2880 -14.8625 -1.5375
# 5 -0.8486 -0.8857 -22.2142 -14.8625 42.3401 2.5938
# 6 -43.0098 -39.5142 -25.1367 -1.5375 2.5938 43.3022
#
#
#
# Elastic Compliance Matrix: (Units=1/GPa)
#
#
# Indices 1 2 3 4 5 6 
#
# 1 0.015058 0.003416 -0.000514 -0.002053 -0.001708 0.017804
# 2 0.003416 0.033614 -0.011443 -0.013435 -0.011642 0.027644
# 3 -0.000514 -0.011443 0.019496 0.005733 0.012001 -0.000150
# 4 -0.002053 -0.013435 0.005733 0.036682 0.016214 -0.010640
# 5 -0.001708 -0.011642 0.012001 0.016214 0.035752 -0.006919
# 6 0.017804 0.027644 -0.000150 -0.010640 -0.006919 0.065953
#
#
# Mechanical properties :
#
#
# Convention : Reuss Voigt Hill
#
# Bulk Modulus (GPa) = 19.57469 52.44019 36.00744
# Shear Modulus (GPa) = 20.77565 36.72317 28.74941
#
# Velocity S-wave (km/s) = 3.14526 4.18167 3.69993
# Velocity P-wave (km/s) = 4.74458 6.94877 5.94964
#
# Compressibility (1/GPa) = 0.05108637
#
# Stress axis : x y z
#
# Youngs Moduli (GPa) = 66.41148 29.74936 51.29177
#
# Poissons Ratio (x) = -0.10163 0.02637
# Poissons Ratio (y) = -0.22687 0.58693
# Poissons Ratio (z) = 0.03414 0.34042
#
# Static dielectric constant tensor:
#      x y z
#    x 1.886880 0.010420 -0.065880 
#    y 0.010420 1.774800 -0.031440 
#    z -0.065880 -0.031440 1.929640 
# 
# From -- ./inp_files/523052.got.cif
#   From: 2010.05.17/outbox.cif.g08.bks.cpg/sg2_262_cif.got.tgz:523052.got - 2010.06.03 11:33:40.
