data_PCOD9079708
_publ_section_title
;
Structure prediction by ZEFSAII (Michael W. Deem and Ramdas Pophale) SiO2 
 PCOD9079708
Probable space group: P -1
;
_chemical_formula_sum "Si O2"
_cell_formula_units_Z 16
_cell_length_a 9.720695
_cell_length_b 12.238333
_cell_length_c 15.214920
_cell_angle_alpha 28.451746
_cell_angle_beta 99.857728
_cell_angle_gamma 108.962052
_cell_volume 788.773218
_symmetry_space_group_name_H-M "P -1"
_symmetry_group_IT_number 2
_symmetry_cell_setting 'triclinic'
loop_
_space_group_symop_operation_xyz
x,y,z
-x,-y,-z
loop_
_atom_site_type_symbol
_atom_site_label
_atom_site_fract_x
_atom_site_fract_y
_atom_site_fract_z
Si Si1 0.852426 0.230000 0.503370
Si Si2 0.809785 0.595337 0.549622
Si Si3 0.509302 0.268831 0.838525
Si Si4 0.337313 0.835799 0.642512
Si Si5 0.656111 0.422487 0.472666
Si Si6 0.305604 0.301555 0.099751
Si Si7 0.321609 0.025454 0.699017
Si Si8 0.422316 0.629464 0.031529
O O1 0.788653 0.194001 0.423279
O O2 0.748816 0.346471 0.462524
O O3 0.027212 0.393608 0.415317
O O4 0.828412 0.960923 0.732900
O O5 0.677692 0.446528 0.706839
O O6 0.751373 0.471175 0.537332
O O7 0.799152 0.864881 0.361051
O O8 0.384772 0.340950 0.723096
O O9 0.496634 0.332286 0.894011
O O10 0.500000 0.000000 0.000000
O O11 0.500000 0.000000 0.500000
O O12 0.319775 0.978421 0.627473
O O13 0.312229 0.552133 0.872715
O O14 0.489022 0.213255 0.611552
O O15 0.336760 0.371136 0.157064
O O16 0.446103 0.247886 0.112418
O O17 0.308139 0.770634 0.922497
#
# Coordination Sequence:
#
# PCOD9079708 Si02
#       8
#     2   2   2   2   2   2   2   2
#     4  12  24  43  65  92 136 169 207 266 324 385
#     4  11  26  41  59  94 129 170 208 262 333 368
#     4  11  23  40  68  94 122 165 218 266 311 383
#     4  11  21  40  67 100 124 164 221 260 315 377
#     4  11  21  42  65  87 122 172 216 262 308 380
#     4  10  22  36  65  97 124 162 211 265 310 376
#     4  10  20  39  66  89 125 162 212 268 306 377
#     4  10  18  37  63  95 118 155 218 261 305 365
#
# _framework density 20.284665
#
# number of rings (size 3 to 8) (size 9 to 14) (size 15 to 20)
#    0.000    1.250    2.500    5.625    5.250    0.500 
#    4.500    1.875    0.000    0.000    0.000    0.000 
#    0.000    0.000    0.000    0.000    0.000    0.000 
#
# Total GULP energy -89249.811304 kJ/mol
# GULP energy per Si atom -5578.113206 kJ/mol
# Density = 2.023850 g / cm^3
# Si number density = 20.284665 Si / 1000 Ang^3
#
#
#
# Elastic Constant Matrix: (Units=GPa)
#
#
# Indices 1 2 3 4 5 6 
#
# 1 80.5269 27.4525 16.6155 -7.1445 4.0461 27.9381
# 2 27.4525 120.1351 19.7149 9.8338 2.6626 13.7374
# 3 16.6155 19.7149 66.1811 -8.9281 17.0663 4.9268
# 4 -7.1445 9.8338 -8.9281 25.5956 -3.9686 8.5941
# 5 4.0461 2.6626 17.0663 -3.9686 19.0625 -1.8981
# 6 27.9381 13.7374 4.9268 8.5941 -1.8981 24.9016
#
#
#
# Elastic Compliance Matrix: (Units=1/GPa)
#
#
# Indices 1 2 3 4 5 6 
#
# 1 0.029531 -0.004191 0.001401 0.022606 -0.006150 -0.039368
# 2 -0.004191 0.010106 -0.003378 -0.006777 0.001313 0.002234
# 3 0.001401 -0.003378 0.022623 0.009648 -0.018963 -0.008959
# 4 0.022606 -0.006777 0.009648 0.066533 -0.003293 -0.046746
# 5 -0.006150 0.001313 -0.018963 -0.003293 0.071517 0.016516
# 6 -0.039368 0.002234 -0.008959 -0.046746 0.016516 0.102259
#
#
# Mechanical properties :
#
#
# Convention : Reuss Voigt Hill
#
# Bulk Modulus (GPa) = 20.02997 43.82322 31.92659
# Shear Modulus (GPa) = 15.08084 27.44928 21.26506
#
# Velocity S-wave (km/s) = 2.72960 3.68258 3.24131
# Velocity P-wave (km/s) = 4.45311 6.30340 5.45725
#
# Compressibility (1/GPa) = 0.04992519
#
# Stress axis : x y z
#
# Youngs Moduli (GPa) = 33.86290 98.95048 44.20239
#
# Poissons Ratio (x) = 0.41465 -0.06191
# Poissons Ratio (y) = 0.14190 0.14930
# Poissons Ratio (z) = -0.04743 0.33422
#
# Static dielectric constant tensor:
#      x y z
#    x 1.697340 -0.029840 0.046810 
#    y -0.029840 1.762210 0.003050 
#    z 0.046810 0.003050 1.813830 
# 
# From -- ./inp_files/436622.got.cif
#   From: 2010.05.17/outbox.cif.g08.bks.cpg/sg2_219_cif.got.tgz:436622.got - 2010.06.03 11:33:40.
