data_PCOD9079337
_publ_section_title
;
Structure prediction by ZEFSAII (Michael W. Deem and Ramdas Pophale) SiO2 
 PCOD9079337
Probable space group: P -1
;
_chemical_formula_sum "Si O2"
_cell_formula_units_Z 14
_cell_length_a 8.796688
_cell_length_b 27.617099
_cell_length_c 10.735522
_cell_angle_alpha 30.415774
_cell_angle_beta 134.335392
_cell_angle_gamma 151.466692
_cell_volume 611.802183
_symmetry_space_group_name_H-M "P -1"
_symmetry_group_IT_number 2
_symmetry_cell_setting 'triclinic'
loop_
_space_group_symop_operation_xyz
x,y,z
-x,-y,-z
loop_
_atom_site_type_symbol
_atom_site_label
_atom_site_fract_x
_atom_site_fract_y
_atom_site_fract_z
Si Si1 0.868583 0.803340 0.538072
Si Si2 0.620431 0.343744 0.644791
Si Si3 0.278594 0.392174 0.496433
Si Si4 0.595510 0.658383 0.945715
Si Si5 0.760481 0.912913 0.437621
Si Si6 0.665333 0.943334 0.907265
Si Si7 0.205199 0.856518 0.049586
O O1 0.568256 0.708617 0.479487
O O2 0.756819 0.691713 0.828914
O O3 0.920040 0.916465 0.401067
O O4 0.205967 0.918073 0.398367
O O5 0.437540 0.352096 0.615948
O O6 0.000000 0.500000 0.500000
O O7 0.565814 0.214690 0.939286
O O8 0.500000 0.500000 0.500000
O O9 0.932411 0.249351 0.676979
O O10 0.317109 0.489440 0.201567
O O11 0.501185 0.738785 0.707509
O O12 0.890373 0.752496 0.005496
O O13 0.000000 0.000000 0.500000
O O14 0.704050 0.003940 0.174648
O O15 0.483553 0.907997 0.007893
O O16 0.000000 0.000000 0.000000
#
# Coordination Sequence:
#
# PCOD9079337 Si02
#       7
#     2   2   2   2   2   2   2
#     4   9  20  39  62  94 137 158 220 270 318 391
#     4  11  22  39  62  92 133 179 210 267 330 382
#     4  10  20  36  62  91 125 172 218 263 318 398
#     4   8  18  35  62  95 131 161 211 267 328 381
#     4   8  16  35  61  95 126 163 205 265 323 384
#     4  10  22  40  62  94 127 167 221 276 318 381
#     4  10  18  36  67  96 122 173 220 263 327 383
#
# _framework density 22.883213999999999
#
# number of rings (size 3 to 8) (size 9 to 14) (size 15 to 20)
#    0.857    1.714    0.000    2.571    0.000    1.143 
#    0.000   14.286    3.143   13.714    0.000    0.000 
#    0.000    0.000    0.000    0.000    0.000    0.000 
#
# Total GULP energy -78004.804925 kJ/mol
# GULP energy per Si atom -5571.771780 kJ/mol
# Density = 2.283113 g / cm^3
# Si number density = 22.883214 Si / 1000 Ang^3
#
#
#
# Elastic Constant Matrix: (Units=GPa)
#
#
# Indices 1 2 3 4 5 6 
#
# 1 145.4785 25.7431 63.6727 -14.5695 -16.6611 -2.8642
# 2 25.7431 77.1641 32.5699 -22.0441 -18.4281 -7.0892
# 3 63.6727 32.5699 212.3459 -21.3725 -41.7299 18.7390
# 4 -14.5695 -22.0441 -21.3725 36.7781 7.6146 -4.7633
# 5 -16.6611 -18.4281 -41.7299 7.6146 40.8629 -1.8053
# 6 -2.8642 -7.0892 18.7390 -4.7633 -1.8053 34.8778
#
#
#
# Elastic Compliance Matrix: (Units=1/GPa)
#
#
# Indices 1 2 3 4 5 6 
#
# 1 0.008288 -0.001133 -0.002257 0.001459 0.000375 0.001881
# 2 -0.001133 0.018266 -0.000970 0.009590 0.005251 0.005722
# 3 -0.002257 -0.000970 0.007044 0.000997 0.005484 -0.003747
# 4 0.001459 0.009590 0.000997 0.034973 -0.000301 0.006294
# 5 0.000375 0.005251 0.005484 -0.000301 0.032641 -0.000200
# 6 0.001881 0.005722 -0.003747 0.006294 -0.000200 0.032851
#
#
# Mechanical properties :
#
#
# Convention : Reuss Voigt Hill
#
# Bulk Modulus (GPa) = 40.19670 75.43997 57.81833
# Shear Modulus (GPa) = 33.09605 43.37062 38.23333
#
# Velocity S-wave (km/s) = 3.80715 4.35823 4.09198
# Velocity P-wave (km/s) = 6.07701 7.63967 6.90270
#
# Compressibility (1/GPa) = 0.02487766
#
# Stress axis : x y z
#
# Youngs Moduli (GPa) = 120.65174 54.74621 141.97430
#
# Poissons Ratio (x) = 0.06205 0.32044
# Poissons Ratio (y) = 0.13675 0.13767
# Poissons Ratio (z) = 0.27232 0.05309
#
# Static dielectric constant tensor:
#      x y z
#    x 1.831770 0.031470 0.005950 
#    y 0.031470 1.902680 0.055410 
#    z 0.005950 0.055410 1.975380 
# 
# From -- ./inp_files/407483.got.cif
#   From: 2010.05.17/outbox.cif.g08.bks.cpg/sg2_204_cif.got.tgz:407483.got - 2010.06.03 11:33:40.
