data_PCOD9079296
_publ_section_title
;
Structure prediction by ZEFSAII (Michael W. Deem and Ramdas Pophale) SiO2 
 PCOD9079296
Probable space group: P -1
;
_chemical_formula_sum "Si O2"
_cell_formula_units_Z 11
_cell_length_a 11.816346
_cell_length_b 5.405360
_cell_length_c 14.308168
_cell_angle_alpha 118.846535
_cell_angle_beta 148.068298
_cell_angle_gamma 69.334911
_cell_volume 420.217186
_symmetry_space_group_name_H-M "P -1"
_symmetry_group_IT_number 2
_symmetry_cell_setting 'triclinic'
loop_
_space_group_symop_operation_xyz
x,y,z
-x,-y,-z
loop_
_atom_site_type_symbol
_atom_site_label
_atom_site_fract_x
_atom_site_fract_y
_atom_site_fract_z
Si Si1 0.903499 0.836295 0.094481
Si Si2 0.500000 0.500000 0.500000
Si Si3 0.876738 0.364280 0.628598
Si Si4 0.882526 0.675878 0.375032
Si Si5 0.493298 0.037510 0.769848
Si Si6 0.721251 0.234650 0.787012
O O1 0.039372 0.880446 0.292405
O O2 0.067887 0.871086 0.129548
O O3 0.804972 0.502888 0.960379
O O4 0.698372 0.997635 0.966839
O O5 0.751735 0.544000 0.644387
O O6 0.585891 0.343780 0.627144
O O7 0.076042 0.468406 0.721724
O O8 0.682205 0.239834 0.401702
O O9 0.641505 0.711938 0.247155
O O10 0.000000 0.500000 0.500000
O O11 0.000000 0.000000 0.500000
O O12 0.572564 0.026269 0.714292
#
# Coordination Sequence:
#
# PCOD9079296 Si02
#       6
#     2   1   2   2   2   2
#     4  10  22  40  59  96 129 163 216 273 319 395
#     4  10  18  36  66  82 126 164 206 260 330 378
#     4  10  22  41  63  97 124 171 217 264 329 386
#     4  10  23  43  69  96 132 174 224 271 322 399
#     4  11  22  41  67  86 132 169 217 266 332 382
#     4  10  21  39  60  93 129 165 213 270 325 391
#
# _framework density 26.176942
#
# number of rings (size 3 to 8) (size 9 to 14) (size 15 to 20)
#    0.000    1.818    1.818    1.636    2.545    3.636 
#   16.364    0.909    0.000    0.000    0.000    0.000 
#    0.000    0.000    0.000    0.000    0.000    0.000 
#
# Total GULP energy -61277.596121 kJ/mol
# GULP energy per Si atom -5570.690556 kJ/mol
# Density = 2.611736 g / cm^3
# Si number density = 26.176942 Si / 1000 Ang^3
#
#
#
# Elastic Constant Matrix: (Units=GPa)
#
#
# Indices 1 2 3 4 5 6 
#
# 1 181.6290 18.8976 33.2818 -48.5450 27.4850 -30.7203
# 2 18.8976 73.4724 52.6444 -23.3810 15.1047 -9.5881
# 3 33.2818 52.6444 136.0671 -46.0521 23.8051 -22.6560
# 4 -48.5450 -23.3810 -46.0521 59.3673 -21.7378 17.1997
# 5 27.4850 15.1047 23.8051 -21.7378 31.5971 -18.3222
# 6 -30.7203 -9.5881 -22.6560 17.1997 -18.3222 31.4093
#
#
#
# Elastic Compliance Matrix: (Units=1/GPa)
#
#
# Indices 1 2 3 4 5 6 
#
# 1 0.007692 -0.000144 0.000889 0.005199 -0.000993 0.004694
# 2 -0.000144 0.019475 -0.006611 0.001437 -0.004641 -0.002459
# 3 0.000889 -0.006611 0.012682 0.006690 -0.000077 0.004291
# 4 0.005199 0.001437 0.006690 0.030899 0.010877 -0.000226
# 5 -0.000993 -0.004641 -0.000077 0.010877 0.056519 0.024570
# 6 0.004694 -0.002459 0.004291 -0.000226 0.024570 0.053230
#
#
# Mechanical properties :
#
#
# Convention : Reuss Voigt Hill
#
# Bulk Modulus (GPa) = 35.56618 66.75734 51.16176
# Shear Modulus (GPa) = 24.80165 43.56439 34.18302
#
# Velocity S-wave (km/s) = 3.08143 4.08392 3.61757
# Velocity P-wave (km/s) = 5.12607 6.91343 6.08573
#
# Compressibility (1/GPa) = 0.02811659
#
# Stress axis : x y z
#
# Youngs Moduli (GPa) = 130.01301 51.34830 78.85490
#
# Poissons Ratio (x) = 0.00742 -0.07014
# Poissons Ratio (y) = 0.01878 0.52128
# Poissons Ratio (z) = -0.11564 0.33945
#
# Static dielectric constant tensor:
#      x y z
#    x 2.056050 0.096500 -0.064030 
#    y 0.096500 1.130150 0.130900 
#    z -0.064030 0.130900 2.088550 
# 
# From -- ./inp_files/18484.got.cif
#   From: 2010.05.17/outbox.cif.g08.bks.cpg/sg2_10_cif.got.tgz:18484.got - 2010.06.03 11:33:40.
