data_PCOD9079854
_publ_section_title
;
Structure prediction by ZEFSAII (Michael W. Deem and Ramdas Pophale) SiO2 
 PCOD9079854
Probable space group: P -1
;
_chemical_formula_sum "Si O2"
_cell_formula_units_Z 13
_cell_length_a 8.654046
_cell_length_b 9.248313
_cell_length_c 13.106227
_cell_angle_alpha 135.419745
_cell_angle_beta 49.297268
_cell_angle_gamma 104.177057
_cell_volume 508.434293
_symmetry_space_group_name_H-M "P -1"
_symmetry_group_IT_number 2
_symmetry_cell_setting 'triclinic'
loop_
_space_group_symop_operation_xyz
x,y,z
-x,-y,-z
loop_
_atom_site_type_symbol
_atom_site_label
_atom_site_fract_x
_atom_site_fract_y
_atom_site_fract_z
Si Si1 0.819803 0.026033 0.681333
Si Si2 0.388144 0.695724 0.506429
Si Si3 0.944821 0.534227 0.889805
Si Si4 0.936678 0.838194 0.870531
Si Si5 0.482228 0.211343 0.273821
Si Si6 0.500000 0.500000 0.000000
Si Si7 0.161513 0.116953 0.708155
O O1 0.592145 0.225361 0.839788
O O2 0.948774 0.071515 0.743070
O O3 0.744329 0.827067 0.643632
O O4 0.000000 0.000000 0.500000
O O5 0.492110 0.425005 0.315959
O O6 0.464493 0.753899 0.612662
O O7 0.124771 0.755585 0.663753
O O8 0.369432 0.874422 0.514680
O O9 0.972048 0.618302 0.810024
O O10 0.724580 0.488093 0.955695
O O11 0.152395 0.309446 0.726858
O O12 0.896571 0.740292 0.091198
O O13 0.680041 0.986900 0.030422
O O14 0.000000 0.000000 0.000000
#
# Coordination Sequence:
#
# PCOD9079854 Si02
#       7
#     2   2   2   2   2   1   2
#     4  11  24  39  62  89 124 168 203 251 314 356
#     4  10  21  39  65  88 120 163 199 257 305 363
#     4  10  19  37  66  89 121 162 200 257 301 362
#     4  10  18  37  67  85 116 162 205 237 315 366
#     4  10  21  38  62  88 122 160 209 243 301 379
#     4  10  20  40  64  86 122 156 208 244 304 370
#     4  10  21  38  60  93 125 157 206 261 301 352
#
# _framework density 25.568694000000001
#
# number of rings (size 3 to 8) (size 9 to 14) (size 15 to 20)
#    0.000    1.846    4.615    0.000    4.308    0.615 
#    0.000    6.923    0.000    0.000    0.000    0.000 
#    0.000    0.000    0.000    0.000    0.000    0.000 
#
# Total GULP energy -72390.820985 kJ/mol
# GULP energy per Si atom -5568.524691 kJ/mol
# Density = 2.551050 g / cm^3
# Si number density = 25.568694 Si / 1000 Ang^3
#
#
#
# Elastic Constant Matrix: (Units=GPa)
#
#
# Indices 1 2 3 4 5 6 
#
# 1 106.8934 29.1376 20.0592 11.7508 -17.3151 14.0173
# 2 29.1376 133.7993 31.9152 37.1828 -9.8769 -9.2108
# 3 20.0592 31.9152 75.7956 24.0390 -21.5654 -9.0718
# 4 11.7508 37.1828 24.0390 52.8702 -11.2094 -15.6807
# 5 -17.3151 -9.8769 -21.5654 -11.2094 28.2858 16.3283
# 6 14.0173 -9.2108 -9.0718 -15.6807 16.3283 42.6128
#
#
#
# Elastic Compliance Matrix: (Units=1/GPa)
#
#
# Indices 1 2 3 4 5 6 
#
# 1 0.013682 -0.002293 0.000498 -0.002009 0.013364 -0.010751
# 2 -0.002293 0.010002 -0.002469 -0.005580 -0.002824 0.001420
# 3 0.000498 -0.002469 0.019433 -0.005348 0.014496 -0.004082
# 4 -0.002009 -0.005580 -0.005348 0.028150 -0.001423 0.009220
# 5 0.013364 -0.002824 0.014496 -0.001423 0.069910 -0.029232
# 6 -0.010751 0.001420 -0.004082 0.009220 -0.029232 0.041035
#
#
# Mechanical properties :
#
#
# Convention : Reuss Voigt Hill
#
# Bulk Modulus (GPa) = 28.91150 53.19026 41.05088
# Shear Modulus (GPa) = 24.71939 40.44552 32.58245
#
# Velocity S-wave (km/s) = 3.11269 3.98155 3.57362
# Velocity P-wave (km/s) = 4.92447 6.47958 5.75480
#
# Compressibility (1/GPa) = 0.03458831
#
# Stress axis : x y z
#
# Youngs Moduli (GPa) = 73.08720 99.97959 51.45902
#
# Poissons Ratio (x) = 0.22930 -0.02560
# Poissons Ratio (y) = 0.16762 0.12703
# Poissons Ratio (z) = -0.03636 0.24680
#
# Static dielectric constant tensor:
#      x y z
#    x 1.954200 -0.034150 0.023770 
#    y -0.034150 2.140040 0.069540 
#    z 0.023770 0.069540 2.041130 
# 
# From -- ./inp_files/491528.got.cif
#   From: 2010.05.17/outbox.cif.g08.bks.cpg/sg2_246_cif.got.tgz:491528.got - 2010.06.03 11:33:40.
