data_PCOD9079808
_publ_section_title
;
Structure prediction by ZEFSAII (Michael W. Deem and Ramdas Pophale) SiO2 
 PCOD9079808
Probable space group: P -1
;
_chemical_formula_sum "Si O2"
_cell_formula_units_Z 16
_cell_length_a 14.758389
_cell_length_b 14.415679
_cell_length_c 9.308622
_cell_angle_alpha 98.556154
_cell_angle_beta 140.081159
_cell_angle_gamma 52.555950
_cell_volume 789.068958
_symmetry_space_group_name_H-M "P -1"
_symmetry_group_IT_number 2
_symmetry_cell_setting 'triclinic'
loop_
_space_group_symop_operation_xyz
x,y,z
-x,-y,-z
loop_
_atom_site_type_symbol
_atom_site_label
_atom_site_fract_x
_atom_site_fract_y
_atom_site_fract_z
Si Si1 0.418580 0.870111 0.831834
Si Si2 0.285495 0.731956 0.680666
Si Si3 0.925636 0.643516 0.398638
Si Si4 0.213998 0.974652 0.906095
Si Si5 0.055999 0.195735 0.320686
Si Si6 0.626708 0.308345 0.897599
Si Si7 0.841156 0.402158 0.613427
Si Si8 0.232807 0.125995 0.198372
O O1 0.388673 0.773455 0.748797
O O2 0.394977 0.896393 0.982075
O O3 0.224013 0.033375 0.562123
O O4 0.665220 0.774474 0.063498
O O5 0.263249 0.649381 0.542104
O O6 0.396695 0.655616 0.952364
O O7 0.026298 0.893014 0.432691
O O8 0.937873 0.711130 0.559871
O O9 0.000000 0.500000 0.500000
O O10 0.077042 0.604520 0.444153
O O11 0.254720 0.853170 0.995602
O O12 0.209566 0.050604 0.045239
O O13 0.141788 0.160615 0.255508
O O14 0.800197 0.290884 0.035896
O O15 0.376847 0.429404 0.559299
O O16 0.061883 0.288619 0.954634
O O17 0.500000 0.000000 0.500000
#
# Coordination Sequence:
#
# PCOD9079808 Si02
#       8
#     2   2   2   2   2   2   2   2
#     4  11  20  38  67  96 124 159 211 262 307 370
#     4  10  18  37  65  98 123 162 203 256 317 365
#     4  12  25  40  63  99 126 161 210 259 314 375
#     4  10  19  39  63  95 122 163 208 251 313 371
#     4  12  23  40  65  93 123 166 213 260 302 368
#     4  11  20  37  67  94 125 159 210 260 309 365
#     4  11  24  42  64  91 130 169 203 257 320 370
#     4  11  25  44  62  86 129 172 207 254 316 373
#
# _framework density 20.277062000000001
#
# number of rings (size 3 to 8) (size 9 to 14) (size 15 to 20)
#    0.000    1.000    3.750    5.250    1.750    1.000 
#    0.000    3.750    0.000    0.000    0.000    0.000 
#    0.000    0.000    0.000    0.000    0.000    0.000 
#
# Total GULP energy -89323.487525 kJ/mol
# GULP energy per Si atom -5582.717970 kJ/mol
# Density = 2.023091 g / cm^3
# Si number density = 20.277062 Si / 1000 Ang^3
#
#
#
# Elastic Constant Matrix: (Units=GPa)
#
#
# Indices 1 2 3 4 5 6 
#
# 1 107.7801 34.5259 49.3657 3.5282 6.0766 -6.4898
# 2 34.5259 42.0132 25.7655 -10.8070 -3.8429 9.8652
# 3 49.3657 25.7655 123.6374 -19.6364 16.3462 -4.7222
# 4 3.5282 -10.8070 -19.6364 27.1987 -7.2820 -1.9526
# 5 6.0766 -3.8429 16.3462 -7.2820 34.6151 -7.0020
# 6 -6.4898 9.8652 -4.7222 -1.9526 -7.0020 17.0838
#
#
#
# Elastic Compliance Matrix: (Units=1/GPa)
#
#
# Indices 1 2 3 4 5 6 
#
# 1 0.019633 -0.020700 -0.004723 -0.014008 -0.003405 0.015110
# 2 -0.020700 0.057580 -0.002530 0.023611 0.009024 -0.035416
# 3 -0.004723 -0.002530 0.012250 0.007831 -0.003043 0.002701
# 4 -0.014008 0.023611 0.007831 0.056498 0.012188 -0.005338
# 5 -0.003405 0.009024 -0.003043 0.012188 0.036295 0.008923
# 6 0.015110 -0.035416 0.002701 -0.005338 0.008923 0.088520
#
#
# Mechanical properties :
#
#
# Convention : Reuss Voigt Hill
#
# Bulk Modulus (GPa) = 29.80024 54.74942 42.27483
# Shear Modulus (GPa) = 14.79873 26.69776 20.74825
#
# Velocity S-wave (km/s) = 2.70446 3.63250 3.20228
# Velocity P-wave (km/s) = 4.94778 6.68227 5.87934
#
# Compressibility (1/GPa) = 0.03355678
#
# Stress axis : x y z
#
# Youngs Moduli (GPa) = 50.93587 17.36722 81.63147
#
# Poissons Ratio (x) = 0.35951 0.38551
# Poissons Ratio (y) = 1.05438 0.20653
# Poissons Ratio (z) = 0.24055 0.04394
#
# Static dielectric constant tensor:
#      x y z
#    x 1.713490 0.029600 0.023560 
#    y 0.029600 1.728260 -0.008590 
#    z 0.023560 -0.008590 1.810010 
# 
# From -- ./inp_files/190813.got.cif
#   From: 2010.05.17/outbox.cif.g08.bks.cpg/sg2_96_cif.got.tgz:190813.got - 2010.06.03 11:33:40.
