data_PCOD9079146
_publ_section_title
;
Structure prediction by ZEFSAII (Michael W. Deem and Ramdas Pophale) SiO2 
 PCOD9079146
Probable space group: P -1
;
_chemical_formula_sum "Si O2"
_cell_formula_units_Z 15
_cell_length_a 9.988299
_cell_length_b 11.131706
_cell_length_c 15.197766
_cell_angle_alpha 46.561812
_cell_angle_beta 144.852535
_cell_angle_gamma 125.476966
_cell_volume 705.686979
_symmetry_space_group_name_H-M "P -1"
_symmetry_group_IT_number 2
_symmetry_cell_setting 'triclinic'
loop_
_space_group_symop_operation_xyz
x,y,z
-x,-y,-z
loop_
_atom_site_type_symbol
_atom_site_label
_atom_site_fract_x
_atom_site_fract_y
_atom_site_fract_z
Si Si1 0.817776 0.200256 0.011154
Si Si2 0.735376 0.785319 0.544239
Si Si3 0.000000 0.000000 0.500000
Si Si4 0.356710 0.751161 0.908047
Si Si5 0.025355 0.463991 0.876695
Si Si6 0.134637 0.176026 0.791912
Si Si7 0.310911 0.275969 0.644567
Si Si8 0.226621 0.657400 0.368466
O O1 0.001963 0.343758 0.007843
O O2 0.577943 0.228175 0.815190
O O3 0.733026 0.213228 0.058890
O O4 0.903739 0.020854 0.126691
O O5 0.873397 0.951976 0.557434
O O6 0.849427 0.615527 0.717075
O O7 0.801521 0.812341 0.459022
O O8 0.464494 0.763031 0.424429
O O9 0.222913 0.869999 0.711791
O O10 0.269920 0.560288 0.942203
O O11 0.633088 0.779706 0.048036
O O12 0.932002 0.360758 0.794553
O O13 0.194533 0.229157 0.697396
O O14 0.920246 0.268706 0.669715
O O15 0.296799 0.470400 0.521584
#
# Coordination Sequence:
#
# PCOD9079146 Si02
#       8
#     2   2   1   2   2   2   2   2
#     4  11  19  37  60  89 115 154 201 245 282 346
#     4  10  18  36  63  86 110 156 207 237 277 349
#     4  10  20  36  58  84 112 148 198 250 284 330
#     4  10  22  37  59  87 114 158 201 244 286 344
#     4  10  20  36  61  84 115 158 204 236 279 352
#     4  11  24  35  60  93 125 149 189 248 305 339
#     4  10  18  38  61  82 115 156 204 233 273 356
#     4  11  21  37  61  91 120 155 191 241 299 350
#
# _framework density 21.255882
#
# number of rings (size 3 to 8) (size 9 to 14) (size 15 to 20)
#    0.000    1.600    2.667    4.800    0.000    1.067 
#    0.000    0.000    0.000    4.000    0.000    0.000 
#    0.000    0.000    0.000    0.000    0.000    0.000 
#
# Total GULP energy -83608.523482 kJ/mol
# GULP energy per Si atom -5573.901565 kJ/mol
# Density = 2.120750 g / cm^3
# Si number density = 21.255882 Si / 1000 Ang^3
#
#
#
# Elastic Constant Matrix: (Units=GPa)
#
#
# Indices 1 2 3 4 5 6 
#
# 1 65.0945 32.5666 23.3937 -4.2336 -0.9374 17.9620
# 2 32.5666 93.7569 17.1787 -1.0294 7.3056 35.0992
# 3 23.3937 17.1787 66.5029 6.9590 -8.1550 7.5117
# 4 -4.2336 -1.0294 6.9590 32.7782 4.6543 -5.9528
# 5 -0.9374 7.3056 -8.1550 4.6543 17.4438 0.4815
# 6 17.9620 35.0992 7.5117 -5.9528 0.4815 33.7441
#
#
#
# Elastic Compliance Matrix: (Units=1/GPa)
#
#
# Indices 1 2 3 4 5 6 
#
# 1 0.021320 -0.004357 -0.006234 0.003149 -0.000650 -0.004864
# 2 -0.004357 0.020141 -0.002572 -0.001408 -0.008995 -0.018178
# 3 -0.006234 -0.002572 0.020052 -0.006808 0.011929 0.000159
# 4 0.003149 -0.001408 -0.006808 0.035436 -0.012092 0.007728
# 5 -0.000650 -0.008995 0.011929 -0.012092 0.069754 0.003918
# 6 -0.004864 -0.018178 0.000159 0.007728 0.003918 0.052404
#
#
# Mechanical properties :
#
#
# Convention : Reuss Voigt Hill
#
# Bulk Modulus (GPa) = 28.42069 41.29249 34.85659
# Shear Modulus (GPa) = 19.44285 26.94090 23.19188
#
# Velocity S-wave (km/s) = 3.02769 3.56400 3.30673
# Velocity P-wave (km/s) = 5.06185 6.03363 5.56897
#
# Compressibility (1/GPa) = 0.03518564
#
# Stress axis : x y z
#
# Youngs Moduli (GPa) = 46.90380 49.64892 49.87137
#
# Poissons Ratio (x) = 0.21633 0.31090
# Poissons Ratio (y) = 0.20437 0.12829
# Poissons Ratio (z) = 0.29240 0.12772
#
# Static dielectric constant tensor:
#      x y z
#    x 1.771840 0.028310 -0.033490 
#    y 0.028310 1.894800 0.061990 
#    z -0.033490 0.061990 1.807380 
# 
# From -- ./inp_files/251884.got.cif
#   From: 2010.05.17/outbox.cif.g08.bks.cpg/sg2_126_cif.got.tgz:251884.got - 2010.06.03 11:33:40.
