data_PCOD9079932
_publ_section_title
;
Structure prediction by ZEFSAII (Michael W. Deem and Ramdas Pophale) SiO2 
 PCOD9079932
Probable space group: P -1
;
_chemical_formula_sum "Si O2"
_cell_formula_units_Z 16
_cell_length_a 21.541896
_cell_length_b 9.070401
_cell_length_c 28.035315
_cell_angle_alpha 151.239413
_cell_angle_beta 19.319529
_cell_angle_gamma 147.956791
_cell_volume 864.813855
_symmetry_space_group_name_H-M "P -1"
_symmetry_group_IT_number 2
_symmetry_cell_setting 'triclinic'
loop_
_space_group_symop_operation_xyz
x,y,z
-x,-y,-z
loop_
_atom_site_type_symbol
_atom_site_label
_atom_site_fract_x
_atom_site_fract_y
_atom_site_fract_z
Si Si1 0.018565 0.578527 0.326920
Si Si2 0.339927 0.379974 0.544459
Si Si3 0.994091 0.711112 0.490234
Si Si4 0.267387 0.309661 0.989447
Si Si5 0.042607 0.375396 0.078796
Si Si6 0.016806 0.272321 0.966758
Si Si7 0.690322 0.205191 0.405956
Si Si8 0.698270 0.319502 0.658913
O O1 0.040126 0.564193 0.364209
O O2 0.811322 0.402526 0.414424
O O3 0.023862 0.932804 0.407162
O O4 0.170638 0.434798 0.142261
O O5 0.500000 0.500000 0.500000
O O6 0.363849 0.562975 0.529396
O O7 0.141834 0.469294 0.731961
O O8 0.330267 0.018633 0.439982
O O9 0.803794 0.551166 0.608828
O O10 0.161008 0.686033 0.399863
O O11 0.492215 0.379659 0.843445
O O12 0.184922 0.447036 0.039785
O O13 0.186085 0.942973 0.941548
O O14 0.090057 0.461824 0.014451
O O15 0.000000 0.000000 0.000000
O O16 0.164392 0.025879 0.782722
O O17 0.000000 0.500000 0.000000
O O18 0.500000 0.000000 0.500000
#
# Coordination Sequence:
#
# PCOD9079932 Si02
#       8
#     2   2   2   2   2   2   2   2
#     4  10  21  45  63  87 125 168 202 262 316 362
#     4  12  23  37  63  92 127 162 201 254 310 373
#     4  10  23  42  66  87 124 163 214 261 307 369
#     4  10  21  39  63  85 125 161 210 260 309 366
#     4  10  18  38  57  80 122 168 197 244 307 369
#     4  10  22  36  56  87 126 166 202 249 308 375
#     4  11  24  38  60  93 129 158 205 251 313 382
#     4  11  24  40  63  96 119 164 217 258 307 372
#
# _framework density 18.501090999999999
#
# number of rings (size 3 to 8) (size 9 to 14) (size 15 to 20)
#    0.000    1.500    5.000    1.500    5.250    2.000 
#    0.000    1.250    0.000    0.000    0.000    0.000 
#    0.000    0.000    0.000    0.000    0.000    0.000 
#
# Total GULP energy -89242.710895 kJ/mol
# GULP energy per Si atom -5577.669431 kJ/mol
# Density = 1.845898 g / cm^3
# Si number density = 18.501091 Si / 1000 Ang^3
#
#
#
# Elastic Constant Matrix: (Units=GPa)
#
#
# Indices 1 2 3 4 5 6 
#
# 1 124.8970 43.0288 31.9657 -11.1685 13.1211 9.5534
# 2 43.0288 92.3086 38.4106 -19.7883 3.9036 6.1808
# 3 31.9657 38.4106 87.5255 -19.3961 1.1841 15.0551
# 4 -11.1685 -19.7883 -19.3961 27.6283 5.6213 0.7659
# 5 13.1211 3.9036 1.1841 5.6213 31.1608 0.5976
# 6 9.5534 6.1808 15.0551 0.7659 0.5976 28.8511
#
#
#
# Elastic Compliance Matrix: (Units=1/GPa)
#
#
# Indices 1 2 3 4 5 6 
#
# 1 0.010321 -0.003583 -0.001516 0.001418 -0.004060 -0.001812
# 2 -0.003583 0.015825 -0.003893 0.007503 -0.001673 -0.000337
# 3 -0.001516 -0.003893 0.017023 0.008966 -0.000989 -0.007765
# 4 0.001418 0.007503 0.008966 0.050873 -0.010904 -0.007880
# 5 -0.004060 -0.001673 -0.000989 -0.010904 0.035982 0.001763
# 6 -0.001812 -0.000337 -0.007765 -0.007880 0.001763 0.039557
#
#
# Mechanical properties :
#
#
# Convention : Reuss Voigt Hill
#
# Bulk Modulus (GPa) = 39.70632 59.06017 49.38324
# Shear Modulus (GPa) = 25.51523 30.28310 27.89917
#
# Velocity S-wave (km/s) = 3.71768 4.05016 3.88748
# Velocity P-wave (km/s) = 6.31952 7.33918 6.84836
#
# Compressibility (1/GPa) = 0.02518491
#
# Stress axis : x y z
#
# Youngs Moduli (GPa) = 96.88919 63.19097 58.74286
#
# Poissons Ratio (x) = 0.22643 0.08906
# Poissons Ratio (y) = 0.34718 0.22869
# Poissons Ratio (z) = 0.14689 0.24600
#
# Static dielectric constant tensor:
#      x y z
#    x 1.655700 0.001650 0.028400 
#    y 0.001650 1.639480 -0.009000 
#    z 0.028400 -0.009000 1.647540 
# 
# From -- ./inp_files/190779.got.cif
#   From: 2010.05.17/outbox.cif.g08.bks.cpg/sg2_96_cif.got.tgz:190779.got - 2010.06.03 11:33:40.
