data_PCOD9079302
_publ_section_title
;
Structure prediction by ZEFSAII (Michael W. Deem and Ramdas Pophale) SiO2 
 PCOD9079302
Probable space group: P -1
;
_chemical_formula_sum "Si O2"
_cell_formula_units_Z 15
_cell_length_a 11.583579
_cell_length_b 10.157255
_cell_length_c 11.247303
_cell_angle_alpha 72.704698
_cell_angle_beta 76.438558
_cell_angle_gamma 136.736335
_cell_volume 627.449579
_symmetry_space_group_name_H-M "P -1"
_symmetry_group_IT_number 2
_symmetry_cell_setting 'triclinic'
loop_
_space_group_symop_operation_xyz
x,y,z
-x,-y,-z
loop_
_atom_site_type_symbol
_atom_site_label
_atom_site_fract_x
_atom_site_fract_y
_atom_site_fract_z
Si Si1 0.781433 0.759595 0.531836
Si Si2 0.818471 0.347692 0.353691
Si Si3 0.000000 0.500000 0.000000
Si Si4 0.541009 0.804741 0.595406
Si Si5 0.302328 0.151560 0.873253
Si Si6 0.314657 0.932369 0.082889
Si Si7 0.338020 0.582958 0.960002
Si Si8 0.973564 0.971328 0.819777
O O1 0.671413 0.800328 0.517934
O O2 0.570716 0.459798 0.715163
O O3 0.000000 0.000000 0.500000
O O4 0.892243 0.810937 0.370954
O O5 0.849399 0.354126 0.202667
O O6 0.647040 0.308333 0.413452
O O7 0.713462 0.104247 0.499767
O O8 0.069913 0.634323 0.266453
O O9 0.836669 0.463134 0.994192
O O10 0.417730 0.631544 0.792852
O O11 0.271600 0.958398 0.955753
O O12 0.165389 0.079099 0.037421
O O13 0.164160 0.071541 0.816898
O O14 0.441753 0.161675 0.080980
O O15 0.500000 0.000000 0.000000
O O16 0.206233 0.317982 0.113049
#
# Coordination Sequence:
#
# PCOD9079302 Si02
#       8
#     2   2   1   2   2   2   2   2
#     4  12  26  43  74 110 141 181 241 295 356 422
#     4  10  22  42  66  95 137 184 230 284 348 416
#     4  10  18  36  66  90 130 182 222 268 342 418
#     4  10  23  43  66  99 136 185 232 287 349 428
#     4  11  26  48  72 106 142 185 242 292 354 427
#     4  12  26  42  70 105 139 181 237 295 353 422
#     4  11  22  41  68  99 141 181 229 287 359 408
#     4  11  25  47  77 101 142 192 233 294 354 429
#
# _framework density 23.906305
#
# number of rings (size 3 to 8) (size 9 to 14) (size 15 to 20)
#    0.000    1.067    2.667    3.600    5.600    1.600 
#    0.000    0.000    0.000    0.000    0.000    0.000 
#    0.000    0.000    0.000    0.000    0.000    0.000 
#
# Total GULP energy -83751.525206 kJ/mol
# GULP energy per Si atom -5583.435014 kJ/mol
# Density = 2.385189 g / cm^3
# Si number density = 23.906305 Si / 1000 Ang^3
#
#
#
# Elastic Constant Matrix: (Units=GPa)
#
#
# Indices 1 2 3 4 5 6 
#
# 1 61.8733 -6.6620 24.9637 -11.3989 -0.0182 1.8751
# 2 -6.6620 45.9661 21.0519 -23.6156 -15.2981 5.8928
# 3 24.9637 21.0519 133.2904 -17.8584 -6.7464 -3.5460
# 4 -11.3989 -23.6156 -17.8584 48.0627 6.7300 -3.2193
# 5 -0.0182 -15.2981 -6.7464 6.7300 24.7235 -2.4303
# 6 1.8751 5.8928 -3.5460 -3.2193 -2.4303 23.5867
#
#
#
# Elastic Compliance Matrix: (Units=1/GPa)
#
#
# Indices 1 2 3 4 5 6 
#
# 1 0.020578 0.010326 -0.004409 0.007692 0.002759 -0.003544
# 2 0.010326 0.042360 -0.005449 0.018048 0.019052 -0.007797
# 3 -0.004409 -0.005449 0.009241 -0.000009 -0.000552 0.003043
# 4 0.007692 0.018048 -0.000009 0.031083 0.002650 -0.000606
# 5 0.002759 0.019052 -0.000552 0.002650 0.051425 0.000598
# 6 -0.003544 -0.007797 0.003043 -0.000606 0.000598 0.045063
#
#
# Mechanical properties :
#
#
# Convention : Reuss Voigt Hill
#
# Bulk Modulus (GPa) = 13.67703 35.53745 24.60724
# Shear Modulus (GPa) = 22.40280 32.72634 27.56457
#
# Velocity S-wave (km/s) = 3.06454 3.70394 3.39931
# Velocity P-wave (km/s) = 4.27264 5.76106 5.07174
#
# Compressibility (1/GPa) = 0.07311529
#
# Stress axis : x y z
#
# Youngs Moduli (GPa) = 48.59515 23.60702 108.21675
#
# Poissons Ratio (x) = -0.24378 0.47713
# Poissons Ratio (y) = -0.50182 0.58972
# Poissons Ratio (z) = 0.21426 0.12864
#
# Static dielectric constant tensor:
#      x y z
#    x 1.930130 -0.082070 -0.094520 
#    y -0.082070 2.132800 0.190130 
#    z -0.094520 0.190130 2.279950 
# 
# From -- ./inp_files/424860.got.cif
#   From: 2010.05.17/outbox.cif.g08.bks.cpg/sg2_213_cif.got.tgz:424860.got - 2010.06.03 11:33:40.
