data_PCOD9079830
_publ_section_title
;
Structure prediction by ZEFSAII (Michael W. Deem and Ramdas Pophale) SiO2 
 PCOD9079830
Probable space group: P -1
;
_chemical_formula_sum "Si O2"
_cell_formula_units_Z 16
_cell_length_a 11.686889
_cell_length_b 8.884267
_cell_length_c 8.915574
_cell_angle_alpha 55.124651
_cell_angle_beta 100.334774
_cell_angle_gamma 99.301743
_cell_volume 745.118044
_symmetry_space_group_name_H-M "P -1"
_symmetry_group_IT_number 2
_symmetry_cell_setting 'triclinic'
loop_
_space_group_symop_operation_xyz
x,y,z
-x,-y,-z
loop_
_atom_site_type_symbol
_atom_site_label
_atom_site_fract_x
_atom_site_fract_y
_atom_site_fract_z
Si Si1 0.149786 0.997240 0.148705
Si Si2 0.426073 0.922470 0.816277
Si Si3 0.044910 0.732742 0.042649
Si Si4 0.699657 0.144992 0.478690
Si Si5 0.460162 0.564666 0.612912
Si Si6 0.383648 0.504271 0.071760
Si Si7 0.648790 0.823025 0.085171
Si Si8 0.153580 0.574163 0.859868
O O1 0.119455 0.803318 0.164922
O O2 0.226911 0.975224 0.327086
O O3 0.222598 0.120791 0.972402
O O4 0.033952 0.096596 0.105144
O O5 0.383466 0.940257 0.625942
O O6 0.379754 0.075058 0.825490
O O7 0.375171 0.721119 0.976690
O O8 0.562236 0.903843 0.894148
O O9 0.955693 0.554668 0.151027
O O10 0.114507 0.679433 0.940603
O O11 0.617473 0.264884 0.492605
O O12 0.791107 0.284438 0.330146
O O13 0.500000 0.500000 0.500000
O O14 0.578729 0.602600 0.714176
O O15 0.386316 0.390483 0.770558
O O16 0.500000 0.500000 0.000000
O O17 0.259224 0.448412 0.003952
#
# Coordination Sequence:
#
# PCOD9079830 Si02
#       8
#     2   2   2   2   2   2   2   2
#     4  11  24  40  63  91 121 167 212 262 313 355
#     4   9  20  37  61  93 123 173 194 245 317 375
#     4  10  24  43  65  86 118 177 215 255 308 373
#     4  11  23  39  64  95 128 158 209 271 299 371
#     4  11  24  38  59  99 129 163 201 248 318 380
#     4  10  18  37  66  92 123 163 195 248 319 381
#     4  10  22  41  62  86 135 171 198 251 315 388
#     4  10  21  43  67  89 122 165 216 253 310 369
#
# _framework density 21.473109999999998
#
# number of rings (size 3 to 8) (size 9 to 14) (size 15 to 20)
#    0.000    1.750    2.500    2.250    8.750    1.500 
#    2.250    0.000    0.000    0.000    0.000    0.000 
#    0.000    0.000    0.000    0.000    0.000    0.000 
#
# Total GULP energy -89344.029791 kJ/mol
# GULP energy per Si atom -5584.001862 kJ/mol
# Density = 2.142424 g / cm^3
# Si number density = 21.473110 Si / 1000 Ang^3
#
#
#
# Elastic Constant Matrix: (Units=GPa)
#
#
# Indices 1 2 3 4 5 6 
#
# 1 97.5444 24.6921 23.2503 11.2858 -8.5564 -6.1703
# 2 24.6921 103.1247 10.0284 14.8945 2.1656 -3.1966
# 3 23.2503 10.0284 80.4098 13.9389 7.9969 -6.6108
# 4 11.2858 14.8945 13.9389 36.4526 2.6055 -1.6323
# 5 -8.5564 2.1656 7.9969 2.6055 30.3019 -4.5900
# 6 -6.1703 -3.1966 -6.6108 -1.6323 -4.5900 31.7096
#
#
#
# Elastic Compliance Matrix: (Units=1/GPa)
#
#
# Indices 1 2 3 4 5 6 
#
# 1 0.012445 -0.002430 -0.003299 -0.001864 0.005040 0.002123
# 2 -0.002430 0.010823 0.000117 -0.003621 -0.001135 0.000292
# 3 -0.003299 0.000117 0.014664 -0.004262 -0.004201 0.001599
# 4 -0.001864 -0.003621 -0.004262 0.031240 -0.001871 -0.000279
# 5 0.005040 -0.001135 -0.004201 -0.001871 0.036561 0.005186
# 6 0.002123 0.000292 0.001599 -0.000279 0.005186 0.033049
#
#
# Mechanical properties :
#
#
# Convention : Reuss Voigt Hill
#
# Bulk Modulus (GPa) = 37.44093 44.11339 40.77716
# Shear Modulus (GPa) = 31.46473 34.56669 33.01571
#
# Velocity S-wave (km/s) = 3.83209 4.01654 3.92540
# Velocity P-wave (km/s) = 6.08719 6.48832 6.29095
#
# Compressibility (1/GPa) = 0.02670874
#
# Stress axis : x y z
#
# Youngs Moduli (GPa) = 80.35192 92.39377 68.19573
#
# Poissons Ratio (x) = 0.22451 0.22499
# Poissons Ratio (y) = 0.19525 -0.00800
# Poissons Ratio (z) = 0.26509 -0.01084
#
# Static dielectric constant tensor:
#      x y z
#    x 1.792430 0.045830 0.012210 
#    y 0.045830 1.812720 -0.018680 
#    z 0.012210 -0.018680 1.701000 
# 
# From -- ./inp_files/237215.got.cif
#   From: 2010.05.17/outbox.cif.g08.bks.cpg/sg2_119_cif.got.tgz:237215.got - 2010.06.03 11:33:40.
