data_PCOD9079196
_publ_section_title
;
Structure prediction by ZEFSAII (Michael W. Deem and Ramdas Pophale) SiO2 
 PCOD9079196
Probable space group: P -1
;
_chemical_formula_sum "Si O2"
_cell_formula_units_Z 15
_cell_length_a 10.642138
_cell_length_b 14.702693
_cell_length_c 9.104350
_cell_angle_alpha 65.421976
_cell_angle_beta 106.412050
_cell_angle_gamma 50.788486
_cell_volume 635.358971
_symmetry_space_group_name_H-M "P -1"
_symmetry_group_IT_number 2
_symmetry_cell_setting 'triclinic'
loop_
_space_group_symop_operation_xyz
x,y,z
-x,-y,-z
loop_
_atom_site_type_symbol
_atom_site_label
_atom_site_fract_x
_atom_site_fract_y
_atom_site_fract_z
Si Si1 0.000000 0.500000 0.500000
Si Si2 0.622185 0.268063 0.696582
Si Si3 0.899699 0.139190 0.153096
Si Si4 0.650781 0.159488 0.284942
Si Si5 0.452911 0.584357 0.741170
Si Si6 0.865751 0.365801 0.505671
Si Si7 0.320952 0.210944 0.990511
Si Si8 0.608474 0.049548 0.894585
O O1 0.919590 0.444386 0.427789
O O2 0.978288 0.576402 0.275976
O O3 0.620942 0.317457 0.504423
O O4 0.372553 0.471466 0.567924
O O5 0.607948 0.157816 0.752730
O O6 0.857121 0.144207 0.964663
O O7 0.801106 0.103651 0.229268
O O8 0.714706 0.353298 0.975279
O O9 0.160971 0.994106 0.417784
O O10 0.527753 0.340933 0.185690
O O11 0.469051 0.189339 0.155951
O O12 0.233981 0.643430 0.647703
O O13 0.125683 0.147306 0.801719
O O14 0.415184 0.035354 0.152966
O O15 0.379567 0.202609 0.839564
#
# Coordination Sequence:
#
# PCOD9079196 Si02
#       8
#     1   2   2   2   2   2   2   2
#     4  10  18  36  64  84 118 148 200 260 288 338
#     4  11  21  41  60  90 125 159 210 244 289 374
#     4  10  21  37  59  88 122 161 200 249 298 362
#     4  11  22  39  58  90 129 154 197 258 308 355
#     4  11  24  38  61  90 128 167 194 243 313 363
#     4  10  20  34  59  90 116 153 200 250 291 350
#     4  10  20  38  59  92 120 150 205 257 300 357
#     4  10  20  36  61  89 112 157 204 250 300 345
#
# _framework density 23.608701
#
# number of rings (size 3 to 8) (size 9 to 14) (size 15 to 20)
#    0.000    1.600    2.667    3.600    1.867    3.200 
#    4.800    0.667    0.000    4.000    0.000    0.000 
#    0.000    0.000    0.000    0.000    0.000    0.000 
#
# Total GULP energy -83675.856795 kJ/mol
# GULP energy per Si atom -5578.390453 kJ/mol
# Density = 2.355497 g / cm^3
# Si number density = 23.608701 Si / 1000 Ang^3
#
#
#
# Elastic Constant Matrix: (Units=GPa)
#
#
# Indices 1 2 3 4 5 6 
#
# 1 82.5637 48.8102 39.6721 4.6910 4.8746 42.4710
# 2 48.8102 130.0311 51.6501 8.7982 13.8126 51.9499
# 3 39.6721 51.6501 148.2830 4.8779 4.7518 20.2998
# 4 4.6910 8.7982 4.8779 37.2328 10.3299 -0.1264
# 5 4.8746 13.8126 4.7518 10.3299 41.0257 7.1116
# 6 42.4710 51.9499 20.2998 -0.1264 7.1116 61.2242
#
#
#
# Elastic Compliance Matrix: (Units=1/GPa)
#
#
# Indices 1 2 3 4 5 6 
#
# 1 0.021039 -0.001664 -0.003342 -0.002169 0.001110 -0.012208
# 2 -0.001664 0.013414 -0.002857 -0.002092 -0.001889 -0.009066
# 3 -0.003342 -0.002857 0.008363 -0.000007 0.000052 0.001964
# 4 -0.002169 -0.002092 -0.000007 0.029646 -0.007227 0.004183
# 5 0.001110 -0.001889 0.000052 -0.007227 0.027100 -0.002347
# 6 -0.012208 -0.009066 0.001964 0.004183 -0.002347 0.032125
#
#
# Mechanical properties :
#
#
# Convention : Reuss Voigt Hill
#
# Bulk Modulus (GPa) = 36.91332 71.23806 54.07569
# Shear Modulus (GPa) = 31.96084 42.61289 37.28686
#
# Velocity S-wave (km/s) = 3.68336 4.25310 3.97844
# Velocity P-wave (km/s) = 5.81024 7.37282 6.63767
#
# Compressibility (1/GPa) = 0.02709049
#
# Stress axis : x y z
#
# Youngs Moduli (GPa) = 47.53065 74.55001 119.57566
#
# Poissons Ratio (x) = 0.12402 0.39966
# Poissons Ratio (y) = 0.07907 0.34160
# Poissons Ratio (z) = 0.15886 0.21298
#
# Static dielectric constant tensor:
#      x y z
#    x 1.800250 0.139110 -0.205600 
#    y 0.139110 1.657260 0.412370 
#    z -0.205600 0.412370 1.382290 
# 
# From -- ./inp_files/272690.got.cif
#   From: 2010.05.17/outbox.cif.g08.bks.cpg/sg2_137_cif.got.tgz:272690.got - 2010.06.03 11:33:40.
