data_PCOD9079304
_publ_section_title
;
Structure prediction by ZEFSAII (Michael W. Deem and Ramdas Pophale) SiO2 
 PCOD9079304
Probable space group: P -1
;
_chemical_formula_sum "Si O2"
_cell_formula_units_Z 16
_cell_length_a 10.136621
_cell_length_b 12.185683
_cell_length_c 11.607613
_cell_angle_alpha 123.419391
_cell_angle_beta 101.857915
_cell_angle_gamma 52.398257
_cell_volume 929.467901
_symmetry_space_group_name_H-M "P -1"
_symmetry_group_IT_number 2
_symmetry_cell_setting 'triclinic'
loop_
_space_group_symop_operation_xyz
x,y,z
-x,-y,-z
loop_
_atom_site_type_symbol
_atom_site_label
_atom_site_fract_x
_atom_site_fract_y
_atom_site_fract_z
Si Si1 0.742036 0.747549 0.100872
Si Si2 0.576062 0.073854 0.404758
Si Si3 0.668185 0.451188 0.156322
Si Si4 0.440206 0.744926 0.100521
Si Si5 0.944714 0.430922 0.547721
Si Si6 0.020607 0.555772 0.855707
Si Si7 0.418450 0.439933 0.531770
Si Si8 0.732492 0.934967 0.598082
O O1 0.582730 0.742898 0.054967
O O2 0.862737 0.604700 0.133858
O O3 0.669792 0.923728 0.244391
O O4 0.859011 0.699075 0.982836
O O5 0.536074 0.241349 0.448553
O O6 0.397077 0.108936 0.424362
O O7 0.683539 0.012386 0.506347
O O8 0.540641 0.615443 0.149905
O O9 0.617935 0.491794 0.304315
O O10 0.854944 0.402659 0.142199
O O11 0.646592 0.317039 0.025919
O O12 0.311153 0.925226 0.238128
O O13 0.958216 0.501951 0.709916
O O14 0.758200 0.495093 0.520734
O O15 0.000000 0.500000 0.500000
O O16 0.078756 0.232334 0.459239
O O17 0.500000 0.500000 0.500000
#
# Coordination Sequence:
#
# PCOD9079304 Si02
#       8
#     2   2   2   2   2   2   2   2
#     4   9  19  34  62  90 114 148 201 253 284 333
#     4  10  18  38  63  89 117 153 204 249 284 342
#     4  10  19  38  58  85 120 160 191 236 300 352
#     4   9  19  34  62  88 116 152 198 243 291 347
#     4  12  22  39  63  89 118 159 200 241 300 355
#     4  10  19  36  59  90 118 150 195 248 293 343
#     4  12  26  41  59  87 127 161 190 244 308 358
#     4  10  18  36  66  91 111 152 212 245 279 349
#
# _framework density 17.21415
#
# number of rings (size 3 to 8) (size 9 to 14) (size 15 to 20)
#    0.000    1.750    5.000    0.000    1.750    0.000 
#    2.250    3.125    0.000    0.000    0.000    0.000 
#    0.000    0.000    0.000    0.000    0.000    0.000 
#
# Total GULP energy -89299.219734 kJ/mol
# GULP energy per Si atom -5581.201233 kJ/mol
# Density = 1.717497 g / cm^3
# Si number density = 17.214150 Si / 1000 Ang^3
#
#
#
# Elastic Constant Matrix: (Units=GPa)
#
#
# Indices 1 2 3 4 5 6 
#
# 1 134.0065 56.9817 81.7059 2.8944 -2.9544 8.4086
# 2 56.9817 80.3761 45.6549 19.6047 0.9057 2.6395
# 3 81.7059 45.6549 128.4917 4.2220 0.1958 0.7957
# 4 2.8944 19.6047 4.2220 22.2183 -1.3458 5.5303
# 5 -2.9544 0.9057 0.1958 -1.3458 30.0772 -1.8343
# 6 8.4086 2.6395 0.7957 5.5303 -1.8343 25.2065
#
#
#
# Elastic Compliance Matrix: (Units=1/GPa)
#
#
# Indices 1 2 3 4 5 6 
#
# 1 0.016001 -0.009353 -0.007117 0.009131 0.001943 -0.005995
# 2 -0.009353 0.025873 -0.002533 -0.022586 -0.002370 0.005274
# 3 -0.007117 -0.002533 0.013193 0.000082 -0.000573 0.002163
# 4 0.009131 -0.022586 0.000082 0.067759 0.003676 -0.015282
# 5 0.001943 -0.002370 -0.000573 0.003676 0.033756 0.001268
# 6 -0.005995 0.005274 0.002163 -0.015282 0.001268 0.044497
#
#
# Mechanical properties :
#
#
# Convention : Reuss Voigt Hill
#
# Bulk Modulus (GPa) = 58.61171 79.06217 68.83694
# Shear Modulus (GPa) = 20.42724 26.06919 23.24821
#
# Velocity S-wave (km/s) = 3.44852 3.89576 3.67894
# Velocity P-wave (km/s) = 7.06957 8.14028 7.62375
#
# Compressibility (1/GPa) = 0.01706144
#
# Stress axis : x y z
#
# Youngs Moduli (GPa) = 62.49773 38.64973 75.79773
#
# Poissons Ratio (x) = 0.36149 0.53946
# Poissons Ratio (y) = 0.58453 0.19198
# Poissons Ratio (z) = 0.44481 0.09789
#
# Static dielectric constant tensor:
#      x y z
#    x 1.563440 0.002860 -0.005580 
#    y 0.002860 1.570580 -0.002550 
#    z -0.005580 -0.002550 1.574870 
# 
# From -- ./inp_files/190014.got.cif
#   From: 2010.05.17/outbox.cif.g08.bks.cpg/sg2_96_cif.got.tgz:190014.got - 2010.06.03 11:33:40.
