data_PCOD9079391
_publ_section_title
;
Structure prediction by ZEFSAII (Michael W. Deem and Ramdas Pophale) SiO2 
 PCOD9079391
Probable space group: P -1
;
_chemical_formula_sum "Si O2"
_cell_formula_units_Z 16
_cell_length_a 23.000614
_cell_length_b 7.593145
_cell_length_c 11.338606
_cell_angle_alpha 118.651020
_cell_angle_beta 33.167460
_cell_angle_gamma 94.769506
_cell_volume 711.901067
_symmetry_space_group_name_H-M "P -1"
_symmetry_group_IT_number 2
_symmetry_cell_setting 'triclinic'
loop_
_space_group_symop_operation_xyz
x,y,z
-x,-y,-z
loop_
_atom_site_type_symbol
_atom_site_label
_atom_site_fract_x
_atom_site_fract_y
_atom_site_fract_z
Si Si1 0.962928 0.828365 0.176595
Si Si2 0.283639 0.836717 0.459428
Si Si3 0.233349 0.559994 0.290016
Si Si4 0.255790 0.639324 0.664738
Si Si5 0.826711 0.748980 0.576930
Si Si6 0.558806 0.601739 0.294888
Si Si7 0.438224 0.828706 0.986786
Si Si8 0.273767 0.821739 0.929274
O O1 0.877074 0.909805 0.226321
O O2 0.877366 0.132572 0.469330
O O3 0.930562 0.690735 0.278157
O O4 0.125687 0.681824 0.843395
O O5 0.309453 0.585986 0.275286
O O6 0.297156 0.774858 0.553235
O O7 0.380434 0.866086 0.229439
O O8 0.151813 0.476494 0.456734
O O9 0.350440 0.363793 0.929494
O O10 0.396201 0.327602 0.341954
O O11 0.209157 0.790562 0.917238
O O12 0.674147 0.916585 0.822642
O O13 0.820957 0.936896 0.741689
O O14 0.564334 0.387097 0.141679
O O15 0.394537 0.825653 0.678189
O O16 0.641658 0.451405 0.226426
#
# Coordination Sequence:
#
# PCOD9079391 Si02
#       8
#     2   2   2   2   2   2   2   2
#     4   9  20  35  55  76 100 143 174 206 256 304
#     4   8  17  34  54  78  99 137 177 206 256 308
#     4   9  18  34  59  72 101 140 178 205 248 315
#     4  11  18  30  57  79 105 137 168 214 263 300
#     4  10  18  37  55  76 102 139 175 208 255 306
#     4   8  14  32  50  78  99 133 177 207 251 306
#     4   8  16  31  56  79  98 134 174 215 255 296
#     4   9  17  28  54  78 104 131 170 214 258 301
#
# _framework density 22.475033
#
# number of rings (size 3 to 8) (size 9 to 14) (size 15 to 20)
#    0.750    2.250    2.500    1.500    0.000    1.000 
#    0.000    1.875    8.250    0.000    0.000    0.000 
#    0.000    0.000    0.000    0.000    0.000    0.000 
#
# Total GULP energy -89193.317413 kJ/mol
# GULP energy per Si atom -5574.582338 kJ/mol
# Density = 2.242388 g / cm^3
# Si number density = 22.475033 Si / 1000 Ang^3
#
#
#
# Elastic Constant Matrix: (Units=GPa)
#
#
# Indices 1 2 3 4 5 6 
#
# 1 67.4137 13.1120 17.0083 -1.5081 8.9178 -20.1993
# 2 13.1120 85.9718 13.9715 -18.9014 4.3299 -2.8252
# 3 17.0083 13.9715 90.8987 -8.9475 0.1576 -10.7629
# 4 -1.5081 -18.9014 -8.9475 23.6513 -11.9789 4.4136
# 5 8.9178 4.3299 0.1576 -11.9789 27.9389 -5.0281
# 6 -20.1993 -2.8252 -10.7629 4.4136 -5.0281 23.1527
#
#
#
# Elastic Compliance Matrix: (Units=1/GPa)
#
#
# Indices 1 2 3 4 5 6 
#
# 1 0.022532 -0.004299 -0.002372 -0.010147 -0.007565 0.018322
# 2 -0.004299 0.015270 -0.000562 0.014809 0.004645 -0.003963
# 3 -0.002372 -0.000562 0.012457 0.005334 0.003679 0.003435
# 4 -0.010147 0.014809 0.005334 0.072926 0.030031 -0.011946
# 5 -0.007565 0.004645 0.003679 0.030031 0.050508 0.000921
# 6 0.018322 -0.003963 0.003435 -0.011946 0.000921 0.062767
#
#
# Mechanical properties :
#
#
# Convention : Reuss Voigt Hill
#
# Bulk Modulus (GPa) = 27.93773 36.94089 32.43931
# Shear Modulus (GPa) = 19.02179 28.29474 23.65827
#
# Velocity S-wave (km/s) = 2.91237 3.55200 3.24797
# Velocity P-wave (km/s) = 4.87511 5.77013 5.34140
#
# Compressibility (1/GPa) = 0.03579388
#
# Stress axis : x y z
#
# Youngs Moduli (GPa) = 44.38170 65.48632 80.27690
#
# Poissons Ratio (x) = 0.28151 0.19038
# Poissons Ratio (y) = 0.19078 0.04514
# Poissons Ratio (z) = 0.10525 0.03683
#
# Static dielectric constant tensor:
#      x y z
#    x 1.828430 0.028110 0.014900 
#    y 0.028110 1.850400 0.023280 
#    z 0.014900 0.023280 1.909700 
# 
# From -- ./inp_files/476242.got.cif
#   From: 2010.05.17/outbox.cif.g08.bks.cpg/sg2_239_cif.got.tgz:476242.got - 2010.06.03 11:33:40.
