data_PCOD9079107
_publ_section_title
;
Structure prediction by ZEFSAII (Michael W. Deem and Ramdas Pophale) SiO2 
 PCOD9079107
Probable space group: P -1
;
_chemical_formula_sum "Si O2"
_cell_formula_units_Z 15
_cell_length_a 7.984643
_cell_length_b 11.636358
_cell_length_c 10.660510
_cell_angle_alpha 113.815441
_cell_angle_beta 48.407713
_cell_angle_gamma 89.626981
_cell_volume 620.742595
_symmetry_space_group_name_H-M "P -1"
_symmetry_group_IT_number 2
_symmetry_cell_setting 'triclinic'
loop_
_space_group_symop_operation_xyz
x,y,z
-x,-y,-z
loop_
_atom_site_type_symbol
_atom_site_label
_atom_site_fract_x
_atom_site_fract_y
_atom_site_fract_z
Si Si1 0.800133 0.321247 0.237393
Si Si2 0.794190 0.662686 0.762350
Si Si3 0.535155 0.943582 0.122600
Si Si4 0.004937 0.894943 0.558213
Si Si5 0.698601 0.602602 0.327015
Si Si6 0.070964 0.609532 0.342150
Si Si7 0.539366 0.129308 0.591959
Si Si8 0.000000 0.000000 0.000000
O O1 0.766106 0.440206 0.204109
O O2 0.537622 0.350767 0.443161
O O3 0.974115 0.341880 0.269621
O O4 0.918803 0.163467 0.070609
O O5 0.882420 0.632523 0.562678
O O6 0.727494 0.540734 0.795522
O O7 0.594866 0.812553 0.947638
O O8 0.499964 0.884167 0.248677
O O9 0.279505 0.061349 0.259424
O O10 0.746562 0.997383 0.062028
O O11 0.173874 0.902680 0.592085
O O12 0.135597 0.739761 0.377388
O O13 0.000000 0.000000 0.500000
O O14 0.926429 0.612975 0.289753
O O15 0.618921 0.719276 0.312118
O O16 0.500000 0.000000 0.500000
#
# Coordination Sequence:
#
# PCOD9079107 Si02
#       8
#     2   2   2   2   2   2   2   1
#     4   9  18  33  57  87 119 153 199 246 295 359
#     4   9  20  37  58  84 117 155 197 249 302 354
#     4  10  22  40  62  91 121 157 206 253 299 360
#     4  10  21  38  61  88 117 157 206 248 298 365
#     4  10  19  34  58  88 116 156 204 245 296 362
#     4  10  19  36  60  84 115 155 197 245 303 364
#     4  11  22  39  63  87 121 165 205 252 308 364
#     4  10  18  36  62  90 122 154 192 254 310 350
#
# _framework density 24.164607
#
# number of rings (size 3 to 8) (size 9 to 14) (size 15 to 20)
#    0.000    2.133    0.000    4.000    0.000    2.667 
#    0.000   12.667    0.000    0.000    0.000    0.000 
#    0.000    0.000    0.000    0.000    0.000    0.000 
#
# Total GULP energy -83564.059280 kJ/mol
# GULP energy per Si atom -5570.937285 kJ/mol
# Density = 2.410961 g / cm^3
# Si number density = 24.164607 Si / 1000 Ang^3
#
#
#
# Elastic Constant Matrix: (Units=GPa)
#
#
# Indices 1 2 3 4 5 6 
#
# 1 87.6873 55.4925 15.9590 20.3956 -18.4293 7.2954
# 2 55.4925 204.6875 44.6545 52.2255 9.8304 -7.1246
# 3 15.9590 44.6545 51.6331 21.4225 0.7916 0.0943
# 4 20.3956 52.2255 21.4225 41.8518 1.3720 8.7051
# 5 -18.4293 9.8304 0.7916 1.3720 21.0766 -4.1647
# 6 7.2954 -7.1246 0.0943 8.7051 -4.1647 46.3697
#
#
#
# Elastic Compliance Matrix: (Units=1/GPa)
#
#
# Indices 1 2 3 4 5 6 
#
# 1 0.020067 -0.005647 -0.000461 -0.002801 0.020045 -0.001698
# 2 -0.005647 0.009671 -0.003138 -0.008100 -0.008177 0.003167
# 3 -0.000461 -0.003138 0.026186 -0.009592 0.000983 0.001426
# 4 -0.002801 -0.008100 -0.009592 0.042235 -0.002832 -0.008968
# 5 0.020045 -0.008177 0.000983 -0.002832 0.069399 0.002353
# 6 -0.001698 0.003167 0.001426 -0.008968 0.002353 0.024211
#
#
# Mechanical properties :
#
#
# Convention : Reuss Voigt Hill
#
# Bulk Modulus (GPa) = 26.71505 64.02442 45.36974
# Shear Modulus (GPa) = 22.44788 37.05309 29.75049
#
# Velocity S-wave (km/s) = 3.05119 3.92006 3.51260
# Velocity P-wave (km/s) = 4.84690 6.85871 5.93861
#
# Compressibility (1/GPa) = 0.03743208
#
# Stress axis : x y z
#
# Youngs Moduli (GPa) = 49.83258 103.40446 38.18869
#
# Poissons Ratio (x) = 0.58393 0.01760
# Poissons Ratio (y) = 0.28141 0.11983
# Poissons Ratio (z) = 0.02297 0.32447
#
# Static dielectric constant tensor:
#      x y z
#    x 1.966310 0.010780 0.005590 
#    y 0.010780 1.942850 -0.042650 
#    z 0.005590 -0.042650 2.034360 
# 
# From -- ./inp_files/392786.got.cif
#   From: 2010.05.17/outbox.cif.g08.bks.cpg/sg2_197_cif.got.tgz:392786.got - 2010.06.03 11:33:40.
