data_PCOD9079305
_publ_section_title
;
Structure prediction by ZEFSAII (Michael W. Deem and Ramdas Pophale) SiO2 
 PCOD9079305
Probable space group: P -1
;
_chemical_formula_sum "Si O2"
_cell_formula_units_Z 16
_cell_length_a 13.853427
_cell_length_b 10.725082
_cell_length_c 14.163565
_cell_angle_alpha 147.823295
_cell_angle_beta 53.133564
_cell_angle_gamma 107.070709
_cell_volume 774.954417
_symmetry_space_group_name_H-M "P -1"
_symmetry_group_IT_number 2
_symmetry_cell_setting 'triclinic'
loop_
_space_group_symop_operation_xyz
x,y,z
-x,-y,-z
loop_
_atom_site_type_symbol
_atom_site_label
_atom_site_fract_x
_atom_site_fract_y
_atom_site_fract_z
Si Si1 0.972964 0.916229 0.744266
Si Si2 0.400268 0.778479 0.487211
Si Si3 0.126858 0.882961 0.277550
Si Si4 0.701272 0.086022 0.649315
Si Si5 0.389053 0.418933 0.098912
Si Si6 0.901829 0.927568 0.074863
Si Si7 0.164704 0.306950 0.193372
Si Si8 0.308950 0.281542 0.721836
O O1 0.853297 0.907343 0.870993
O O2 0.092463 0.599758 0.472778
O O3 0.923596 0.999725 0.721231
O O4 0.035183 0.085734 0.867005
O O5 0.416997 0.543277 0.255668
O O6 0.554111 0.705952 0.384901
O O7 0.265322 0.858416 0.683330
O O8 0.353717 0.045341 0.621474
O O9 0.236849 0.947930 0.305324
O O10 0.203444 0.561257 0.011980
O O11 0.000000 0.000000 0.500000
O O12 0.717143 0.317164 0.731900
O O13 0.755086 0.810705 0.384163
O O14 0.533639 0.233029 0.842495
O O15 0.320547 0.237908 0.042335
O O16 0.906674 0.678387 0.856462
O O17 0.000000 0.000000 0.000000
#
# Coordination Sequence:
#
# PCOD9079305 Si02
#       8
#     2   2   2   2   2   2   2   2
#     4  10  23  40  56  88 122 160 204 245 297 369
#     4  10  19  37  65  91 118 149 208 257 297 354
#     4  12  26  40  57  88 132 164 195 247 311 370
#     4  10  22  38  60  92 119 160 204 245 309 363
#     4  10  18  36  66  91 118 150 208 263 295 350
#     4  10  21  36  62  92 119 154 203 254 299 349
#     4  10  20  38  65  86 114 157 207 254 298 346
#     4  10  23  39  60  90 120 161 199 252 304 357
#
# _framework density 20.646374999999999
#
# number of rings (size 3 to 8) (size 9 to 14) (size 15 to 20)
#    0.000    1.750    2.500    1.500    7.000    1.500 
#    0.000    0.625    0.000    3.750    0.000    0.000 
#    0.000    0.000    0.000    0.000    0.000    0.000 
#
# Total GULP energy -89228.658164 kJ/mol
# GULP energy per Si atom -5576.791135 kJ/mol
# Density = 2.059938 g / cm^3
# Si number density = 20.646375 Si / 1000 Ang^3
#
#
#
# Elastic Constant Matrix: (Units=GPa)
#
#
# Indices 1 2 3 4 5 6 
#
# 1 99.8103 41.3391 34.8982 1.0107 23.6844 -5.7540
# 2 41.3391 61.1376 20.4352 -20.7800 0.9088 13.7363
# 3 34.8982 20.4352 92.9886 -11.6621 18.6679 14.3229
# 4 1.0107 -20.7800 -11.6621 23.6619 6.9502 -0.6354
# 5 23.6844 0.9088 18.6679 6.9502 33.7650 -9.2952
# 6 -5.7540 13.7363 14.3229 -0.6354 -9.2952 31.8351
#
#
#
# Elastic Compliance Matrix: (Units=1/GPa)
#
#
# Indices 1 2 3 4 5 6 
#
# 1 0.031000 -0.035963 -0.013193 -0.039274 0.001995 0.026855
# 2 -0.035963 0.072069 0.018083 0.077140 -0.016045 -0.048878
# 3 -0.013193 0.018083 0.023209 0.032393 -0.017652 -0.025137
# 4 -0.039274 0.077140 0.032393 0.137142 -0.038105 -0.063346
# 5 0.001995 -0.016045 -0.017652 -0.038105 0.054625 0.030414
# 6 0.026855 -0.048878 -0.025137 -0.063346 0.030414 0.076281
#
#
# Mechanical properties :
#
#
# Convention : Reuss Voigt Hill
#
# Bulk Modulus (GPa) = 15.59296 49.69794 32.64545
# Shear Modulus (GPa) = 10.46356 28.33667 19.40012
#
# Velocity S-wave (km/s) = 2.25366 3.70871 3.06868
# Velocity P-wave (km/s) = 3.78692 6.51634 5.32933
#
# Compressibility (1/GPa) = 0.06413150
#
# Stress axis : x y z
#
# Youngs Moduli (GPa) = 32.25851 13.87561 43.08593
#
# Poissons Ratio (x) = 0.49901 0.56843
# Poissons Ratio (y) = 1.16012 -0.77913
# Poissons Ratio (z) = 0.42559 -0.25091
#
# Static dielectric constant tensor:
#      x y z
#    x 1.778080 0.017940 -0.000700 
#    y 0.017940 1.788390 -0.046360 
#    z -0.000700 -0.046360 1.767270 
# 
# From -- ./inp_files/455893.got.cif
#   From: 2010.05.17/outbox.cif.g08.bks.cpg/sg2_228_cif.got.tgz:455893.got - 2010.06.03 11:33:40.
