data_PCOD9079085
_publ_section_title
;
Structure prediction by ZEFSAII (Michael W. Deem and Ramdas Pophale) SiO2 
 PCOD9079085
Probable space group: P -1
;
_chemical_formula_sum "Si O2"
_cell_formula_units_Z 16
_cell_length_a 16.061121
_cell_length_b 13.776422
_cell_length_c 11.575184
_cell_angle_alpha 137.872958
_cell_angle_beta 27.350301
_cell_angle_gamma 138.583428
_cell_volume 753.962613
_symmetry_space_group_name_H-M "P -1"
_symmetry_group_IT_number 2
_symmetry_cell_setting 'triclinic'
loop_
_space_group_symop_operation_xyz
x,y,z
-x,-y,-z
loop_
_atom_site_type_symbol
_atom_site_label
_atom_site_fract_x
_atom_site_fract_y
_atom_site_fract_z
Si Si1 0.733772 0.820048 0.204340
Si Si2 0.131634 0.815745 0.634372
Si Si3 0.314800 0.027291 0.195750
Si Si4 0.982181 0.226705 0.517265
Si Si5 0.981783 0.464002 0.125986
Si Si6 0.787039 0.988419 0.959013
Si Si7 0.798015 0.760963 0.320798
Si Si8 0.653863 0.223606 0.450861
O O1 0.685225 0.778722 0.361298
O O2 0.552150 0.759009 0.294976
O O3 0.800617 0.002294 0.277214
O O4 0.913978 0.764899 0.901206
O O5 0.255581 0.749584 0.510065
O O6 0.131114 0.779561 0.468158
O O7 0.295473 0.187365 0.406955
O O8 0.293649 0.016903 0.075390
O O9 0.140626 0.895253 0.347880
O O10 0.500000 0.000000 0.000000
O O11 0.018781 0.388305 0.672144
O O12 0.164457 0.167593 0.213834
O O13 0.793626 0.335160 0.285697
O O14 0.000000 0.500000 0.000000
O O15 0.157472 0.397363 0.874689
O O16 0.993918 0.113000 0.831107
O O17 0.654542 0.054220 0.261489
#
# Coordination Sequence:
#
# PCOD9079085 Si02
#       8
#     2   2   2   2   2   2   2   2
#     4  11  20  40  66  98 125 160 216 264 316 372
#     4  11  21  40  65  95 131 159 211 267 319 367
#     4  11  21  36  60  95 123 156 214 272 312 368
#     4  11  22  39  62  90 124 170 206 259 319 372
#     4  11  23  43  64  90 126 177 210 249 324 381
#     4  10  18  36  62  87 120 163 207 262 314 363
#     4  10  19  39  61  88 124 163 208 254 319 371
#     4  11  23  40  68  95 125 172 209 258 318 381
#
# _framework density 21.221212000000001
#
# number of rings (size 3 to 8) (size 9 to 14) (size 15 to 20)
#    0.000    1.250    5.000    5.625    0.000    0.500 
#    0.000    4.375    0.000    0.000    0.000    0.000 
#    0.000    0.000    0.000    0.000    0.000    0.000 
#
# Total GULP energy -89392.707519 kJ/mol
# GULP energy per Si atom -5587.044220 kJ/mol
# Density = 2.117291 g / cm^3
# Si number density = 21.221212 Si / 1000 Ang^3
#
#
#
# Elastic Constant Matrix: (Units=GPa)
#
#
# Indices 1 2 3 4 5 6 
#
# 1 181.3230 26.4221 27.5473 -3.4737 -4.7835 4.4510
# 2 26.4221 55.6071 32.7794 18.3809 -3.7596 -2.7551
# 3 27.5473 32.7794 64.0714 14.5122 -12.3769 11.7547
# 4 -3.4737 18.3809 14.5122 25.2197 2.7544 0.3598
# 5 -4.7835 -3.7596 -12.3769 2.7544 40.0608 -5.2845
# 6 4.4510 -2.7551 11.7547 0.3598 -5.2845 22.9589
#
#
#
# Elastic Compliance Matrix: (Units=1/GPa)
#
#
# Indices 1 2 3 4 5 6 
#
# 1 0.006422 -0.003508 -0.001981 0.004660 -0.000609 -0.000865
# 2 -0.003508 0.034696 -0.014269 -0.017888 0.001339 0.012738
# 3 -0.001981 -0.014269 0.029256 -0.007152 0.006001 -0.014814
# 4 0.004660 -0.017888 -0.007152 0.058307 -0.007612 -0.002054
# 5 -0.000609 0.001339 0.006001 -0.007612 0.027886 0.003744
# 6 -0.000865 0.012738 -0.014814 -0.002054 0.003744 0.053731
#
#
# Mechanical properties :
#
#
# Convention : Reuss Voigt Hill
#
# Bulk Modulus (GPa) = 32.40612 52.72212 42.56412
# Shear Modulus (GPa) = 19.22341 31.93138 25.57740
#
# Velocity S-wave (km/s) = 3.01301 3.88324 3.47547
# Velocity P-wave (km/s) = 5.23528 6.70851 6.01715
#
# Compressibility (1/GPa) = 0.03085837
#
# Stress axis : x y z
#
# Youngs Moduli (GPa) = 155.72593 28.82169 34.18079
#
# Poissons Ratio (x) = 0.10111 0.06770
# Poissons Ratio (y) = 0.54630 0.48773
# Poissons Ratio (z) = 0.30842 0.41126
#
# Static dielectric constant tensor:
#      x y z
#    x 1.771820 -0.022590 0.000490 
#    y -0.022590 1.779460 -0.025930 
#    z 0.000490 -0.025930 1.822060 
# 
# From -- ./inp_files/455039.got.cif
#   From: 2010.05.17/outbox.cif.g08.bks.cpg/sg2_228_cif.got.tgz:455039.got - 2010.06.03 11:33:40.
