data_PCOD9079381
_publ_section_title
;
Structure prediction by ZEFSAII (Michael W. Deem and Ramdas Pophale) SiO2 
 PCOD9079381
Probable space group: P -1
;
_chemical_formula_sum "Si O2"
_cell_formula_units_Z 12
_cell_length_a 7.789215
_cell_length_b 12.205733
_cell_length_c 5.578702
_cell_angle_alpha 66.212292
_cell_angle_beta 116.591136
_cell_angle_gamma 106.041549
_cell_volume 431.006236
_symmetry_space_group_name_H-M "P -1"
_symmetry_group_IT_number 2
_symmetry_cell_setting 'triclinic'
loop_
_space_group_symop_operation_xyz
x,y,z
-x,-y,-z
loop_
_atom_site_type_symbol
_atom_site_label
_atom_site_fract_x
_atom_site_fract_y
_atom_site_fract_z
Si Si1 0.331141 0.117395 0.831083
Si Si2 0.137831 0.861915 0.130239
Si Si3 0.334093 0.704429 0.048544
Si Si4 0.732416 0.627788 0.502859
Si Si5 0.732397 0.506996 0.114390
Si Si6 0.174772 0.022743 0.399182
O O1 0.519200 0.178044 0.030068
O O2 0.205739 0.230153 0.627271
O O3 0.357923 0.088969 0.589172
O O4 0.260978 0.985241 0.997861
O O5 0.196823 0.748611 0.127336
O O6 0.183384 0.892677 0.405694
O O7 0.916378 0.884544 0.917568
O O8 0.495414 0.627371 0.339728
O O9 0.234348 0.626117 0.840225
O O10 0.788088 0.586629 0.838865
O O11 0.801366 0.556849 0.375383
O O12 0.500000 0.500000 0.000000
O O13 0.000000 0.000000 0.500000
#
# Coordination Sequence:
#
# PCOD9079381 Si02
#       6
#     2   2   2   2   2   2
#     4   9  20  32  55  84 108 143 182 232 281 336
#     4  10  19  37  53  79 112 145 183 229 288 330
#     4   9  19  32  56  86 110 139 184 235 275 331
#     4   9  21  34  57  84 118 146 185 226 284 336
#     4  10  18  37  52  84 117 152 181 223 286 335
#     4   9  20  37  51  73 109 153 186 219 282 346
#
# _framework density 27.841823000000002
#
# number of rings (size 3 to 8) (size 9 to 14) (size 15 to 20)
#    1.000    1.667    0.000    2.500    2.333    0.667 
#   18.000    0.000    0.000    2.000    0.000    0.000 
#    0.000    0.000    0.000    0.000    0.000    0.000 
#
# Total GULP energy -66885.053510 kJ/mol
# GULP energy per Si atom -5573.754459 kJ/mol
# Density = 2.777845 g / cm^3
# Si number density = 27.841823 Si / 1000 Ang^3
#
#
#
# Elastic Constant Matrix: (Units=GPa)
#
#
# Indices 1 2 3 4 5 6 
#
# 1 55.7906 49.2334 45.4563 6.7053 -2.2309 -4.8910
# 2 49.2334 224.7588 72.4116 43.7108 -12.3949 -36.6495
# 3 45.4563 72.4116 131.9243 24.8194 -16.7544 5.6545
# 4 6.7053 43.7108 24.8194 53.8107 -4.0211 -14.4172
# 5 -2.2309 -12.3949 -16.7544 -4.0211 43.4802 4.8754
# 6 -4.8910 -36.6495 5.6545 -14.4172 4.8754 52.2005
#
#
#
# Elastic Compliance Matrix: (Units=1/GPa)
#
#
# Indices 1 2 3 4 5 6 
#
# 1 0.028129 -0.003931 -0.008777 0.004117 -0.002929 0.002237
# 2 -0.003931 0.007347 -0.002185 -0.003358 0.000284 0.004073
# 3 -0.008777 -0.002185 0.013421 -0.004459 0.004296 -0.005443
# 4 0.004117 -0.003358 -0.004459 0.024207 -0.000817 0.005273
# 5 -0.002929 0.000284 0.004296 -0.000817 0.024856 -0.003088
# 6 0.002237 0.004073 -0.005443 0.005273 -0.003088 0.024560
#
#
# Mechanical properties :
#
#
# Convention : Reuss Voigt Hill
#
# Bulk Modulus (GPa) = 52.32547 82.96405 67.64476
# Shear Modulus (GPa) = 31.51072 46.25645 38.88358
#
# Velocity S-wave (km/s) = 3.36784 4.08045 3.74115
# Velocity P-wave (km/s) = 5.82733 7.21548 6.55824
#
# Compressibility (1/GPa) = 0.01911115
#
# Stress axis : x y z
#
# Youngs Moduli (GPa) = 35.55108 136.10746 74.50827
#
# Poissons Ratio (x) = 0.53510 0.65393
# Poissons Ratio (y) = 0.13977 0.16279
# Poissons Ratio (z) = 0.31202 0.29738
#
# Static dielectric constant tensor:
#      x y z
#    x 2.377280 -0.010020 -0.063320 
#    y -0.010020 2.208750 0.084010 
#    z -0.063320 0.084010 2.617010 
# 
# From -- ./inp_files/64387.got.cif
#   From: 2010.05.17/outbox.cif.g08.bks.cpg/sg2_33_cif.got.tgz:64387.got - 2010.06.03 11:33:40.
