data_PCOD9079948
_publ_section_title
;
Structure prediction by ZEFSAII (Michael W. Deem and Ramdas Pophale) SiO2 
 PCOD9079948
Probable space group: P -1
;
_chemical_formula_sum "Si O2"
_cell_formula_units_Z 14
_cell_length_a 10.490342
_cell_length_b 10.796525
_cell_length_c 7.214937
_cell_angle_alpha 59.753414
_cell_angle_beta 108.274252
_cell_angle_gamma 135.697963
_cell_volume 491.545859
_symmetry_space_group_name_H-M "P -1"
_symmetry_group_IT_number 2
_symmetry_cell_setting 'triclinic'
loop_
_space_group_symop_operation_xyz
x,y,z
-x,-y,-z
loop_
_atom_site_type_symbol
_atom_site_label
_atom_site_fract_x
_atom_site_fract_y
_atom_site_fract_z
Si Si1 0.319918 0.841058 0.303283
Si Si2 0.087491 0.911209 0.055485
Si Si3 0.501629 0.684378 0.602862
Si Si4 0.846400 0.589102 0.874414
Si Si5 0.429968 0.337591 0.780698
Si Si6 0.299236 0.802684 0.880205
Si Si7 0.112997 0.941409 0.526770
O O1 0.368776 0.725647 0.507996
O O2 0.507767 0.067192 0.232447
O O3 0.311446 0.800282 0.109858
O O4 0.146557 0.818674 0.284997
O O5 0.283575 0.111130 0.930223
O O6 0.960045 0.756021 0.954234
O O7 0.000000 0.000000 0.000000
O O8 0.383519 0.456579 0.765822
O O9 0.556612 0.673593 0.426743
O O10 0.707053 0.859142 0.650802
O O11 0.631765 0.459088 0.858695
O O12 0.932599 0.702470 0.629611
O O13 0.841823 0.421860 0.067988
O O14 0.235467 0.914434 0.714327
O O15 0.000000 0.000000 0.500000
#
# Coordination Sequence:
#
# PCOD9079948 Si02
#       7
#     2   2   2   2   2   2   2
#     4  10  18  38  58  86 120 154 194 243 304 351
#     4  12  26  42  60  82 118 166 213 246 280 351
#     4  10  20  35  63  90 128 150 176 256 321 349
#     4  12  21  37  61  88 120 155 197 248 295 359
#     4  11  21  39  59  93 122 150 194 248 308 354
#     4  10  19  34  61  88 124 151 187 252 307 354
#     4  11  20  31  54  98 126 147 183 233 312 373
#
# _framework density 28.481574999999999
#
# number of rings (size 3 to 8) (size 9 to 14) (size 15 to 20)
#    0.000    1.143    7.143    1.286    0.000    0.571 
#    0.000    0.714    0.000    0.857    0.000    0.000 
#    0.000    0.000    0.000    0.000    0.000    0.000 
#
# Total GULP energy -78012.306494 kJ/mol
# GULP energy per Si atom -5572.307607 kJ/mol
# Density = 2.841675 g / cm^3
# Si number density = 28.481575 Si / 1000 Ang^3
#
#
#
# Elastic Constant Matrix: (Units=GPa)
#
#
# Indices 1 2 3 4 5 6 
#
# 1 130.7160 46.4401 42.5444 9.0701 39.2317 16.3964
# 2 46.4401 194.3170 50.0117 -26.8641 0.8970 -3.6010
# 3 42.5444 50.0117 85.0019 -23.8014 26.3305 -13.7222
# 4 9.0701 -26.8641 -23.8014 56.6965 -4.1652 9.6229
# 5 39.2317 0.8970 26.3305 -4.1652 57.8908 3.9304
# 6 16.3964 -3.6010 -13.7222 9.6229 3.9304 45.2483
#
#
#
# Elastic Compliance Matrix: (Units=1/GPa)
#
#
# Indices 1 2 3 4 5 6 
#
# 1 0.013258 -0.002574 -0.005356 -0.005230 -0.006548 -0.004952
# 2 -0.002574 0.006904 -0.003079 0.002681 0.003252 -0.000304
# 3 -0.005356 -0.003079 0.021108 0.006599 -0.005938 0.007209
# 4 -0.005230 0.002681 0.006599 0.022837 0.002208 -0.000939
# 5 -0.006548 0.003252 -0.005938 0.002208 0.024642 -0.001779
# 6 -0.004952 -0.000304 0.007209 -0.000939 -0.001779 0.026411
#
#
# Mechanical properties :
#
#
# Convention : Reuss Voigt Hill
#
# Bulk Modulus (GPa) = 51.94865 76.44748 64.19807
# Shear Modulus (GPa) = 34.82010 50.03636 42.42823
#
# Velocity S-wave (km/s) = 3.50029 4.19596 3.86382
# Velocity P-wave (km/s) = 5.88345 7.09747 6.51879
#
# Compressibility (1/GPa) = 0.01924978
#
# Stress axis : x y z
#
# Youngs Moduli (GPa) = 75.42839 144.84394 47.37554
#
# Poissons Ratio (x) = 0.37290 0.25376
# Poissons Ratio (y) = 0.19419 0.14588
# Poissons Ratio (z) = 0.40402 0.44599
#
# Static dielectric constant tensor:
#      x y z
#    x 2.495150 -0.055850 -0.057580 
#    y -0.055850 2.661920 0.176190 
#    z -0.057580 0.176190 2.450860 
# 
# From -- ./inp_files/425302.got.cif
#   From: 2010.05.17/outbox.cif.g08.bks.cpg/sg2_213_cif.got.tgz:425302.got - 2010.06.03 11:33:40.
