data_PCOD9079126
_publ_section_title
;
Structure prediction by ZEFSAII (Michael W. Deem and Ramdas Pophale) SiO2 
 PCOD9079126
Probable space group: P -1
;
_chemical_formula_sum "Si O2"
_cell_formula_units_Z 14
_cell_length_a 9.597052
_cell_length_b 14.237051
_cell_length_c 7.671189
_cell_angle_alpha 41.239833
_cell_angle_beta 67.487604
_cell_angle_gamma 68.313215
_cell_volume 632.537247
_symmetry_space_group_name_H-M "P -1"
_symmetry_group_IT_number 2
_symmetry_cell_setting 'triclinic'
loop_
_space_group_symop_operation_xyz
x,y,z
-x,-y,-z
loop_
_atom_site_type_symbol
_atom_site_label
_atom_site_fract_x
_atom_site_fract_y
_atom_site_fract_z
Si Si1 0.705696 0.051767 0.471364
Si Si2 0.955946 0.350485 0.162234
Si Si3 0.920637 0.153576 0.753715
Si Si4 0.110481 0.697743 0.093768
Si Si5 0.319257 0.006972 0.049603
Si Si6 0.677725 0.498367 0.937078
Si Si7 0.352257 0.176695 0.472757
O O1 0.816230 0.159905 0.197177
O O2 0.749827 0.989145 0.729180
O O3 0.536747 0.143192 0.441209
O O4 0.690914 0.927645 0.512350
O O5 0.988912 0.215857 0.460816
O O6 0.007999 0.322018 0.976735
O O7 0.770399 0.384111 0.183024
O O8 0.000000 0.500000 0.000000
O O9 0.748323 0.124074 0.832095
O O10 0.932842 0.271964 0.730421
O O11 0.000000 0.000000 0.000000
O O12 0.235917 0.557310 0.204517
O O13 0.500000 0.000000 0.000000
O O14 0.285271 0.135314 0.748417
O O15 0.699761 0.656842 0.764836
O O16 0.500000 0.500000 0.000000
#
# Coordination Sequence:
#
# PCOD9079126 Si02
#       7
#     2   2   2   2   2   2   2
#     4  10  18  36  62  95 128 164 211 266 320 379
#     4  10  25  46  66  94 136 173 220 272 323 403
#     4  12  26  45  68  95 130 176 224 273 326 385
#     4  10  22  43  68  90 132 167 218 267 328 388
#     4  10  21  37  65  97 129 158 217 276 314 378
#     4  10  21  42  68  93 136 173 209 264 342 391
#     4  10  19  34  62  96 130 166 208 266 325 384
#
# _framework density 22.133084
#
# number of rings (size 3 to 8) (size 9 to 14) (size 15 to 20)
#    0.857    0.857    4.286    0.000    4.000    1.143 
#    5.143    0.714    0.000    0.000    0.000    0.000 
#    0.000    0.000    0.000    0.000    0.000    0.000 
#
# Total GULP energy -78075.058454 kJ/mol
# GULP energy per Si atom -5576.789890 kJ/mol
# Density = 2.208271 g / cm^3
# Si number density = 22.133084 Si / 1000 Ang^3
#
#
#
# Elastic Constant Matrix: (Units=GPa)
#
#
# Indices 1 2 3 4 5 6 
#
# 1 85.4090 31.9076 9.9193 0.0513 -0.3674 9.3894
# 2 31.9076 90.1751 -1.2715 -15.7849 20.5074 16.5924
# 3 9.9193 -1.2715 57.6283 -7.1984 19.3104 2.1776
# 4 0.0513 -15.7849 -7.1984 38.2125 6.8481 3.8948
# 5 -0.3674 20.5074 19.3104 6.8481 33.7640 -4.8400
# 6 9.3894 16.5924 2.1776 3.8948 -4.8400 44.2079
#
#
#
# Elastic Compliance Matrix: (Units=1/GPa)
#
#
# Indices 1 2 3 4 5 6 
#
# 1 0.017220 -0.012632 -0.010250 -0.010567 0.016485 0.004324
# 2 -0.012632 0.032180 0.019629 0.025627 -0.038521 -0.016837
# 3 -0.010250 0.019629 0.036160 0.023348 -0.039362 -0.013338
# 4 -0.010567 0.025627 0.023348 0.050443 -0.041779 -0.017543
# 5 0.016485 -0.038521 -0.039362 -0.041779 0.087935 0.026204
# 6 0.004324 -0.016837 -0.013338 -0.017543 0.026204 0.033093
#
#
# Mechanical properties :
#
#
# Convention : Reuss Voigt Hill
#
# Bulk Modulus (GPa) = 12.64936 34.92481 23.78709
# Shear Modulus (GPa) = 17.24803 36.08069 26.66436
#
# Velocity S-wave (km/s) = 2.79460 4.04192 3.47469
# Velocity P-wave (km/s) = 4.01754 6.13160 5.18349
#
# Compressibility (1/GPa) = 0.07905538
#
# Stress axis : x y z
#
# Youngs Moduli (GPa) = 58.07279 31.07477 27.65486
#
# Poissons Ratio (x) = 0.39254 0.28346
# Poissons Ratio (y) = 0.73358 -0.54285
# Poissons Ratio (z) = 0.59524 -0.60998
#
# Static dielectric constant tensor:
#      x y z
#    x 1.900660 0.014940 0.000420 
#    y 0.014940 1.822020 0.037220 
#    z 0.000420 0.037220 1.795240 
# 
# From -- ./inp_files/205000.got.cif
#   From: 2010.05.17/outbox.cif.g08.bks.cpg/sg2_103_cif.got.tgz:205000.got - 2010.06.03 11:33:40.
