data_PCOD9079641
_publ_section_title
;
Structure prediction by ZEFSAII (Michael W. Deem and Ramdas Pophale) SiO2 
 PCOD9079641
Probable space group: P -1
;
_chemical_formula_sum "Si O2"
_cell_formula_units_Z 14
_cell_length_a 15.273538
_cell_length_b 17.197212
_cell_length_c 6.928518
_cell_angle_alpha 117.657612
_cell_angle_beta 109.079289
_cell_angle_gamma 21.845787
_cell_volume 569.181041
_symmetry_space_group_name_H-M "P -1"
_symmetry_group_IT_number 2
_symmetry_cell_setting 'triclinic'
loop_
_space_group_symop_operation_xyz
x,y,z
-x,-y,-z
loop_
_atom_site_type_symbol
_atom_site_label
_atom_site_fract_x
_atom_site_fract_y
_atom_site_fract_z
Si Si1 0.601618 0.024927 0.470070
Si Si2 0.293302 0.744527 0.049171
Si Si3 0.783144 0.761410 0.680353
Si Si4 0.057320 0.107700 0.974535
Si Si5 0.556144 0.619544 0.750687
Si Si6 0.169561 0.523810 0.918379
Si Si7 0.073056 0.113359 0.420184
O O1 0.471227 0.070266 0.284742
O O2 0.378744 0.285422 0.678673
O O3 0.721521 0.867095 0.556936
O O4 0.808559 0.909448 0.407358
O O5 0.199490 0.908057 0.301535
O O6 0.500000 0.500000 0.000000
O O7 0.067111 0.874295 0.030877
O O8 0.426209 0.670563 0.873815
O O9 0.000000 0.500000 0.500000
O O10 0.908250 0.709716 0.880115
O O11 0.866045 0.343310 0.016574
O O12 0.132848 0.082747 0.204773
O O13 0.306207 0.873206 0.761152
O O14 0.776041 0.373693 0.523590
O O15 0.699638 0.577736 0.896583
#
# Coordination Sequence:
#
# PCOD9079641 Si02
#       7
#     2   2   2   2   2   2   2
#     4  10  18  37  62  91 121 157 202 251 300 358
#     4  11  22  41  64  88 121 162 206 249 297 352
#     4   9  19  32  65  94 114 159 206 242 304 365
#     4  11  22  41  61  84 123 167 198 247 304 351
#     4  11  23  38  59  90 124 161 202 249 298 357
#     4  11  18  39  62  87 123 160 201 248 300 356
#     4  11  22  39  61  89 126 157 202 250 300 359
#
# _framework density 24.596743
#
# number of rings (size 3 to 8) (size 9 to 14) (size 15 to 20)
#    0.000    1.429    5.714    1.714    0.000    2.857 
#    5.143    0.714    0.000   12.000    0.000    0.000 
#    0.000    0.000    0.000    0.000    0.000    0.000 
#
# Total GULP energy -78021.339437 kJ/mol
# GULP energy per Si atom -5572.952817 kJ/mol
# Density = 2.454076 g / cm^3
# Si number density = 24.596743 Si / 1000 Ang^3
#
#
#
# Elastic Constant Matrix: (Units=GPa)
#
#
# Indices 1 2 3 4 5 6 
#
# 1 109.2033 62.5461 34.2331 10.7612 23.1841 -17.2766
# 2 62.5461 146.4939 38.1647 29.3509 6.3912 -14.9854
# 3 34.2331 38.1647 78.1725 25.5179 5.0540 -5.3103
# 4 10.7612 29.3509 25.5179 57.1225 -8.2913 12.9179
# 5 23.1841 6.3912 5.0540 -8.2913 32.2079 -0.9451
# 6 -17.2766 -14.9854 -5.3103 12.9179 -0.9451 49.2840
#
#
#
# Elastic Compliance Matrix: (Units=1/GPa)
#
#
# Indices 1 2 3 4 5 6 
#
# 1 0.015835 -0.004786 -0.003189 -0.001473 -0.010212 0.003942
# 2 -0.004786 0.010308 -0.001438 -0.004211 0.000612 0.002417
# 3 -0.003189 -0.001438 0.017547 -0.007286 -0.001984 0.002207
# 4 -0.001473 -0.004211 -0.007286 0.026728 0.009644 -0.009403
# 5 -0.010212 0.000612 -0.001984 0.009644 0.040915 -0.005351
# 6 0.003942 0.002417 0.002207 -0.009403 -0.005351 0.025007
#
#
# Mechanical properties :
#
#
# Convention : Reuss Voigt Hill
#
# Bulk Modulus (GPa) = 40.21656 67.08417 53.65036
# Shear Modulus (GPa) = 30.58950 40.98458 35.78704
#
# Velocity S-wave (km/s) = 3.53035 4.08641 3.81852
# Velocity P-wave (km/s) = 5.74489 7.04257 6.42657
#
# Compressibility (1/GPa) = 0.02486538
#
# Stress axis : x y z
#
# Youngs Moduli (GPa) = 63.15134 97.00888 56.98875
#
# Poissons Ratio (x) = 0.46429 0.18173
# Poissons Ratio (y) = 0.30225 0.08193
# Poissons Ratio (z) = 0.20138 0.13947
#
# Static dielectric constant tensor:
#      x y z
#    x 1.980430 -0.030970 0.033260 
#    y -0.030970 2.140130 -0.057940 
#    z 0.033260 -0.057940 1.990450 
# 
# From -- ./inp_files/337828.got.cif
#   From: 2010.05.17/outbox.cif.g08.bks.cpg/sg2_169_cif.got.tgz:337828.got - 2010.06.03 11:33:40.
