data_PCOD9079867
_publ_section_title
;
Structure prediction by ZEFSAII (Michael W. Deem and Ramdas Pophale) SiO2 
 PCOD9079867
Probable space group: P -1
;
_chemical_formula_sum "Si O2"
_cell_formula_units_Z 14
_cell_length_a 11.369661
_cell_length_b 6.854329
_cell_length_c 11.578835
_cell_angle_alpha 77.898629
_cell_angle_beta 52.099326
_cell_angle_gamma 114.253201
_cell_volume 497.656061
_symmetry_space_group_name_H-M "P -1"
_symmetry_group_IT_number 2
_symmetry_cell_setting 'triclinic'
loop_
_space_group_symop_operation_xyz
x,y,z
-x,-y,-z
loop_
_atom_site_type_symbol
_atom_site_label
_atom_site_fract_x
_atom_site_fract_y
_atom_site_fract_z
Si Si1 0.854083 0.659339 0.067180
Si Si2 0.807618 0.432921 0.566484
Si Si3 0.232868 0.888279 0.556029
Si Si4 0.285639 0.887489 0.869393
Si Si5 0.839797 0.726056 0.710312
Si Si6 0.432272 0.681115 0.541618
Si Si7 0.149672 0.977890 0.148424
O O1 0.074849 0.773793 0.952130
O O2 0.868427 0.860974 0.951928
O O3 0.722368 0.355931 0.124393
O O4 0.739575 0.617301 0.260097
O O5 0.716909 0.478227 0.721118
O O6 0.000000 0.500000 0.500000
O O7 0.928779 0.684806 0.367370
O O8 0.998359 0.742963 0.693893
O O9 0.294465 0.760318 0.618964
O O10 0.298488 0.856273 0.396567
O O11 0.379172 0.180196 0.497243
O O12 0.464565 0.190297 0.661336
O O13 0.263449 0.911287 0.015893
O O14 0.738894 0.804251 0.839224
O O15 0.000000 0.000000 0.500000
#
# Coordination Sequence:
#
# PCOD9079867 Si02
#       7
#     2   2   2   2   2   2   2
#     4  11  23  39  63  98 142 178 220 270 331 413
#     4   9  20  38  66  93 124 176 228 274 331 387
#     4  10  18  37  67  92 130 179 220 264 338 407
#     4  11  23  39  63  98 141 181 216 265 337 413
#     4   9  20  39  62  94 128 169 231 282 320 387
#     4  11  22  41  66 103 140 180 212 270 354 407
#     4  11  23  35  63 100 124 171 229 279 327 390
#
# _framework density 28.131879999999999
#
# number of rings (size 3 to 8) (size 9 to 14) (size 15 to 20)
#    0.000    1.714    2.857    2.143    8.000    0.571 
#    0.000    2.857    0.000   25.714    0.000    0.000 
#    0.000    0.000    0.000    0.000    0.000    0.000 
#
# Total GULP energy -78055.963800 kJ/mol
# GULP energy per Si atom -5575.425986 kJ/mol
# Density = 2.806785 g / cm^3
# Si number density = 28.131880 Si / 1000 Ang^3
#
#
#
# Elastic Constant Matrix: (Units=GPa)
#
#
# Indices 1 2 3 4 5 6 
#
# 1 69.0959 4.1610 14.3106 -16.6127 22.5376 -7.9351
# 2 4.1610 144.3800 46.2130 44.5905 -0.6287 -15.1624
# 3 14.3106 46.2130 158.3554 11.0311 7.6521 -5.1973
# 4 -16.6127 44.5905 11.0311 62.6138 -4.5166 6.9232
# 5 22.5376 -0.6287 7.6521 -4.5166 33.8636 0.8221
# 6 -7.9351 -15.1624 -5.1973 6.9232 0.8221 41.6027
#
#
#
# Elastic Compliance Matrix: (Units=1/GPa)
#
#
# Indices 1 2 3 4 5 6 
#
# 1 0.020654 -0.001855 -0.001029 0.005788 -0.012835 0.002425
# 2 -0.001855 0.010724 -0.002276 -0.008185 0.000744 0.004618
# 3 -0.001029 -0.002276 0.007111 0.000040 -0.000956 -0.000125
# 4 0.005788 -0.008185 0.000040 0.023926 -0.000680 -0.005842
# 5 -0.012835 0.000744 -0.000956 -0.000680 0.038283 -0.002940
# 6 0.002425 0.004618 -0.000125 -0.005842 -0.002940 0.027197
#
#
# Mechanical properties :
#
#
# Convention : Reuss Voigt Hill
#
# Bulk Modulus (GPa) = 35.49806 55.68893 45.59349
# Shear Modulus (GPa) = 33.87417 48.09247 40.98332
#
# Velocity S-wave (km/s) = 3.47381 4.13914 3.82098
# Velocity P-wave (km/s) = 5.36056 6.53314 5.97568
#
# Compressibility (1/GPa) = 0.02817056
#
# Stress axis : x y z
#
# Youngs Moduli (GPa) = 48.41681 93.24545 140.61809
#
# Poissons Ratio (x) = 0.17295 0.14464
# Poissons Ratio (y) = 0.08980 0.32009
# Poissons Ratio (z) = 0.04980 0.21225
#
# Static dielectric constant tensor:
#      x y z
#    x 2.253410 0.022840 -0.045190 
#    y 0.022840 2.555700 0.060210 
#    z -0.045190 0.060210 2.235980 
# 
# From -- ./inp_files/460599.got.cif
#   From: 2010.05.17/outbox.cif.g08.bks.cpg/sg2_231_cif.got.tgz:460599.got - 2010.06.03 11:33:40.
