data_PCOD9079218
_publ_section_title
;
Structure prediction by ZEFSAII (Michael W. Deem and Ramdas Pophale) SiO2 
 PCOD9079218
Probable space group: P -1
;
_chemical_formula_sum "Si O2"
_cell_formula_units_Z 15
_cell_length_a 8.319778
_cell_length_b 14.785097
_cell_length_c 10.292679
_cell_angle_alpha 48.432744
_cell_angle_beta 129.112744
_cell_angle_gamma 135.380843
_cell_volume 634.331929
_symmetry_space_group_name_H-M "P -1"
_symmetry_group_IT_number 2
_symmetry_cell_setting 'triclinic'
loop_
_space_group_symop_operation_xyz
x,y,z
-x,-y,-z
loop_
_atom_site_type_symbol
_atom_site_label
_atom_site_fract_x
_atom_site_fract_y
_atom_site_fract_z
Si Si1 0.678420 0.784736 0.783262
Si Si2 0.947751 0.663191 0.755347
Si Si3 0.892310 0.083983 0.941914
Si Si4 0.236555 0.530468 0.918052
Si Si5 0.651915 0.052284 0.226985
Si Si6 0.082131 0.635399 0.321077
Si Si7 0.363597 0.220693 0.543026
Si Si8 0.500000 0.000000 0.500000
O O1 0.500876 0.638310 0.901589
O O2 0.655171 0.765318 0.635719
O O3 0.578240 0.884556 0.680243
O O4 0.944190 0.855650 0.906271
O O5 0.088399 0.611023 0.787250
O O6 0.145644 0.787248 0.828414
O O7 0.804975 0.722681 0.544891
O O8 0.774689 0.539452 0.882665
O O9 0.912380 0.225015 0.750261
O O10 0.610338 0.986210 0.920436
O O11 0.000000 0.000000 0.000000
O O12 0.091650 0.419620 0.837937
O O13 0.720855 0.939822 0.317613
O O14 0.612999 0.020429 0.391252
O O15 0.356239 0.690748 0.365278
O O16 0.000000 0.500000 0.500000
#
# Coordination Sequence:
#
# PCOD9079218 Si02
#       8
#     2   2   2   2   2   2   2   1
#     4  11  21  39  67  99 125 173 220 270 324 383
#     4  11  23  42  64  94 135 175 213 259 338 397
#     4  11  22  38  65  99 128 165 222 272 321 378
#     4  11  24  41  66  94 136 174 209 271 328 399
#     4  10  21  41  63  94 131 168 221 270 322 381
#     4  11  24  42  65  98 134 168 221 278 319 388
#     4  10  23  40  67  94 126 173 220 272 324 381
#     4  10  18  36  64  90 124 166 216 272 308 368
#
# _framework density 23.646927000000002
#
# number of rings (size 3 to 8) (size 9 to 14) (size 15 to 20)
#    0.000    1.333    4.000    1.200    1.867    1.600 
#    0.000    8.667    2.933    0.000    0.000    0.000 
#    0.000    0.000    0.000    0.000    0.000    0.000 
#
# Total GULP energy -83657.968936 kJ/mol
# GULP energy per Si atom -5577.197929 kJ/mol
# Density = 2.359311 g / cm^3
# Si number density = 23.646927 Si / 1000 Ang^3
#
#
#
# Elastic Constant Matrix: (Units=GPa)
#
#
# Indices 1 2 3 4 5 6 
#
# 1 75.2358 32.4530 44.6373 -17.1191 25.5484 -7.2246
# 2 32.4530 109.7742 36.2840 -4.0554 21.0362 19.3924
# 3 44.6373 36.2840 73.1807 -10.7253 31.0296 4.0082
# 4 -17.1191 -4.0554 -10.7253 41.4537 -9.2475 13.5915
# 5 25.5484 21.0362 31.0296 -9.2475 62.5664 -17.9675
# 6 -7.2246 19.3924 4.0082 13.5915 -17.9675 31.6867
#
#
#
# Elastic Compliance Matrix: (Units=1/GPa)
#
#
# Indices 1 2 3 4 5 6 
#
# 1 0.024267 -0.004612 -0.013065 0.003440 0.001290 0.009264
# 2 -0.004612 0.014643 -0.000333 0.002862 -0.006770 -0.015037
# 3 -0.013065 -0.000333 0.028529 0.004169 -0.012461 -0.015238
# 4 0.003440 0.002862 0.004169 0.031664 -0.004878 -0.017842
# 5 0.001290 -0.006770 -0.012461 -0.004878 0.030483 0.025391
# 6 0.009264 -0.015037 -0.015238 -0.017842 0.025391 0.066853
#
#
# Mechanical properties :
#
#
# Convention : Reuss Voigt Hill
#
# Bulk Modulus (GPa) = 31.83026 53.88213 42.85619
# Shear Modulus (GPa) = 20.58181 36.79579 28.68880
#
# Velocity S-wave (km/s) = 2.95342 3.94896 3.48690
# Velocity P-wave (km/s) = 5.01200 6.60514 5.86294
#
# Compressibility (1/GPa) = 0.03141665
#
# Stress axis : x y z
#
# Youngs Moduli (GPa) = 41.20817 68.29305 35.05232
#
# Poissons Ratio (x) = 0.31500 0.45797
# Poissons Ratio (y) = 0.19007 0.01168
# Poissons Ratio (z) = 0.53840 0.02275
#
# Static dielectric constant tensor:
#      x y z
#    x 1.884020 -0.029690 0.036500 
#    y -0.029690 1.909290 -0.035950 
#    z 0.036500 -0.035950 1.917150 
# 
# From -- ./inp_files/388941.got.cif
#   From: 2010.05.17/outbox.cif.g08.bks.cpg/sg2_195_cif.got.tgz:388941.got - 2010.06.03 11:33:40.
