data_PCOD9079456
_publ_section_title
;
Structure prediction by ZEFSAII (Michael W. Deem and Ramdas Pophale) SiO2 
 PCOD9079456
Probable space group: P -1
;
_chemical_formula_sum "Si O2"
_cell_formula_units_Z 16
_cell_length_a 11.599595
_cell_length_b 7.458003
_cell_length_c 16.253641
_cell_angle_alpha 132.156615
_cell_angle_beta 141.714553
_cell_angle_gamma 67.683614
_cell_volume 611.809760
_symmetry_space_group_name_H-M "P -1"
_symmetry_group_IT_number 2
_symmetry_cell_setting 'triclinic'
loop_
_space_group_symop_operation_xyz
x,y,z
-x,-y,-z
loop_
_atom_site_type_symbol
_atom_site_label
_atom_site_fract_x
_atom_site_fract_y
_atom_site_fract_z
Si Si1 0.429275 0.405845 0.841927
Si Si2 0.757636 0.065365 0.761011
Si Si3 0.305103 0.882465 0.079136
Si Si4 0.118879 0.177780 0.490363
Si Si5 0.955785 0.405450 0.715255
Si Si6 0.587846 0.423627 0.606221
Si Si7 0.954176 0.172729 0.229613
Si Si8 0.449795 0.524707 0.231693
O O1 0.200469 0.344813 0.670038
O O2 0.547218 0.593818 0.892886
O O3 0.500000 0.500000 0.000000
O O4 0.481648 0.138000 0.785955
O O5 0.562858 0.858034 0.553221
O O6 0.939199 0.031897 0.802421
O O7 0.712123 0.330423 0.811614
O O8 0.770355 0.004898 0.847684
O O9 0.167500 0.583643 0.916854
O O10 0.249477 0.917594 0.963941
O O11 0.965068 0.205086 0.343977
O O12 0.328019 0.273351 0.588064
O O13 0.058711 0.885028 0.391618
O O14 0.801651 0.419084 0.702943
O O15 0.920261 0.562482 0.663988
O O16 0.500000 0.500000 0.500000
O O17 0.571122 0.597009 0.727661
#
# Coordination Sequence:
#
# PCOD9079456 Si02
#       8
#     2   2   2   2   2   2   2   2
#     4   9  19  40  65  77 101 152 192 238 297 319
#     4  11  16  32  50  73 115 159 177 214 267 325
#     4   9  21  35  50  83 118 144 180 240 277 325
#     4  10  18  37  59  77 106 153 194 226 265 342
#     4  10  20  31  53  83 121 146 182 218 282 332
#     4  12  17  28  50  81 110 157 184 208 265 338
#     4  10  20  32  55  80 123 149 181 222 277 333
#     4   9  19  30  55  78 109 141 203 222 251 338
#
# _framework density 26.15192
#
# number of rings (size 3 to 8) (size 9 to 14) (size 15 to 20)
#    1.500    0.500    3.750    1.500    0.000    0.000 
#    0.000    9.375    2.750    0.750    0.000    0.000 
#    0.000    0.000    0.000    0.000    0.000    0.000 
#
# Total GULP energy -89137.827068 kJ/mol
# GULP energy per Si atom -5571.114192 kJ/mol
# Density = 2.609240 g / cm^3
# Si number density = 26.151920 Si / 1000 Ang^3
#
#
#
# Elastic Constant Matrix: (Units=GPa)
#
#
# Indices 1 2 3 4 5 6 
#
# 1 85.8005 4.3979 22.0270 -17.9260 -28.9674 11.4695
# 2 4.3979 50.4168 29.2299 -31.4375 -8.8027 16.8883
# 3 22.0270 29.2299 143.6155 -27.2482 -36.8799 23.5782
# 4 -17.9260 -31.4375 -27.2482 43.0375 8.4723 -7.0488
# 5 -28.9674 -8.8027 -36.8799 8.4723 47.9690 -21.3844
# 6 11.4695 16.8883 23.5782 -7.0488 -21.3844 37.7017
#
#
#
# Elastic Compliance Matrix: (Units=1/GPa)
#
#
# Indices 1 2 3 4 5 6 
#
# 1 0.016570 0.006399 0.000646 0.009949 0.009428 -0.001104
# 2 0.006399 0.045978 -0.002036 0.032731 -0.002407 -0.016515
# 3 0.000646 -0.002036 0.009777 0.003528 0.006421 -0.001097
# 4 0.009949 0.032731 0.003528 0.051703 0.001385 -0.009442
# 5 0.009428 -0.002407 0.006421 0.001385 0.037901 0.015951
# 6 -0.001104 -0.016515 -0.001097 -0.009442 0.015951 0.042226
#
#
# Mechanical properties :
#
#
# Convention : Reuss Voigt Hill
#
# Bulk Modulus (GPa) = 12.14424 43.46027 27.80225
# Shear Modulus (GPa) = 22.56482 40.68684 31.62583
#
# Velocity S-wave (km/s) = 2.94059 3.94863 3.48129
# Velocity P-wave (km/s) = 4.02284 6.11910 5.17816
#
# Compressibility (1/GPa) = 0.08234359
#
# Stress axis : x y z
#
# Youngs Moduli (GPa) = 60.34915 21.74950 102.28409
#
# Poissons Ratio (x) = -0.13918 -0.06607
# Poissons Ratio (y) = -0.38620 0.20826
# Poissons Ratio (z) = -0.03898 0.04428
#
# Static dielectric constant tensor:
#      x y z
#    x 2.142990 0.016760 -0.111200 
#    y 0.016760 2.209660 0.009530 
#    z -0.111200 0.009530 2.121970 
# 
# From -- ./inp_files/572094.got.cif
#   From: 2010.05.17/outbox.cif.g08.bks.cpg/sg2_287_cif.got.tgz:572094.got - 2010.06.03 11:33:40.
