data_PCOD9079061
_publ_section_title
;
Structure prediction by ZEFSAII (Michael W. Deem and Ramdas Pophale) SiO2 
 PCOD9079061
Probable space group: P -1
;
_chemical_formula_sum "Si O2"
_cell_formula_units_Z 12
_cell_length_a 13.326072
_cell_length_b 7.946483
_cell_length_c 7.596089
_cell_angle_alpha 120.698925
_cell_angle_beta 48.565975
_cell_angle_gamma 97.785920
_cell_volume 492.339946
_symmetry_space_group_name_H-M "P -1"
_symmetry_group_IT_number 2
_symmetry_cell_setting 'triclinic'
loop_
_space_group_symop_operation_xyz
x,y,z
-x,-y,-z
loop_
_atom_site_type_symbol
_atom_site_label
_atom_site_fract_x
_atom_site_fract_y
_atom_site_fract_z
Si Si1 0.120859 0.201814 0.307054
Si Si2 0.347761 0.393953 0.232285
Si Si3 0.894225 0.589912 0.942617
Si Si4 0.323210 0.749562 0.181127
Si Si5 0.963458 0.934417 0.198221
Si Si6 0.332412 0.565218 0.714369
O O1 0.258402 0.234883 0.254270
O O2 0.068297 0.003948 0.240100
O O3 0.133335 0.273728 0.130122
O O4 0.991960 0.370142 0.643386
O O5 0.313565 0.541129 0.178449
O O6 0.308964 0.557148 0.527615
O O7 0.514216 0.267873 0.980113
O O8 0.750369 0.583578 0.193061
O O9 0.975282 0.697339 0.039287
O O10 0.198029 0.938697 0.502417
O O11 0.298330 0.741285 0.997379
O O12 0.000000 0.000000 0.000000
O O13 0.500000 0.500000 0.500000
#
# Coordination Sequence:
#
# PCOD9079061 Si02
#       6
#     2   2   2   2   2   2
#     4  10  18  36  62  85 115 157 192 242 291 337
#     4  10  20  33  64  88 113 156 200 232 294 347
#     4  10  19  36  62  86 117 156 195 236 294 346
#     4  10  19  39  59  84 121 157 190 244 287 344
#     4  10  20  35  64  87 114 158 198 233 295 349
#     4  10  20  36  61  88 117 157 193 236 295 347
#
# _framework density 24.373405000000002
#
# number of rings (size 3 to 8) (size 9 to 14) (size 15 to 20)
#    0.000    2.000    3.333    2.000    0.000    0.667 
#    0.000    7.500   14.667    0.000    0.000    0.000 
#    0.000    0.000    0.000    0.000    0.000    0.000 
#
# Total GULP energy -67020.120005 kJ/mol
# GULP energy per Si atom -5585.010000 kJ/mol
# Density = 2.431793 g / cm^3
# Si number density = 24.373405 Si / 1000 Ang^3
#
#
#
# Elastic Constant Matrix: (Units=GPa)
#
#
# Indices 1 2 3 4 5 6 
#
# 1 125.2554 51.0463 54.9794 1.9116 -10.4303 23.9102
# 2 51.0463 106.5268 32.4214 -5.6260 -14.3028 45.5065
# 3 54.9794 32.4214 147.3506 -16.2353 -7.1441 6.8677
# 4 1.9116 -5.6260 -16.2353 44.4416 8.9525 7.3404
# 5 -10.4303 -14.3028 -7.1441 8.9525 36.3882 -4.8072
# 6 23.9102 45.5065 6.8677 7.3404 -4.8072 47.7375
#
#
#
# Elastic Compliance Matrix: (Units=1/GPa)
#
#
# Indices 1 2 3 4 5 6 
#
# 1 0.011507 -0.003937 -0.003578 -0.002448 0.001523 -0.000966
# 2 -0.003937 0.019497 -0.001422 0.004286 0.002986 -0.016767
# 3 -0.003578 -0.001422 0.008679 0.003002 -0.000435 0.001394
# 4 -0.002448 0.004286 0.003002 0.026796 -0.006080 -0.008024
# 5 0.001523 0.002986 -0.000435 -0.006080 0.030564 0.000466
# 6 -0.000966 -0.016767 0.001394 -0.008024 0.000466 0.038496
#
#
# Mechanical properties :
#
#
# Convention : Reuss Voigt Hill
#
# Bulk Modulus (GPa) = 45.85491 72.89188 59.37339
# Shear Modulus (GPa) = 31.11691 41.75916 36.43804
#
# Velocity S-wave (km/s) = 3.57694 4.14370 3.87071
# Velocity P-wave (km/s) = 5.99280 7.27083 6.66253
#
# Compressibility (1/GPa) = 0.02180792
#
# Stress axis : x y z
#
# Youngs Moduli (GPa) = 86.89998 51.29001 115.21731
#
# Poissons Ratio (x) = 0.20195 0.41227
# Poissons Ratio (y) = 0.34217 0.16387
# Poissons Ratio (z) = 0.31094 0.07295
#
# Static dielectric constant tensor:
#      x y z
#    x 1.957670 -0.002850 0.030740 
#    y -0.002850 1.948950 -0.010180 
#    z 0.030740 -0.010180 1.858670 
# 
# From -- ./inp_files/161356.got.cif
#   From: 2010.05.17/outbox.cif.g08.bks.cpg/sg2_81_cif.got.tgz:161356.got - 2010.06.03 11:33:40.
