data_PCOD9079145
_publ_section_title
;
Structure prediction by ZEFSAII (Michael W. Deem and Ramdas Pophale) SiO2 
 PCOD9079145
Probable space group: P -1
;
_chemical_formula_sum "Si O2"
_cell_formula_units_Z 14
_cell_length_a 7.997887
_cell_length_b 13.591844
_cell_length_c 8.835266
_cell_angle_alpha 108.105645
_cell_angle_beta 64.676786
_cell_angle_gamma 123.682559
_cell_volume 718.950325
_symmetry_space_group_name_H-M "P -1"
_symmetry_group_IT_number 2
_symmetry_cell_setting 'triclinic'
loop_
_space_group_symop_operation_xyz
x,y,z
-x,-y,-z
loop_
_atom_site_type_symbol
_atom_site_label
_atom_site_fract_x
_atom_site_fract_y
_atom_site_fract_z
Si Si1 0.156642 0.761475 0.868335
Si Si2 0.498895 0.930307 0.615355
Si Si3 0.197934 0.838260 0.229468
Si Si4 0.398940 0.676248 0.548322
Si Si5 0.734390 0.546757 0.993559
Si Si6 0.770075 0.630025 0.360232
Si Si7 0.847348 0.376466 0.688434
O O1 0.264639 0.865558 0.752720
O O2 0.262473 0.680009 0.744540
O O3 0.905389 0.675529 0.922257
O O4 0.223654 0.816563 0.034211
O O5 0.534046 0.817760 0.523262
O O6 0.500000 0.000000 0.500000
O O7 0.671225 0.026729 0.707068
O O8 0.266654 0.758023 0.266303
O O9 0.945191 0.768640 0.326055
O O10 0.555559 0.624920 0.493760
O O11 0.249894 0.620345 0.432976
O O12 0.811534 0.456621 0.861936
O O13 0.500000 0.500000 0.000000
O O14 0.738184 0.564009 0.180666
O O15 0.905880 0.591519 0.397193
#
# Coordination Sequence:
#
# PCOD9079145 Si02
#       7
#     2   2   2   2   2   2   2
#     4   9  22  34  59  92 119 152 207 240 296 352
#     4  10  18  36  63  85 120 162 192 247 300 348
#     4   9  18  36  61  82 119 158 197 240 295 347
#     4  10  20  37  57  89 120 153 201 240 298 348
#     4  11  20  38  64  84 121 161 195 246 299 351
#     4   9  20  36  59  88 112 161 199 236 294 359
#     4  10  20  36  63  84 117 163 198 234 302 353
#
# _framework density 19.472835
#
# number of rings (size 3 to 8) (size 9 to 14) (size 15 to 20)
#    1.714    0.571    2.857    0.857    0.000    1.143 
#    0.000    2.143    0.000    4.286    0.000    0.000 
#    0.000    0.000    0.000    0.000    0.000    0.000 
#
# Total GULP energy -77950.426756 kJ/mol
# GULP energy per Si atom -5567.887625 kJ/mol
# Density = 1.942851 g / cm^3
# Si number density = 19.472835 Si / 1000 Ang^3
#
#
#
# Elastic Constant Matrix: (Units=GPa)
#
#
# Indices 1 2 3 4 5 6 
#
# 1 111.0998 43.8123 42.6866 5.5181 -12.3445 11.7952
# 2 43.8123 100.1155 33.9941 5.9550 8.2525 8.8954
# 3 42.6866 33.9941 76.7045 3.8331 -2.0156 14.4067
# 4 5.5181 5.9550 3.8331 35.7183 1.3097 8.4586
# 5 -12.3445 8.2525 -2.0156 1.3097 20.4356 -0.8593
# 6 11.7952 8.8954 14.4067 8.4586 -0.8593 27.5705
#
#
#
# Elastic Compliance Matrix: (Units=1/GPa)
#
#
# Indices 1 2 3 4 5 6 
#
# 1 0.014344 -0.005224 -0.005132 -0.000893 0.010276 -0.001175
# 2 -0.005224 0.014338 -0.003541 -0.000719 -0.009275 -0.000610
# 3 -0.005132 -0.003541 0.018672 0.000978 -0.000174 -0.006724
# 4 -0.000893 -0.000719 0.000978 0.030447 -0.002495 -0.009316
# 5 0.010276 -0.009275 -0.000174 -0.002495 0.059084 0.001294
# 6 -0.001175 -0.000610 -0.006724 -0.009316 0.001294 0.043382
#
#
# Mechanical properties :
#
#
# Convention : Reuss Voigt Hill
#
# Bulk Modulus (GPa) = 51.12285 58.76730 54.94508
# Shear Modulus (GPa) = 23.30136 27.90669 25.60403
#
# Velocity S-wave (km/s) = 3.46296 3.78975 3.63003
# Velocity P-wave (km/s) = 6.50383 7.02810 6.77104
#
# Compressibility (1/GPa) = 0.01956072
#
# Stress axis : x y z
#
# Youngs Moduli (GPa) = 69.71749 69.74374 53.55753
#
# Poissons Ratio (x) = 0.36434 0.27484
# Poissons Ratio (y) = 0.36421 0.18962
# Poissons Ratio (z) = 0.35777 0.24693
#
# Static dielectric constant tensor:
#      x y z
#    x 1.662190 0.005550 -0.003000 
#    y 0.005550 1.736200 -0.017390 
#    z -0.003000 -0.017390 1.673690 
# 
# From -- ./inp_files/202973.got.cif
#   From: 2010.05.17/outbox.cif.g08.bks.cpg/sg2_102_cif.got.tgz:202973.got - 2010.06.03 11:33:40.
