data_PCOD9079182
_publ_section_title
;
Structure prediction by ZEFSAII (Michael W. Deem and Ramdas Pophale) SiO2 
 PCOD9079182
Probable space group: P -1
;
_chemical_formula_sum "Si O2"
_cell_formula_units_Z 16
_cell_length_a 14.998989
_cell_length_b 11.735473
_cell_length_c 14.953585
_cell_angle_alpha 112.158792
_cell_angle_beta 46.479984
_cell_angle_gamma 150.233401
_cell_volume 748.891276
_symmetry_space_group_name_H-M "P -1"
_symmetry_group_IT_number 2
_symmetry_cell_setting 'triclinic'
loop_
_space_group_symop_operation_xyz
x,y,z
-x,-y,-z
loop_
_atom_site_type_symbol
_atom_site_label
_atom_site_fract_x
_atom_site_fract_y
_atom_site_fract_z
Si Si1 0.763294 0.241331 0.693929
Si Si2 0.683559 0.744525 0.180077
Si Si3 0.469553 0.290692 0.210027
Si Si4 0.107366 0.763329 0.225016
Si Si5 0.173843 0.062331 0.530010
Si Si6 0.257435 0.545593 0.337912
Si Si7 0.616768 0.483152 0.498035
Si Si8 0.199028 0.571891 0.848973
O O1 0.781056 0.243239 0.789479
O O2 0.696402 0.320297 0.736527
O O3 0.063047 0.459213 0.509955
O O4 0.515473 0.926333 0.730748
O O5 0.509654 0.461793 0.193284
O O6 0.549266 0.748659 0.235209
O O7 0.620825 0.696488 0.316360
O O8 0.000000 0.000000 0.000000
O O9 0.232134 0.088112 0.393494
O O10 0.743840 0.484757 0.134268
O O11 0.360429 0.093714 0.155586
O O12 0.827280 0.568373 0.410707
O O13 0.976426 0.623148 0.176846
O O14 0.455773 0.292950 0.464148
O O15 0.176884 0.213441 0.577933
O O16 0.932166 0.749097 0.637056
O O17 0.000000 0.500000 0.000000
#
# Coordination Sequence:
#
# PCOD9079182 Si02
#       8
#     2   2   2   2   2   2   2   2
#     4  10  23  39  62  93 127 177 213 254 317 377
#     4  11  24  40  62  95 135 170 206 267 328 375
#     4  10  21  39  66  96 123 164 219 259 321 377
#     4  11  19  41  68  95 118 170 220 259 320 372
#     4  10  18  36  63  95 125 160 214 271 307 369
#     4  11  20  41  59  89 135 165 213 267 307 376
#     4  10  19  35  66  96 123 165 217 260 319 380
#     4  11  24  42  66  93 131 165 213 275 314 380
#
# _framework density 21.364916999999998
#
# number of rings (size 3 to 8) (size 9 to 14) (size 15 to 20)
#    0.000    1.500    5.000    0.750    1.750    4.000 
#    2.250    3.750    0.000    0.000    0.000    0.000 
#    0.000    0.000    0.000    0.000    0.000    0.000 
#
# Total GULP energy -89113.003871 kJ/mol
# GULP energy per Si atom -5569.562742 kJ/mol
# Density = 2.131629 g / cm^3
# Si number density = 21.364917 Si / 1000 Ang^3
#
#
#
# Elastic Constant Matrix: (Units=GPa)
#
#
# Indices 1 2 3 4 5 6 
#
# 1 170.7572 55.5673 15.3404 0.7700 -13.7343 -5.2932
# 2 55.5673 99.7531 25.9748 3.8137 5.3563 16.4455
# 3 15.3404 25.9748 48.2614 4.8421 -8.9814 2.2263
# 4 0.7700 3.8137 4.8421 17.4188 -4.2234 5.6037
# 5 -13.7343 5.3563 -8.9814 -4.2234 17.6647 -1.2766
# 6 -5.2932 16.4455 2.2263 5.6037 -1.2766 41.7868
#
#
#
# Elastic Compliance Matrix: (Units=1/GPa)
#
#
# Indices 1 2 3 4 5 6 
#
# 1 0.008863 -0.006896 0.002583 0.001852 0.011012 0.003787
# 2 -0.006896 0.019033 -0.010731 -0.002625 -0.017794 -0.007984
# 3 0.002583 -0.010731 0.029445 -0.002371 0.019949 0.003909
# 4 0.001852 -0.002625 -0.002371 0.064620 0.015990 -0.006783
# 5 0.011012 -0.017794 0.019949 0.015990 0.085096 0.007790
# 6 0.003787 -0.007984 0.003909 -0.006783 0.007790 0.028492
#
#
# Mechanical properties :
#
#
# Convention : Reuss Voigt Hill
#
# Bulk Modulus (GPa) = 36.69416 56.94852 46.82134
# Shear Modulus (GPa) = 18.20019 30.16668 24.18344
#
# Velocity S-wave (km/s) = 2.92185 3.76170 3.36806
# Velocity P-wave (km/s) = 5.34745 6.75131 6.08997
#
# Compressibility (1/GPa) = 0.02725229
#
# Stress axis : x y z
#
# Youngs Moduli (GPa) = 112.82677 52.54116 33.96156
#
# Poissons Ratio (x) = 0.36234 -0.08773
# Poissons Ratio (y) = 0.77809 0.36445
# Poissons Ratio (z) = -0.29146 0.56383
#
# Static dielectric constant tensor:
#      x y z
#    x 1.821120 0.006130 -0.030520 
#    y 0.006130 1.800810 0.000770 
#    z -0.030520 0.000770 1.852660 
# 
# From -- ./inp_files/531886.got.cif
#   From: 2010.05.17/outbox.cif.g08.bks.cpg/sg2_266_cif.got.tgz:531886.got - 2010.06.03 11:33:40.
