data_PCOD9079038
_publ_section_title
;
Structure prediction by ZEFSAII (Michael W. Deem and Ramdas Pophale) SiO2 
 PCOD9079038
Probable space group: P -1
;
_chemical_formula_sum "Si O2"
_cell_formula_units_Z 13
_cell_length_a 5.337035
_cell_length_b 17.643902
_cell_length_c 9.683356
_cell_angle_alpha 138.229899
_cell_angle_beta 117.617299
_cell_angle_gamma 52.301533
_cell_volume 480.565553
_symmetry_space_group_name_H-M "P -1"
_symmetry_group_IT_number 2
_symmetry_cell_setting 'triclinic'
loop_
_space_group_symop_operation_xyz
x,y,z
-x,-y,-z
loop_
_atom_site_type_symbol
_atom_site_label
_atom_site_fract_x
_atom_site_fract_y
_atom_site_fract_z
Si Si1 0.624377 0.086794 0.355120
Si Si2 0.216746 0.108882 0.663141
Si Si3 0.659737 0.523081 0.386400
Si Si4 0.356867 0.282719 0.774958
Si Si5 0.201766 0.740860 0.908673
Si Si6 0.524887 0.204798 0.206688
Si Si7 0.500000 0.500000 0.000000
O O1 0.351094 0.204082 0.529507
O O2 0.633556 0.100613 0.213868
O O3 0.919415 0.098584 0.511464
O O4 0.665538 0.952360 0.239440
O O5 0.153665 0.251824 0.797117
O O6 0.500000 0.000000 0.500000
O O7 0.585038 0.410622 0.274542
O O8 0.442323 0.672495 0.557292
O O9 0.648285 0.501447 0.191827
O O10 0.000000 0.500000 0.500000
O O11 0.686470 0.228430 0.874257
O O12 0.317669 0.418120 0.905284
O O13 0.276934 0.819209 0.916328
O O14 0.849336 0.755482 0.845120
#
# Coordination Sequence:
#
# PCOD9079038 Si02
#       7
#     2   2   2   2   2   2   1
#     4  10  21  39  68  90 122 168 226 263 324 390
#     4   9  21  39  65  90 122 166 216 276 327 377
#     4   9  19  37  60  88 137 173 218 265 329 383
#     4  10  21  40  63  91 132 165 217 268 324 391
#     4  10  24  38  62  91 134 171 209 266 335 381
#     4  11  22  40  63  92 127 173 218 262 324 396
#     4  10  18  36  62 100 124 176 220 264 322 412
#
# _framework density 27.051456999999999
#
# number of rings (size 3 to 8) (size 9 to 14) (size 15 to 20)
#    0.000    2.154    1.538    0.462    6.462    0.000 
#    0.000    3.846    0.000    0.000    0.000    0.000 
#    0.000    0.000    0.000    0.000    0.000    0.000 
#
# Total GULP energy -72372.101781 kJ/mol
# GULP energy per Si atom -5567.084752 kJ/mol
# Density = 2.698989 g / cm^3
# Si number density = 27.051457 Si / 1000 Ang^3
#
#
#
# Elastic Constant Matrix: (Units=GPa)
#
#
# Indices 1 2 3 4 5 6 
#
# 1 75.3967 39.3847 31.6346 5.4460 4.9874 25.5365
# 2 39.3847 164.5958 48.5698 -10.5275 -3.2390 74.9227
# 3 31.6346 48.5698 108.0180 -0.5413 4.1787 15.6900
# 4 5.4460 -10.5275 -0.5413 59.9213 11.2111 5.0595
# 5 4.9874 -3.2390 4.1787 11.2111 35.8462 3.8414
# 6 25.5365 74.9227 15.6900 5.0595 3.8414 52.3242
#
#
#
# Elastic Compliance Matrix: (Units=1/GPa)
#
#
# Indices 1 2 3 4 5 6 
#
# 1 0.017546 0.000749 -0.004251 -0.000658 -0.000789 -0.008239
# 2 0.000749 0.022500 -0.005868 0.005718 0.004220 -0.031686
# 3 -0.004251 -0.005868 0.012188 -0.000779 -0.001870 0.007036
# 4 -0.000658 0.005718 -0.000779 0.019338 -0.004365 -0.009182
# 5 -0.000789 0.004220 -0.001870 -0.004365 0.030714 -0.006930
# 6 -0.008239 -0.031686 0.007036 -0.009182 -0.006930 0.067790
#
#
# Mechanical properties :
#
#
# Convention : Reuss Voigt Hill
#
# Bulk Modulus (GPa) = 29.85785 65.24319 47.55052
# Shear Modulus (GPa) = 25.00222 44.84643 34.92432
#
# Velocity S-wave (km/s) = 3.04344 4.07605 3.59699
# Velocity P-wave (km/s) = 4.83854 6.80608 5.90484
#
# Compressibility (1/GPa) = 0.03349203
#
# Stress axis : x y z
#
# Youngs Moduli (GPa) = 56.99285 44.44443 82.04813
#
# Poissons Ratio (x) = -0.03328 0.34881
# Poissons Ratio (y) = -0.04267 0.48149
# Poissons Ratio (z) = 0.24229 0.26082
#
# Static dielectric constant tensor:
#      x y z
#    x 2.268740 -0.021440 -0.098440 
#    y -0.021440 2.280570 0.093900 
#    z -0.098440 0.093900 2.138680 
# 
# From -- ./inp_files/24329.got.cif
#   From: 2010.05.17/outbox.cif.g08.bks.cpg/sg2_13_cif.got.tgz:24329.got - 2010.06.03 11:33:40.
