data_PCOD9079608
_publ_section_title
;
Structure prediction by ZEFSAII (Michael W. Deem and Ramdas Pophale) SiO2 
 PCOD9079608
Probable space group: P -1
;
_chemical_formula_sum "Si O2"
_cell_formula_units_Z 12
_cell_length_a 8.487154
_cell_length_b 8.465601
_cell_length_c 11.179146
_cell_angle_alpha 100.598439
_cell_angle_beta 136.606830
_cell_angle_gamma 61.159620
_cell_volume 464.472765
_symmetry_space_group_name_H-M "P -1"
_symmetry_group_IT_number 2
_symmetry_cell_setting 'triclinic'
loop_
_space_group_symop_operation_xyz
x,y,z
-x,-y,-z
loop_
_atom_site_type_symbol
_atom_site_label
_atom_site_fract_x
_atom_site_fract_y
_atom_site_fract_z
Si Si1 0.360483 0.243750 0.089617
Si Si2 0.097275 0.105790 0.659391
Si Si3 0.251608 0.469868 0.833173
Si Si4 0.355417 0.526645 0.643346
Si Si5 0.223696 0.190891 0.247738
Si Si6 0.283145 0.845495 0.346890
O O1 0.502309 0.360013 0.222013
O O2 0.158175 0.272932 0.089248
O O3 0.267471 0.317246 0.914602
O O4 0.584231 0.023750 0.187363
O O5 0.919566 0.320922 0.550103
O O6 0.990142 0.097236 0.729906
O O7 0.000000 0.000000 0.500000
O O8 0.286854 0.440402 0.706792
O O9 0.984158 0.662299 0.750578
O O10 0.500000 0.500000 0.000000
O O11 0.557237 0.362466 0.645059
O O12 0.515926 0.149124 0.442984
O O13 0.231020 0.997693 0.239271
#
# Coordination Sequence:
#
# PCOD9079608 Si02
#       6
#     2   2   2   2   2   2
#     4  10  21  40  64  85 119 160 196 233 295 355
#     4  10  18  37  62  85 115 156 192 234 292 351
#     4  10  22  41  61  83 119 164 195 233 299 358
#     4  10  21  38  62  90 116 158 195 241 288 351
#     4  11  22  37  61  89 120 152 197 247 293 343
#     4  11  22  36  61  95 119 148 198 247 294 339
#
# _framework density 25.835744999999999
#
# number of rings (size 3 to 8) (size 9 to 14) (size 15 to 20)
#    0.000    1.667    3.333    4.000    2.333    0.667 
#    0.000    8.333    0.000    0.000    0.000    0.000 
#    0.000    0.000    0.000    0.000    0.000    0.000 
#
# Total GULP energy -67251.073941 kJ/mol
# GULP energy per Si atom -5604.256162 kJ/mol
# Density = 2.577694 g / cm^3
# Si number density = 25.835745 Si / 1000 Ang^3
#
#
#
# Elastic Constant Matrix: (Units=GPa)
#
#
# Indices 1 2 3 4 5 6 
#
# 1 130.0868 14.9930 16.9783 3.7429 -25.8714 -9.2473
# 2 14.9930 113.2165 5.9688 -15.2072 -11.1827 -12.2046
# 3 16.9783 5.9688 88.9634 -2.0448 -24.2684 5.3102
# 4 3.7429 -15.2072 -2.0448 35.1286 0.0215 1.3077
# 5 -25.8714 -11.1827 -24.2684 0.0215 57.5624 -4.1856
# 6 -9.2473 -12.2046 5.3102 1.3077 -4.1856 43.3763
#
#
#
# Elastic Compliance Matrix: (Units=1/GPa)
#
#
# Indices 1 2 3 4 5 6 
#
# 1 0.008790 -0.000715 -0.000799 -0.001375 0.003632 0.002163
# 2 -0.000715 0.009975 -0.000115 0.004286 0.001764 0.002709
# 3 -0.000799 -0.000115 0.012846 0.000829 0.004938 -0.001324
# 4 -0.001375 0.004286 0.000829 0.030519 0.000549 -0.000056
# 5 0.003632 0.001764 0.004938 0.000549 0.021628 0.002737
# 6 0.002163 0.002709 -0.001324 -0.000056 0.002737 0.024705
#
#
# Mechanical properties :
#
#
# Convention : Reuss Voigt Hill
#
# Bulk Modulus (GPa) = 35.26984 45.34966 40.30975
# Shear Modulus (GPa) = 41.26376 46.83524 44.04950
#
# Velocity S-wave (km/s) = 4.00078 4.26233 4.13362
# Velocity P-wave (km/s) = 5.91801 6.46641 6.19828
#
# Compressibility (1/GPa) = 0.02835284
#
# Stress axis : x y z
#
# Youngs Moduli (GPa) = 113.77135 100.24780 77.84596
#
# Poissons Ratio (x) = 0.07164 0.06222
# Poissons Ratio (y) = 0.08131 0.00895
# Poissons Ratio (z) = 0.09094 0.01153
#
# Static dielectric constant tensor:
#      x y z
#    x 1.952880 0.065070 0.004030 
#    y 0.065070 2.061420 0.084600 
#    z 0.004030 0.084600 2.039190 
# 
# From -- ./inp_files/145151.got.cif
#   From: 2010.05.17/outbox.cif.g08.bks.cpg/sg2_73_cif.got.tgz:145151.got - 2010.06.03 11:33:40.
