data_PCOD9079458
_publ_section_title
;
Structure prediction by ZEFSAII (Michael W. Deem and Ramdas Pophale) SiO2 
 PCOD9079458
Probable space group: P -1
;
_chemical_formula_sum "Si O2"
_cell_formula_units_Z 16
_cell_length_a 14.698592
_cell_length_b 9.615776
_cell_length_c 11.926882
_cell_angle_alpha 96.633034
_cell_angle_beta 51.776815
_cell_angle_gamma 57.000908
_cell_volume 807.338306
_symmetry_space_group_name_H-M "P -1"
_symmetry_group_IT_number 2
_symmetry_cell_setting 'triclinic'
loop_
_space_group_symop_operation_xyz
x,y,z
-x,-y,-z
loop_
_atom_site_type_symbol
_atom_site_label
_atom_site_fract_x
_atom_site_fract_y
_atom_site_fract_z
Si Si1 0.289066 0.788741 0.359499
Si Si2 0.673705 0.771402 0.138457
Si Si3 0.895452 0.657986 0.260937
Si Si4 0.270058 0.483136 0.337874
Si Si5 0.595048 0.180756 0.511769
Si Si6 0.593331 0.722034 0.543008
Si Si7 0.488439 0.824186 0.075608
Si Si8 0.088292 0.250857 0.493528
O O1 0.249649 0.668182 0.348763
O O2 0.350461 0.747593 0.438674
O O3 0.449034 0.709590 0.152450
O O4 0.117100 0.061342 0.495628
O O5 0.553926 0.771833 0.299945
O O6 0.632431 0.768523 0.040620
O O7 0.572862 0.012839 0.268300
O O8 0.896841 0.556830 0.967555
O O9 0.754156 0.662661 0.354586
O O10 0.920143 0.654662 0.376632
O O11 0.779442 0.905293 0.331955
O O12 0.314543 0.423349 0.428348
O O13 0.084411 0.582131 0.443512
O O14 0.439635 0.264749 0.111617
O O15 0.498249 0.297617 0.477174
O O16 0.286551 0.091788 0.266570
#
# Coordination Sequence:
#
# PCOD9079458 Si02
#       8
#     2   2   2   2   2   2   2   2
#     4   8  19  38  58  76 102 139 188 227 250 302
#     4  10  18  37  59  79 104 141 180 221 264 308
#     4  10  18  37  59  79 104 141 180 221 264 308
#     4  12  21  34  54  82 113 148 162 216 281 315
#     4   9  20  39  55  81 103 137 190 227 246 311
#     4  11  24  33  51  83 117 140 175 210 269 328
#     4   9  19  35  56  82 105 134 184 219 260 317
#     4   9  19  35  56  82 105 134 184 219 260 317
#
# _framework density 19.818210000000001
#
# number of rings (size 3 to 8) (size 9 to 14) (size 15 to 20)
#    0.750    1.500    3.750    2.250    0.000    4.500 
#    0.000    0.000    0.000    0.000    0.000    7.000 
#    0.000    0.000    0.000    0.000    0.000    0.000 
#
# Total GULP energy -89230.280032 kJ/mol
# GULP energy per Si atom -5576.892502 kJ/mol
# Density = 1.977310 g / cm^3
# Si number density = 19.818210 Si / 1000 Ang^3
#
#
#
# Elastic Constant Matrix: (Units=GPa)
#
#
# Indices 1 2 3 4 5 6 
#
# 1 86.5887 26.5572 10.7864 3.5789 -6.9234 -24.4318
# 2 26.5572 44.5841 10.6436 2.1347 -0.5611 -21.7047
# 3 10.7864 10.6436 68.3700 23.7853 -19.8446 -2.5216
# 4 3.5789 2.1347 23.7853 18.9283 -12.1857 -0.0919
# 5 -6.9234 -0.5611 -19.8446 -12.1857 21.5449 1.8772
# 6 -24.4318 -21.7047 -2.5216 -0.0919 1.8772 38.5958
#
#
#
# Elastic Compliance Matrix: (Units=1/GPa)
#
#
# Indices 1 2 3 4 5 6 
#
# 1 0.015539 -0.006210 -0.000321 0.001216 0.004693 0.006098
# 2 -0.006210 0.035274 -0.006275 -0.000233 -0.008373 0.015902
# 3 -0.000321 -0.006275 0.028359 -0.028462 0.009968 -0.002431
# 4 0.001216 -0.000233 -0.028462 0.113083 0.038374 -0.002818
# 5 0.004693 -0.008373 0.009968 0.038374 0.079012 -0.004839
# 6 0.006098 0.015902 -0.002431 -0.002818 -0.004839 0.038782
#
#
# Mechanical properties :
#
#
# Convention : Reuss Voigt Hill
#
# Bulk Modulus (GPa) = 18.67025 32.83523 25.75274
# Shear Modulus (GPa) = 14.14373 25.91752 20.03063
#
# Velocity S-wave (km/s) = 2.67437 3.62022 3.18263
# Velocity P-wave (km/s) = 4.35632 5.83771 5.15055
#
# Compressibility (1/GPa) = 0.05356115
#
# Stress axis : x y z
#
# Youngs Moduli (GPa) = 64.35431 28.34956 35.26214
#
# Poissons Ratio (x) = 0.17605 0.01132
# Poissons Ratio (y) = 0.39964 0.22125
# Poissons Ratio (z) = 0.02065 0.17788
#
# Static dielectric constant tensor:
#      x y z
#    x 1.686460 -0.019910 0.005510 
#    y -0.019910 1.733200 -0.008110 
#    z 0.005510 -0.008110 1.685200 
# 
# From -- ./inp_files/433507.got.cif
#   From: 2010.05.17/outbox.cif.g08.bks.cpg/sg2_217_cif.got.tgz:433507.got - 2010.06.03 11:33:40.
