data_PCOD9079297
_publ_section_title
;
Structure prediction by ZEFSAII (Michael W. Deem and Ramdas Pophale) SiO2 
 PCOD9079297
Probable space group: P -1
;
_chemical_formula_sum "Si O2"
_cell_formula_units_Z 16
_cell_length_a 7.402831
_cell_length_b 7.014348
_cell_length_c 15.940437
_cell_angle_alpha 93.364415
_cell_angle_beta 102.929712
_cell_angle_gamma 119.217100
_cell_volume 690.248406
_symmetry_space_group_name_H-M "P -1"
_symmetry_group_IT_number 2
_symmetry_cell_setting 'triclinic'
loop_
_space_group_symop_operation_xyz
x,y,z
-x,-y,-z
loop_
_atom_site_type_symbol
_atom_site_label
_atom_site_fract_x
_atom_site_fract_y
_atom_site_fract_z
Si Si1 0.824577 0.456151 0.593288
Si Si2 0.403303 0.198161 0.198749
Si Si3 0.280308 0.693387 0.159377
Si Si4 0.050219 0.232304 0.546947
Si Si5 0.872571 0.346728 0.210640
Si Si6 0.277659 0.994682 0.953532
Si Si7 0.510923 0.576227 0.320993
Si Si8 0.819323 0.687400 0.966578
O O1 0.861189 0.595076 0.516790
O O2 0.596905 0.381065 0.609434
O O3 0.858300 0.252803 0.568446
O O4 0.004912 0.607907 0.686726
O O5 0.651256 0.344058 0.197952
O O6 0.402844 0.310126 0.289237
O O7 0.253107 0.236187 0.122137
O O8 0.340741 0.945267 0.180879
O O9 0.444865 0.666629 0.236387
O O10 0.270914 0.571915 0.067353
O O11 0.043191 0.537828 0.171483
O O12 0.237446 0.311556 0.636750
O O13 0.000000 0.000000 0.500000
O O14 0.798012 0.114656 0.148913
O O15 0.079856 0.827420 0.991262
O O16 0.500000 0.000000 0.000000
O O17 0.273992 0.223494 0.968959
#
# Coordination Sequence:
#
# PCOD9079297 Si02
#       8
#     2   2   2   2   2   2   2   2
#     4  10  23  42  59  88 127 154 204 260 296 373
#     4  11  20  40  67  88 128 168 203 261 305 358
#     4   9  22  38  63  94 124 166 211 255 304 370
#     4  11  24  39  64  93 120 160 202 249 312 372
#     4  10  20  39  63  87 123 162 205 255 308 364
#     4  10  18  36  66  85 127 169 196 265 313 349
#     4  10  22  41  62  91 125 162 205 252 307 365
#     4   9  20  38  59  92 127 163 210 254 310 366
#
# _framework density 23.180060999999998
#
# number of rings (size 3 to 8) (size 9 to 14) (size 15 to 20)
#    0.000    2.000    2.500    1.125    1.750    2.500 
#    0.000   12.500    0.000    0.000    0.000    0.000 
#    0.000    0.000    0.000    0.000    0.000    0.000 
#
# Total GULP energy -89414.472966 kJ/mol
# GULP energy per Si atom -5588.404560 kJ/mol
# Density = 2.312730 g / cm^3
# Si number density = 23.180061 Si / 1000 Ang^3
#
#
#
# Elastic Constant Matrix: (Units=GPa)
#
#
# Indices 1 2 3 4 5 6 
#
# 1 136.3361 39.8548 8.0463 -0.9200 -0.9214 -19.9063
# 2 39.8548 147.7774 35.1629 28.5297 3.8771 -39.1170
# 3 8.0463 35.1629 47.1721 25.7251 -2.9570 -10.8275
# 4 -0.9200 28.5297 25.7251 29.5983 -7.6901 -11.5401
# 5 -0.9214 3.8771 -2.9570 -7.6901 35.7876 9.4352
# 6 -19.9063 -39.1170 -10.8275 -11.5401 9.4352 35.8072
#
#
#
# Elastic Compliance Matrix: (Units=1/GPa)
#
#
# Indices 1 2 3 4 5 6 
#
# 1 0.008606 -0.001902 -0.002224 0.005605 0.000468 0.003716
# 2 -0.001902 0.012337 -0.003236 -0.006411 -0.005913 0.010933
# 3 -0.002224 -0.003236 0.042848 -0.036035 -0.003230 -0.002578
# 4 0.005605 -0.006411 -0.036035 0.077418 0.012699 0.006820
# 5 0.000468 -0.005913 -0.003230 0.012699 0.034249 -0.012108
# 6 0.003716 0.010933 -0.002578 0.006820 -0.012108 0.046546
#
#
# Mechanical properties :
#
#
# Convention : Reuss Voigt Hill
#
# Bulk Modulus (GPa) = 20.38114 55.26818 37.82466
# Shear Modulus (GPa) = 19.75626 36.78671 28.27148
#
# Velocity S-wave (km/s) = 2.92258 3.98804 3.49613
# Velocity P-wave (km/s) = 4.49447 6.71570 5.71406
#
# Compressibility (1/GPa) = 0.04906497
#
# Stress axis : x y z
#
# Youngs Moduli (GPa) = 116.20053 81.05725 23.33829
#
# Poissons Ratio (x) = 0.15420 0.05191
# Poissons Ratio (y) = 0.22106 0.07553
# Poissons Ratio (z) = 0.25844 0.26234
#
# Static dielectric constant tensor:
#      x y z
#    x 1.898410 -0.018210 -0.032540 
#    y -0.018210 1.886720 0.037280 
#    z -0.032540 0.037280 1.895190 
# 
# From -- ./inp_files/553548.got.cif
#   From: 2010.05.17/outbox.cif.g08.bks.cpg/sg2_277_cif.got.tgz:553548.got - 2010.06.03 11:33:40.
