data_PCOD9079653
_publ_section_title
;
Structure prediction by ZEFSAII (Michael W. Deem and Ramdas Pophale) SiO2 
 PCOD9079653
Probable space group: P -1
;
_chemical_formula_sum "Si O2"
_cell_formula_units_Z 14
_cell_length_a 7.131049
_cell_length_b 10.719739
_cell_length_c 11.940769
_cell_angle_alpha 135.169330
_cell_angle_beta 64.856107
_cell_angle_gamma 113.683559
_cell_volume 575.302915
_symmetry_space_group_name_H-M "P -1"
_symmetry_group_IT_number 2
_symmetry_cell_setting 'triclinic'
loop_
_space_group_symop_operation_xyz
x,y,z
-x,-y,-z
loop_
_atom_site_type_symbol
_atom_site_label
_atom_site_fract_x
_atom_site_fract_y
_atom_site_fract_z
Si Si1 0.626989 0.396830 0.779251
Si Si2 0.049402 0.985263 0.240968
Si Si3 0.171229 0.402271 0.953768
Si Si4 0.372873 0.688879 0.530203
Si Si5 0.770436 0.644904 0.540029
Si Si6 0.475487 0.906771 0.204569
Si Si7 0.330023 0.124634 0.087185
O O1 0.402489 0.465448 0.887012
O O2 0.666600 0.359024 0.618097
O O3 0.586532 0.217914 0.752671
O O4 0.109957 0.011361 0.110875
O O5 0.256183 0.938647 0.223549
O O6 0.879813 0.811099 0.186501
O O7 0.041299 0.187786 0.415268
O O8 0.191280 0.470354 0.119741
O O9 0.000000 0.500000 0.000000
O O10 0.602904 0.649689 0.487050
O O11 0.208399 0.558612 0.566718
O O12 0.391752 0.900594 0.677051
O O13 0.659858 0.711198 0.723611
O O14 0.614235 0.830198 0.025132
O O15 0.500000 0.000000 0.000000
#
# Coordination Sequence:
#
# PCOD9079653 Si02
#       7
#     2   2   2   2   2   2   2
#     4  11  25  36  64  93 123 165 201 251 316 361
#     4   8  17  35  61  83 118 159 202 256 293 346
#     4  11  23  41  60  92 125 158 213 253 298 366
#     4  10  19  36  58  93 129 161 198 252 305 376
#     4   8  18  33  60  89 118 161 210 241 304 360
#     4  10  18  37  62  93 124 159 202 249 313 359
#     4   8  15  30  60  89 111 158 211 239 296 357
#
# _framework density 24.335007000000001
#
# number of rings (size 3 to 8) (size 9 to 14) (size 15 to 20)
#    0.857    1.714    2.857    0.429    4.000    0.000 
#    0.000    5.714    0.000    1.714    0.000    0.000 
#    0.000    0.000    0.000    0.000    0.000    0.000 
#
# Total GULP energy -78125.771808 kJ/mol
# GULP energy per Si atom -5580.412272 kJ/mol
# Density = 2.427962 g / cm^3
# Si number density = 24.335007 Si / 1000 Ang^3
#
#
#
# Elastic Constant Matrix: (Units=GPa)
#
#
# Indices 1 2 3 4 5 6 
#
# 1 90.9604 40.3210 45.1038 -1.1128 25.8725 -4.0630
# 2 40.3210 142.2599 35.7698 28.7436 15.4659 -20.1758
# 3 45.1038 35.7698 90.4309 11.3454 38.2241 -14.7019
# 4 -1.1128 28.7436 11.3454 52.2983 5.7311 16.6341
# 5 25.8725 15.4659 38.2241 5.7311 36.7063 9.1812
# 6 -4.0630 -20.1758 -14.7019 16.6341 9.1812 26.9621
#
#
#
# Elastic Compliance Matrix: (Units=1/GPa)
#
#
# Indices 1 2 3 4 5 6 
#
# 1 0.022319 -0.016266 -0.032381 0.030871 0.034330 -0.057201
# 2 -0.016266 0.037948 0.060418 -0.065846 -0.089690 0.130055
# 3 -0.032381 0.060418 0.158007 -0.134524 -0.217054 0.283394
# 4 0.030871 -0.065846 -0.134524 0.152317 0.191622 -0.277196
# 5 0.034330 -0.089690 -0.217054 0.191622 0.340625 -0.414507
# 6 -0.057201 0.130055 0.283394 -0.277196 -0.414507 0.592481
#
#
# Mechanical properties :
#
#
# Convention : Reuss Voigt Hill
#
# Bulk Modulus (GPa) = 4.13537 62.89338 33.51438
# Shear Modulus (GPa) = 3.67442 36.69045 20.18243
#
# Velocity S-wave (km/s) = 1.23013 3.88715 2.88298
# Velocity P-wave (km/s) = 1.92890 6.78583 4.98840
#
# Compressibility (1/GPa) = 0.24181605
#
# Stress axis : x y z
#
# Youngs Moduli (GPa) = 44.80510 26.35193 6.32883
#
# Poissons Ratio (x) = 0.42864 0.20494
# Poissons Ratio (y) = 0.72880 -0.38238
# Poissons Ratio (z) = 1.45084 -1.59214
#
# Static dielectric constant tensor:
#      x y z
#    x 1.971880 -0.019670 -0.016380 
#    y -0.019670 1.978620 0.059600 
#    z -0.016380 0.059600 1.961160 
# 
# From -- ./inp_files/380619.got.cif
#   From: 2010.05.17/outbox.cif.g08.bks.cpg/sg2_191_cif.got.tgz:380619.got - 2010.06.03 11:33:40.
