data_PCOD9079807
_publ_section_title
;
Structure prediction by ZEFSAII (Michael W. Deem and Ramdas Pophale) SiO2 
 PCOD9079807
Probable space group: P -1
;
_chemical_formula_sum "Si O2"
_cell_formula_units_Z 14
_cell_length_a 11.274203
_cell_length_b 11.378490
_cell_length_c 11.045669
_cell_angle_alpha 89.846781
_cell_angle_beta 62.312786
_cell_angle_gamma 37.897432
_cell_volume 572.714729
_symmetry_space_group_name_H-M "P -1"
_symmetry_group_IT_number 2
_symmetry_cell_setting 'triclinic'
loop_
_space_group_symop_operation_xyz
x,y,z
-x,-y,-z
loop_
_atom_site_type_symbol
_atom_site_label
_atom_site_fract_x
_atom_site_fract_y
_atom_site_fract_z
Si Si1 0.283607 0.199268 0.848102
Si Si2 0.228342 0.428158 0.398858
Si Si3 0.194231 0.054104 0.297672
Si Si4 0.940589 0.289151 0.164096
Si Si5 0.484623 0.172338 0.529713
Si Si6 0.483903 0.427610 0.826936
Si Si7 0.819796 0.382669 0.785674
O O1 0.366977 0.153904 0.666844
O O2 0.544241 0.056891 0.801721
O O3 0.000000 0.500000 0.000000
O O4 0.181132 0.159739 0.961188
O O5 0.438190 0.224950 0.408060
O O6 0.293358 0.412966 0.230562
O O7 0.000000 0.500000 0.500000
O O8 0.079109 0.665848 0.514132
O O9 0.102930 0.106678 0.201834
O O10 0.294684 0.852038 0.305702
O O11 0.720631 0.562507 0.318954
O O12 0.722749 0.378636 0.188337
O O13 0.831117 0.906900 0.390673
O O14 0.652771 0.403340 0.805490
O O15 0.271166 0.541316 0.031516
#
# Coordination Sequence:
#
# PCOD9079807 Si02
#       7
#     2   2   2   2   2   2   2
#     4  10  18  37  65  97 133 163 218 267 325 391
#     4  11  26  43  68 103 135 169 218 278 337 391
#     4  11  22  43  68  99 131 176 218 269 332 392
#     4  10  22  38  69 100 129 174 223 271 328 397
#     4  10  22  43  66  97 131 175 217 273 334 387
#     4  11  25  45  69  94 131 186 220 269 327 393
#     4  11  26  46  65  96 139 173 225 273 327 393
#
# _framework density 24.444980000000001
#
# number of rings (size 3 to 8) (size 9 to 14) (size 15 to 20)
#    0.000    1.429    4.286    0.429    2.000    8.571 
#    0.000    5.714    0.000    0.000    0.000    0.000 
#    0.000    0.000    0.000    0.000    0.000    0.000 
#
# Total GULP energy -78280.143672 kJ/mol
# GULP energy per Si atom -5591.438834 kJ/mol
# Density = 2.438934 g / cm^3
# Si number density = 24.444980 Si / 1000 Ang^3
#
#
#
# Elastic Constant Matrix: (Units=GPa)
#
#
# Indices 1 2 3 4 5 6 
#
# 1 59.0858 31.1463 -6.1672 -7.6439 -2.9198 -26.2345
# 2 31.1463 139.0451 34.2511 -5.5019 -4.3250 -45.2282
# 3 -6.1672 34.2511 116.1794 -5.8554 2.3466 -6.7551
# 4 -7.6439 -5.5019 -5.8554 33.3223 -1.3632 11.2430
# 5 -2.9198 -4.3250 2.3466 -1.3632 29.8497 -1.4939
# 6 -26.2345 -45.2282 -6.7551 11.2430 -1.4939 53.7369
#
#
#
# Elastic Compliance Matrix: (Units=1/GPa)
#
#
# Indices 1 2 3 4 5 6 
#
# 1 0.022974 -0.002779 0.002625 0.002405 0.002187 0.008765
# 2 -0.002779 0.011220 -0.003120 -0.002011 0.001916 0.008169
# 3 0.002625 -0.003120 0.009751 0.001950 -0.000900 -0.000552
# 4 0.002405 -0.002011 0.001950 0.033025 0.000941 -0.007157
# 5 0.002187 0.001916 -0.000900 0.000941 0.034273 0.003323
# 6 0.008765 0.008169 -0.000552 -0.007157 0.003323 0.031284
#
#
# Mechanical properties :
#
#
# Convention : Reuss Voigt Hill
#
# Bulk Modulus (GPa) = 26.73945 48.08564 37.41254
# Shear Modulus (GPa) = 30.95188 40.38712 35.66950
#
# Velocity S-wave (km/s) = 3.56221 4.06909 3.82406
# Velocity P-wave (km/s) = 5.28029 6.46455 5.90220
#
# Compressibility (1/GPa) = 0.03739793
#
# Stress axis : x y z
#
# Youngs Moduli (GPa) = 43.52702 89.12561 102.55301
#
# Poissons Ratio (x) = 0.24766 -0.26925
# Poissons Ratio (y) = 0.12095 0.32001
# Poissons Ratio (z) = -0.11428 0.27811
#
# Static dielectric constant tensor:
#      x y z
#    x 1.944600 -0.019310 0.058690 
#    y -0.019310 1.959080 -0.041470 
#    z 0.058690 -0.041470 2.018720 
# 
# From -- ./inp_files/425931.got.cif
#   From: 2010.05.17/outbox.cif.g08.bks.cpg/sg2_213_cif.got.tgz:425931.got - 2010.06.03 11:33:40.
