data_PCOD9079382
_publ_section_title
;
Structure prediction by ZEFSAII (Michael W. Deem and Ramdas Pophale) SiO2 
 PCOD9079382
Probable space group: P -1
;
_chemical_formula_sum "Si O2"
_cell_formula_units_Z 12
_cell_length_a 20.619634
_cell_length_b 5.315460
_cell_length_c 10.407604
_cell_angle_alpha 92.095477
_cell_angle_beta 28.682664
_cell_angle_gamma 76.243479
_cell_volume 452.299224
_symmetry_space_group_name_H-M "P -1"
_symmetry_group_IT_number 2
_symmetry_cell_setting 'triclinic'
loop_
_space_group_symop_operation_xyz
x,y,z
-x,-y,-z
loop_
_atom_site_type_symbol
_atom_site_label
_atom_site_fract_x
_atom_site_fract_y
_atom_site_fract_z
Si Si1 0.969875 0.761366 0.304542
Si Si2 0.240178 0.711219 0.492195
Si Si3 0.194802 0.287217 0.191297
Si Si4 0.486569 0.188809 0.900736
Si Si5 0.704963 0.638950 0.361929
Si Si6 0.239775 0.729610 0.971880
O O1 0.820956 0.778547 0.633223
O O2 0.049561 0.890813 0.260990
O O3 0.910963 0.967232 0.284980
O O4 0.129467 0.420230 0.991717
O O5 0.369927 0.760105 0.332352
O O6 0.228007 0.512250 0.617591
O O7 0.322466 0.517256 0.215869
O O8 0.265960 0.477401 0.023939
O O9 0.000000 0.500000 0.500000
O O10 0.269172 0.972695 0.979768
O O11 0.542816 0.966563 0.677090
O O12 0.500000 0.000000 0.000000
O O13 0.670144 0.446384 0.320162
#
# Coordination Sequence:
#
# PCOD9079382 Si02
#       6
#     2   2   2   2   2   2
#     4   9  19  32  55  88 109 141 181 241 271 338
#     4  10  19  36  55  78 113 143 188 228 289 331
#     4  10  18  37  52  85 118 153 181 223 287 337
#     4   9  20  38  50  74 108 156 185 222 282 348
#     4   9  20  32  55  84 110 143 182 232 285 336
#     4   9  21  34  57  84 120 147 184 227 285 338
#
# _framework density 26.531110000000002
#
# number of rings (size 3 to 8) (size 9 to 14) (size 15 to 20)
#    1.000    1.667    0.000    2.500    2.333    0.667 
#   18.000    0.000    0.000    2.000    0.000    0.000 
#    0.000    0.000    0.000    0.000    0.000    0.000 
#
# Total GULP energy -66997.186991 kJ/mol
# GULP energy per Si atom -5583.098916 kJ/mol
# Density = 2.647072 g / cm^3
# Si number density = 26.531110 Si / 1000 Ang^3
#
#
#
# Elastic Constant Matrix: (Units=GPa)
#
#
# Indices 1 2 3 4 5 6 
#
# 1 78.9795 31.9422 26.3612 2.2835 19.1312 1.9708
# 2 31.9422 101.7083 33.9002 9.2129 16.0193 -4.5946
# 3 26.3612 33.9002 152.2203 29.3759 37.3586 3.8882
# 4 2.2835 9.2129 29.3759 30.6018 -1.0875 12.3587
# 5 19.1312 16.0193 37.3586 -1.0875 39.8073 8.2047
# 6 1.9708 -4.5946 3.8882 12.3587 8.2047 51.5273
#
#
#
# Elastic Compliance Matrix: (Units=1/GPa)
#
#
# Indices 1 2 3 4 5 6 
#
# 1 0.015753 -0.003949 -0.000630 0.000500 -0.005340 -0.000177
# 2 -0.003949 0.012256 -0.000529 -0.004128 -0.003225 0.002788
# 3 -0.000630 -0.000529 0.012417 -0.013913 -0.012415 0.004354
# 4 0.000500 -0.004128 -0.013913 0.054123 0.019124 -0.015364
# 5 -0.005340 -0.003225 -0.012415 0.019124 0.043352 -0.010636
# 6 -0.000177 0.002788 0.004354 -0.015364 -0.010636 0.024713
#
#
# Mechanical properties :
#
#
# Convention : Reuss Voigt Hill
#
# Bulk Modulus (GPa) = 33.10105 57.47949 45.29027
# Shear Modulus (GPa) = 27.33749 40.43425 33.88587
#
# Velocity S-wave (km/s) = 3.21346 3.90812 3.57769
# Velocity P-wave (km/s) = 5.12560 6.48664 5.84587
#
# Compressibility (1/GPa) = 0.03021052
#
# Stress axis : x y z
#
# Youngs Moduli (GPa) = 63.48189 81.58973 80.53509
#
# Poissons Ratio (x) = 0.32223 0.05071
# Poissons Ratio (y) = 0.25072 0.04257
# Poissons Ratio (z) = 0.03998 0.04312
#
# Static dielectric constant tensor:
#      x y z
#    x 2.226110 -0.031100 0.047400 
#    y -0.031100 2.152090 -0.051000 
#    z 0.047400 -0.051000 2.110130 
# 
# From -- ./inp_files/362215.got.cif
#   From: 2010.05.17/outbox.cif.g08.bks.cpg/sg2_182_cif.got.tgz:362215.got - 2010.06.03 11:33:40.
