data_PCOD9079550
_publ_section_title
;
Structure prediction by ZEFSAII (Michael W. Deem and Ramdas Pophale) SiO2 
 PCOD9079550
Probable space group: P -1
;
_chemical_formula_sum "Si O2"
_cell_formula_units_Z 16
_cell_length_a 10.830126
_cell_length_b 14.039592
_cell_length_c 10.262822
_cell_angle_alpha 34.481646
_cell_angle_beta 39.999328
_cell_angle_gamma 49.453291
_cell_volume 567.117956
_symmetry_space_group_name_H-M "P -1"
_symmetry_group_IT_number 2
_symmetry_cell_setting 'triclinic'
loop_
_space_group_symop_operation_xyz
x,y,z
-x,-y,-z
loop_
_atom_site_type_symbol
_atom_site_label
_atom_site_fract_x
_atom_site_fract_y
_atom_site_fract_z
Si Si1 0.844951 0.693295 0.501376
Si Si2 0.192196 0.427189 0.806270
Si Si3 0.846062 0.253231 0.351417
Si Si4 0.739581 0.350753 0.729983
Si Si5 0.788601 0.015853 0.339951
Si Si6 0.322054 0.314785 0.095416
Si Si7 0.509070 0.760328 0.526535
Si Si8 0.204823 0.988310 0.109039
O O1 0.819141 0.611086 0.759190
O O2 0.677232 0.648682 0.589718
O O3 0.797892 0.894965 0.341732
O O4 0.998879 0.929484 0.867211
O O5 0.117207 0.606082 0.727109
O O6 0.269289 0.486382 0.540718
O O7 0.333214 0.368019 0.876218
O O8 0.038205 0.284796 0.079132
O O9 0.657855 0.302069 0.363083
O O10 0.813121 0.083209 0.648614
O O11 0.767644 0.180971 0.809985
O O12 0.931580 0.341366 0.672953
O O13 0.528128 0.328771 0.977837
O O14 0.619603 0.151816 0.351796
O O15 0.746066 0.874917 0.642211
O O16 0.624404 0.892408 0.197170
#
# Coordination Sequence:
#
# PCOD9079550 Si02
#       8
#     2   2   2   2   2   2   2   2
#     4   9  21  35  54  86 119 150 185 226 271 340
#     4  10  19  40  60  83 110 142 196 241 279 326
#     4  10  21  36  60  83 114 150 186 237 283 329
#     4  10  19  35  64  84 108 151 192 227 279 337
#     4   9  20  35  56  84 116 147 182 232 272 334
#     4  10  18  37  61  86 109 146 192 232 278 330
#     4  12  22  36  57  84 119 156 182 221 289 337
#     4  10  19  37  54  84 118 145 185 234 280 333
#
# _framework density 28.212823
#
# number of rings (size 3 to 8) (size 9 to 14) (size 15 to 20)
#    0.750    1.250    2.500    2.625    0.000    3.500 
#    0.000    3.750    0.000    1.500    0.000    0.000 
#    0.000    0.000    0.000    0.000    0.000    0.000 
#
# Total GULP energy -89467.950367 kJ/mol
# GULP energy per Si atom -5591.746898 kJ/mol
# Density = 2.814861 g / cm^3
# Si number density = 28.212823 Si / 1000 Ang^3
#
#
#
# Elastic Constant Matrix: (Units=GPa)
#
#
# Indices 1 2 3 4 5 6 
#
# 1 196.2850 35.2940 82.3407 8.5679 -12.7722 -7.9215
# 2 35.2940 68.2179 27.1690 6.3008 -9.5649 -2.1805
# 3 82.3407 27.1690 137.4591 11.6844 -8.0419 -7.1970
# 4 8.5679 6.3008 11.6844 29.7307 -10.9206 -14.7378
# 5 -12.7722 -9.5649 -8.0419 -10.9206 67.9642 1.9267
# 6 -7.9215 -2.1805 -7.1970 -14.7378 1.9267 50.6150
#
#
#
# Elastic Compliance Matrix: (Units=1/GPa)
#
#
# Indices 1 2 3 4 5 6 
#
# 1 0.007120 -0.002093 -0.003819 0.000414 0.000642 0.000577
# 2 -0.002093 0.016848 -0.001851 -0.001945 0.001460 -0.000487
# 3 -0.003819 -0.001851 0.010135 -0.002545 -0.000189 0.000030
# 4 0.000414 -0.001945 -0.002545 0.043078 0.006087 0.011931
# 5 0.000642 0.001460 -0.000189 0.006087 0.015959 0.001301
# 6 0.000577 -0.000487 0.000030 0.011931 0.001301 0.023255
#
#
# Mechanical properties :
#
#
# Convention : Reuss Voigt Hill
#
# Bulk Modulus (GPa) = 53.82850 76.84104 65.33477
# Shear Modulus (GPa) = 36.20258 46.80587 41.50422
#
# Velocity S-wave (km/s) = 3.58606 4.07754 3.83967
# Velocity P-wave (km/s) = 6.02223 7.03305 6.54718
#
# Compressibility (1/GPa) = 0.01857752
#
# Stress axis : x y z
#
# Youngs Moduli (GPa) = 140.45298 59.35565 98.66649
#
# Poissons Ratio (x) = 0.12420 0.37678
# Poissons Ratio (y) = 0.29390 0.18265
# Poissons Ratio (z) = 0.53636 0.10988
#
# Static dielectric constant tensor:
#      x y z
#    x 2.124140 -0.021870 0.057890 
#    y -0.021870 2.322720 0.011650 
#    z 0.057890 0.011650 2.163000 
# 
# From -- ./inp_files/437948.got.cif
#   From: 2010.05.17/outbox.cif.g08.bks.cpg/sg2_219_cif.got.tgz:437948.got - 2010.06.03 11:33:40.
