data_PCOD9079964
_publ_section_title
;
Structure prediction by ZEFSAII (Michael W. Deem and Ramdas Pophale) SiO2 
 PCOD9079964
Probable space group: P -1
;
_chemical_formula_sum "Si O2"
_cell_formula_units_Z 16
_cell_length_a 9.222877
_cell_length_b 12.049162
_cell_length_c 9.424829
_cell_angle_alpha 50.372640
_cell_angle_beta 53.231941
_cell_angle_gamma 65.491304
_cell_volume 645.280531
_symmetry_space_group_name_H-M "P -1"
_symmetry_group_IT_number 2
_symmetry_cell_setting 'triclinic'
loop_
_space_group_symop_operation_xyz
x,y,z
-x,-y,-z
loop_
_atom_site_type_symbol
_atom_site_label
_atom_site_fract_x
_atom_site_fract_y
_atom_site_fract_z
Si Si1 0.909719 0.757326 0.983481
Si Si2 0.490526 0.687342 0.646572
Si Si3 0.426138 0.983432 0.292813
Si Si4 0.737640 0.056920 0.881015
Si Si5 0.758183 0.245075 0.019289
Si Si6 0.876688 0.996330 0.343877
Si Si7 0.814846 0.456545 0.578876
Si Si8 0.700489 0.483603 0.323375
O O1 0.769376 0.880867 0.027078
O O2 0.792264 0.629904 0.101680
O O3 0.034323 0.868040 0.733810
O O4 0.055678 0.699654 0.061305
O O5 0.502418 0.849073 0.450739
O O6 0.418777 0.695686 0.841127
O O7 0.668700 0.588121 0.592566
O O8 0.329516 0.618429 0.707248
O O9 0.273527 0.061466 0.419124
O O10 0.575461 0.086826 0.062371
O O11 0.947066 0.098692 0.729419
O O12 0.663247 0.077356 0.748861
O O13 0.792227 0.077494 0.187582
O O14 0.755399 0.316220 0.810175
O O15 0.818669 0.427485 0.432785
O O16 0.000000 0.500000 0.500000
O O17 0.500000 0.500000 0.500000
#
# Coordination Sequence:
#
# PCOD9079964 Si02
#       8
#     2   2   2   2   2   2   2   2
#     4   8  16  31  42  68  92 123 159 194 238 277
#     4  10  21  30  47  70 104 120 153 201 239 287
#     4  10  15  28  42  69  93 125 152 192 252 270
#     4   8  16  24  46  63  95 119 158 195 236 285
#     4   8  17  31  46  65  93 127 158 193 228 281
#     4   7  16  27  42  66  92 117 152 204 229 276
#     4  11  18  31  47  66  91 132 164 188 228 287
#     4  10  19  30  47  69  99 126 155 195 243 283
#
# _framework density 24.795418000000002
#
# number of rings (size 3 to 8) (size 9 to 14) (size 15 to 20)
#    1.500    1.250    1.250    2.250    1.750    0.500 
#    0.000    0.000    0.000    0.000    0.000    3.500 
#    7.500   38.375    0.000    0.000    0.000    0.000 
#
# Total GULP energy -89164.438623 kJ/mol
# GULP energy per Si atom -5572.777414 kJ/mol
# Density = 2.473898 g / cm^3
# Si number density = 24.795418 Si / 1000 Ang^3
#
#
#
# Elastic Constant Matrix: (Units=GPa)
#
#
# Indices 1 2 3 4 5 6 
#
# 1 90.7815 27.7346 31.2529 -6.9839 -9.5778 -3.2837
# 2 27.7346 71.8079 31.8965 5.2691 -14.0788 -10.5853
# 3 31.2529 31.8965 133.1069 11.3778 -5.2758 1.0906
# 4 -6.9839 5.2691 11.3778 25.1818 8.8242 -10.9186
# 5 -9.5778 -14.0788 -5.2758 8.8242 27.2800 -8.4731
# 6 -3.2837 -10.5853 1.0906 -10.9186 -8.4731 37.1833
#
#
#
# Elastic Compliance Matrix: (Units=1/GPa)
#
#
# Indices 1 2 3 4 5 6 
#
# 1 0.013939 -0.004131 -0.002849 0.006752 0.000738 0.002289
# 2 -0.004131 0.020792 -0.003097 -0.005526 0.012610 0.006896
# 3 -0.002849 -0.003097 0.009451 -0.005800 0.000149 -0.003080
# 4 0.006752 -0.005526 -0.005800 0.056203 -0.016043 0.012041
# 5 0.000738 0.012610 0.000149 -0.016043 0.051993 0.010787
# 6 0.002289 0.006896 -0.003080 0.012041 0.010787 0.035143
#
#
# Mechanical properties :
#
#
# Convention : Reuss Voigt Hill
#
# Bulk Modulus (GPa) = 41.62093 53.05158 47.33626
# Shear Modulus (GPa) = 23.18217 31.58316 27.38267
#
# Velocity S-wave (km/s) = 3.06099 3.57284 3.32677
# Velocity P-wave (km/s) = 5.41434 6.20180 5.82140
#
# Compressibility (1/GPa) = 0.02402637
#
# Stress axis : x y z
#
# Youngs Moduli (GPa) = 71.74347 48.09646 105.81223
#
# Poissons Ratio (x) = 0.19870 0.30150
# Poissons Ratio (y) = 0.29639 0.32766
# Poissons Ratio (z) = 0.20442 0.14894
#
# Static dielectric constant tensor:
#      x y z
#    x 2.173310 0.118180 0.022160 
#    y 0.118180 2.072420 0.040930 
#    z 0.022160 0.040930 1.964620 
# 
# From -- ./inp_files/214319.got.cif
#   From: 2010.05.17/outbox.cif.g08.bks.cpg/sg2_108_cif.got.tgz:214319.got - 2010.06.03 11:33:40.
