data_PCOD9079368
_publ_section_title
;
Structure prediction by ZEFSAII (Michael W. Deem and Ramdas Pophale) SiO2 
 PCOD9079368
Probable space group: P -1
;
_chemical_formula_sum "Si O2"
_cell_formula_units_Z 14
_cell_length_a 20.999922
_cell_length_b 17.646091
_cell_length_c 12.050270
_cell_angle_alpha 140.596966
_cell_angle_beta 30.344387
_cell_angle_gamma 160.462732
_cell_volume 732.298032
_symmetry_space_group_name_H-M "P -1"
_symmetry_group_IT_number 2
_symmetry_cell_setting 'triclinic'
loop_
_space_group_symop_operation_xyz
x,y,z
-x,-y,-z
loop_
_atom_site_type_symbol
_atom_site_label
_atom_site_fract_x
_atom_site_fract_y
_atom_site_fract_z
Si Si1 0.820106 0.081872 0.230736
Si Si2 0.727904 0.270023 0.597695
Si Si3 0.820272 0.646772 0.194957
Si Si4 0.736639 0.857104 0.539301
Si Si5 0.988415 0.872465 0.797271
Si Si6 0.534595 0.341196 0.865390
Si Si7 0.731380 0.985228 0.913038
O O1 0.704213 0.115914 0.417064
O O2 0.870002 0.106825 0.313339
O O3 0.651338 0.839624 0.159349
O O4 0.078235 0.287699 0.008567
O O5 0.695719 0.350976 0.649653
O O6 0.000000 0.500000 0.500000
O O7 0.501780 0.115256 0.846412
O O8 0.787866 0.762297 0.390845
O O9 0.557219 0.373245 0.297585
O O10 0.034732 0.776649 0.101095
O O11 0.802307 0.997536 0.700185
O O12 0.881133 0.000693 0.372035
O O13 0.714460 0.598725 0.879716
O O14 0.000000 0.000000 0.000000
O O15 0.372033 0.207848 0.072050
#
# Coordination Sequence:
#
# PCOD9079368 Si02
#       7
#     2   2   2   2   2   2   2
#     4  11  20  41  61  92 116 154 202 241 296 346
#     4  10  18  36  70  89 116 149 203 256 283 345
#     4  10  21  37  61  85 114 159 201 243 285 349
#     4  11  22  37  58  84 123 159 192 242 294 355
#     4  12  24  38  57  88 125 157 193 242 304 355
#     4   9  22  37  62  89 113 151 198 246 291 344
#     4   9  21  38  60  90 111 151 204 242 294 339
#
# _framework density 19.117899000000001
#
# number of rings (size 3 to 8) (size 9 to 14) (size 15 to 20)
#    0.857    0.857    2.857    2.571    2.000    1.714 
#    0.000    0.714    0.000    1.714    0.000    0.000 
#    0.000    0.000    0.000    0.000    0.000    0.000 
#
# Total GULP energy -78054.705783 kJ/mol
# GULP energy per Si atom -5575.336127 kJ/mol
# Density = 1.907439 g / cm^3
# Si number density = 19.117899 Si / 1000 Ang^3
#
#
#
# Elastic Constant Matrix: (Units=GPa)
#
#
# Indices 1 2 3 4 5 6 
#
# 1 53.3013 28.2133 17.0124 -10.5008 13.0463 15.7783
# 2 28.2133 99.2091 4.9957 -6.6425 14.5084 2.3115
# 3 17.0124 4.9957 52.2156 5.5804 7.9573 3.3001
# 4 -10.5008 -6.6425 5.5804 28.6108 1.0108 -6.6883
# 5 13.0463 14.5084 7.9573 1.0108 32.7990 1.0401
# 6 15.7783 2.3115 3.3001 -6.6883 1.0401 22.3149
#
#
#
# Elastic Compliance Matrix: (Units=1/GPa)
#
#
# Indices 1 2 3 4 5 6 
#
# 1 0.035080 -0.007284 -0.009169 0.008650 -0.008148 -0.019721
# 2 -0.007284 0.012517 0.001276 0.001059 -0.003112 0.004127
# 3 -0.009169 0.001276 0.023095 -0.007291 -0.002323 0.000858
# 4 0.008650 0.001059 -0.007291 0.041681 -0.003663 0.007516
# 5 -0.008148 -0.003112 -0.002323 -0.003663 0.035667 0.003667
# 6 -0.019721 0.004127 0.000858 0.007516 0.003667 0.060285
#
#
# Mechanical properties :
#
#
# Convention : Reuss Voigt Hill
#
# Bulk Modulus (GPa) = 24.79029 33.90764 29.34897
# Shear Modulus (GPa) = 19.83154 27.04523 23.43839
#
# Velocity S-wave (km/s) = 3.22425 3.76527 3.50522
# Velocity P-wave (km/s) = 5.18230 6.05620 5.63622
#
# Compressibility (1/GPa) = 0.04033837
#
# Stress axis : x y z
#
# Youngs Moduli (GPa) = 28.50663 79.89261 43.29849
#
# Poissons Ratio (x) = 0.58194 0.39699
# Poissons Ratio (y) = 0.20764 -0.05525
# Poissons Ratio (z) = 0.26137 -0.10194
#
# Static dielectric constant tensor:
#      x y z
#    x 1.691750 0.013950 -0.038540 
#    y 0.013950 1.688780 -0.002250 
#    z -0.038540 -0.002250 1.676720 
# 
# From -- ./inp_files/303048.got.cif
#   From: 2010.05.17/outbox.cif.g08.bks.cpg/sg2_152_cif.got.tgz:303048.got - 2010.06.03 11:33:40.
