data_PCOD9079818
_publ_section_title
;
Structure prediction by ZEFSAII (Michael W. Deem and Ramdas Pophale) SiO2 
 PCOD9079818
Probable space group: P -1
;
_chemical_formula_sum "Si O2"
_cell_formula_units_Z 12
_cell_length_a 12.102135
_cell_length_b 9.493308
_cell_length_c 10.019697
_cell_angle_alpha 69.892517
_cell_angle_beta 34.877252
_cell_angle_gamma 52.214784
_cell_volume 487.022560
_symmetry_space_group_name_H-M "P -1"
_symmetry_group_IT_number 2
_symmetry_cell_setting 'triclinic'
loop_
_space_group_symop_operation_xyz
x,y,z
-x,-y,-z
loop_
_atom_site_type_symbol
_atom_site_label
_atom_site_fract_x
_atom_site_fract_y
_atom_site_fract_z
Si Si1 0.237995 0.472840 0.328234
Si Si2 0.031693 0.099792 0.556053
Si Si3 0.478911 0.064599 0.199373
Si Si4 0.047751 0.240356 0.023430
Si Si5 0.790521 0.008245 0.306677
Si Si6 0.694996 0.590653 0.405469
O O1 0.450041 0.255733 0.142193
O O2 0.258531 0.464534 0.469067
O O3 0.000000 0.500000 0.500000
O O4 0.179163 0.673394 0.287388
O O5 0.295449 0.060447 0.285309
O O6 0.066256 0.009208 0.696744
O O7 0.000000 0.000000 0.500000
O O8 0.755691 0.882911 0.012023
O O9 0.348912 0.074967 0.466265
O O10 0.140144 0.348334 0.824388
O O11 0.065902 0.113805 0.926007
O O12 0.786814 0.405278 0.290065
O O13 0.578483 0.223816 0.408345
#
# Coordination Sequence:
#
# PCOD9079818 Si02
#       6
#     2   2   2   2   2   2
#     4  10  16  30  50  74 100 126 164 206 241 288
#     4   9  19  31  50  71  98 138 163 195 252 294
#     4   8  15  28  51  72  98 122 159 209 232 291
#     4  10  15  27  52  79  98 123 162 202 259 275
#     4   9  16  31  51  70 104 123 164 203 240 291
#     4  10  17  26  51  78  99 125 159 209 244 291
#
# _framework density 24.639514999999999
#
# number of rings (size 3 to 8) (size 9 to 14) (size 15 to 20)
#    1.000    1.667    3.333    1.000    0.000    0.000 
#    0.000    4.167    3.667    2.000    0.000    0.000 
#    0.000    0.000    0.000    0.000    0.000    0.000 
#
# Total GULP energy -67018.750973 kJ/mol
# GULP energy per Si atom -5584.895914 kJ/mol
# Density = 2.458343 g / cm^3
# Si number density = 24.639515 Si / 1000 Ang^3
#
#
#
# Elastic Constant Matrix: (Units=GPa)
#
#
# Indices 1 2 3 4 5 6 
#
# 1 176.6481 83.6914 55.0202 18.0422 26.9129 2.8869
# 2 83.6914 104.3414 45.4757 27.3077 7.1863 3.3830
# 3 55.0202 45.4757 78.4257 25.6491 6.4014 5.9794
# 4 18.0422 27.3077 25.6491 48.1451 14.0960 1.2192
# 5 26.9129 7.1863 6.4014 14.0960 26.3925 5.6820
# 6 2.8869 3.3830 5.9794 1.2192 5.6820 58.8089
#
#
#
# Elastic Compliance Matrix: (Units=1/GPa)
#
#
# Indices 1 2 3 4 5 6 
#
# 1 0.012810 -0.009006 -0.005038 0.006874 -0.013394 0.001553
# 2 -0.009006 0.019831 -0.002897 -0.009111 0.009599 -0.001143
# 3 -0.005038 -0.002897 0.020639 -0.009261 0.006319 -0.002103
# 4 0.006874 -0.009111 -0.009261 0.034443 -0.021209 0.002463
# 5 -0.013394 0.009599 0.006319 -0.021209 0.059998 -0.005894
# 6 0.001553 -0.001143 -0.002103 0.002463 -0.005894 0.017726
#
#
# Mechanical properties :
#
#
# Convention : Reuss Voigt Hill
#
# Bulk Modulus (GPa) = 51.55550 80.86555 66.21053
# Shear Modulus (GPa) = 24.29595 38.35116 31.32355
#
# Velocity S-wave (km/s) = 3.14356 3.94952 3.56936
# Velocity P-wave (km/s) = 5.84340 7.32727 6.62700
#
# Compressibility (1/GPa) = 0.01939657
#
# Stress axis : x y z
#
# Youngs Moduli (GPa) = 78.06241 50.42661 48.45236
#
# Poissons Ratio (x) = 0.45415 0.24411
# Poissons Ratio (y) = 0.70304 0.14039
# Poissons Ratio (z) = 0.39329 0.14611
#
# Static dielectric constant tensor:
#      x y z
#    x 1.970440 0.101370 -0.123170 
#    y 0.101370 2.046650 -0.132520 
#    z -0.123170 -0.132520 2.164840 
# 
# From -- ./inp_files/412562.got.cif
#   From: 2010.05.17/outbox.cif.g08.bks.cpg/sg2_207_cif.got.tgz:412562.got - 2010.06.03 11:33:40.
