data_PCOD9079962
_publ_section_title
;
Structure prediction by ZEFSAII (Michael W. Deem and Ramdas Pophale) SiO2 
 PCOD9079962
Probable space group: P -1
;
_chemical_formula_sum "Si O2"
_cell_formula_units_Z 16
_cell_length_a 9.437328
_cell_length_b 11.462383
_cell_length_c 15.031828
_cell_angle_alpha 134.889341
_cell_angle_beta 49.954726
_cell_angle_gamma 97.894358
_cell_volume 715.913362
_symmetry_space_group_name_H-M "P -1"
_symmetry_group_IT_number 2
_symmetry_cell_setting 'triclinic'
loop_
_space_group_symop_operation_xyz
x,y,z
-x,-y,-z
loop_
_atom_site_type_symbol
_atom_site_label
_atom_site_fract_x
_atom_site_fract_y
_atom_site_fract_z
Si Si1 0.375944 0.073085 0.217346
Si Si2 0.730552 0.038412 0.425309
Si Si3 0.899172 0.307570 0.466361
Si Si4 0.246317 0.316282 0.718384
Si Si5 0.565604 0.244220 0.103270
Si Si6 0.995928 0.245250 0.990537
Si Si7 0.868356 0.305884 0.274309
Si Si8 0.509743 0.756120 0.602494
O O1 0.529130 0.116230 0.119427
O O2 0.456097 0.078658 0.285731
O O3 0.114696 0.262749 0.408278
O O4 0.395667 0.876804 0.068941
O O5 0.821001 0.840795 0.342719
O O6 0.848034 0.153461 0.442812
O O7 0.460649 0.203823 0.639316
O O8 0.792703 0.941796 0.248285
O O9 0.666654 0.530809 0.687181
O O10 0.971046 0.260615 0.307475
O O11 0.046608 0.553242 0.927866
O O12 0.381234 0.310262 0.573723
O O13 0.774928 0.249773 0.053378
O O14 0.005203 0.252787 0.098054
O O15 0.674044 0.547792 0.480510
O O16 0.734648 0.202011 0.267856
#
# Coordination Sequence:
#
# PCOD9079962 Si02
#       8
#     2   2   2   2   2   2   2   2
#     4  11  23  36  57  86 119 158 194 220 297 354
#     4  11  22  37  61  90 110 156 198 236 291 336
#     4  12  21  39  58  88 121 153 191 239 286 348
#     4  10  22  40  61  84 117 152 197 247 278 335
#     4  11  21  36  56  84 120 157 185 234 287 354
#     4  11  20  39  60  88 119 148 193 241 291 342
#     4  10  19  34  59  88 119 146 185 243 300 330
#     4  10  18  38  59  83 118 154 187 240 291 339
#
# _framework density 22.349073000000001
#
# number of rings (size 3 to 8) (size 9 to 14) (size 15 to 20)
#    0.000    1.250    6.250    1.500    0.000    0.500 
#    4.500    0.625    0.000    0.750    0.000    0.000 
#    0.000    0.000    0.000    0.000    0.000    0.000 
#
# Total GULP energy -89338.076076 kJ/mol
# GULP energy per Si atom -5583.629755 kJ/mol
# Density = 2.229821 g / cm^3
# Si number density = 22.349073 Si / 1000 Ang^3
#
#
#
# Elastic Constant Matrix: (Units=GPa)
#
#
# Indices 1 2 3 4 5 6 
#
# 1 67.0851 -0.8914 16.7786 5.2808 2.4039 10.5325
# 2 -0.8914 101.4453 -9.7150 17.8032 -4.5983 14.9660
# 3 16.7786 -9.7150 81.1477 19.0689 -13.1226 1.9770
# 4 5.2808 17.8032 19.0689 36.2684 -0.1522 -0.8243
# 5 2.4039 -4.5983 -13.1226 -0.1522 35.1093 4.6514
# 6 10.5325 14.9660 1.9770 -0.8243 4.6514 15.1008
#
#
#
# Elastic Compliance Matrix: (Units=1/GPa)
#
#
# Indices 1 2 3 4 5 6 
#
# 1 0.018164 0.002789 -0.002249 -0.003180 0.000308 -0.015408
# 2 0.002789 0.015898 0.005673 -0.011645 0.006765 -0.021163
# 3 -0.002249 0.005673 0.017982 -0.012097 0.008864 -0.009798
# 4 -0.003180 -0.011645 -0.012097 0.040534 -0.008318 0.020118
# 5 0.000308 0.006765 0.008864 -0.008318 0.035191 -0.019373
# 6 -0.015408 -0.021163 -0.009798 0.020118 -0.019373 0.106291
#
#
# Mechanical properties :
#
#
# Convention : Reuss Voigt Hill
#
# Bulk Modulus (GPa) = 15.51112 29.11359 22.31235
# Shear Modulus (GPa) = 20.56559 33.52944 27.04751
#
# Velocity S-wave (km/s) = 3.03677 3.87752 3.48261
# Velocity P-wave (km/s) = 4.38764 5.75343 5.11631
#
# Compressibility (1/GPa) = 0.06446986
#
# Stress axis : x y z
#
# Youngs Moduli (GPa) = 55.05266 62.90202 55.61078
#
# Poissons Ratio (x) = -0.17546 0.12508
# Poissons Ratio (y) = -0.15357 -0.31545
# Poissons Ratio (z) = 0.12382 -0.35681
#
# Static dielectric constant tensor:
#      x y z
#    x 1.847230 -0.033250 0.010590 
#    y -0.033250 1.866240 0.022530 
#    z 0.010590 0.022530 1.920860 
# 
# From -- ./inp_files/437036.got.cif
#   From: 2010.05.17/outbox.cif.g08.bks.cpg/sg2_219_cif.got.tgz:437036.got - 2010.06.03 11:33:40.
