data_PCOD9079578
_publ_section_title
;
Structure prediction by ZEFSAII (Michael W. Deem and Ramdas Pophale) SiO2 
 PCOD9079578
Probable space group: P -1
;
_chemical_formula_sum "Si O2"
_cell_formula_units_Z 16
_cell_length_a 14.640362
_cell_length_b 12.548552
_cell_length_c 5.279644
_cell_angle_alpha 99.314306
_cell_angle_beta 69.755766
_cell_angle_gamma 59.026370
_cell_volume 707.181114
_symmetry_space_group_name_H-M "P -1"
_symmetry_group_IT_number 2
_symmetry_cell_setting 'triclinic'
loop_
_space_group_symop_operation_xyz
x,y,z
-x,-y,-z
loop_
_atom_site_type_symbol
_atom_site_label
_atom_site_fract_x
_atom_site_fract_y
_atom_site_fract_z
Si Si1 0.118735 0.994376 0.367116
Si Si2 0.385672 0.456171 0.309711
Si Si3 0.858339 0.880207 0.107124
Si Si4 0.518565 0.254855 0.484950
Si Si5 0.403107 0.012281 0.788590
Si Si6 0.671712 0.718581 0.942752
Si Si7 0.658643 0.285363 0.727915
Si Si8 0.064872 0.410168 0.152090
O O1 0.238453 0.837886 0.244152
O O2 0.120554 0.052208 0.118368
O O3 0.000000 0.000000 0.500000
O O4 0.117137 0.082876 0.631044
O O5 0.428421 0.412166 0.540623
O O6 0.316026 0.609933 0.345117
O O7 0.314214 0.393103 0.298468
O O8 0.522808 0.371333 0.018880
O O9 0.936531 0.718432 0.918519
O O10 0.716515 0.938231 0.241240
O O11 0.441985 0.244311 0.765341
O O12 0.639571 0.225880 0.472915
O O13 0.549978 0.136289 0.212579
O O14 0.360570 0.137613 0.066607
O O15 0.500000 0.000000 0.500000
O O16 0.792541 0.650655 0.973681
O O17 0.000000 0.500000 0.500000
O O18 0.000000 0.500000 0.000000
#
# Coordination Sequence:
#
# PCOD9079578 Si02
#       8
#     2   2   2   2   2   2   2   2
#     4  12  26  47  70 101 136 189 245 291 347 410
#     4  10  21  37  60  91 132 173 219 284 346 417
#     4  11  24  47  71 100 139 178 233 296 344 413
#     4  10  18  37  61  91 128 165 213 275 351 404
#     4   9  18  38  63  97 133 169 215 274 349 417
#     4   9  22  37  56  96 124 169 221 266 338 426
#     4  10  22  38  60  91 129 173 230 282 347 399
#     4  11  25  45  70  99 136 183 226 283 352 413
#
# _framework density 22.625039000000001
#
# number of rings (size 3 to 8) (size 9 to 14) (size 15 to 20)
#    0.000    1.750    1.250    2.250    1.750    2.500 
#    6.750    0.000    0.000    0.000    0.000    0.000 
#    0.000    0.000    0.000    0.000    0.000    0.000 
#
# Total GULP energy -89321.649156 kJ/mol
# GULP energy per Si atom -5582.603072 kJ/mol
# Density = 2.257354 g / cm^3
# Si number density = 22.625039 Si / 1000 Ang^3
#
#
#
# Elastic Constant Matrix: (Units=GPa)
#
#
# Indices 1 2 3 4 5 6 
#
# 1 83.7788 -5.2011 11.4211 4.5386 -14.4122 8.1930
# 2 -5.2011 130.5664 12.1168 2.5150 -6.2248 6.1770
# 3 11.4211 12.1168 53.9246 -2.7104 2.6041 6.4523
# 4 4.5386 2.5150 -2.7104 30.1379 3.4154 6.2178
# 5 -14.4122 -6.2248 2.6041 3.4154 22.5865 -3.4491
# 6 8.1930 6.1770 6.4523 6.2178 -3.4491 32.8212
#
#
#
# Elastic Compliance Matrix: (Units=1/GPa)
#
#
# Indices 1 2 3 4 5 6 
#
# 1 0.014749 0.001604 -0.004016 -0.003638 0.010654 -0.001385
# 2 0.001604 0.008177 -0.002320 -0.001369 0.003623 -0.000843
# 3 -0.004016 -0.002320 0.020976 0.004343 -0.006924 -0.004235
# 4 -0.003638 -0.001369 0.004343 0.036960 -0.009970 -0.007738
# 5 0.010654 0.003623 -0.006924 -0.009970 0.055250 0.005714
# 6 -0.001385 -0.000843 -0.004235 -0.007738 0.005714 0.033871
#
#
# Mechanical properties :
#
#
# Convention : Reuss Voigt Hill
#
# Bulk Modulus (GPa) = 29.03811 33.88259 31.46035
# Shear Modulus (GPa) = 26.18832 33.77131 29.97981
#
# Velocity S-wave (km/s) = 3.40589 3.86768 3.64410
# Velocity P-wave (km/s) = 5.32251 5.91214 5.62506
#
# Compressibility (1/GPa) = 0.03443750
#
# Stress axis : x y z
#
# Youngs Moduli (GPa) = 67.80315 122.29287 47.67449
#
# Poissons Ratio (x) = -0.19612 0.19145
# Poissons Ratio (y) = -0.10874 0.11060
# Poissons Ratio (z) = 0.27228 0.28371
#
# Static dielectric constant tensor:
#      x y z
#    x 1.840770 0.015170 0.062180 
#    y 0.015170 1.907530 0.062900 
#    z 0.062180 0.062900 1.900150 
# 
# From -- ./inp_files/94880.got.cif
#   From: 2010.05.17/outbox.cif.g08.bks.cpg/sg2_48_cif.got.tgz:94880.got - 2010.06.03 11:33:40.
