data_PCOD9079128
_publ_section_title
;
Structure prediction by ZEFSAII (Michael W. Deem and Ramdas Pophale) SiO2 
 PCOD9079128
Probable space group: P -1
;
_chemical_formula_sum "Si O2"
_cell_formula_units_Z 16
_cell_length_a 9.316335
_cell_length_b 15.514737
_cell_length_c 14.615857
_cell_angle_alpha 131.069009
_cell_angle_beta 131.140383
_cell_angle_gamma 30.071330
_cell_volume 775.423216
_symmetry_space_group_name_H-M "P -1"
_symmetry_group_IT_number 2
_symmetry_cell_setting 'triclinic'
loop_
_space_group_symop_operation_xyz
x,y,z
-x,-y,-z
loop_
_atom_site_type_symbol
_atom_site_label
_atom_site_fract_x
_atom_site_fract_y
_atom_site_fract_z
Si Si1 0.235833 0.434246 0.476403
Si Si2 0.286067 0.855202 0.316313
Si Si3 0.221157 0.703778 0.343877
Si Si4 0.129736 0.487789 0.773093
Si Si5 0.883020 0.512150 0.864463
Si Si6 0.309879 0.916258 0.862777
Si Si7 0.625993 0.043769 0.408828
Si Si8 0.331613 0.102240 0.150748
O O1 0.433545 0.452573 0.592900
O O2 0.488423 0.221506 0.430636
O O3 0.000000 0.500000 0.500000
O O4 0.068560 0.512666 0.366392
O O5 0.204642 0.794540 0.313405
O O6 0.545825 0.679049 0.244335
O O7 0.406759 0.909103 0.463704
O O8 0.994100 0.004568 0.238599
O O9 0.127166 0.618452 0.229049
O O10 0.973582 0.866149 0.421324
O O11 0.100897 0.466801 0.850081
O O12 0.966746 0.683360 0.821802
O O13 0.563401 0.709530 0.845776
O O14 0.000000 0.500000 0.000000
O O15 0.436437 0.933918 0.842266
O O16 0.275840 0.013976 0.005746
O O17 0.462473 0.030397 0.259716
#
# Coordination Sequence:
#
# PCOD9079128 Si02
#       8
#     2   2   2   2   2   2   2   2
#     4  10  18  36  62  97 125 152 204 265 307 363
#     4  11  21  38  67  96 120 155 215 271 302 366
#     4  11  22  37  66  93 124 166 207 253 316 376
#     4  10  22  39  63  92 128 161 203 265 313 368
#     4  11  26  45  61  86 132 171 208 252 318 379
#     4  10  21  39  62  89 121 162 219 257 300 371
#     4  10  19  34  61  94 124 155 206 255 310 366
#     4   9  19  34  62  90 118 164 210 251 302 373
#
# _framework density 20.633893
#
# number of rings (size 3 to 8) (size 9 to 14) (size 15 to 20)
#    0.000    1.750    3.750    2.250    7.000    1.000 
#    0.000    2.500    0.000    0.000    0.000    0.000 
#    0.000    0.000    0.000    0.000    0.000    0.000 
#
# Total GULP energy -89116.038158 kJ/mol
# GULP energy per Si atom -5569.752385 kJ/mol
# Density = 2.058693 g / cm^3
# Si number density = 20.633893 Si / 1000 Ang^3
#
#
#
# Elastic Constant Matrix: (Units=GPa)
#
#
# Indices 1 2 3 4 5 6 
#
# 1 14.9810 21.8802 14.8024 14.5514 -15.5244 -10.4532
# 2 21.8802 66.9037 34.2628 4.5658 -8.0003 -25.3152
# 3 14.8024 34.2628 82.2122 9.6008 -24.8228 -6.3322
# 4 14.5514 4.5658 9.6008 31.5136 1.8434 -7.5934
# 5 -15.5244 -8.0003 -24.8228 1.8434 26.6797 6.3489
# 6 -10.4532 -25.3152 -6.3322 -7.5934 6.3489 24.4937
#
#
#
# Elastic Compliance Matrix: (Units=1/GPa)
#
#
# Indices 1 2 3 4 5 6 
#
# 1 -0.096809 0.052212 -0.035058 0.064219 -0.088798 0.046511
# 2 0.052212 0.009675 -0.000155 -0.023131 0.030662 0.017123
# 3 -0.035058 -0.000155 0.015175 0.010322 -0.005474 -0.006580
# 4 0.064219 -0.023131 0.010322 -0.001323 0.041304 -0.004948
# 5 -0.088798 0.030662 -0.005474 0.041304 -0.015106 0.009099
# 6 0.046511 0.017123 -0.006580 -0.004948 0.009099 0.072780
#
#
# Mechanical properties :
#
#
# Convention : Reuss Voigt Hill
#
# Bulk Modulus (GPa) = -26.34383 33.99866 3.82742
# Shear Modulus (GPa) = -80.30743 22.74750 -28.77997
#
# Velocity S-wave (km/s) = -6.24537 3.32389 -3.73874
# Velocity P-wave (km/s) = 8.04992 5.58962 4.09617
#
# Compressibility (1/GPa) = -0.03795956
#
# Stress axis : x y z
#
# Youngs Moduli (GPa) = -10.32960 103.36271 65.89622
#
# Poissons Ratio (x) = -5.39682 2.31018
# Poissons Ratio (y) = 0.53933 0.01021
# Poissons Ratio (z) = -0.36213 0.01601
#
# Static dielectric constant tensor:
#      x y z
#    x 1.734680 -0.032660 -0.010570 
#    y -0.032660 1.745530 -0.006380 
#    z -0.010570 -0.006380 1.824360 
# 
# From -- ./inp_files/505509.got.cif
#   From: 2010.05.17/outbox.cif.g08.bks.cpg/sg2_253_cif.got.tgz:505509.got - 2010.06.03 11:33:40.
