data_PCOD9079403
_publ_section_title
;
Structure prediction by ZEFSAII (Michael W. Deem and Ramdas Pophale) SiO2 
 PCOD9079403
Probable space group: P -1
;
_chemical_formula_sum "Si O2"
_cell_formula_units_Z 12
_cell_length_a 9.437358
_cell_length_b 14.134090
_cell_length_c 7.730197
_cell_angle_alpha 68.878633
_cell_angle_beta 87.674099
_cell_angle_gamma 144.326620
_cell_volume 443.291215
_symmetry_space_group_name_H-M "P -1"
_symmetry_group_IT_number 2
_symmetry_cell_setting 'triclinic'
loop_
_space_group_symop_operation_xyz
x,y,z
-x,-y,-z
loop_
_atom_site_type_symbol
_atom_site_label
_atom_site_fract_x
_atom_site_fract_y
_atom_site_fract_z
Si Si1 0.917223 0.695573 0.850775
Si Si2 0.288051 0.091430 0.328836
Si Si3 0.466280 0.938256 0.847757
Si Si4 0.064088 0.417857 0.378056
Si Si5 0.682213 0.368107 0.443424
Si Si6 0.016562 0.939697 0.871047
O O1 0.762071 0.524817 0.826177
O O2 0.811182 0.708181 0.996723
O O3 0.090670 0.887158 0.589606
O O4 0.145110 0.765169 0.894411
O O5 0.540331 0.300432 0.308096
O O6 0.072265 0.036272 0.288140
O O7 0.282148 0.843165 0.424255
O O8 0.977033 0.481631 0.329952
O O9 0.553487 0.877362 0.846497
O O10 0.500000 0.000000 0.000000
O O11 0.208617 0.483674 0.514232
O O12 0.373771 0.130236 0.712767
O O13 0.000000 0.000000 0.000000
#
# Coordination Sequence:
#
# PCOD9079403 Si02
#       6
#     2   2   2   2   2   2
#     4  10  18  37  56  80 107 148 192 213 265 337
#     4  10  19  35  56  81 106 151 186 215 271 334
#     4  11  19  33  56  84 111 140 186 229 267 318
#     4  10  19  35  59  84 106 145 185 232 265 321
#     4  10  19  36  58  82 110 143 188 223 273 323
#     4  11  22  36  56  84 113 145 182 227 274 326
#
# _framework density 27.070240999999999
#
# number of rings (size 3 to 8) (size 9 to 14) (size 15 to 20)
#    0.000    1.667    5.000    4.000    0.000    0.000 
#    0.000   10.833    0.000    0.000    0.000    0.000 
#    0.000    0.000    0.000    0.000    0.000    0.000 
#
# Total GULP energy -67008.798552 kJ/mol
# GULP energy per Si atom -5584.066546 kJ/mol
# Density = 2.700863 g / cm^3
# Si number density = 27.070241 Si / 1000 Ang^3
#
#
#
# Elastic Constant Matrix: (Units=GPa)
#
#
# Indices 1 2 3 4 5 6 
#
# 1 166.9504 50.3295 24.5628 16.3210 3.1549 -32.8994
# 2 50.3295 174.2938 25.2187 46.7972 -0.0127 -49.3762
# 3 24.5628 25.2187 66.4245 18.7841 4.1086 1.1882
# 4 16.3210 46.7972 18.7841 51.9162 0.9954 -7.3606
# 5 3.1549 -0.0127 4.1086 0.9954 43.1554 7.5831
# 6 -32.8994 -49.3762 1.1882 -7.3606 7.5831 61.9030
#
#
#
# Elastic Compliance Matrix: (Units=1/GPa)
#
#
# Indices 1 2 3 4 5 6 
#
# 1 0.007268 -0.000715 -0.002338 -0.000293 -0.000902 0.003413
# 2 -0.000715 0.010101 -0.001575 -0.007310 -0.000846 0.006942
# 3 -0.002338 -0.001575 0.017989 -0.004807 -0.000849 -0.003312
# 4 -0.000293 -0.007310 -0.004807 0.027295 0.000320 -0.002688
# 5 -0.000902 -0.000846 -0.000849 0.000320 0.024022 -0.004042
# 6 0.003413 0.006942 -0.003312 -0.002688 -0.004042 0.023744
#
#
# Mechanical properties :
#
#
# Convention : Reuss Voigt Hill
#
# Bulk Modulus (GPa) = 38.31411 67.54341 52.92876
# Shear Modulus (GPa) = 38.94848 51.89879 45.42363
#
# Velocity S-wave (km/s) = 3.79726 4.38332 4.10077
# Velocity P-wave (km/s) = 5.78013 7.11501 6.48202
#
# Compressibility (1/GPa) = 0.02610004
#
# Stress axis : x y z
#
# Youngs Moduli (GPa) = 137.59776 99.00119 55.59090
#
# Poissons Ratio (x) = 0.07076 0.13000
# Poissons Ratio (y) = 0.09835 0.08757
# Poissons Ratio (z) = 0.32176 0.15596
#
# Static dielectric constant tensor:
#      x y z
#    x 2.128640 -0.093990 -0.077880 
#    y -0.093990 2.212730 -0.080720 
#    z -0.077880 -0.080720 2.243150 
# 
# From -- ./inp_files/337128.got.cif
#   From: 2010.05.17/outbox.cif.g08.bks.cpg/sg2_169_cif.got.tgz:337128.got - 2010.06.03 11:33:40.
