data_PCOD9079170
_publ_section_title
;
Structure prediction by ZEFSAII (Michael W. Deem and Ramdas Pophale) SiO2 
 PCOD9079170
Probable space group: P -1
;
_chemical_formula_sum "Si O2"
_cell_formula_units_Z 12
_cell_length_a 8.766451
_cell_length_b 12.708200
_cell_length_c 7.648090
_cell_angle_alpha 63.757325
_cell_angle_beta 130.810709
_cell_angle_gamma 132.346808
_cell_volume 476.621128
_symmetry_space_group_name_H-M "P -1"
_symmetry_group_IT_number 2
_symmetry_cell_setting 'triclinic'
loop_
_space_group_symop_operation_xyz
x,y,z
-x,-y,-z
loop_
_atom_site_type_symbol
_atom_site_label
_atom_site_fract_x
_atom_site_fract_y
_atom_site_fract_z
Si Si1 0.619895 0.655203 0.131662
Si Si2 0.193720 0.828973 0.779370
Si Si3 0.876887 0.802448 0.858764
Si Si4 0.077756 0.564298 0.704188
Si Si5 0.261447 0.081330 0.793241
Si Si6 0.422646 0.578028 0.513397
O O1 0.618007 0.518898 0.277160
O O2 0.791606 0.736815 0.033831
O O3 0.337317 0.598447 0.929379
O O4 0.709677 0.770337 0.272262
O O5 0.103672 0.713826 0.643995
O O6 0.026333 0.759013 0.880181
O O7 0.470317 0.879076 0.983911
O O8 0.191165 0.971257 0.658541
O O9 0.626337 0.737064 0.608917
O O10 0.063242 0.971881 0.867774
O O11 0.000000 0.500000 0.500000
O O12 0.833553 0.451408 0.713519
O O13 0.500000 0.500000 0.500000
#
# Coordination Sequence:
#
# PCOD9079170 Si02
#       6
#     2   2   2   2   2   2
#     4  11  23  38  68  93 122 170 202 250 320 362
#     4   8  17  35  62  89 126 160 200 257 302 359
#     4  10  18  36  63  91 126 162 201 254 312 362
#     4  11  22  39  59  92 129 158 207 257 302 367
#     4   8  17  37  61  93 121 163 208 247 309 374
#     4  12  24  42  60  94 128 162 209 261 300 371
#
# _framework density 25.177229000000001
#
# number of rings (size 3 to 8) (size 9 to 14) (size 15 to 20)
#    1.000    1.000    3.333    1.000    0.000    0.667 
#    0.000    3.333    0.000   11.000    0.000    0.000 
#    0.000    0.000    0.000    0.000    0.000    0.000 
#
# Total GULP energy -66921.133160 kJ/mol
# GULP energy per Si atom -5576.761097 kJ/mol
# Density = 2.511992 g / cm^3
# Si number density = 25.177229 Si / 1000 Ang^3
#
#
#
# Elastic Constant Matrix: (Units=GPa)
#
#
# Indices 1 2 3 4 5 6 
#
# 1 131.0048 46.1686 46.4702 1.9716 12.3307 8.2140
# 2 46.1686 136.4754 32.4626 28.8920 15.8982 -22.1618
# 3 46.4702 32.4626 65.2042 12.8328 5.4560 1.0664
# 4 1.9716 28.8920 12.8328 48.9959 -4.3505 1.0192
# 5 12.3307 15.8982 5.4560 -4.3505 44.9730 12.7514
# 6 8.2140 -22.1618 1.0664 1.0192 12.7514 64.4339
#
#
#
# Elastic Compliance Matrix: (Units=1/GPa)
#
#
# Indices 1 2 3 4 5 6 
#
# 1 0.011436 -0.003291 -0.007134 0.003395 -0.000066 -0.002512
# 2 -0.003291 0.011924 -0.001854 -0.007011 -0.005391 0.005729
# 3 -0.007134 -0.001854 0.022275 -0.004504 -0.000550 0.000083
# 4 0.003395 -0.007011 -0.004504 0.026198 0.005860 -0.004344
# 5 -0.000066 -0.005391 -0.000550 0.005860 0.026846 -0.007242
# 6 -0.002512 0.005729 0.000083 -0.004344 -0.007242 0.019311
#
#
# Mechanical properties :
#
#
# Convention : Reuss Voigt Hill
#
# Bulk Modulus (GPa) = 47.44249 64.76525 56.10387
# Shear Modulus (GPa) = 33.42828 45.51943 39.47385
#
# Velocity S-wave (km/s) = 3.64774 4.25662 3.96389
# Velocity P-wave (km/s) = 6.05191 7.06669 6.57889
#
# Compressibility (1/GPa) = 0.02107815
#
# Stress axis : x y z
#
# Youngs Moduli (GPa) = 87.44159 83.86235 44.89411
#
# Poissons Ratio (x) = 0.27599 0.32026
# Poissons Ratio (y) = 0.28777 0.08323
# Poissons Ratio (z) = 0.62377 0.15547
#
# Static dielectric constant tensor:
#      x y z
#    x 2.182770 0.089760 -0.025750 
#    y 0.089760 2.016150 0.044930 
#    z -0.025750 0.044930 2.064170 
# 
# From -- ./inp_files/186188.got.cif
#   From: 2010.05.17/outbox.cif.g08.bks.cpg/sg2_94_cif.got.tgz:186188.got - 2010.06.03 11:33:40.
