data_PCOD9079973
_publ_section_title
;
Structure prediction by ZEFSAII (Michael W. Deem and Ramdas Pophale) SiO2 
 PCOD9079973
Probable space group: P -1
;
_chemical_formula_sum "Si O2"
_cell_formula_units_Z 11
_cell_length_a 6.781504
_cell_length_b 12.889683
_cell_length_c 9.837129
_cell_angle_alpha 144.971688
_cell_angle_beta 72.705300
_cell_angle_gamma 86.505046
_cell_volume 391.861329
_symmetry_space_group_name_H-M "P -1"
_symmetry_group_IT_number 2
_symmetry_cell_setting 'triclinic'
loop_
_space_group_symop_operation_xyz
x,y,z
-x,-y,-z
loop_
_atom_site_type_symbol
_atom_site_label
_atom_site_fract_x
_atom_site_fract_y
_atom_site_fract_z
Si Si1 0.127719 0.152121 0.338947
Si Si2 0.328667 0.968359 0.815249
Si Si3 0.267673 0.809598 0.145900
Si Si4 0.598946 0.590829 0.187737
Si Si5 0.815204 0.598433 0.771762
Si Si6 0.500000 0.000000 0.500000
O O1 0.398266 0.102207 0.267258
O O2 0.941967 0.411122 0.656045
O O3 0.093461 0.000629 0.282977
O O4 0.158327 0.067219 0.087420
O O5 0.374837 0.752996 0.511191
O O6 0.241271 0.161051 0.927043
O O7 0.329395 0.920420 0.373127
O O8 0.210898 0.632300 0.010564
O O9 0.540969 0.663080 0.860066
O O10 0.649324 0.761984 0.298098
O O11 0.500000 0.500000 0.000000
O O12 0.000000 0.500000 0.500000
#
# Coordination Sequence:
#
# PCOD9079973 Si02
#       6
#     2   2   2   2   2   1
#     4   9  17  32  58  84 112 143 184 228 280 332
#     4   9  17  34  56  83 112 148 183 227 279 329
#     4  10  20  35  59  84 111 148 189 225 277 335
#     4  10  20  34  61  82 106 154 192 222 280 331
#     4   9  17  33  57  84 116 148 179 223 284 333
#     4  10  18  38  60  72 110 156 182 226 276 320
#
# _framework density 28.071155000000001
#
# number of rings (size 3 to 8) (size 9 to 14) (size 15 to 20)
#    0.000    2.545    3.636    1.091    0.000    0.727 
#    0.000    6.364    0.000    4.364    0.000    0.000 
#    0.000    0.000    0.000    0.000    0.000    0.000 
#
# Total GULP energy -61336.871108 kJ/mol
# GULP energy per Si atom -5576.079192 kJ/mol
# Density = 2.800726 g / cm^3
# Si number density = 28.071155 Si / 1000 Ang^3
#
#
#
# Elastic Constant Matrix: (Units=GPa)
#
#
# Indices 1 2 3 4 5 6 
#
# 1 87.2530 40.8547 56.8771 14.3840 2.8793 15.2290
# 2 40.8547 172.2121 96.8798 69.9841 11.3482 4.8223
# 3 56.8771 96.8798 248.8370 56.3210 24.4496 9.7301
# 4 14.3840 69.9841 56.3210 81.6659 12.4076 -7.3830
# 5 2.8793 11.3482 24.4496 12.4076 61.9783 4.9995
# 6 15.2290 4.8223 9.7301 -7.3830 4.9995 33.2738
#
#
#
# Elastic Compliance Matrix: (Units=1/GPa)
#
#
# Indices 1 2 3 4 5 6 
#
# 1 0.015092 -0.002149 -0.002541 0.000224 0.001132 -0.005973
# 2 -0.002149 0.010428 -0.001854 -0.007523 0.000568 -0.001740
# 3 -0.002541 -0.001854 0.005904 -0.001858 -0.001460 -0.000488
# 4 0.000224 -0.007523 -0.001858 0.020925 -0.002619 0.006568
# 5 0.001132 0.000568 -0.001460 -0.002619 0.017350 -0.003361
# 6 -0.005973 -0.001740 -0.000488 0.006568 -0.003361 0.035145
#
#
# Mechanical properties :
#
#
# Convention : Reuss Voigt Hill
#
# Bulk Modulus (GPa) = 54.53729 99.72501 77.13115
# Shear Modulus (GPa) = 40.30817 56.29633 48.30225
#
# Velocity S-wave (km/s) = 3.79348 4.48312 4.15264
# Velocity P-wave (km/s) = 6.21753 7.89942 7.10839
#
# Compressibility (1/GPa) = 0.01833608
#
# Stress axis : x y z
#
# Youngs Moduli (GPa) = 66.26012 95.89557 169.36624
#
# Poissons Ratio (x) = 0.20610 0.43040
# Poissons Ratio (y) = 0.14240 0.31396
# Poissons Ratio (z) = 0.16838 0.17777
#
# Static dielectric constant tensor:
#      x y z
#    x 2.239240 -0.133410 0.039520 
#    y -0.133410 2.058740 0.203780 
#    z 0.039520 0.203780 1.922200 
# 
# From -- ./inp_files/264862.got.cif
#   From: 2010.05.17/outbox.cif.g08.bks.cpg/sg2_133_cif.got.tgz:264862.got - 2010.06.03 11:33:40.
