data_PCOD9079756
_publ_section_title
;
Structure prediction by ZEFSAII (Michael W. Deem and Ramdas Pophale) SiO2 
 PCOD9079756
Probable space group: P -1
;
_chemical_formula_sum "Si O2"
_cell_formula_units_Z 16
_cell_length_a 9.463496
_cell_length_b 18.438779
_cell_length_c 6.689435
_cell_angle_alpha 127.955586
_cell_angle_beta 49.873890
_cell_angle_gamma 110.961491
_cell_volume 702.302698
_symmetry_space_group_name_H-M "P -1"
_symmetry_group_IT_number 2
_symmetry_cell_setting 'triclinic'
loop_
_space_group_symop_operation_xyz
x,y,z
-x,-y,-z
loop_
_atom_site_type_symbol
_atom_site_label
_atom_site_fract_x
_atom_site_fract_y
_atom_site_fract_z
Si Si1 0.548102 0.414778 0.160784
Si Si2 0.264862 0.698428 0.857238
Si Si3 0.434735 0.182411 0.383107
Si Si4 0.047528 0.877825 0.346516
Si Si5 0.782356 0.701724 0.896725
Si Si6 0.236797 0.120034 0.066485
Si Si7 0.862997 0.423511 0.560415
Si Si8 0.731029 0.966601 0.506029
O O1 0.500000 0.500000 0.500000
O O2 0.643744 0.332165 0.069431
O O3 0.365299 0.372631 0.160886
O O4 0.699658 0.442356 0.903658
O O5 0.393563 0.757040 0.699427
O O6 0.227337 0.608379 0.615635
O O7 0.087237 0.769282 0.155053
O O8 0.372425 0.146944 0.164811
O O9 0.437036 0.090007 0.356645
O O10 0.289250 0.254527 0.753046
O O11 0.940078 0.908199 0.697102
O O12 0.915977 0.909448 0.334302
O O13 0.233166 0.932946 0.274191
O O14 0.782105 0.787257 0.890197
O O15 0.990585 0.657481 0.635998
O O16 0.283285 0.040358 0.729523
O O17 0.000000 0.500000 0.500000
#
# Coordination Sequence:
#
# PCOD9079756 Si02
#       8
#     2   2   2   2   2   2   2   2
#     4  12  28  46  70 101 136 174 226 286 348 413
#     4  12  24  43  67  98 133 178 229 278 338 411
#     4  10  21  38  66  91 131 177 221 271 335 392
#     4  10  21  37  63  97 136 173 229 276 327 404
#     4  11  23  44  69  93 134 176 224 277 339 408
#     4  10  18  37  64  91 124 181 218 268 333 391
#     4  12  28  45  70 102 132 175 230 284 348 414
#     4   9  20  38  61  97 133 179 222 275 335 387
#
# _framework density 22.782201000000001
#
# number of rings (size 3 to 8) (size 9 to 14) (size 15 to 20)
#    0.000    1.250    2.500    4.125    1.750    4.500 
#    0.000    0.625    0.000    0.000    0.000    0.000 
#    0.000    0.000    0.000    0.000    0.000    0.000 
#
# Total GULP energy -89324.824124 kJ/mol
# GULP energy per Si atom -5582.801508 kJ/mol
# Density = 2.273035 g / cm^3
# Si number density = 22.782201 Si / 1000 Ang^3
#
#
#
# Elastic Constant Matrix: (Units=GPa)
#
#
# Indices 1 2 3 4 5 6 
#
# 1 76.0657 7.6349 31.8314 -4.2733 13.4042 7.1927
# 2 7.6349 74.4988 7.7644 -2.1900 4.0577 26.4459
# 3 31.8314 7.7644 90.2180 -8.8799 16.7913 2.0469
# 4 -4.2733 -2.1900 -8.8799 38.7564 6.1705 -1.5506
# 5 13.4042 4.0577 16.7913 6.1705 33.0366 7.8181
# 6 7.1927 26.4459 2.0469 -1.5506 7.8181 49.7504
#
#
#
# Elastic Compliance Matrix: (Units=1/GPa)
#
#
# Indices 1 2 3 4 5 6 
#
# 1 0.016064 -0.000469 -0.004732 0.001249 -0.004002 -0.001211
# 2 -0.000469 0.016713 -0.001215 0.000126 0.000836 -0.008894
# 3 -0.004732 -0.001215 0.014379 0.003796 -0.006388 0.001860
# 4 0.001249 0.000126 0.003796 0.028181 -0.008130 0.001752
# 5 -0.004002 0.000836 -0.006388 -0.008130 0.037932 -0.005817
# 6 -0.001211 -0.008894 0.001860 0.001752 -0.005817 0.025895
#
#
# Mechanical properties :
#
#
# Convention : Reuss Voigt Hill
#
# Bulk Modulus (GPa) = 29.13329 37.24933 33.19131
# Shear Modulus (GPa) = 30.59291 37.21214 33.90252
#
# Velocity S-wave (km/s) = 3.66846 4.04590 3.86179
# Velocity P-wave (km/s) = 5.54607 6.18154 5.87241
#
# Compressibility (1/GPa) = 0.03432499
#
# Stress axis : x y z
#
# Youngs Moduli (GPa) = 62.25221 59.83376 69.54684
#
# Poissons Ratio (x) = 0.02803 0.32911
# Poissons Ratio (y) = 0.02917 0.08446
# Poissons Ratio (z) = 0.29459 0.07267
#
# Static dielectric constant tensor:
#      x y z
#    x 1.861410 0.011470 -0.052250 
#    y 0.011470 1.884880 0.014300 
#    z -0.052250 0.014300 1.878360 
# 
# From -- ./inp_files/48821.got.cif
#   From: 2010.05.17/outbox.cif.g08.bks.cpg/sg2_25_cif.got.tgz:48821.got - 2010.06.03 11:33:40.
