data_PCOD9079982
_publ_section_title
;
Structure prediction by ZEFSAII (Michael W. Deem and Ramdas Pophale) SiO2 
 PCOD9079982
Probable space group: P -1
;
_chemical_formula_sum "Si O2"
_cell_formula_units_Z 16
_cell_length_a 13.796935
_cell_length_b 7.807770
_cell_length_c 11.934140
_cell_angle_alpha 90.929400
_cell_angle_beta 61.725167
_cell_angle_gamma 138.337269
_cell_volume 614.812870
_symmetry_space_group_name_H-M "P -1"
_symmetry_group_IT_number 2
_symmetry_cell_setting 'triclinic'
loop_
_space_group_symop_operation_xyz
x,y,z
-x,-y,-z
loop_
_atom_site_type_symbol
_atom_site_label
_atom_site_fract_x
_atom_site_fract_y
_atom_site_fract_z
Si Si1 0.492432 0.210906 0.862262
Si Si2 0.733873 0.312094 0.495838
Si Si3 0.836882 0.435239 0.064366
Si Si4 0.462084 0.383044 0.290029
Si Si5 0.116181 0.876250 0.190839
Si Si6 0.952000 0.137571 0.527535
Si Si7 0.655691 0.426579 0.345490
Si Si8 0.746781 0.580785 0.947682
O O1 0.542436 0.432859 0.755684
O O2 0.652493 0.396675 0.878032
O O3 0.391994 0.933268 0.838328
O O4 0.292269 0.008543 0.035991
O O5 0.693537 0.442786 0.455874
O O6 0.921249 0.502619 0.314984
O O7 0.837631 0.484788 0.561836
O O8 0.549101 0.947776 0.573871
O O9 0.820107 0.541298 0.179863
O O10 0.876946 0.604493 0.935939
O O11 0.000000 0.500000 0.000000
O O12 0.610369 0.549636 0.316917
O O13 0.229202 0.043336 0.455293
O O14 0.572794 0.411311 0.131994
O O15 0.166748 0.979128 0.293453
O O16 0.122833 0.079060 0.142657
O O17 0.000000 0.000000 0.500000
#
# Coordination Sequence:
#
# PCOD9079982 Si02
#       8
#     2   2   2   2   2   2   2   2
#     4  11  18  36  62  86 115 153 185 247 293 339
#     4   9  20  39  60  76 120 163 189 229 289 344
#     4  11  25  35  55  89 120 147 198 242 284 342
#     4  10  20  36  62  90 112 149 199 239 290 345
#     4   9  18  35  63  82 115 147 192 232 295 343
#     4  10  20  36  60  87 115 144 195 243 281 333
#     4  10  22  40  59  83 119 162 195 227 289 353
#     4  10  18  38  60  85 114 152 189 240 298 340
#
# _framework density 26.024177999999999
#
# number of rings (size 3 to 8) (size 9 to 14) (size 15 to 20)
#    0.750    1.250    2.500    1.875    1.750    1.500 
#    0.000    8.125    0.000    0.000    0.000    0.000 
#    0.000    0.000    0.000    0.000    0.000    0.000 
#
# Total GULP energy -89176.287919 kJ/mol
# GULP energy per Si atom -5573.517995 kJ/mol
# Density = 2.596495 g / cm^3
# Si number density = 26.024178 Si / 1000 Ang^3
#
#
#
# Elastic Constant Matrix: (Units=GPa)
#
#
# Indices 1 2 3 4 5 6 
#
# 1 116.9777 -3.7586 15.8371 5.6713 -1.9432 15.6739
# 2 -3.7586 100.2100 18.4651 -7.5726 -3.8101 12.1984
# 3 15.8371 18.4651 59.3801 -3.1086 -9.7504 10.7027
# 4 5.6713 -7.5726 -3.1086 41.0723 4.1311 1.4875
# 5 -1.9432 -3.8101 -9.7504 4.1311 27.0598 -1.4702
# 6 15.6739 12.1984 10.7027 1.4875 -1.4702 18.5808
#
#
#
# Elastic Compliance Matrix: (Units=1/GPa)
#
#
# Indices 1 2 3 4 5 6 
#
# 1 0.010012 0.001653 -0.001701 -0.000901 0.000016 -0.008478
# 2 0.001653 0.011600 -0.002538 0.001985 0.000116 -0.007699
# 3 -0.001701 -0.002538 0.020695 0.000997 0.006369 -0.008395
# 4 -0.000901 0.001985 0.000997 0.025388 -0.003488 -0.003426
# 5 0.000016 0.000116 0.006369 -0.003488 0.039782 -0.000331
# 6 -0.008478 -0.007699 -0.008395 -0.003426 -0.000331 0.071109
#
#
# Mechanical properties :
#
#
# Convention : Reuss Voigt Hill
#
# Bulk Modulus (GPa) = 26.92759 37.51722 32.22240
# Shear Modulus (GPa) = 25.49268 33.74419 29.61843
#
# Velocity S-wave (km/s) = 3.13321 3.60481 3.37725
# Velocity P-wave (km/s) = 4.84345 5.63682 5.25513
#
# Compressibility (1/GPa) = 0.03713663
#
# Stress axis : x y z
#
# Youngs Moduli (GPa) = 99.88049 86.20510 48.32185
#
# Poissons Ratio (x) = -0.14254 0.08219
# Poissons Ratio (y) = -0.16515 0.12262
# Poissons Ratio (z) = 0.16989 0.21876
#
# Static dielectric constant tensor:
#      x y z
#    x 2.141300 0.042110 -0.035010 
#    y 0.042110 2.173270 -0.037540 
#    z -0.035010 -0.037540 2.068670 
# 
# From -- ./inp_files/514295.got.cif
#   From: 2010.05.17/outbox.cif.g08.bks.cpg/sg2_258_cif.got.tgz:514295.got - 2010.06.03 11:33:40.
