data_PCOD9079134
_publ_section_title
;
Structure prediction by ZEFSAII (Michael W. Deem and Ramdas Pophale) SiO2 
 PCOD9079134
Probable space group: P -1
;
_chemical_formula_sum "Si O2"
_cell_formula_units_Z 16
_cell_length_a 7.640476
_cell_length_b 7.420478
_cell_length_c 16.003758
_cell_angle_alpha 98.988322
_cell_angle_beta 69.218407
_cell_angle_gamma 105.066755
_cell_volume 817.093268
_symmetry_space_group_name_H-M "P -1"
_symmetry_group_IT_number 2
_symmetry_cell_setting 'triclinic'
loop_
_space_group_symop_operation_xyz
x,y,z
-x,-y,-z
loop_
_atom_site_type_symbol
_atom_site_label
_atom_site_fract_x
_atom_site_fract_y
_atom_site_fract_z
Si Si1 0.976107 0.400538 0.359680
Si Si2 0.886093 0.599546 0.848067
Si Si3 0.545156 0.303094 0.832569
Si Si4 0.715422 0.657630 0.357189
Si Si5 0.794631 0.566177 0.155158
Si Si6 0.668281 0.284399 0.627242
Si Si7 0.836756 0.036107 0.468454
Si Si8 0.174265 0.174249 0.976937
O O1 0.070091 0.355353 0.252972
O O2 0.130946 0.565233 0.390158
O O3 0.083738 0.785916 0.590811
O O4 0.798038 0.494517 0.374346
O O5 0.734261 0.399351 0.857797
O O6 0.089571 0.590103 0.855052
O O7 0.795069 0.734102 0.930547
O O8 0.429270 0.465312 0.836591
O O9 0.605900 0.228166 0.729069
O O10 0.380287 0.161500 0.901367
O O11 0.803730 0.677989 0.249622
O O12 0.488171 0.615321 0.379183
O O13 0.769680 0.849707 0.412534
O O14 0.890814 0.687106 0.069556
O O15 0.681656 0.104515 0.557862
O O16 0.000000 0.000000 0.500000
O O17 0.000000 0.000000 0.000000
#
# Coordination Sequence:
#
# PCOD9079134 Si02
#       8
#     2   2   2   2   2   2   2   2
#     4  10  23  40  61  90 121 153 204 247 293 361
#     4  10  18  36  63  80 108 160 191 231 293 343
#     4   8  19  35  59  80 113 152 195 234 283 351
#     4  10  21  41  61  87 119 161 196 246 302 343
#     4   8  19  35  59  79 116 148 192 233 286 346
#     4  10  20  41  61  84 120 160 201 248 295 346
#     4  12  24  39  64  88 123 158 200 247 302 356
#     4  10  20  34  58  87 119 146 186 244 288 345
#
# _framework density 19.581607000000002
#
# number of rings (size 3 to 8) (size 9 to 14) (size 15 to 20)
#    0.750    1.500    1.250    1.500    1.750    0.500 
#    2.250    0.625    5.500    0.000    0.000    0.000 
#    0.000    0.000    0.000    0.000    0.000    0.000 
#
# Total GULP energy -89067.974109 kJ/mol
# GULP energy per Si atom -5566.748382 kJ/mol
# Density = 1.953704 g / cm^3
# Si number density = 19.581607 Si / 1000 Ang^3
#
#
#
# Elastic Constant Matrix: (Units=GPa)
#
#
# Indices 1 2 3 4 5 6 
#
# 1 80.0593 1.9119 7.4504 0.1249 -0.7690 -6.0132
# 2 1.9119 39.6208 33.8434 -4.9622 -1.1106 -13.0375
# 3 7.4504 33.8434 99.0204 -6.2586 -3.3574 -2.6327
# 4 0.1249 -4.9622 -6.2586 12.2213 8.2935 -1.4265
# 5 -0.7690 -1.1106 -3.3574 8.2935 24.1457 -2.9491
# 6 -6.0132 -13.0375 -2.6327 -1.4265 -2.9491 15.7693
#
#
#
# Elastic Compliance Matrix: (Units=1/GPa)
#
#
# Indices 1 2 3 4 5 6 
#
# 1 0.013211 0.003900 -0.002033 0.000612 0.001107 0.008185
# 2 0.003900 0.059116 -0.017886 0.021155 -0.000911 0.049119
# 3 -0.002033 -0.017886 0.015985 -0.000521 -0.000068 -0.012954
# 4 0.000612 0.021155 -0.000521 0.117667 -0.036885 0.021382
# 5 0.001107 -0.000911 -0.000068 -0.036885 0.054872 0.006584
# 6 0.008185 0.049119 -0.012954 0.021382 0.006584 0.108148
#
#
# Mechanical properties :
#
#
# Convention : Reuss Voigt Hill
#
# Bulk Modulus (GPa) = 17.77004 33.90133 25.83568
# Shear Modulus (GPa) = 11.91054 22.12691 17.01873
#
# Velocity S-wave (km/s) = 2.46895 3.36517 2.95128
# Velocity P-wave (km/s) = 4.14996 5.69645 4.98356
#
# Compressibility (1/GPa) = 0.05627449
#
# Stress axis : x y z
#
# Youngs Moduli (GPa) = 75.69289 16.91594 62.55720
#
# Poissons Ratio (x) = -0.06598 0.12720
# Poissons Ratio (y) = -0.29522 1.11890
# Poissons Ratio (z) = 0.15390 0.30256
#
# Static dielectric constant tensor:
#      x y z
#    x 1.722190 0.001130 -0.020190 
#    y 0.001130 1.652990 -0.008830 
#    z -0.020190 -0.008830 1.723060 
# 
# From -- ./inp_files/554402.got.cif
#   From: 2010.05.17/outbox.cif.g08.bks.cpg/sg2_278_cif.got.tgz:554402.got - 2010.06.03 11:33:40.
