data_PCOD9079506
_publ_section_title
;
Structure prediction by ZEFSAII (Michael W. Deem and Ramdas Pophale) SiO2 
 PCOD9079506
Probable space group: P -1
;
_chemical_formula_sum "Si O2"
_cell_formula_units_Z 16
_cell_length_a 9.234705
_cell_length_b 15.056565
_cell_length_c 12.201495
_cell_angle_alpha 46.233663
_cell_angle_beta 59.106679
_cell_angle_gamma 89.805412
_cell_volume 865.570016
_symmetry_space_group_name_H-M "P -1"
_symmetry_group_IT_number 2
_symmetry_cell_setting 'triclinic'
loop_
_space_group_symop_operation_xyz
x,y,z
-x,-y,-z
loop_
_atom_site_type_symbol
_atom_site_label
_atom_site_fract_x
_atom_site_fract_y
_atom_site_fract_z
Si Si1 0.520134 0.812665 0.451820
Si Si2 0.541660 0.168917 0.281175
Si Si3 0.086537 0.001474 0.584192
Si Si4 0.894254 0.088983 0.967414
Si Si5 0.313284 0.505118 0.113923
Si Si6 0.025097 0.760663 0.971328
Si Si7 0.150855 0.235774 0.549059
Si Si8 0.071944 0.549112 0.805774
O O1 0.471422 0.821973 0.590100
O O2 0.669963 0.757088 0.456979
O O3 0.300708 0.695417 0.584546
O O4 0.659349 0.966921 0.198649
O O5 0.315248 0.045092 0.435639
O O6 0.729209 0.157013 0.198729
O O7 0.600907 0.321486 0.069061
O O8 0.110141 0.128617 0.550470
O O9 0.974435 0.847011 0.829317
O O10 0.000000 0.000000 0.500000
O O11 0.007656 0.208980 0.918170
O O12 0.949045 0.164851 0.762675
O O13 0.000000 0.000000 0.000000
O O14 0.238796 0.403078 0.336735
O O15 0.102457 0.432980 0.189220
O O16 0.500000 0.500000 0.000000
O O17 0.934998 0.589868 0.126014
O O18 0.000000 0.500000 0.000000
#
# Coordination Sequence:
#
# PCOD9079506 Si02
#       8
#     2   2   2   2   2   2   2   2
#     4  10  18  37  60  87 117 154 206 235 293 355
#     4  10  20  35  56  89 115 157 192 243 308 344
#     4  11  22  32  58  92 119 142 193 258 307 336
#     4  10  20  40  63  79 115 171 206 227 287 364
#     4  11  19  36  59  83 121 149 192 243 304 349
#     4  11  21  37  61  86 122 152 201 242 293 358
#     4  10  21  39  60  82 118 163 196 240 295 357
#     4  11  22  34  58  94 120 152 191 251 302 344
#
# _framework density 18.484928
#
# number of rings (size 3 to 8) (size 9 to 14) (size 15 to 20)
#    0.000    1.500    8.750    0.375    1.750    1.000 
#    0.000    5.625    2.750    0.000    0.000    0.000 
#    0.000    0.000    0.000    0.000    0.000    0.000 
#
# Total GULP energy -89077.971936 kJ/mol
# GULP energy per Si atom -5567.373246 kJ/mol
# Density = 1.844286 g / cm^3
# Si number density = 18.484928 Si / 1000 Ang^3
#
#
#
# Elastic Constant Matrix: (Units=GPa)
#
#
# Indices 1 2 3 4 5 6 
#
# 1 87.3810 17.4746 25.9784 -5.7905 -1.2701 8.2448
# 2 17.4746 80.0003 26.2092 4.7656 -0.8987 0.7894
# 3 25.9784 26.2092 128.8364 -0.5030 7.0904 3.0631
# 4 -5.7905 4.7656 -0.5030 28.1625 1.0933 0.4191
# 5 -1.2701 -0.8987 7.0904 1.0933 33.4705 -9.4792
# 6 8.2448 0.7894 3.0631 0.4191 -9.4792 21.0094
#
#
#
# Elastic Compliance Matrix: (Units=1/GPa)
#
#
# Indices 1 2 3 4 5 6 
#
# 1 0.013205 -0.002374 -0.002005 0.003186 -0.000710 -0.005185
# 2 -0.002374 0.014012 -0.002489 -0.002976 0.001313 0.001420
# 3 -0.002005 -0.002489 0.008845 0.000285 -0.002458 -0.001524
# 4 0.003186 -0.002976 0.000285 0.036792 -0.002022 -0.002826
# 5 -0.000710 0.001313 -0.002458 -0.002022 0.035140 0.016483
# 6 -0.005185 0.001420 -0.001524 -0.002826 0.016483 0.057294
#
#
# Mechanical properties :
#
#
# Convention : Reuss Voigt Hill
#
# Bulk Modulus (GPa) = 44.79224 48.39357 46.59291
# Shear Modulus (GPa) = 26.81432 31.63219 29.22325
#
# Velocity S-wave (km/s) = 3.81281 4.14120 3.98040
# Velocity P-wave (km/s) = 6.60816 7.00735 6.81068
#
# Compressibility (1/GPa) = 0.02232529
#
# Stress axis : x y z
#
# Youngs Moduli (GPa) = 75.72918 71.36691 113.05766
#
# Poissons Ratio (x) = 0.16944 0.22666
# Poissons Ratio (y) = 0.17979 0.28144
# Poissons Ratio (z) = 0.15183 0.17766
#
# Static dielectric constant tensor:
#      x y z
#    x 1.647160 -0.018860 -0.031690 
#    y -0.018860 1.693420 -0.000050 
#    z -0.031690 -0.000050 1.589420 
# 
# From -- ./inp_files/395438.got.cif
#   From: 2010.05.17/outbox.cif.g08.bks.cpg/sg2_198_cif.got.tgz:395438.got - 2010.06.03 11:33:40.
