data_PCOD9079516
_publ_section_title
;
Structure prediction by ZEFSAII (Michael W. Deem and Ramdas Pophale) SiO2 
 PCOD9079516
Probable space group: P -1
;
_chemical_formula_sum "Si O2"
_cell_formula_units_Z 16
_cell_length_a 18.506204
_cell_length_b 9.522332
_cell_length_c 24.415779
_cell_angle_alpha 27.660729
_cell_angle_beta 22.619572
_cell_angle_gamma 29.178245
_cell_volume 730.137514
_symmetry_space_group_name_H-M "P -1"
_symmetry_group_IT_number 2
_symmetry_cell_setting 'triclinic'
loop_
_space_group_symop_operation_xyz
x,y,z
-x,-y,-z
loop_
_atom_site_type_symbol
_atom_site_label
_atom_site_fract_x
_atom_site_fract_y
_atom_site_fract_z
Si Si1 0.434922 0.912717 0.516054
Si Si2 0.333855 0.616939 0.528838
Si Si3 0.871440 0.295084 0.137363
Si Si4 0.805576 0.784887 0.523016
Si Si5 0.595917 0.758143 0.093085
Si Si6 0.480270 0.570418 0.121642
Si Si7 0.589516 0.959463 0.769118
Si Si8 0.230064 0.698723 0.082197
O O1 0.630699 0.719541 0.411234
O O2 0.298650 0.696713 0.702956
O O3 0.500000 0.000000 0.500000
O O4 0.285589 0.164752 0.492351
O O5 0.500000 0.500000 0.500000
O O6 0.169571 0.881972 0.587496
O O7 0.361751 0.835373 0.383678
O O8 0.772190 0.467773 0.092317
O O9 0.012040 0.939060 0.152199
O O10 0.000000 0.500000 0.000000
O O11 0.634292 0.686454 0.709223
O O12 0.000000 0.500000 0.500000
O O13 0.520380 0.653907 0.126186
O O14 0.433497 0.850536 0.223123
O O15 0.642507 0.089271 0.936017
O O16 0.680189 0.439952 0.991581
O O17 0.742530 0.607461 0.792719
O O18 0.381501 0.887477 0.930209
#
# Coordination Sequence:
#
# PCOD9079516 Si02
#       8
#     2   2   2   2   2   2   2   2
#     4  11  25  45  66  94 135 176 212 266 339 392
#     4  10  21  40  61  87 122 174 214 255 323 394
#     4  12  23  37  67 100 121 160 224 269 300 375
#     4  11  25  40  66  94 129 174 220 268 312 402
#     4  10  21  38  64  90 127 164 201 270 320 377
#     4  10  22  42  61  92 129 169 207 254 340 375
#     4  10  18  37  60  88 123 160 208 255 329 374
#     4  10  21  34  64  92 120 163 206 272 306 378
#
# _framework density 21.913679999999999
#
# number of rings (size 3 to 8) (size 9 to 14) (size 15 to 20)
#    0.000    1.500    3.750    0.750    3.500    0.500 
#    0.000    4.375    0.000    0.000    0.000    0.000 
#    0.000    0.000    0.000    0.000    0.000    0.000 
#
# Total GULP energy -89159.194301 kJ/mol
# GULP energy per Si atom -5572.449644 kJ/mol
# Density = 2.186380 g / cm^3
# Si number density = 21.913680 Si / 1000 Ang^3
#
#
#
# Elastic Constant Matrix: (Units=GPa)
#
#
# Indices 1 2 3 4 5 6 
#
# 1 123.5968 45.3712 5.0817 -8.6138 31.8227 1.8976
# 2 45.3712 137.6991 -21.3175 -7.5976 4.4404 -17.8857
# 3 5.0817 -21.3175 38.1383 -6.4462 12.8601 -10.0979
# 4 -8.6138 -7.5976 -6.4462 17.5294 -2.9402 8.6281
# 5 31.8227 4.4404 12.8601 -2.9402 28.2843 -11.7033
# 6 1.8976 -17.8857 -10.0979 8.6281 -11.7033 48.7483
#
#
#
# Elastic Compliance Matrix: (Units=1/GPa)
#
#
# Indices 1 2 3 4 5 6 
#
# 1 0.015620 -0.005127 0.000631 0.006424 -0.019802 -0.008249
# 2 -0.005127 0.010998 0.007788 0.002627 0.003333 0.006183
# 3 0.000631 0.007788 0.039555 0.013125 -0.016601 0.004718
# 4 0.006424 0.002627 0.013125 0.070027 -0.011144 -0.011637
# 5 -0.019802 0.003333 -0.016601 -0.011144 0.070746 0.017512
# 6 -0.008249 0.006183 0.004718 -0.011637 0.017512 0.030344
#
#
# Mechanical properties :
#
#
# Convention : Reuss Voigt Hill
#
# Bulk Modulus (GPa) = 13.74460 39.74499 26.74479
# Shear Modulus (GPa) = 19.61103 36.93233 28.27168
#
# Velocity S-wave (km/s) = 2.99477 4.10976 3.59575
# Velocity P-wave (km/s) = 4.27130 6.37939 5.42865
#
# Compressibility (1/GPa) = 0.07275585
#
# Stress axis : x y z
#
# Youngs Moduli (GPa) = 64.02131 90.92660 25.28155
#
# Poissons Ratio (x) = 0.46622 -0.01596
# Poissons Ratio (y) = 0.32826 -0.19689
# Poissons Ratio (z) = -0.04043 -0.70811
#
# Static dielectric constant tensor:
#      x y z
#    x 0.750220 0.310560 0.280780 
#    y 0.310560 1.825340 -0.094390 
#    z 0.280780 -0.094390 1.771910 
# 
# From -- ./inp_files/612977.got.cif
#   From: 2010.05.17/outbox.cif.g08.bks.cpg/sg2_307_cif.got.tgz:612977.got - 2010.06.03 11:33:40.
