data_PCOD9079165
_publ_section_title
;
Structure prediction by ZEFSAII (Michael W. Deem and Ramdas Pophale) SiO2 
 PCOD9079165
Probable space group: P -1
;
_chemical_formula_sum "Si O2"
_cell_formula_units_Z 16
_cell_length_a 6.002730
_cell_length_b 11.804716
_cell_length_c 13.054594
_cell_angle_alpha 130.752207
_cell_angle_beta 99.537674
_cell_angle_gamma 104.229071
_cell_volume 608.585625
_symmetry_space_group_name_H-M "P -1"
_symmetry_group_IT_number 2
_symmetry_cell_setting 'triclinic'
loop_
_space_group_symop_operation_xyz
x,y,z
-x,-y,-z
loop_
_atom_site_type_symbol
_atom_site_label
_atom_site_fract_x
_atom_site_fract_y
_atom_site_fract_z
Si Si1 0.849674 0.010046 0.592174
Si Si2 0.487478 0.851549 0.783468
Si Si3 0.255444 0.389249 0.153836
Si Si4 0.270473 0.487576 0.582923
Si Si5 0.476643 0.327293 0.943521
Si Si6 0.359749 0.747789 0.294543
Si Si7 0.987375 0.889623 0.737045
Si Si8 0.214660 0.676420 0.849355
O O1 0.555435 0.866312 0.466588
O O2 0.962514 0.969176 0.675664
O O3 0.849242 0.189303 0.701894
O O4 0.000000 0.000000 0.500000
O O5 0.346720 0.653618 0.617251
O O6 0.781965 0.920601 0.810926
O O7 0.447449 0.811781 0.878987
O O8 0.289658 0.927752 0.791515
O O9 0.486437 0.471439 0.301014
O O10 0.250467 0.553859 0.203148
O O11 0.004270 0.271085 0.127930
O O12 0.276124 0.286465 0.997401
O O13 0.155193 0.314750 0.412639
O O14 0.097747 0.505743 0.671191
O O15 0.485166 0.225862 0.784855
O O16 0.500000 0.500000 0.000000
O O17 0.709541 0.349481 0.047537
#
# Coordination Sequence:
#
# PCOD9079165 Si02
#       8
#     2   2   2   2   2   2   2   2
#     4  11  27  40  63  88 122 171 217 264 315 373
#     4  10  24  36  62  92 130 166 213 258 323 383
#     4  10  18  36  63  89 131 159 202 259 322 382
#     4   9  20  32  53  91 124 162 197 250 316 376
#     4   9  20  37  59  91 123 162 203 262 323 380
#     4  10  23  41  59  88 126 164 214 261 320 377
#     4  12  23  40  61  90 129 172 214 261 317 385
#     4   9  21  33  59  94 126 156 200 252 324 380
#
# _framework density 26.290469999999999
#
# number of rings (size 3 to 8) (size 9 to 14) (size 15 to 20)
#    0.750    1.250    1.250    1.500    7.000    3.000 
#    0.000    0.000    0.000    1.500    0.000    0.000 
#    0.000    0.000    0.000    0.000    0.000    0.000 
#
# Total GULP energy -89229.779770 kJ/mol
# GULP energy per Si atom -5576.861236 kJ/mol
# Density = 2.623063 g / cm^3
# Si number density = 26.290470 Si / 1000 Ang^3
#
#
#
# Elastic Constant Matrix: (Units=GPa)
#
#
# Indices 1 2 3 4 5 6 
#
# 1 139.2078 65.4566 52.1833 -5.3488 -51.9721 -7.4680
# 2 65.4566 118.9059 28.5850 -14.8139 -7.2771 -38.7468
# 3 52.1833 28.5850 126.7244 1.3795 -7.2051 -10.5001
# 4 -5.3488 -14.8139 1.3795 40.1456 2.1327 -7.0675
# 5 -51.9721 -7.2771 -7.2051 2.1327 39.5376 -6.2359
# 6 -7.4680 -38.7468 -10.5001 -7.0675 -6.2359 46.7645
#
#
#
# Elastic Compliance Matrix: (Units=1/GPa)
#
#
# Indices 1 2 3 4 5 6 
#
# 1 0.027904 -0.013699 -0.006909 -0.003643 0.032358 -0.004681
# 2 -0.013699 0.021040 0.001387 0.009230 -0.011958 0.015357
# 3 -0.006909 0.001387 0.010158 -0.000152 -0.006746 0.001404
# 4 -0.003643 0.009230 -0.000152 0.029958 -0.002973 0.011163
# 5 0.032358 -0.011958 -0.006746 -0.002973 0.064863 0.001945
# 6 -0.004681 0.015357 0.001404 0.011163 0.001945 0.035622
#
#
# Mechanical properties :
#
#
# Convention : Reuss Voigt Hill
#
# Bulk Modulus (GPa) = 48.40196 75.25421 61.82809
# Shear Modulus (GPa) = 21.28806 41.19708 31.24257
#
# Velocity S-wave (km/s) = 2.84865 3.96283 3.45100
# Velocity P-wave (km/s) = 5.41019 7.04450 6.28073
#
# Compressibility (1/GPa) = 0.02066032
#
# Stress axis : x y z
#
# Youngs Moduli (GPa) = 35.83703 47.52842 98.44736
#
# Poissons Ratio (x) = 0.65109 0.68017
# Poissons Ratio (y) = 0.49093 -0.13657
# Poissons Ratio (z) = 0.24760 -0.06593
#
# Static dielectric constant tensor:
#      x y z
#    x 2.244840 0.018090 -0.050550 
#    y 0.018090 2.056500 0.078880 
#    z -0.050550 0.078880 2.089750 
# 
# From -- ./inp_files/482347.got.cif
#   From: 2010.05.17/outbox.cif.g08.bks.cpg/sg2_242_cif.got.tgz:482347.got - 2010.06.03 11:33:40.
