data_PCOD9079612
_publ_section_title
;
Structure prediction by ZEFSAII (Michael W. Deem and Ramdas Pophale) SiO2 
 PCOD9079612
Probable space group: P -1
;
_chemical_formula_sum "Si O2"
_cell_formula_units_Z 12
_cell_length_a 14.339980
_cell_length_b 9.652931
_cell_length_c 9.110492
_cell_angle_alpha 134.740994
_cell_angle_beta 145.018994
_cell_angle_gamma 44.553132
_cell_volume 484.115183
_symmetry_space_group_name_H-M "P -1"
_symmetry_group_IT_number 2
_symmetry_cell_setting 'triclinic'
loop_
_space_group_symop_operation_xyz
x,y,z
-x,-y,-z
loop_
_atom_site_type_symbol
_atom_site_label
_atom_site_fract_x
_atom_site_fract_y
_atom_site_fract_z
Si Si1 0.614096 0.254255 0.825956
Si Si2 0.653729 0.865773 0.782722
Si Si3 0.880455 0.576788 0.087159
Si Si4 0.167556 0.472830 0.585405
Si Si5 0.129958 0.861911 0.187699
Si Si6 0.678466 0.877615 0.287472
O O1 0.682964 0.053049 0.869499
O O2 0.703167 0.231785 0.766582
O O3 0.427283 0.257552 0.529510
O O4 0.684325 0.426569 0.115976
O O5 0.515572 0.981057 0.820379
O O6 0.813820 0.703659 0.949372
O O7 0.728397 0.692508 0.096445
O O8 0.063275 0.576239 0.384839
O O9 0.906878 0.333434 0.940306
O O10 0.260507 0.231722 0.557463
O O11 0.000000 0.500000 0.500000
O O12 0.190740 0.997481 0.484159
O O13 0.000000 0.000000 0.000000
#
# Coordination Sequence:
#
# PCOD9079612 Si02
#       6
#     2   2   2   2   2   2
#     4  10  21  41  62  85 128 166 195 242 316 363
#     4  10  24  39  60  91 131 160 194 251 309 361
#     4  11  21  40  63  97 116 154 216 255 285 355
#     4  10  18  37  62  86 115 156 207 246 287 356
#     4  11  19  37  67  85 120 160 205 250 300 355
#     4  10  20  36  62  92 120 161 202 242 307 362
#
# _framework density 24.787489999999998
#
# number of rings (size 3 to 8) (size 9 to 14) (size 15 to 20)
#    0.000    1.667    5.000    1.500    0.000    4.000 
#    3.000    0.833    0.000    0.000    0.000    0.000 
#    0.000    0.000    0.000    0.000    0.000    0.000 
#
# Total GULP energy -66872.969065 kJ/mol
# GULP energy per Si atom -5572.747422 kJ/mol
# Density = 2.473107 g / cm^3
# Si number density = 24.787490 Si / 1000 Ang^3
#
#
#
# Elastic Constant Matrix: (Units=GPa)
#
#
# Indices 1 2 3 4 5 6 
#
# 1 94.7204 9.1160 9.8622 1.9980 2.6324 2.1162
# 2 9.1160 160.4952 69.5901 -22.3035 0.9068 7.2974
# 3 9.8622 69.5901 112.1142 17.7268 14.0364 15.3603
# 4 1.9980 -22.3035 17.7268 58.9555 -0.0941 -4.3931
# 5 2.6324 0.9068 14.0364 -0.0941 23.4111 0.3373
# 6 2.1162 7.2974 15.3603 -4.3931 0.3373 25.7159
#
#
#
# Elastic Compliance Matrix: (Units=1/GPa)
#
#
# Indices 1 2 3 4 5 6 
#
# 1 0.010692 -0.000486 -0.000361 -0.000484 -0.000961 -0.000597
# 2 -0.000486 0.010960 -0.008986 0.007130 0.004997 0.003450
# 3 -0.000361 -0.008986 0.018833 -0.009828 -0.010795 -0.010206
# 4 -0.000484 0.007130 -0.009828 0.023219 0.005652 0.007779
# 5 -0.000961 0.004997 -0.010795 0.005652 0.049046 0.005431
# 6 -0.000597 0.003450 -0.010206 0.007779 0.005431 0.045311
#
#
# Mechanical properties :
#
#
# Convention : Reuss Voigt Hill
#
# Bulk Modulus (GPa) = 48.02964 60.49627 54.26295
# Shear Modulus (GPa) = 27.07605 40.20060 33.63833
#
# Velocity S-wave (km/s) = 3.30862 4.03154 3.68784
# Velocity P-wave (km/s) = 5.83220 6.79191 6.33027
#
# Compressibility (1/GPa) = 0.02082048
#
# Stress axis : x y z
#
# Youngs Moduli (GPa) = 93.52875 91.23875 53.09958
#
# Poissons Ratio (x) = 0.04430 0.01915
# Poissons Ratio (y) = 0.04541 0.47715
# Poissons Ratio (z) = 0.03374 0.81986
#
# Static dielectric constant tensor:
#      x y z
#    x 2.188400 -0.035320 0.090170 
#    y -0.035320 1.982280 0.057950 
#    z 0.090170 0.057950 2.299550 
# 
# From -- ./inp_files/173733.got.cif
#   From: 2010.05.17/outbox.cif.g08.bks.cpg/sg2_87_cif.got.tgz:173733.got - 2010.06.03 11:33:40.
