data_PCOD9079961
_publ_section_title
;
Structure prediction by ZEFSAII (Michael W. Deem and Ramdas Pophale) SiO2 
 PCOD9079961
Probable space group: P -1
;
_chemical_formula_sum "Si O2"
_cell_formula_units_Z 16
_cell_length_a 14.516104
_cell_length_b 9.445996
_cell_length_c 9.453910
_cell_angle_alpha 79.449450
_cell_angle_beta 47.731226
_cell_angle_gamma 108.370919
_cell_volume 752.653048
_symmetry_space_group_name_H-M "P -1"
_symmetry_group_IT_number 2
_symmetry_cell_setting 'triclinic'
loop_
_space_group_symop_operation_xyz
x,y,z
-x,-y,-z
loop_
_atom_site_type_symbol
_atom_site_label
_atom_site_fract_x
_atom_site_fract_y
_atom_site_fract_z
Si Si1 0.646224 0.214448 0.922523
Si Si2 0.149250 0.998314 0.646765
Si Si3 0.637300 0.671655 0.453479
Si Si4 0.788295 0.749834 0.989230
Si Si5 0.861949 0.608223 0.685165
Si Si6 0.790447 0.022486 0.727815
Si Si7 0.438063 0.071382 0.440818
Si Si8 0.598630 0.472729 0.793782
O O1 0.536089 0.124809 0.187374
O O2 0.573442 0.286427 0.882642
O O3 0.318781 0.914696 0.155937
O O4 0.810372 0.405294 0.767405
O O5 0.214713 0.052973 0.408309
O O6 0.202685 0.164267 0.663273
O O7 0.252555 0.939148 0.618079
O O8 0.964970 0.860935 0.847204
O O9 0.540505 0.752168 0.552215
O O10 0.574196 0.506642 0.654525
O O11 0.676104 0.659184 0.256294
O O12 0.771854 0.888388 0.892883
O O13 0.777387 0.612904 0.633645
O O14 0.036584 0.786154 0.476204
O O15 0.500000 0.500000 0.000000
O O16 0.777565 0.617449 0.907606
O O17 0.500000 0.000000 0.500000
#
# Coordination Sequence:
#
# PCOD9079961 Si02
#       8
#     2   2   2   2   2   2   2   2
#     4  10  22  36  60  83 119 158 192 241 295 347
#     4   9  21  36  60  86 118 152 195 243 289 342
#     4  10  19  35  59  86 113 151 196 242 288 339
#     4  11  20  35  63  93 114 150 200 245 290 342
#     4   9  21  37  58  85 121 151 194 240 288 348
#     4  11  20  37  60  93 114 154 199 242 291 346
#     4  10  21  39  56  86 119 153 192 246 300 340
#     4  10  18  38  59  80 117 160 195 227 286 355
#
# _framework density 21.258137000000001
#
# number of rings (size 3 to 8) (size 9 to 14) (size 15 to 20)
#    1.500    0.500    1.250    4.500    0.000    0.500 
#    0.000    5.000    0.000    3.000    0.000    0.000 
#    0.000    0.000    0.000    0.000    0.000    0.000 
#
# Total GULP energy -89228.081552 kJ/mol
# GULP energy per Si atom -5576.755097 kJ/mol
# Density = 2.120975 g / cm^3
# Si number density = 21.258137 Si / 1000 Ang^3
#
#
#
# Elastic Constant Matrix: (Units=GPa)
#
#
# Indices 1 2 3 4 5 6 
#
# 1 163.2142 35.2640 57.0924 5.6826 23.5053 -9.7760
# 2 35.2640 106.5783 30.1088 9.0082 13.2325 -4.3207
# 3 57.0924 30.1088 109.6856 24.7362 27.3533 -13.2877
# 4 5.6826 9.0082 24.7362 33.7070 8.6499 -4.7069
# 5 23.5053 13.2325 27.3533 8.6499 37.1615 -0.5491
# 6 -9.7760 -4.3207 -13.2877 -4.7069 -0.5491 39.8046
#
#
#
# Elastic Compliance Matrix: (Units=1/GPa)
#
#
# Indices 1 2 3 4 5 6 
#
# 1 0.008032 -0.001507 -0.003603 0.002441 -0.002447 0.000861
# 2 -0.001507 0.010582 -0.001496 -0.001083 -0.001459 0.000131
# 3 -0.003603 -0.001496 0.015192 -0.008071 -0.006448 0.002981
# 4 0.002441 -0.001083 -0.008071 0.036716 -0.003733 0.002078
# 5 -0.002447 -0.001459 -0.006448 -0.003733 0.034550 -0.002877
# 6 0.000861 0.000131 0.002981 0.002078 -0.002877 0.026550
#
#
# Mechanical properties :
#
#
# Convention : Reuss Voigt Hill
#
# Bulk Modulus (GPa) = 48.55841 69.37872 58.96857
# Shear Modulus (GPa) = 32.95993 39.26880 36.11437
#
# Velocity S-wave (km/s) = 3.94186 4.30261 4.12618
# Velocity P-wave (km/s) = 6.60375 7.57565 7.10634
#
# Compressibility (1/GPa) = 0.02059375
#
# Stress axis : x y z
#
# Youngs Moduli (GPa) = 124.50407 94.49805 65.82296
#
# Poissons Ratio (x) = 0.14244 0.23715
# Poissons Ratio (y) = 0.18767 0.09848
# Poissons Ratio (z) = 0.44856 0.14139
#
# Static dielectric constant tensor:
#      x y z
#    x 1.793020 0.019690 -0.060240 
#    y 0.019690 1.768470 -0.044470 
#    z -0.060240 -0.044470 1.785050 
# 
# From -- ./inp_files/257439.got.cif
#   From: 2010.05.17/outbox.cif.g08.bks.cpg/sg2_129_cif.got.tgz:257439.got - 2010.06.03 11:33:40.
