data_PCOD9079431
_publ_section_title
;
Structure prediction by ZEFSAII (Michael W. Deem and Ramdas Pophale) SiO2 
 PCOD9079431
Probable space group: P -1
;
_chemical_formula_sum "Si O2"
_cell_formula_units_Z 14
_cell_length_a 7.920494
_cell_length_b 10.084984
_cell_length_c 15.337573
_cell_angle_alpha 49.369149
_cell_angle_beta 67.665283
_cell_angle_gamma 109.469074
_cell_volume 483.120487
_symmetry_space_group_name_H-M "P -1"
_symmetry_group_IT_number 2
_symmetry_cell_setting 'triclinic'
loop_
_space_group_symop_operation_xyz
x,y,z
-x,-y,-z
loop_
_atom_site_type_symbol
_atom_site_label
_atom_site_fract_x
_atom_site_fract_y
_atom_site_fract_z
Si Si1 0.782114 0.505698 0.354980
Si Si2 0.436361 0.110279 0.030996
Si Si3 0.442959 0.827837 0.288303
Si Si4 0.190181 0.344659 0.959935
Si Si5 0.024215 0.931448 0.711367
Si Si6 0.181407 0.672894 0.745348
Si Si7 0.728263 0.589192 0.646356
O O1 0.748314 0.338344 0.512053
O O2 0.405743 0.269421 0.519812
O O3 0.915843 0.531050 0.228007
O O4 0.060046 0.856174 0.185228
O O5 0.438139 0.015956 0.164883
O O6 0.500000 0.000000 0.000000
O O7 0.714129 0.464534 0.791369
O O8 0.312709 0.578366 0.353320
O O9 0.808141 0.057393 0.139042
O O10 0.227126 0.259843 0.077222
O O11 0.272999 0.617172 0.830619
O O12 0.399647 0.435489 0.800769
O O13 0.999565 0.051802 0.586431
O O14 0.007773 0.711860 0.790643
O O15 0.500000 0.000000 0.500000
#
# Coordination Sequence:
#
# PCOD9079431 Si02
#       7
#     2   2   2   2   2   2   2
#     4  10  20  36  61  84 114 155 193 235 279 347
#     4  10  22  37  57  82 121 158 185 232 290 346
#     4  10  23  37  58  89 116 157 190 227 293 352
#     4  11  21  37  62  87 117 150 188 244 285 335
#     4  10  23  35  59  93 111 152 191 244 287 331
#     4  10  18  37  57  87 116 147 194 238 285 335
#     4  11  22  36  58  87 124 142 193 239 290 336
#
# _framework density 28.978276000000001
#
# number of rings (size 3 to 8) (size 9 to 14) (size 15 to 20)
#    0.000    1.714    2.857    3.000    4.000    1.143 
#    0.000    0.000    0.000    8.571    0.000    0.000 
#    0.000    0.000    0.000    0.000    0.000    0.000 
#
# Total GULP energy -78214.513919 kJ/mol
# GULP energy per Si atom -5586.750994 kJ/mol
# Density = 2.891232 g / cm^3
# Si number density = 28.978276 Si / 1000 Ang^3
#
#
#
# Elastic Constant Matrix: (Units=GPa)
#
#
# Indices 1 2 3 4 5 6 
#
# 1 90.7888 3.6520 25.5815 -5.7922 21.6222 0.8139
# 2 3.6520 74.9019 45.5989 9.0039 18.0005 -11.5436
# 3 25.5815 45.5989 222.1522 36.1444 64.9257 -2.8981
# 4 -5.7922 9.0039 36.1444 50.7810 -2.4794 5.7784
# 5 21.6222 18.0005 64.9257 -2.4794 72.5635 -2.6442
# 6 0.8139 -11.5436 -2.8981 5.7784 -2.6442 31.3458
#
#
#
# Elastic Compliance Matrix: (Units=1/GPa)
#
#
# Indices 1 2 3 4 5 6 
#
# 1 0.012070 0.000293 -0.000980 0.001989 -0.002758 -0.000895
# 2 0.000293 0.016439 -0.002511 -0.001864 -0.001763 0.006009
# 3 -0.000980 -0.002511 0.007904 -0.005640 -0.006338 0.000337
# 4 0.001989 -0.001864 -0.005640 0.025154 0.005578 -0.005426
# 5 -0.002758 -0.001763 -0.006338 0.005578 0.020886 -0.000430
# 6 -0.000895 0.006009 0.000337 -0.005426 -0.000430 0.035133
#
#
# Mechanical properties :
#
#
# Convention : Reuss Voigt Hill
#
# Bulk Modulus (GPa) = 33.31211 59.72309 46.51760
# Shear Modulus (GPa) = 37.31706 51.80544 44.56125
#
# Velocity S-wave (km/s) = 3.59243 4.23275 3.92567
# Velocity P-wave (km/s) = 5.35984 6.67402 6.05270
#
# Compressibility (1/GPa) = 0.03001911
#
# Stress axis : x y z
#
# Youngs Moduli (GPa) = 82.84672 60.83058 126.52053
#
# Poissons Ratio (x) = -0.01785 0.12393
# Poissons Ratio (y) = -0.02431 0.31770
# Poissons Ratio (z) = 0.08115 0.15275
#
# Static dielectric constant tensor:
#      x y z
#    x 2.541900 0.019830 0.104590 
#    y 0.019830 2.451300 -0.095160 
#    z 0.104590 -0.095160 2.254290 
# 
# From -- ./inp_files/404994.got.cif
#   From: 2010.05.17/outbox.cif.g08.bks.cpg/sg2_203_cif.got.tgz:404994.got - 2010.06.03 11:33:40.
