data_PCOD9079518
_publ_section_title
;
Structure prediction by ZEFSAII (Michael W. Deem and Ramdas Pophale) SiO2 
 PCOD9079518
Probable space group: P -1
;
_chemical_formula_sum "Si O2"
_cell_formula_units_Z 16
_cell_length_a 24.491800
_cell_length_b 9.894377
_cell_length_c 14.155925
_cell_angle_alpha 34.514268
_cell_angle_beta 22.901496
_cell_angle_gamma 44.013165
_cell_volume 743.934657
_symmetry_space_group_name_H-M "P -1"
_symmetry_group_IT_number 2
_symmetry_cell_setting 'triclinic'
loop_
_space_group_symop_operation_xyz
x,y,z
-x,-y,-z
loop_
_atom_site_type_symbol
_atom_site_label
_atom_site_fract_x
_atom_site_fract_y
_atom_site_fract_z
Si Si1 0.385365 0.868089 0.565558
Si Si2 0.856458 0.056655 0.439223
Si Si3 0.227265 0.060338 0.560524
Si Si4 0.170856 0.569517 0.571496
Si Si5 0.812835 0.936425 0.087021
Si Si6 0.984907 0.629988 0.242235
Si Si7 0.714931 0.977880 0.006266
Si Si8 0.218138 0.362766 0.064407
O O1 0.365299 0.059646 0.404004
O O2 0.277529 0.904245 0.800207
O O3 0.545009 0.908978 0.324087
O O4 0.334947 0.603234 0.753115
O O5 0.867054 0.285422 0.360131
O O6 0.773495 0.055792 0.473946
O O7 0.769027 0.830919 0.765123
O O8 0.017635 0.011559 0.192763
O O9 0.162014 0.306081 0.520991
O O10 0.105512 0.870380 0.918318
O O11 0.236994 0.343378 0.636004
O O12 0.041379 0.443346 0.783233
O O13 0.249985 0.773271 0.254626
O O14 0.785150 0.979186 0.996440
O O15 0.060862 0.430877 0.283615
O O16 0.769624 0.771105 0.976529
#
# Coordination Sequence:
#
# PCOD9079518 Si02
#       8
#     2   2   2   2   2   2   2   2
#     4  11  24  45  61  88 129 173 212 247 306 381
#     4  11  22  38  63 102 122 156 209 263 330 365
#     4  10  20  36  61  89 126 159 199 257 308 369
#     4  11  23  40  63  98 127 161 210 258 316 376
#     4  12  23  41  68  93 124 167 205 266 319 364
#     4  10  18  37  60  89 125 155 202 261 319 356
#     4  11  26  44  62  92 130 171 212 252 303 378
#     4  10  23  40  65  92 126 163 207 267 314 366
#
# _framework density 21.507265
#
# number of rings (size 3 to 8) (size 9 to 14) (size 15 to 20)
#    0.000    1.250    2.500    4.125    3.500    5.500 
#    2.250    1.250    0.000    0.000    0.000    0.000 
#    0.000    0.000    0.000    0.000    0.000    0.000 
#
# Total GULP energy -89307.217863 kJ/mol
# GULP energy per Si atom -5581.701116 kJ/mol
# Density = 2.145831 g / cm^3
# Si number density = 21.507265 Si / 1000 Ang^3
#
#
#
# Elastic Constant Matrix: (Units=GPa)
#
#
# Indices 1 2 3 4 5 6 
#
# 1 62.0954 -1.0833 8.6659 21.9358 23.7028 5.4449
# 2 -1.0833 60.0254 6.9398 2.4722 5.6782 11.8639
# 3 8.6659 6.9398 23.4915 17.5834 15.2238 -0.4395
# 4 21.9358 2.4722 17.5834 -33.5942 -22.6886 4.5082
# 5 23.7028 5.6782 15.2238 -22.6886 21.2905 7.2498
# 6 5.4449 11.8639 -0.4395 4.5082 7.2498 28.7576
#
#
#
# Elastic Compliance Matrix: (Units=1/GPa)
#
#
# Indices 1 2 3 4 5 6 
#
# 1 0.016620 0.002392 -0.010281 0.006926 -0.002820 -0.004666
# 2 0.002392 0.019079 -0.005680 -0.000262 -0.001224 -0.008061
# 3 -0.010281 -0.005680 0.038255 0.013762 -0.000714 0.002897
# 4 0.006926 -0.000262 0.013762 -0.002591 -0.021924 0.004940
# 5 -0.002820 -0.001224 -0.000714 -0.021924 0.028509 -0.002722
# 6 -0.004666 -0.008061 0.002897 0.004940 -0.002722 0.038938
#
#
# Mechanical properties :
#
#
# Convention : Reuss Voigt Hill
#
# Bulk Modulus (GPa) = 21.36029 19.40634 20.38331
# Shear Modulus (GPa) = 27.53995 12.03009 19.78502
#
# Velocity S-wave (km/s) = 3.58228 2.36762 3.03631
# Velocity P-wave (km/s) = 5.20226 4.06410 4.66800
#
# Compressibility (1/GPa) = 0.04681585
#
# Stress axis : x y z
#
# Youngs Moduli (GPa) = 60.16870 52.41255 26.14043
#
# Poissons Ratio (x) = -0.12539 0.26876
# Poissons Ratio (y) = -0.14394 0.14848
# Poissons Ratio (z) = 0.61861 0.29772
#
# Static dielectric constant tensor:
#      x y z
#    x 1.768900 -0.013410 0.020630 
#    y -0.013410 1.831350 -0.023050 
#    z 0.020630 -0.023050 1.790580 
# 
# From -- ./inp_files/185040.got.cif
#   From: 2010.05.17/outbox.cif.g08.bks.cpg/sg2_93_cif.got.tgz:185040.got - 2010.06.03 11:33:40.
