data_PCOD9079284
_publ_section_title
;
Structure prediction by ZEFSAII (Michael W. Deem and Ramdas Pophale) SiO2 
 PCOD9079284
Probable space group: P -1
;
_chemical_formula_sum "Si O2"
_cell_formula_units_Z 16
_cell_length_a 12.190189
_cell_length_b 14.737747
_cell_length_c 8.437765
_cell_angle_alpha 63.802539
_cell_angle_beta 97.432673
_cell_angle_gamma 148.724992
_cell_volume 597.781565
_symmetry_space_group_name_H-M "P -1"
_symmetry_group_IT_number 2
_symmetry_cell_setting 'triclinic'
loop_
_space_group_symop_operation_xyz
x,y,z
-x,-y,-z
loop_
_atom_site_type_symbol
_atom_site_label
_atom_site_fract_x
_atom_site_fract_y
_atom_site_fract_z
Si Si1 0.540331 0.168300 0.950586
Si Si2 0.851976 0.938244 0.357959
Si Si3 0.427305 0.576990 0.307545
Si Si4 0.518273 0.462357 0.200475
Si Si5 0.929150 0.069067 0.738105
Si Si6 0.962733 0.193611 0.989913
Si Si7 0.080727 0.596087 0.760980
Si Si8 0.407250 0.051422 0.369645
O O1 0.593443 0.333328 0.854253
O O2 0.820400 0.366494 0.795775
O O3 0.466387 0.063174 0.189967
O O4 0.292655 0.949180 0.963713
O O5 0.590224 0.732413 0.372428
O O6 0.754122 0.802651 0.598353
O O7 0.014658 0.000529 0.227293
O O8 0.951156 0.132152 0.208992
O O9 0.550791 0.584230 0.232618
O O10 0.164123 0.321721 0.516106
O O11 0.737355 0.557950 0.168547
O O12 0.500000 0.500000 0.000000
O O13 0.907324 0.079320 0.910095
O O14 0.705012 0.931293 0.699783
O O15 0.324987 0.729226 0.663438
O O16 0.206269 0.810089 0.595368
O O17 0.000000 0.500000 0.000000
#
# Coordination Sequence:
#
# PCOD9079284 Si02
#       8
#     2   2   2   2   2   2   2   2
#     4   9  18  26  47  69  89 120 162 200 220 277
#     4  10  19  31  50  68  92 122 164 203 222 276
#     4  10  17  31  49  70  92 126 164 200 226 270
#     4  11  22  33  43  64 101 131 159 198 237 275
#     4  10  15  27  46  72  89 120 158 195 226 274
#     4  10  19  29  49  68  89 126 162 192 237 269
#     4   9  16  29  37  63 101 127 142 182 244 292
#     4   9  17  24  43  64  97 126 144 185 247 284
#
# _framework density 26.765630000000002
#
# number of rings (size 3 to 8) (size 9 to 14) (size 15 to 20)
#    0.000    2.250    3.750    1.125    3.500    0.500 
#    0.000    0.000    0.000    0.000    0.000    0.000 
#    0.000   20.000    3.000   24.000    1.250    4.500 
#
# Total GULP energy -89225.097305 kJ/mol
# GULP energy per Si atom -5576.568582 kJ/mol
# Density = 2.670471 g / cm^3
# Si number density = 26.765630 Si / 1000 Ang^3
#
#
#
# Elastic Constant Matrix: (Units=GPa)
#
#
# Indices 1 2 3 4 5 6 
#
# 1 74.3007 41.2344 19.7932 -10.9655 20.5050 14.7741
# 2 41.2344 78.1155 6.3051 -44.9091 -7.5364 38.8252
# 3 19.7932 6.3051 163.2971 -24.5698 13.0771 -1.7957
# 4 -10.9655 -44.9091 -24.5698 48.5312 11.9938 -14.1213
# 5 20.5050 -7.5364 13.0771 11.9938 24.3932 -0.3098
# 6 14.7741 38.8252 -1.7957 -14.1213 -0.3098 45.7139
#
#
#
# Elastic Compliance Matrix: (Units=1/GPa)
#
#
# Indices 1 2 3 4 5 6 
#
# 1 0.049422 -0.055884 -0.003728 -0.024644 -0.044397 0.023430
# 2 -0.055884 0.114964 0.009133 0.071536 0.041704 -0.056840
# 3 -0.003728 0.009133 0.008419 0.012305 -0.004639 -0.002452
# 4 -0.024644 0.071536 0.012305 0.080358 -0.003640 -0.027510
# 5 -0.044397 0.041704 -0.004639 -0.003640 0.095202 -0.021732
# 6 0.023430 -0.056840 -0.002452 -0.027510 -0.021732 0.053836
#
#
# Mechanical properties :
#
#
# Convention : Reuss Voigt Hill
#
# Bulk Modulus (GPa) = 13.91809 50.04207 31.98008
# Shear Modulus (GPa) = 9.48572 40.28635 24.88603
#
# Velocity S-wave (km/s) = 1.88459 3.88384 3.05253
# Velocity P-wave (km/s) = 3.15386 6.23292 4.93944
#
# Compressibility (1/GPa) = 0.07184894
#
# Stress axis : x y z
#
# Youngs Moduli (GPa) = 20.23380 8.69834 118.77997
#
# Poissons Ratio (x) = 0.48610 0.44276
# Poissons Ratio (y) = 1.13075 -1.08486
# Poissons Ratio (z) = 0.07542 -0.07944
#
# Static dielectric constant tensor:
#      x y z
#    x 2.193010 0.081270 0.049550 
#    y 0.081270 2.190340 0.012570 
#    z 0.049550 0.012570 2.170620 
# 
# From -- ./inp_files/212147.got.cif
#   From: 2010.05.17/outbox.cif.g08.bks.cpg/sg2_107_cif.got.tgz:212147.got - 2010.06.03 11:33:40.
