data_PCOD9079893
_publ_section_title
;
Structure prediction by ZEFSAII (Michael W. Deem and Ramdas Pophale) SiO2 
 PCOD9079893
Probable space group: P -1
;
_chemical_formula_sum "Si O2"
_cell_formula_units_Z 16
_cell_length_a 9.817650
_cell_length_b 19.406656
_cell_length_c 8.449981
_cell_angle_alpha 33.510473
_cell_angle_beta 130.486459
_cell_angle_gamma 133.362697
_cell_volume 634.272860
_symmetry_space_group_name_H-M "P -1"
_symmetry_group_IT_number 2
_symmetry_cell_setting 'triclinic'
loop_
_space_group_symop_operation_xyz
x,y,z
-x,-y,-z
loop_
_atom_site_type_symbol
_atom_site_label
_atom_site_fract_x
_atom_site_fract_y
_atom_site_fract_z
Si Si1 0.474339 0.424342 0.290937
Si Si2 0.016063 0.402500 0.338057
Si Si3 0.385294 0.353036 0.814636
Si Si4 0.632758 0.824849 0.156485
Si Si5 0.443513 0.152040 0.456201
Si Si6 0.218993 0.666589 0.412124
Si Si7 0.761534 0.126401 0.181587
Si Si8 0.223491 0.890551 0.403438
O O1 0.451758 0.523910 0.216755
O O2 0.326675 0.274338 0.493496
O O3 0.681738 0.407650 0.486251
O O4 0.500000 0.500000 0.000000
O O5 0.910258 0.423330 0.377260
O O6 0.917350 0.247366 0.509000
O O7 0.222775 0.407528 0.535479
O O8 0.000000 0.500000 0.000000
O O9 0.424538 0.273923 0.847703
O O10 0.337548 0.244419 0.125775
O O11 0.443523 0.853122 0.007859
O O12 0.778829 0.969788 0.939519
O O13 0.604554 0.230770 0.550711
O O14 0.567593 0.114787 0.479878
O O15 0.289253 0.017407 0.660923
O O16 0.119505 0.751805 0.072243
O O17 0.812547 0.116548 0.421835
#
# Coordination Sequence:
#
# PCOD9079893 Si02
#       8
#     2   2   2   2   2   2   2   2
#     4  11  24  38  66 101 123 161 212 271 317 351
#     4  11  29  45  61  87 131 181 204 249 322 392
#     4  12  23  41  63  93 132 164 215 252 313 375
#     4  10  21  38  69  98 125 157 212 270 308 364
#     4  10  18  38  68  95 126 155 211 266 312 369
#     4  10  23  41  62  89 130 165 211 256 319 377
#     4  10  18  37  69 100 119 159 206 272 318 357
#     4  10  20  42  67  96 122 166 215 250 320 377
#
# _framework density 25.225738
#
# number of rings (size 3 to 8) (size 9 to 14) (size 15 to 20)
#    0.000    1.500    3.750    1.500    5.250    2.000 
#    0.000    0.625    0.000    0.000    0.000    0.000 
#    0.000    0.000    0.000    0.000    0.000    0.000 
#
# Total GULP energy -89341.581253 kJ/mol
# GULP energy per Si atom -5583.848828 kJ/mol
# Density = 2.516832 g / cm^3
# Si number density = 25.225738 Si / 1000 Ang^3
#
#
#
# Elastic Constant Matrix: (Units=GPa)
#
#
# Indices 1 2 3 4 5 6 
#
# 1 68.9190 15.5471 35.6971 1.9399 -20.4187 -13.8775
# 2 15.5471 69.3810 48.3647 -16.6619 -10.2563 -11.5567
# 3 35.6971 48.3647 220.5539 -23.4322 -38.2064 2.3551
# 4 1.9399 -16.6619 -23.4322 36.9688 -0.6032 3.2235
# 5 -20.4187 -10.2563 -38.2064 -0.6032 35.9087 -2.5652
# 6 -13.8775 -11.5567 2.3551 3.2235 -2.5652 17.3596
#
#
#
# Elastic Compliance Matrix: (Units=1/GPa)
#
#
# Indices 1 2 3 4 5 6 
#
# 1 0.024218 0.001163 -0.002641 -0.004232 0.012878 0.023181
# 2 0.001163 0.021244 -0.003688 0.005928 0.003980 0.015060
# 3 -0.002641 -0.003688 0.006982 0.003454 0.004540 -0.005484
# 4 -0.004232 0.005928 0.003454 0.032664 0.003117 -0.005510
# 5 0.012878 0.003980 0.004540 0.003117 0.042479 0.018027
# 6 0.023181 0.015060 -0.005484 -0.005510 0.018027 0.090593
#
#
# Mechanical properties :
#
#
# Convention : Reuss Voigt Hill
#
# Bulk Modulus (GPa) = 23.74669 62.00796 42.87733
# Shear Modulus (GPa) = 20.61434 35.33043 27.97238
#
# Velocity S-wave (km/s) = 2.86176 3.74648 3.33360
# Velocity P-wave (km/s) = 4.51151 6.58403 5.64372
#
# Compressibility (1/GPa) = 0.04211113
#
# Stress axis : x y z
#
# Youngs Moduli (GPa) = 41.29244 47.07180 143.21881
#
# Poissons Ratio (x) = -0.05474 0.37824
# Poissons Ratio (y) = -0.04802 0.52824
# Poissons Ratio (z) = 0.10905 0.17362
#
# Static dielectric constant tensor:
#      x y z
#    x 2.067980 0.019180 -0.068660 
#    y 0.019180 2.100050 -0.029050 
#    z -0.068660 -0.029050 2.078030 
# 
# From -- ./inp_files/281428.got.cif
#   From: 2010.05.17/outbox.cif.g08.bks.cpg/sg2_141_cif.got.tgz:281428.got - 2010.06.03 11:33:40.
