data_PCOD9079138
_publ_section_title
;
Structure prediction by ZEFSAII (Michael W. Deem and Ramdas Pophale) SiO2 
 PCOD9079138
Probable space group: P -1
;
_chemical_formula_sum "Si O2"
_cell_formula_units_Z 16
_cell_length_a 25.120863
_cell_length_b 7.230180
_cell_length_c 19.125676
_cell_angle_alpha 140.147752
_cell_angle_beta 21.649244
_cell_angle_gamma 128.329351
_cell_volume 754.476318
_symmetry_space_group_name_H-M "P -1"
_symmetry_group_IT_number 2
_symmetry_cell_setting 'triclinic'
loop_
_space_group_symop_operation_xyz
x,y,z
-x,-y,-z
loop_
_atom_site_type_symbol
_atom_site_label
_atom_site_fract_x
_atom_site_fract_y
_atom_site_fract_z
Si Si1 0.428780 0.919892 0.970486
Si Si2 0.729628 0.946069 0.649751
Si Si3 0.903750 0.318672 0.599876
Si Si4 0.919308 0.241038 0.230190
Si Si5 0.331817 0.050613 0.873893
Si Si6 0.225512 0.810613 0.068883
Si Si7 0.621072 0.185472 0.551205
Si Si8 0.244946 0.118211 0.850226
O O1 0.570876 0.035286 0.825093
O O2 0.516992 0.553729 0.776596
O O3 0.325884 0.936245 0.033538
O O4 0.321135 0.074492 0.213455
O O5 0.853273 0.594354 0.382161
O O6 0.804974 0.201672 0.632692
O O7 0.000000 0.500000 0.500000
O O8 0.782786 0.575646 0.873117
O O9 0.041740 0.002313 0.367011
O O10 0.769016 0.164579 0.411707
O O11 0.058419 0.196546 0.101400
O O12 0.000000 0.000000 0.000000
O O13 0.506586 0.023727 0.669700
O O14 0.324214 0.940956 0.772534
O O15 0.264641 0.882803 0.963601
O O16 0.268208 0.443624 0.916172
O O17 0.682876 0.058234 0.361055
#
# Coordination Sequence:
#
# PCOD9079138 Si02
#       8
#     2   2   2   2   2   2   2   2
#     4  10  21  35  60  87 115 152 200 241 292 352
#     4  10  18  36  63  83 112 162 193 238 302 343
#     4  10  21  37  55  86 121 146 195 246 281 349
#     4   9  20  35  61  89 114 152 200 241 292 355
#     4  11  23  38  58  88 121 149 199 250 286 351
#     4  11  23  38  58  90 118 156 199 240 296 352
#     4  10  20  39  59  86 119 152 201 245 285 353
#     4  11  21  38  63  83 117 162 193 242 301 342
#
# _framework density 21.206761
#
# number of rings (size 3 to 8) (size 9 to 14) (size 15 to 20)
#    0.000    1.750    3.750    0.375    1.750    1.500 
#    0.000    5.000    0.000    2.250    0.000    0.000 
#    0.000    0.000    0.000    0.000    0.000    0.000 
#
# Total GULP energy -89299.664587 kJ/mol
# GULP energy per Si atom -5581.229037 kJ/mol
# Density = 2.115849 g / cm^3
# Si number density = 21.206761 Si / 1000 Ang^3
#
#
#
# Elastic Constant Matrix: (Units=GPa)
#
#
# Indices 1 2 3 4 5 6 
#
# 1 58.5571 35.0611 6.3883 -8.7044 -0.0175 18.7773
# 2 35.0611 91.1566 22.0855 -20.4055 2.0181 28.9630
# 3 6.3883 22.0855 77.2155 -4.5001 7.2189 4.7392
# 4 -8.7044 -20.4055 -4.5001 41.6914 15.6663 -7.6049
# 5 -0.0175 2.0181 7.2189 15.6663 24.6415 -8.3146
# 6 18.7773 28.9630 4.7392 -7.6049 -8.3146 34.4087
#
#
#
# Elastic Compliance Matrix: (Units=1/GPa)
#
#
# Indices 1 2 3 4 5 6 
#
# 1 0.023603 -0.006112 0.000765 0.001900 -0.003722 -0.008320
# 2 -0.006112 0.021639 -0.002867 0.011184 -0.013174 -0.015195
# 3 0.000765 -0.002867 0.014435 0.002321 -0.005763 -0.000872
# 4 0.001900 0.011184 0.002321 0.039670 -0.029932 -0.009236
# 5 -0.003722 -0.013174 -0.005763 -0.029932 0.070595 0.024358
# 6 -0.008320 -0.015195 -0.000872 -0.009236 0.024358 0.050358
#
#
# Mechanical properties :
#
#
# Convention : Reuss Voigt Hill
#
# Bulk Modulus (GPa) = 23.12274 39.33322 31.22798
# Shear Modulus (GPa) = 19.90874 31.04127 25.47500
#
# Velocity S-wave (km/s) = 3.06730 3.83004 3.46969
# Velocity P-wave (km/s) = 4.84474 6.17630 5.55060
#
# Compressibility (1/GPa) = 0.04324747
#
# Stress axis : x y z
#
# Youngs Moduli (GPa) = 42.36746 46.21260 69.27502
#
# Poissons Ratio (x) = 0.28247 -0.05299
# Poissons Ratio (y) = 0.25896 0.19865
# Poissons Ratio (z) = -0.03241 0.13251
#
# Static dielectric constant tensor:
#      x y z
#    x 1.756510 0.034990 -0.028570 
#    y 0.034990 1.786580 -0.016320 
#    z -0.028570 -0.016320 1.815060 
# 
# From -- ./inp_files/284138.got.cif
#   From: 2010.05.17/outbox.cif.g08.bks.cpg/sg2_143_cif.got.tgz:284138.got - 2010.06.03 11:33:40.
