data_PCOD9079663
_publ_section_title
;
Structure prediction by ZEFSAII (Michael W. Deem and Ramdas Pophale) SiO2 
 PCOD9079663
Probable space group: P -1
;
_chemical_formula_sum "Si O2"
_cell_formula_units_Z 16
_cell_length_a 11.627577
_cell_length_b 15.541286
_cell_length_c 7.427618
_cell_angle_alpha 56.963621
_cell_angle_beta 71.216815
_cell_angle_gamma 34.551879
_cell_volume 614.975922
_symmetry_space_group_name_H-M "P -1"
_symmetry_group_IT_number 2
_symmetry_cell_setting 'triclinic'
loop_
_space_group_symop_operation_xyz
x,y,z
-x,-y,-z
loop_
_atom_site_type_symbol
_atom_site_label
_atom_site_fract_x
_atom_site_fract_y
_atom_site_fract_z
Si Si1 0.460675 0.300898 0.312368
Si Si2 0.109115 0.841730 0.249367
Si Si3 0.798886 0.754195 0.980431
Si Si4 0.597541 0.897037 0.379744
Si Si5 0.960503 0.419225 0.329308
Si Si6 0.555268 0.598999 0.177007
Si Si7 0.214674 0.756752 0.678297
Si Si8 0.937050 0.278417 0.895099
O O1 0.448658 0.192814 0.507694
O O2 0.653975 0.231383 0.372916
O O3 0.477664 0.297480 0.088327
O O4 0.250963 0.508664 0.234600
O O5 0.352138 0.708408 0.266360
O O6 0.063166 0.867138 0.455246
O O7 0.057959 0.772896 0.247143
O O8 0.000000 0.000000 0.000000
O O9 0.923686 0.673237 0.818658
O O10 0.870514 0.799370 0.014585
O O11 0.550051 0.934465 0.868509
O O12 0.880993 0.590362 0.204537
O O13 0.849757 0.733342 0.453731
O O14 0.500000 0.000000 0.500000
O O15 0.744186 0.507302 0.310127
O O16 0.624680 0.446233 0.219371
O O17 0.113009 0.785136 0.879242
#
# Coordination Sequence:
#
# PCOD9079663 Si02
#       8
#     2   2   2   2   2   2   2   2
#     4  11  19  38  69  96 132 179 224 275 338 406
#     4  12  28  43  62 102 142 175 223 286 337 400
#     4  10  19  35  63 100 136 172 225 282 331 401
#     4  10  21  33  59 105 138 168 233 282 330 403
#     4  10  18  37  62  98 134 177 224 279 334 398
#     4  11  20  41  66  94 134 177 223 272 340 410
#     4  11  23  42  68  97 130 179 232 266 340 416
#     4  11  21  43  70  97 135 179 222 277 346 408
#
# _framework density 26.017278000000001
#
# number of rings (size 3 to 8) (size 9 to 14) (size 15 to 20)
#    0.000    1.250    6.250    2.625    1.750    1.500 
#    2.250    0.000    0.000    3.750    0.000    0.000 
#    0.000    0.000    0.000    0.000    0.000    0.000 
#
# Total GULP energy -89662.000819 kJ/mol
# GULP energy per Si atom -5603.875051 kJ/mol
# Density = 2.595806 g / cm^3
# Si number density = 26.017278 Si / 1000 Ang^3
#
#
#
# Elastic Constant Matrix: (Units=GPa)
#
#
# Indices 1 2 3 4 5 6 
#
# 1 204.6549 59.0345 28.3172 -18.1692 19.9011 -4.2008
# 2 59.0345 51.7087 42.9988 -26.1130 11.8385 -7.1058
# 3 28.3172 42.9988 109.4367 -12.9410 24.2160 1.6798
# 4 -18.1692 -26.1130 -12.9410 42.1574 4.4220 11.4364
# 5 19.9011 11.8385 24.2160 4.4220 39.9755 -4.1200
# 6 -4.2008 -7.1058 1.6798 11.4364 -4.1200 27.7215
#
#
#
# Elastic Compliance Matrix: (Units=1/GPa)
#
#
# Indices 1 2 3 4 5 6 
#
# 1 0.008162 -0.013360 0.003174 -0.003237 -0.001807 -0.001313
# 2 -0.013360 0.065723 -0.017897 0.029107 -0.004864 0.003176
# 3 0.003174 -0.017897 0.016569 -0.002583 -0.006549 -0.005018
# 4 -0.003237 0.029107 -0.002583 0.044278 -0.011668 -0.012874
# 5 -0.001807 -0.004864 -0.006549 -0.011668 0.033506 0.008670
# 6 -0.001313 0.003176 -0.005018 -0.012874 0.008670 0.043592
#
#
# Mechanical properties :
#
#
# Convention : Reuss Voigt Hill
#
# Bulk Modulus (GPa) = 29.16361 69.61124 49.38743
# Shear Modulus (GPa) = 17.89386 37.66752 27.78069
#
# Velocity S-wave (km/s) = 2.62538 3.80911 3.27123
# Velocity P-wave (km/s) = 4.51927 6.79409 5.76990
#
# Compressibility (1/GPa) = 0.03428931
#
# Stress axis : x y z
#
# Youngs Moduli (GPa) = 122.51621 15.21533 60.35432
#
# Poissons Ratio (x) = 0.20327 -0.19159
# Poissons Ratio (y) = 1.63680 1.08016
# Poissons Ratio (z) = -0.38892 0.27231
#
# Static dielectric constant tensor:
#      x y z
#    x 2.169050 -0.064380 -0.084560 
#    y -0.064380 2.057860 0.045080 
#    z -0.084560 0.045080 2.141070 
# 
# From -- ./inp_files/269751.got.cif
#   From: 2010.05.17/outbox.cif.g08.bks.cpg/sg2_135_cif.got.tgz:269751.got - 2010.06.03 11:33:40.
