data_PCOD9079095
_publ_section_title
;
Structure prediction by ZEFSAII (Michael W. Deem and Ramdas Pophale) SiO2 
 PCOD9079095
Probable space group: P -1
;
_chemical_formula_sum "Si O2"
_cell_formula_units_Z 14
_cell_length_a 8.855660
_cell_length_b 11.729543
_cell_length_c 15.040637
_cell_angle_alpha 152.906751
_cell_angle_beta 115.321829
_cell_angle_gamma 54.824556
_cell_volume 566.183473
_symmetry_space_group_name_H-M "P -1"
_symmetry_group_IT_number 2
_symmetry_cell_setting 'triclinic'
loop_
_space_group_symop_operation_xyz
x,y,z
-x,-y,-z
loop_
_atom_site_type_symbol
_atom_site_label
_atom_site_fract_x
_atom_site_fract_y
_atom_site_fract_z
Si Si1 0.177655 0.228105 0.695710
Si Si2 0.802586 0.570340 0.620730
Si Si3 0.263449 0.663319 0.091996
Si Si4 0.755388 0.739067 0.529467
Si Si5 0.554891 0.370119 0.713935
Si Si6 0.825071 0.973680 0.248654
Si Si7 0.738908 0.663560 0.859185
O O1 0.218558 0.099621 0.716186
O O2 0.954299 0.400383 0.739955
O O3 0.277149 0.957998 0.470385
O O4 0.264772 0.444057 0.866716
O O5 0.713299 0.689004 0.585455
O O6 0.726476 0.762423 0.822885
O O7 0.026494 0.462474 0.584811
O O8 0.779579 0.295712 0.448601
O O9 0.416727 0.513661 0.104202
O O10 0.051984 0.778325 0.158746
O O11 0.276088 0.940756 0.258214
O O12 0.626001 0.663342 0.380740
O O13 0.599105 0.542736 0.769318
O O14 0.730261 0.887040 0.085044
#
# Coordination Sequence:
#
# PCOD9079095 Si02
#       7
#     2   2   2   2   2   2   2
#     4  11  19  34  61  93 114 146 186 240 293 330
#     4  10  22  44  60  76 117 160 196 228 281 345
#     4  10  20  37  58  85 123 145 188 236 282 346
#     4  10  24  41  57  82 120 160 186 232 287 346
#     4  12  21  35  61  92 116 144 192 241 292 330
#     4  10  18  36  62  89 111 148 194 238 278 337
#     4  11  20  35  65  90 111 148 196 236 284 336
#
# _framework density 24.726966000000001
#
# number of rings (size 3 to 8) (size 9 to 14) (size 15 to 20)
#    0.000    1.429    4.286    3.429    0.000    1.143 
#    0.000   17.857    0.000    0.000    0.000    0.000 
#    0.000    0.000    0.000    0.000    0.000    0.000 
#
# Total GULP energy -78464.077645 kJ/mol
# GULP energy per Si atom -5604.576975 kJ/mol
# Density = 2.467069 g / cm^3
# Si number density = 24.726966 Si / 1000 Ang^3
#
#
#
# Elastic Constant Matrix: (Units=GPa)
#
#
# Indices 1 2 3 4 5 6 
#
# 1 71.8856 30.9263 35.1630 -1.1949 26.7987 5.4216
# 2 30.9263 90.6031 25.3370 -15.5646 6.0894 24.0193
# 3 35.1630 25.3370 118.7730 -26.2955 23.9832 2.2056
# 4 -1.1949 -15.5646 -26.2955 19.1378 -0.7828 -4.2082
# 5 26.7987 6.0894 23.9832 -0.7828 38.0101 0.0486
# 6 5.4216 24.0193 2.2056 -4.2082 0.0486 41.6143
#
#
#
# Elastic Compliance Matrix: (Units=1/GPa)
#
#
# Indices 1 2 3 4 5 6 
#
# 1 0.025105 -0.008599 -0.006229 -0.014376 -0.012688 0.000584
# 2 -0.008599 0.017953 0.001600 0.014639 0.002488 -0.007850
# 3 -0.006229 0.001600 0.016158 0.023190 -0.005584 0.001383
# 4 -0.014376 0.014639 0.023190 0.095328 -0.004881 0.001840
# 5 -0.012688 0.002488 -0.005584 -0.004881 0.038279 -0.000025
# 6 0.000584 -0.007850 0.001383 0.001840 -0.000025 0.028598
#
#
# Mechanical properties :
#
#
# Convention : Reuss Voigt Hill
#
# Bulk Modulus (GPa) = 30.52497 51.56826 41.04661
# Shear Modulus (GPa) = 19.32016 32.40812 25.86414
#
# Velocity S-wave (km/s) = 2.79828 3.62420 3.23768
# Velocity P-wave (km/s) = 4.77620 6.19786 5.53288
#
# Compressibility (1/GPa) = 0.03276007
#
# Stress axis : x y z
#
# Youngs Moduli (GPa) = 39.83326 55.70021 61.88815
#
# Poissons Ratio (x) = 0.47895 0.38553
# Poissons Ratio (y) = 0.34251 -0.09902
# Poissons Ratio (z) = 0.24814 -0.08912
#
# Static dielectric constant tensor:
#      x y z
#    x 1.963430 -0.013270 -0.039430 
#    y -0.013270 1.944180 -0.001690 
#    z -0.039430 -0.001690 1.916720 
# 
# From -- ./inp_files/185781.got.cif
#   From: 2010.05.17/outbox.cif.g08.bks.cpg/sg2_93_cif.got.tgz:185781.got - 2010.06.03 11:33:40.
