data_PCOD9079100
_publ_section_title
;
Structure prediction by ZEFSAII (Michael W. Deem and Ramdas Pophale) SiO2 
 PCOD9079100
Probable space group: P -1
;
_chemical_formula_sum "Si O2"
_cell_formula_units_Z 16
_cell_length_a 9.743924
_cell_length_b 7.947218
_cell_length_c 13.266232
_cell_angle_alpha 130.663686
_cell_angle_beta 105.061335
_cell_angle_gamma 77.336490
_cell_volume 750.737682
_symmetry_space_group_name_H-M "P -1"
_symmetry_group_IT_number 2
_symmetry_cell_setting 'triclinic'
loop_
_space_group_symop_operation_xyz
x,y,z
-x,-y,-z
loop_
_atom_site_type_symbol
_atom_site_label
_atom_site_fract_x
_atom_site_fract_y
_atom_site_fract_z
Si Si1 0.511447 0.898221 0.823894
Si Si2 0.887937 0.017988 0.392171
Si Si3 0.419550 0.606592 0.282053
Si Si4 0.218269 0.549150 0.046496
Si Si5 0.685129 0.612490 0.199493
Si Si6 0.734346 0.124059 0.078677
Si Si7 0.971371 0.871186 0.131767
Si Si8 0.404614 0.731406 0.545727
O O1 0.551590 0.647165 0.772139
O O2 0.363662 0.954439 0.876966
O O3 0.476564 0.898530 0.700063
O O4 0.637517 0.045559 0.938137
O O5 0.792471 0.805547 0.301608
O O6 0.964301 0.994311 0.287566
O O7 0.767084 0.228426 0.450964
O O8 0.000000 0.000000 0.500000
O O9 0.279111 0.600515 0.186936
O O10 0.540766 0.668617 0.253001
O O11 0.415762 0.757690 0.438830
O O12 0.124891 0.772232 0.086518
O O13 0.329869 0.462522 0.948901
O O14 0.117717 0.345910 0.955737
O O15 0.744848 0.386375 0.177828
O O16 0.888521 0.013064 0.086032
O O17 0.500000 0.500000 0.500000
#
# Coordination Sequence:
#
# PCOD9079100 Si02
#       8
#     2   2   2   2   2   2   2   2
#     4   9  18  33  60  92 117 157 196 242 296 354
#     4  11  23  43  64  87 120 164 200 249 312 364
#     4  10  19  36  60  88 125 156 198 247 300 351
#     4  10  20  36  57  95 119 161 200 249 299 354
#     4  10  24  37  61  88 125 151 203 256 302 351
#     4  10  18  36  62  89 119 158 196 247 298 354
#     4  10  20  36  64  83 123 161 206 241 293 372
#     4  10  21  37  63  93 121 160 210 245 291 368
#
# _framework density 21.312370000000001
#
# number of rings (size 3 to 8) (size 9 to 14) (size 15 to 20)
#    0.000    2.000    2.500    1.125    0.000    2.000 
#    0.000    1.875    2.750    0.000    0.000    0.000 
#    0.000    0.000    0.000    0.000    0.000    0.000 
#
# Total GULP energy -89222.434213 kJ/mol
# GULP energy per Si atom -5576.402138 kJ/mol
# Density = 2.126386 g / cm^3
# Si number density = 21.312370 Si / 1000 Ang^3
#
#
#
# Elastic Constant Matrix: (Units=GPa)
#
#
# Indices 1 2 3 4 5 6 
#
# 1 57.6650 14.2973 38.0724 -7.1794 -12.9910 -6.8615
# 2 14.2973 67.9326 20.6147 0.0848 4.9376 -17.2860
# 3 38.0724 20.6147 129.0984 -33.3673 -10.4290 -8.6051
# 4 -7.1794 0.0848 -33.3673 33.7795 2.8801 6.4855
# 5 -12.9910 4.9376 -10.4290 2.8801 24.1993 -7.0595
# 6 -6.8615 -17.2860 -8.6051 6.4855 -7.0595 39.1671
#
#
#
# Elastic Compliance Matrix: (Units=1/GPa)
#
#
# Indices 1 2 3 4 5 6 
#
# 1 0.025528 -0.003254 -0.006376 -0.002860 0.013274 0.004501
# 2 -0.003254 0.018415 -0.003094 -0.004756 -0.004260 0.006897
# 3 -0.006376 -0.003094 0.013177 0.011836 0.001084 -0.001352
# 4 -0.002860 -0.004756 0.011836 0.042370 -0.002695 -0.007501
# 5 0.013274 -0.004260 0.001084 -0.002695 0.053235 0.010725
# 6 0.004501 0.006897 -0.001352 -0.007501 0.010725 0.032242
#
#
# Mechanical properties :
#
#
# Convention : Reuss Voigt Hill
#
# Bulk Modulus (GPa) = 31.57374 44.51829 38.04602
# Shear Modulus (GPa) = 22.62734 31.54328 27.08531
#
# Velocity S-wave (km/s) = 3.26191 3.85131 3.56880
# Velocity P-wave (km/s) = 5.38829 6.38049 5.90526
#
# Compressibility (1/GPa) = 0.03167189
#
# Stress axis : x y z
#
# Youngs Moduli (GPa) = 39.17334 54.30396 75.88899
#
# Poissons Ratio (x) = 0.17669 0.48385
# Poissons Ratio (y) = 0.12746 0.23484
# Poissons Ratio (z) = 0.24976 0.16804
#
# Static dielectric constant tensor:
#      x y z
#    x 1.801300 -0.035570 -0.043670 
#    y -0.035570 1.787840 0.000600 
#    z -0.043670 0.000600 1.777110 
# 
# From -- ./inp_files/495759.got.cif
#   From: 2010.05.17/outbox.cif.g08.bks.cpg/sg2_248_cif.got.tgz:495759.got - 2010.06.03 11:33:40.
