data_PCOD9079105
_publ_section_title
;
Structure prediction by ZEFSAII (Michael W. Deem and Ramdas Pophale) SiO2 
 PCOD9079105
Probable space group: P -1
;
_chemical_formula_sum "Si O2"
_cell_formula_units_Z 16
_cell_length_a 10.090116
_cell_length_b 14.704217
_cell_length_c 13.066170
_cell_angle_alpha 38.560273
_cell_angle_beta 137.281609
_cell_angle_gamma 117.285416
_cell_volume 788.282874
_symmetry_space_group_name_H-M "P -1"
_symmetry_group_IT_number 2
_symmetry_cell_setting 'triclinic'
loop_
_space_group_symop_operation_xyz
x,y,z
-x,-y,-z
loop_
_atom_site_type_symbol
_atom_site_label
_atom_site_fract_x
_atom_site_fract_y
_atom_site_fract_z
Si Si1 0.452675 0.027078 0.566284
Si Si2 0.718625 0.112586 0.957328
Si Si3 0.819062 0.668125 0.866615
Si Si4 0.036178 0.954398 0.443867
Si Si5 0.937012 0.340133 0.777897
Si Si6 0.152900 0.099570 0.965769
Si Si7 0.995285 0.654426 0.764275
Si Si8 0.354357 0.389756 0.531529
O O1 0.388075 0.208125 0.384218
O O2 0.500000 0.000000 0.500000
O O3 0.255447 0.970330 0.525627
O O4 0.644204 0.948336 0.810310
O O5 0.797258 0.232046 0.828143
O O6 0.495699 0.215994 0.774929
O O7 0.763538 0.960261 0.046882
O O8 0.863849 0.058155 0.183883
O O9 0.963743 0.692475 0.833281
O O10 0.902999 0.685749 0.012449
O O11 0.820070 0.495045 0.009545
O O12 0.023786 0.782572 0.591908
O O13 0.000000 0.000000 0.500000
O O14 0.802768 0.515823 0.554352
O O15 0.039736 0.270318 0.790589
O O16 0.000000 0.000000 0.000000
O O17 0.793215 0.612173 0.646904
O O18 0.500000 0.500000 0.500000
#
# Coordination Sequence:
#
# PCOD9079105 Si02
#       8
#     2   2   2   2   2   2   2   2
#     4  12  21  38  67  94 122 174 216 256 321 389
#     4  10  19  34  58  90 123 162 206 264 316 372
#     4  10  18  36  62  90 120 166 210 259 315 382
#     4  12  24  41  62  96 136 164 212 277 325 375
#     4   9  16  34  57  88 119 159 209 260 308 373
#     4  10  20  35  59  94 122 161 217 265 310 384
#     4  10  21  36  60  92 130 162 209 268 323 373
#     4   9  19  34  59  87 122 166 215 259 315 383
#
# _framework density 20.297283
#
# number of rings (size 3 to 8) (size 9 to 14) (size 15 to 20)
#    0.000    1.750    3.750    1.500    0.000    0.500 
#    0.000    0.625    0.000    4.500    0.000    0.000 
#    0.000    0.000    0.000    0.000    0.000    0.000 
#
# Total GULP energy -89087.695778 kJ/mol
# GULP energy per Si atom -5567.980986 kJ/mol
# Density = 2.025109 g / cm^3
# Si number density = 20.297283 Si / 1000 Ang^3
#
#
#
# Elastic Constant Matrix: (Units=GPa)
#
#
# Indices 1 2 3 4 5 6 
#
# 1 85.9655 43.4711 49.5382 -3.4763 13.3836 -23.6004
# 2 43.4711 83.5627 37.7612 0.9497 7.0488 -32.3790
# 3 49.5382 37.7612 100.0961 -10.5569 24.4813 -10.1786
# 4 -3.4763 0.9497 -10.5569 38.0829 -9.4751 8.9168
# 5 13.3836 7.0488 24.4813 -9.4751 27.6537 -11.1827
# 6 -23.6004 -32.3790 -10.1786 8.9168 -11.1827 40.4000
#
#
#
# Elastic Compliance Matrix: (Units=1/GPa)
#
#
# Indices 1 2 3 4 5 6 
#
# 1 0.020091 -0.004189 -0.007995 -0.001743 0.000624 0.006922
# 2 -0.004189 0.024181 -0.007789 -0.005385 0.008387 0.018480
# 3 -0.007995 -0.007789 0.019792 0.003823 -0.014745 -0.010852
# 4 -0.001743 -0.005385 0.003823 0.030931 0.005519 -0.009670
# 5 0.000624 0.008387 -0.014745 0.005519 0.055780 0.017594
# 6 0.006922 0.018480 -0.010852 -0.009670 0.017594 0.047878
#
#
# Mechanical properties :
#
#
# Convention : Reuss Voigt Hill
#
# Bulk Modulus (GPa) = 41.46623 59.01834 50.24229
# Shear Modulus (GPa) = 20.27260 30.48423 25.37841
#
# Velocity S-wave (km/s) = 3.16378 3.87962 3.53984
# Velocity P-wave (km/s) = 5.81548 7.01489 6.44316
#
# Compressibility (1/GPa) = 0.02411601
#
# Stress axis : x y z
#
# Youngs Moduli (GPa) = 49.77305 41.35553 50.52629
#
# Poissons Ratio (x) = 0.17326 0.40398
# Poissons Ratio (y) = 0.20852 0.39354
# Poissons Ratio (z) = 0.39796 0.32211
#
# Static dielectric constant tensor:
#      x y z
#    x 1.679720 -0.013740 -0.002810 
#    y -0.013740 1.798130 -0.063740 
#    z -0.002810 -0.063740 1.716200 
# 
# From -- ./inp_files/392740.got.cif
#   From: 2010.05.17/outbox.cif.g08.bks.cpg/sg2_197_cif.got.tgz:392740.got - 2010.06.03 11:33:40.
