data_PCOD9079094
_publ_section_title
;
Structure prediction by ZEFSAII (Michael W. Deem and Ramdas Pophale) SiO2 
 PCOD9079094
Probable space group: P -1
;
_chemical_formula_sum "Si O2"
_cell_formula_units_Z 16
_cell_length_a 9.066301
_cell_length_b 7.118029
_cell_length_c 17.238190
_cell_angle_alpha 54.604143
_cell_angle_beta 56.494388
_cell_angle_gamma 91.438786
_cell_volume 651.606594
_symmetry_space_group_name_H-M "P -1"
_symmetry_group_IT_number 2
_symmetry_cell_setting 'triclinic'
loop_
_space_group_symop_operation_xyz
x,y,z
-x,-y,-z
loop_
_atom_site_type_symbol
_atom_site_label
_atom_site_fract_x
_atom_site_fract_y
_atom_site_fract_z
Si Si1 0.760426 0.907915 0.831785
Si Si2 0.510189 0.922676 0.648121
Si Si3 0.338124 0.374705 0.423557
Si Si4 0.756355 0.802488 0.340433
Si Si5 0.475276 0.129534 0.861995
Si Si6 0.299115 0.436040 0.940782
Si Si7 0.877672 0.052835 0.089426
Si Si8 0.101400 0.805113 0.430832
O O1 0.627297 0.035985 0.870843
O O2 0.767430 0.962026 0.725615
O O3 0.001465 0.077182 0.742942
O O4 0.685090 0.620234 0.960246
O O5 0.534764 0.763240 0.607829
O O6 0.407170 0.710749 0.798354
O O7 0.352684 0.024042 0.653424
O O8 0.740063 0.139885 0.558987
O O9 0.340320 0.404246 0.509293
O O10 0.408144 0.643519 0.291290
O O11 0.106110 0.183208 0.503848
O O12 0.761351 0.806500 0.243330
O O13 0.389389 0.262605 0.914586
O O14 0.282826 0.902934 0.923453
O O15 0.057067 0.293130 0.026906
O O16 0.000000 0.000000 0.000000
O O17 0.000000 0.500000 0.500000
#
# Coordination Sequence:
#
# PCOD9079094 Si02
#       8
#     2   2   2   2   2   2   2   2
#     4  10  20  37  60  92 121 158 213 261 310 369
#     4  11  23  42  63  90 128 176 204 261 323 371
#     4  10  22  40  63  91 130 164 214 260 312 381
#     4  10  22  37  62  91 127 169 211 256 312 379
#     4  10  18  36  62  88 128 165 204 263 317 363
#     4   9  21  38  60  88 124 166 211 257 312 380
#     4   9  19  37  59  91 125 161 208 259 311 366
#     4  11  22  40  64  92 125 163 213 265 318 377
#
# _framework density 24.554693
#
# number of rings (size 3 to 8) (size 9 to 14) (size 15 to 20)
#    0.000    2.000    1.250    1.875    0.000    3.000 
#    4.500    2.500    2.750    0.000    0.000    0.000 
#    0.000    0.000    0.000    0.000    0.000    0.000 
#
# Total GULP energy -89216.434497 kJ/mol
# GULP energy per Si atom -5576.027156 kJ/mol
# Density = 2.449881 g / cm^3
# Si number density = 24.554693 Si / 1000 Ang^3
#
#
#
# Elastic Constant Matrix: (Units=GPa)
#
#
# Indices 1 2 3 4 5 6 
#
# 1 130.2121 41.8848 31.5446 -9.1672 0.5559 -30.4573
# 2 41.8848 67.2102 19.8174 5.2938 -0.1754 -26.1220
# 3 31.5446 19.8174 140.4787 1.4524 19.5439 -10.4755
# 4 -9.1672 5.2938 1.4524 31.0260 -6.3059 -6.5003
# 5 0.5559 -0.1754 19.5439 -6.3059 48.1669 1.8577
# 6 -30.4573 -26.1220 -10.4755 -6.5003 1.8577 49.7344
#
#
#
# Elastic Compliance Matrix: (Units=1/GPa)
#
#
# Indices 1 2 3 4 5 6 
#
# 1 0.011153 -0.005162 -0.001648 0.005398 0.001057 0.004438
# 2 -0.005162 0.021667 -0.001288 -0.003615 -0.000101 0.007479
# 3 -0.001648 -0.001288 0.008167 -0.001359 -0.003477 -0.000013
# 4 0.005398 -0.003615 -0.001359 0.036737 0.005064 0.005733
# 5 0.001057 -0.000101 -0.003477 0.005064 0.022835 -0.000329
# 6 0.004438 0.007479 -0.000013 0.005733 -0.000329 0.027511
#
#
# Mechanical properties :
#
#
# Convention : Reuss Voigt Hill
#
# Bulk Modulus (GPa) = 40.33937 58.26606 49.30272
# Shear Modulus (GPa) = 32.78038 42.09574 37.43806
#
# Velocity S-wave (km/s) = 3.65772 4.14498 3.90895
# Velocity P-wave (km/s) = 5.85684 6.83289 6.36361
#
# Compressibility (1/GPa) = 0.02478968
#
# Stress axis : x y z
#
# Youngs Moduli (GPa) = 89.66174 46.15370 122.44233
#
# Poissons Ratio (x) = 0.23825 0.20180
# Poissons Ratio (y) = 0.46285 0.15775
# Poissons Ratio (z) = 0.14777 0.05946
#
# Static dielectric constant tensor:
#      x y z
#    x 2.003710 0.045770 -0.035550 
#    y 0.045770 2.033190 0.023920 
#    z -0.035550 0.023920 1.978600 
# 
# From -- ./inp_files/555908.got.cif
#   From: 2010.05.17/outbox.cif.g08.bks.cpg/sg2_278_cif.got.tgz:555908.got - 2010.06.03 11:33:40.
