data_PCOD9079875
_publ_section_title
;
Structure prediction by ZEFSAII (Michael W. Deem and Ramdas Pophale) SiO2 
 PCOD9079875
Probable space group: P -1
;
_chemical_formula_sum "Si O2"
_cell_formula_units_Z 14
_cell_length_a 17.884715
_cell_length_b 7.598277
_cell_length_c 11.232838
_cell_angle_alpha 130.864611
_cell_angle_beta 149.186913
_cell_angle_gamma 48.720385
_cell_volume 572.167570
_symmetry_space_group_name_H-M "P -1"
_symmetry_group_IT_number 2
_symmetry_cell_setting 'triclinic'
loop_
_space_group_symop_operation_xyz
x,y,z
-x,-y,-z
loop_
_atom_site_type_symbol
_atom_site_label
_atom_site_fract_x
_atom_site_fract_y
_atom_site_fract_z
Si Si1 0.029698 0.901490 0.839092
Si Si2 0.331127 0.867506 0.320633
Si Si3 0.694420 0.917756 0.362292
Si Si4 0.364891 0.369644 0.495020
Si Si5 0.872621 0.949797 0.219654
Si Si6 0.606100 0.219614 0.131003
Si Si7 0.097907 0.560307 0.052021
O O1 0.084793 0.959673 0.809531
O O2 0.187084 0.762194 0.052237
O O3 0.876399 0.810687 0.578762
O O4 0.980148 0.161418 0.952004
O O5 0.351822 0.918782 0.510206
O O6 0.472916 0.703542 0.375993
O O7 0.313170 0.129855 0.350670
O O8 0.665783 0.059083 0.259895
O O9 0.571149 0.761009 0.119069
O O10 0.364698 0.525892 0.681429
O O11 0.257974 0.522804 0.317472
O O12 0.707877 0.091917 0.103919
O O13 0.889356 0.663335 0.116816
O O14 0.000000 0.000000 0.500000
O O15 0.000000 0.500000 0.000000
#
# Coordination Sequence:
#
# PCOD9079875 Si02
#       7
#     2   2   2   2   2   2   2
#     4  11  22  44  68  98 129 174 222 272 320 391
#     4  11  25  41  69  96 135 167 224 275 328 379
#     4  11  24  44  63  99 138 171 209 281 334 387
#     4  11  22  44  67  99 123 179 230 263 315 401
#     4  11  20  37  67  99 126 168 226 273 307 389
#     4  11  24  43  69  97 134 174 222 265 332 389
#     4  10  18  37  67  95 120 170 231 260 304 386
#
# _framework density 24.468357999999998
#
# number of rings (size 3 to 8) (size 9 to 14) (size 15 to 20)
#    0.000    1.143    5.714    2.143    2.000    1.143 
#    5.143    0.714    0.000    0.000    0.000    0.000 
#    0.000    0.000    0.000    0.000    0.000    0.000 
#
# Total GULP energy -78286.503912 kJ/mol
# GULP energy per Si atom -5591.893137 kJ/mol
# Density = 2.441267 g / cm^3
# Si number density = 24.468358 Si / 1000 Ang^3
#
#
#
# Elastic Constant Matrix: (Units=GPa)
#
#
# Indices 1 2 3 4 5 6 
#
# 1 113.1789 20.4244 18.7766 -7.3499 5.1626 -27.9931
# 2 20.4244 79.9957 36.2985 -2.1431 6.1694 -19.0124
# 3 18.7766 36.2985 179.4921 -0.0130 20.3964 -21.6343
# 4 -7.3499 -2.1431 -0.0130 28.8554 -12.7450 -2.7146
# 5 5.1626 6.1694 20.3964 -12.7450 41.2916 -5.7505
# 6 -27.9931 -19.0124 -21.6343 -2.7146 -5.7505 33.9037
#
#
#
# Elastic Compliance Matrix: (Units=1/GPa)
#
#
# Indices 1 2 3 4 5 6 
#
# 1 0.011603 -0.000590 -0.000074 0.004458 0.001415 0.009799
# 2 -0.000590 0.015328 -0.002255 0.001820 0.000418 0.006886
# 3 -0.000074 -0.002255 0.006656 -0.001301 -0.003022 0.002305
# 4 0.004458 0.001820 -0.001301 0.043267 0.014533 0.009800
# 5 0.001415 0.000418 -0.003022 0.014533 0.030773 0.005857
# 6 0.009799 0.006886 0.002305 0.009800 0.005857 0.044697
#
#
# Mechanical properties :
#
#
# Convention : Reuss Voigt Hill
#
# Bulk Modulus (GPa) = 36.03730 58.18508 47.11119
# Shear Modulus (GPa) = 29.86663 40.62129 35.24396
#
# Velocity S-wave (km/s) = 3.49753 4.07892 3.79936
# Velocity P-wave (km/s) = 5.57408 6.78342 6.20827
#
# Compressibility (1/GPa) = 0.02774903
#
# Stress axis : x y z
#
# Youngs Moduli (GPa) = 86.18508 65.24130 150.23405
#
# Poissons Ratio (x) = 0.03847 0.01110
# Poissons Ratio (y) = 0.05082 0.33885
# Poissons Ratio (z) = 0.00637 0.14715
#
# Static dielectric constant tensor:
#      x y z
#    x 1.953310 0.039260 -0.064220 
#    y 0.039260 1.936210 -0.041700 
#    z -0.064220 -0.041700 1.904600 
# 
# From -- ./inp_files/462500.got.cif
#   From: 2010.05.17/outbox.cif.g08.bks.cpg/sg2_232_cif.got.tgz:462500.got - 2010.06.03 11:33:40.
