data_PCOD9079323
_publ_section_title
;
Structure prediction by ZEFSAII (Michael W. Deem and Ramdas Pophale) SiO2 
 PCOD9079323
Probable space group: P -1
;
_chemical_formula_sum "Si O2"
_cell_formula_units_Z 10
_cell_length_a 7.374853
_cell_length_b 11.898554
_cell_length_c 4.925833
_cell_angle_alpha 96.849054
_cell_angle_beta 118.952387
_cell_angle_gamma 94.457985
_cell_volume 370.929991
_symmetry_space_group_name_H-M "P -1"
_symmetry_group_IT_number 2
_symmetry_cell_setting 'triclinic'
loop_
_space_group_symop_operation_xyz
x,y,z
-x,-y,-z
loop_
_atom_site_type_symbol
_atom_site_label
_atom_site_fract_x
_atom_site_fract_y
_atom_site_fract_z
Si Si1 0.693095 0.040773 0.448519
Si Si2 0.129706 0.139624 0.865187
Si Si3 0.255473 0.513422 0.309127
Si Si4 0.455044 0.737012 0.744377
Si Si5 0.215747 0.363761 0.734337
O O1 0.638988 0.146806 0.260957
O O2 0.903781 0.083354 0.789198
O O3 0.500000 0.000000 0.500000
O O4 0.763211 0.948047 0.266745
O O5 0.087282 0.240557 0.660863
O O6 0.314595 0.210269 0.206397
O O7 0.500000 0.500000 0.500000
O O8 0.286026 0.647287 0.437556
O O9 0.164980 0.421413 0.440262
O O10 0.175757 0.458847 0.953330
O O11 0.545749 0.666855 0.039703
#
# Coordination Sequence:
#
# PCOD9079323 Si02
#       5
#     2   2   2   2   2
#     4  11  23  40  66  93 131 178 226 276 335 392
#     4   9  23  41  60  97 135 166 230 276 329 395
#     4  10  18  36  66  98 130 177 212 270 343 393
#     4   9  20  37  64  92 131 172 215 268 333 396
#     4   9  21  37  68  94 136 173 215 276 337 393
#
# _framework density 26.959268000000002
#
# number of rings (size 3 to 8) (size 9 to 14) (size 15 to 20)
#    1.200    1.200    0.000    3.000    5.600    0.800 
#    0.000    4.000    0.000    0.000    0.000    0.000 
#    0.000    0.000    0.000    0.000    0.000    0.000 
#
# Total GULP energy -55773.850046 kJ/mol
# GULP energy per Si atom -5577.385005 kJ/mol
# Density = 2.689791 g / cm^3
# Si number density = 26.959268 Si / 1000 Ang^3
#
#
#
# Elastic Constant Matrix: (Units=GPa)
#
#
# Indices 1 2 3 4 5 6 
#
# 1 127.3549 78.0600 36.0283 9.7678 20.9650 -6.9039
# 2 78.0600 180.7566 41.4512 14.0558 8.3647 -39.4389
# 3 36.0283 41.4512 66.9978 1.4119 28.4524 1.6840
# 4 9.7678 14.0558 1.4119 47.8671 10.0476 9.0265
# 5 20.9650 8.3647 28.4524 10.0476 40.8814 13.4333
# 6 -6.9039 -39.4389 1.6840 9.0265 13.4333 41.0341
#
#
#
# Elastic Compliance Matrix: (Units=1/GPa)
#
#
# Indices 1 2 3 4 5 6 
#
# 1 0.011818 -0.004847 -0.001956 0.000034 -0.003207 -0.001547
# 2 -0.004847 0.011555 -0.005263 -0.004609 0.001268 0.011105
# 3 -0.001956 -0.005263 0.026313 0.005088 -0.016797 -0.002088
# 4 0.000034 -0.004609 0.005088 0.024892 -0.006064 -0.008123
# 5 -0.003207 0.001268 -0.016797 -0.006064 0.042737 -0.011288
# 6 -0.001547 0.011105 -0.002088 -0.008123 -0.011288 0.040351
#
#
# Mechanical properties :
#
#
# Convention : Reuss Voigt Hill
#
# Bulk Modulus (GPa) = 39.13366 76.24314 57.68840
# Shear Modulus (GPa) = 26.27214 40.59449 33.43331
#
# Velocity S-wave (km/s) = 3.12510 3.88464 3.52539
# Velocity P-wave (km/s) = 5.25063 6.96152 6.16571
#
# Compressibility (1/GPa) = 0.02555345
#
# Stress axis : x y z
#
# Youngs Moduli (GPa) = 84.61913 86.54181 38.00434
#
# Poissons Ratio (x) = 0.41945 0.07434
# Poissons Ratio (y) = 0.41013 0.20002
# Poissons Ratio (z) = 0.16552 0.45549
#
# Static dielectric constant tensor:
#      x y z
#    x 2.224170 -0.001840 0.088710 
#    y -0.001840 2.187800 -0.046800 
#    z 0.088710 -0.046800 2.295840 
# 
# From -- ./inp_files/22256.got.cif
#   From: 2010.05.17/outbox.cif.g08.bks.cpg/sg2_12_cif.got.tgz:22256.got - 2010.06.03 11:33:40.
