data_PCOD9079071
_publ_section_title
;
Structure prediction by ZEFSAII (Michael W. Deem and Ramdas Pophale) SiO2 
 PCOD9079071
Probable space group: P -1
;
_chemical_formula_sum "Si O2"
_cell_formula_units_Z 16
_cell_length_a 10.590939
_cell_length_b 9.273444
_cell_length_c 15.343776
_cell_angle_alpha 103.092607
_cell_angle_beta 114.132660
_cell_angle_gamma 127.231531
_cell_volume 830.052073
_symmetry_space_group_name_H-M "P -1"
_symmetry_group_IT_number 2
_symmetry_cell_setting 'triclinic'
loop_
_space_group_symop_operation_xyz
x,y,z
-x,-y,-z
loop_
_atom_site_type_symbol
_atom_site_label
_atom_site_fract_x
_atom_site_fract_y
_atom_site_fract_z
Si Si1 0.972760 0.198142 0.134729
Si Si2 0.169558 0.169684 0.319435
Si Si3 0.639611 0.402805 0.469012
Si Si4 0.361352 0.745535 0.736008
Si Si5 0.515107 0.193503 0.033548
Si Si6 0.916505 0.439212 0.661877
Si Si7 0.964052 0.711206 0.198776
Si Si8 0.851641 0.228563 0.921118
O O1 0.137386 0.212030 0.219503
O O2 0.047395 0.414961 0.229216
O O3 0.930770 0.194723 0.020850
O O4 0.731325 0.958818 0.075913
O O5 0.397092 0.266520 0.400863
O O6 0.193001 0.328279 0.412852
O O7 0.971548 0.890305 0.246983
O O8 0.665119 0.377921 0.372755
O O9 0.700545 0.309221 0.530369
O O10 0.425203 0.712101 0.837476
O O11 0.129030 0.627330 0.681621
O O12 0.584683 0.032193 0.825485
O O13 0.722834 0.434883 0.074098
O O14 0.500000 0.000000 0.000000
O O15 0.926492 0.289823 0.691495
O O16 0.103688 0.811382 0.163448
O O17 0.000000 0.500000 0.000000
#
# Coordination Sequence:
#
# PCOD9079071 Si02
#       8
#     2   2   2   2   2   2   2   2
#     4  10  20  37  59  85 118 158 178 230 303 349
#     4  10  23  39  57  81 120 156 195 233 289 343
#     4  10  21  41  58  79 114 162 198 234 280 344
#     4  10  19  35  59  89 110 150 190 236 293 338
#     4  10  18  36  62  86 119 146 182 238 298 344
#     4  10  20  36  63  83 113 151 196 239 291 326
#     4  11  20  36  58  93 114 147 194 243 285 341
#     4  11  20  33  60  93 118 138 192 244 283 343
#
# _framework density 19.275898000000002
#
# number of rings (size 3 to 8) (size 9 to 14) (size 15 to 20)
#    0.000    1.750    5.000    1.125    0.000    1.500 
#    0.000    2.500    0.000    0.000    0.000    0.000 
#    0.000    0.000    0.000    0.000    0.000    0.000 
#
# Total GULP energy -89122.366944 kJ/mol
# GULP energy per Si atom -5570.147934 kJ/mol
# Density = 1.923202 g / cm^3
# Si number density = 19.275898 Si / 1000 Ang^3
#
#
#
# Elastic Constant Matrix: (Units=GPa)
#
#
# Indices 1 2 3 4 5 6 
#
# 1 39.8312 27.0567 31.1215 -8.4037 0.1355 5.5046
# 2 27.0567 98.3279 29.7529 3.7262 -0.6021 -9.2585
# 3 31.1215 29.7529 88.5368 -15.3465 -4.6504 -9.2154
# 4 -8.4037 3.7262 -15.3465 26.2085 -1.5559 -3.5669
# 5 0.1355 -0.6021 -4.6504 -1.5559 39.4595 -0.3205
# 6 5.5046 -9.2585 -9.2154 -3.5669 -0.3205 29.3962
#
#
#
# Elastic Compliance Matrix: (Units=1/GPa)
#
#
# Indices 1 2 3 4 5 6 
#
# 1 0.045904 -0.010298 -0.013277 0.006227 -0.001758 -0.015265
# 2 -0.010298 0.014179 -0.001564 -0.005528 -0.000108 0.005232
# 3 -0.013277 -0.001564 0.019041 0.008501 0.002674 0.009023
# 4 0.006227 -0.005528 0.008501 0.046826 0.002787 0.005470
# 5 -0.001758 -0.000108 0.002674 0.002787 0.025786 0.001753
# 6 -0.015265 0.005232 0.009023 0.005470 0.001753 0.042036
#
#
# Mechanical properties :
#
#
# Convention : Reuss Voigt Hill
#
# Bulk Modulus (GPa) = 34.66808 44.72868 39.69838
# Shear Modulus (GPa) = 19.71104 28.26383 23.98744
#
# Velocity S-wave (km/s) = 3.20124 3.83336 3.53147
# Velocity P-wave (km/s) = 5.62922 6.54581 6.10474
#
# Compressibility (1/GPa) = 0.02884498
#
# Stress axis : x y z
#
# Youngs Moduli (GPa) = 21.78438 70.52929 52.51944
#
# Poissons Ratio (x) = 0.72632 0.69730
# Poissons Ratio (y) = 0.22434 0.08215
# Poissons Ratio (z) = 0.28923 0.11032
#
# Static dielectric constant tensor:
#      x y z
#    x 1.710750 0.013520 0.013790 
#    y 0.013520 1.701440 0.028880 
#    z 0.013790 0.028880 1.718310 
# 
# From -- ./inp_files/271033.got.cif
#   From: 2010.05.17/outbox.cif.g08.bks.cpg/sg2_136_cif.got.tgz:271033.got - 2010.06.03 11:33:40.
