data_PCOD9079646
_publ_section_title
;
Structure prediction by ZEFSAII (Michael W. Deem and Ramdas Pophale) SiO2 
 PCOD9079646
Probable space group: P -1
;
_chemical_formula_sum "Si O2"
_cell_formula_units_Z 16
_cell_length_a 24.924614
_cell_length_b 9.045979
_cell_length_c 20.387014
_cell_angle_alpha 146.853691
_cell_angle_beta 14.427962
_cell_angle_gamma 142.797607
_cell_volume 622.736073
_symmetry_space_group_name_H-M "P -1"
_symmetry_group_IT_number 2
_symmetry_cell_setting 'triclinic'
loop_
_space_group_symop_operation_xyz
x,y,z
-x,-y,-z
loop_
_atom_site_type_symbol
_atom_site_label
_atom_site_fract_x
_atom_site_fract_y
_atom_site_fract_z
Si Si1 0.993246 0.359929 0.028624
Si Si2 0.271079 0.777825 0.480019
Si Si3 0.531028 0.408604 0.554075
Si Si4 0.007718 0.118847 0.701568
Si Si5 0.844145 0.581067 0.903294
Si Si6 0.673211 0.931942 0.118694
Si Si7 0.436836 0.971378 0.227226
Si Si8 0.286925 0.994373 0.204231
O O1 0.738936 0.329551 0.325812
O O2 0.058315 0.571588 0.083794
O O3 0.000000 0.500000 0.000000
O O4 0.142918 0.080095 0.750444
O O5 0.473084 0.757821 0.281819
O O6 0.377741 0.772563 0.280084
O O7 0.091664 0.578607 0.630423
O O8 0.318852 0.330292 0.812159
O O9 0.520144 0.735772 0.683196
O O10 0.582881 0.232679 0.362209
O O11 0.220049 0.029193 0.461241
O O12 0.082377 0.089123 0.527693
O O13 0.817985 0.949730 0.889178
O O14 0.819747 0.795790 0.952378
O O15 0.764056 0.306247 0.868282
O O16 0.633772 0.882702 0.912291
O O17 0.500000 0.000000 0.000000
#
# Coordination Sequence:
#
# PCOD9079646 Si02
#       8
#     2   2   2   2   2   2   2   2
#     4  11  17  36  65  91 128 158 201 254 308 360
#     4  12  23  37  64  96 128 160 197 258 313 366
#     4  10  19  37  62  88 124 167 200 249 305 358
#     4  10  18  37  62  92 120 159 215 247 293 368
#     4  11  23  43  64  86 132 161 200 260 305 362
#     4  12  23  36  61  97 127 163 205 239 320 377
#     4   9  17  38  64  89 121 160 207 254 303 353
#     4   9  21  40  73  89 109 170 216 248 306 362
#
# _framework density 25.693068
#
# number of rings (size 3 to 8) (size 9 to 14) (size 15 to 20)
#    0.000    1.500    6.250    1.125    0.000    3.000 
#    0.000    1.250   13.750    0.000    0.000    0.000 
#    0.000    0.000    0.000    0.000    0.000    0.000 
#
# Total GULP energy -89647.101737 kJ/mol
# GULP energy per Si atom -5602.943859 kJ/mol
# Density = 2.563459 g / cm^3
# Si number density = 25.693068 Si / 1000 Ang^3
#
#
#
# Elastic Constant Matrix: (Units=GPa)
#
#
# Indices 1 2 3 4 5 6 
#
# 1 52.9669 7.3184 36.2367 -8.1891 12.7005 0.1743
# 2 7.3184 63.9195 49.1017 -21.8087 6.3246 4.3401
# 3 36.2367 49.1017 170.3360 -29.8889 37.0031 8.0195
# 4 -8.1891 -21.8087 -29.8889 53.5903 8.9574 -3.4793
# 5 12.7005 6.3246 37.0031 8.9574 57.1247 -8.6839
# 6 0.1743 4.3401 8.0195 -3.4793 -8.6839 29.3621
#
#
#
# Elastic Compliance Matrix: (Units=1/GPa)
#
#
# Indices 1 2 3 4 5 6 
#
# 1 0.022605 0.001760 -0.004351 0.002213 -0.002710 0.000255
# 2 0.001760 0.021835 -0.005455 0.006106 -0.000407 -0.001145
# 3 -0.004351 -0.005455 0.010618 0.003887 -0.006450 -0.003515
# 4 0.002213 0.006106 0.003887 0.024866 -0.007788 -0.001334
# 5 -0.002710 -0.000407 -0.006450 -0.007788 0.024807 0.008252
# 6 0.000255 -0.001145 -0.003515 -0.001334 0.008252 0.037468
#
#
# Mechanical properties :
#
#
# Convention : Reuss Voigt Hill
#
# Bulk Modulus (GPa) = 25.66362 52.50398 39.08380
# Shear Modulus (GPa) = 29.19243 40.98646 35.08944
#
# Velocity S-wave (km/s) = 3.37441 3.99837 3.69957
# Velocity P-wave (km/s) = 5.01921 6.46494 5.78739
#
# Compressibility (1/GPa) = 0.03896567
#
# Stress axis : x y z
#
# Youngs Moduli (GPa) = 44.23894 45.79833 94.18370
#
# Poissons Ratio (x) = -0.08063 0.40980
# Poissons Ratio (y) = -0.07788 0.51377
# Poissons Ratio (z) = 0.19249 0.24983
#
# Static dielectric constant tensor:
#      x y z
#    x 1.982010 0.008730 -0.020480 
#    y 0.008730 2.040580 0.002280 
#    z -0.020480 0.002280 2.010000 
# 
# From -- ./inp_files/416322.got.cif
#   From: 2010.05.17/outbox.cif.g08.bks.cpg/sg2_209_cif.got.tgz:416322.got - 2010.06.03 11:33:40.
