data_PCOD9079894
_publ_section_title
;
Structure prediction by ZEFSAII (Michael W. Deem and Ramdas Pophale) SiO2 
 PCOD9079894
Probable space group: P -1
;
_chemical_formula_sum "Si O2"
_cell_formula_units_Z 16
_cell_length_a 8.047447
_cell_length_b 20.469147
_cell_length_c 18.100199
_cell_angle_alpha 158.714771
_cell_angle_beta 39.513277
_cell_angle_gamma 138.543132
_cell_volume 682.570302
_symmetry_space_group_name_H-M "P -1"
_symmetry_group_IT_number 2
_symmetry_cell_setting 'triclinic'
loop_
_space_group_symop_operation_xyz
x,y,z
-x,-y,-z
loop_
_atom_site_type_symbol
_atom_site_label
_atom_site_fract_x
_atom_site_fract_y
_atom_site_fract_z
Si Si1 0.669526 0.485638 0.853793
Si Si2 0.615035 0.710154 0.670031
Si Si3 0.924747 0.214786 0.029025
Si Si4 0.584857 0.803449 0.607261
Si Si5 0.717973 0.484150 0.118048
Si Si6 0.486213 0.874838 0.107205
Si Si7 0.998560 0.708412 0.741162
Si Si8 0.164917 0.880225 0.639420
O O1 0.499560 0.524604 0.881240
O O2 0.735060 0.281763 0.609691
O O3 0.936833 0.627580 0.905028
O O4 0.500000 0.500000 0.000000
O O5 0.500000 0.500000 0.500000
O O6 0.392153 0.814467 0.892726
O O7 0.632270 0.745779 0.613780
O O8 0.910815 0.783204 0.670297
O O9 0.982177 0.276753 0.160574
O O10 0.061257 0.034229 0.787172
O O11 0.674469 0.652368 0.363136
O O12 0.268255 0.806021 0.717667
O O13 0.685256 0.005045 0.756621
O O14 0.678067 0.299974 0.984460
O O15 0.000000 0.500000 0.000000
O O16 0.612373 0.013412 0.273487
O O17 0.734544 0.790720 0.897818
O O18 0.000000 0.500000 0.500000
#
# Coordination Sequence:
#
# PCOD9079894 Si02
#       8
#     2   2   2   2   2   2   2   2
#     4  12  25  46  73  99 136 193 238 285 349 415
#     4  11  24  44  72 107 149 182 220 288 353 425
#     4  10  22  44  66 102 144 177 227 281 351 411
#     4  11  24  44  69 106 139 181 228 286 357 413
#     4  12  27  49  70 101 142 183 242 297 346 405
#     4  11  23  45  72 102 138 184 229 289 351 419
#     4  10  18  37  69 101 138 176 217 279 351 423
#     4  11  23  45  72  98 142 181 228 285 344 424
#
# _framework density 23.440808000000001
#
# number of rings (size 3 to 8) (size 9 to 14) (size 15 to 20)
#    0.000    1.000    6.250    0.750    1.750    1.000 
#   11.250    0.000    0.000    0.000    0.000    0.000 
#    0.000    0.000    0.000    0.000    0.000    0.000 
#
# Total GULP energy -89620.752820 kJ/mol
# GULP energy per Si atom -5601.297051 kJ/mol
# Density = 2.338746 g / cm^3
# Si number density = 23.440808 Si / 1000 Ang^3
#
#
#
# Elastic Constant Matrix: (Units=GPa)
#
#
# Indices 1 2 3 4 5 6 
#
# 1 79.8456 25.4256 32.6553 -1.3650 -1.6968 -13.0662
# 2 25.4256 128.4682 104.2772 -16.5948 -6.1533 -8.7430
# 3 32.6553 104.2772 185.9689 9.2410 -13.0161 -23.8440
# 4 -1.3650 -16.5948 9.2410 48.4309 -7.5218 -10.0557
# 5 -1.6968 -6.1533 -13.0161 -7.5218 23.8944 2.0751
# 6 -13.0662 -8.7430 -23.8440 -10.0557 2.0751 37.4588
#
#
#
# Elastic Compliance Matrix: (Units=1/GPa)
#
#
# Indices 1 2 3 4 5 6 
#
# 1 0.014159 -0.001400 -0.001230 0.000995 -0.000068 0.004100
# 2 -0.001400 0.016825 -0.009550 0.007641 0.001495 -0.000672
# 3 -0.001230 -0.009550 0.011772 -0.004491 0.002147 0.003511
# 4 0.000995 0.007641 -0.004491 0.026548 0.007429 0.005987
# 5 -0.000068 0.001495 0.002147 0.007429 0.045639 0.001158
# 6 0.004100 -0.000672 0.003511 0.005987 0.001158 0.031747
#
#
# Mechanical properties :
#
#
# Convention : Reuss Voigt Hill
#
# Bulk Modulus (GPa) = 54.35496 79.88877 67.12187
# Shear Modulus (GPa) = 28.21959 37.41846 32.81903
#
# Velocity S-wave (km/s) = 3.47344 3.99970 3.74582
# Velocity P-wave (km/s) = 6.27096 7.44884 6.88513
#
# Compressibility (1/GPa) = 0.01839758
#
# Stress axis : x y z
#
# Youngs Moduli (GPa) = 70.62417 59.43360 84.95011
#
# Poissons Ratio (x) = 0.08319 0.10449
# Poissons Ratio (y) = 0.09885 0.81126
# Poissons Ratio (z) = 0.08687 0.56758
#
# Static dielectric constant tensor:
#      x y z
#    x 2.017900 0.010170 0.030620 
#    y 0.010170 1.876630 0.045030 
#    z 0.030620 0.045030 1.868790 
# 
# From -- ./inp_files/521472.got.cif
#   From: 2010.05.17/outbox.cif.g08.bks.cpg/sg2_261_cif.got.tgz:521472.got - 2010.06.03 11:33:40.
