data_PCOD9079498
_publ_section_title
;
Structure prediction by ZEFSAII (Michael W. Deem and Ramdas Pophale) SiO2 
 PCOD9079498
Probable space group: P -1
;
_chemical_formula_sum "Si O2"
_cell_formula_units_Z 16
_cell_length_a 7.060996
_cell_length_b 7.745627
_cell_length_c 17.906335
_cell_angle_alpha 83.319896
_cell_angle_beta 60.233178
_cell_angle_gamma 117.675442
_cell_volume 671.831624
_symmetry_space_group_name_H-M "P -1"
_symmetry_group_IT_number 2
_symmetry_cell_setting 'triclinic'
loop_
_space_group_symop_operation_xyz
x,y,z
-x,-y,-z
loop_
_atom_site_type_symbol
_atom_site_label
_atom_site_fract_x
_atom_site_fract_y
_atom_site_fract_z
Si Si1 0.179975 0.951810 0.122640
Si Si2 0.792475 0.582233 0.471705
Si Si3 0.363177 0.490868 0.338074
Si Si4 0.899359 0.544748 0.292692
Si Si5 0.604202 0.070726 0.355280
Si Si6 0.328831 0.061044 0.800673
Si Si7 0.855371 0.000783 0.438393
Si Si8 0.208590 0.750013 0.976853
O O1 0.133500 0.780737 0.202833
O O2 0.957649 0.996337 0.170478
O O3 0.489422 0.170350 0.060113
O O4 0.119839 0.821252 0.062939
O O5 0.500000 0.500000 0.500000
O O6 0.750772 0.474559 0.565198
O O7 0.913002 0.540909 0.379880
O O8 0.927052 0.835374 0.445397
O O9 0.624569 0.508655 0.317047
O O10 0.476860 0.675959 0.244243
O O11 0.126831 0.246812 0.372223
O O12 0.853702 0.327988 0.285703
O O13 0.710830 0.960710 0.388965
O O14 0.533923 0.983365 0.290178
O O15 0.369298 0.043607 0.454558
O O16 0.260072 0.910925 0.891953
O O17 0.000000 0.500000 0.000000
#
# Coordination Sequence:
#
# PCOD9079498 Si02
#       8
#     2   2   2   2   2   2   2   2
#     4  10  24  48  74  99 140 169 215 290 346 400
#     4  10  18  37  60  83 130 176 218 264 320 367
#     4  10  22  38  59  91 128 179 227 265 324 388
#     4  10  21  40  65  92 130 175 219 278 331 389
#     4  11  23  37  58  92 137 175 227 269 319 389
#     4  11  25  46  66 103 136 174 219 276 341 404
#     4  11  22  36  57  90 132 185 227 270 314 379
#     4  11  25  49  78 105 126 171 225 277 353 425
#
# _framework density 23.815491999999999
#
# number of rings (size 3 to 8) (size 9 to 14) (size 15 to 20)
#    0.000    1.500    2.500    3.750    3.500    2.000 
#   11.250    0.000    0.000    0.000    0.000    0.000 
#    0.000    0.000    0.000    0.000    0.000    0.000 
#
# Total GULP energy -89477.939924 kJ/mol
# GULP energy per Si atom -5592.371245 kJ/mol
# Density = 2.376129 g / cm^3
# Si number density = 23.815492 Si / 1000 Ang^3
#
#
#
# Elastic Constant Matrix: (Units=GPa)
#
#
# Indices 1 2 3 4 5 6 
#
# 1 69.3069 17.2776 17.4191 -11.1510 3.3929 2.7054
# 2 17.2776 133.2625 38.4966 -29.1644 -0.1105 17.6221
# 3 17.4191 38.4966 91.7706 -12.8368 19.7528 -2.3291
# 4 -11.1510 -29.1644 -12.8368 42.5321 1.1210 -1.0758
# 5 3.3929 -0.1105 19.7528 1.1210 53.0857 -6.2595
# 6 2.7054 17.6221 -2.3291 -1.0758 -6.2595 33.9109
#
#
#
# Elastic Compliance Matrix: (Units=1/GPa)
#
#
# Indices 1 2 3 4 5 6 
#
# 1 0.015686 -0.000578 -0.002265 0.003015 -0.000351 -0.001076
# 2 -0.000578 0.010697 -0.003852 0.005864 0.000725 -0.005458
# 3 -0.002265 -0.003852 0.014233 0.001248 -0.004915 0.002292
# 4 0.003015 0.005864 0.001248 0.028675 -0.001555 -0.002579
# 5 -0.000351 0.000725 -0.004915 -0.001555 0.021096 0.003158
# 6 -0.001076 -0.005458 0.002292 -0.002579 0.003158 0.033070
#
#
# Mechanical properties :
#
#
# Convention : Reuss Voigt Hill
#
# Bulk Modulus (GPa) = 36.72781 48.96961 42.84871
# Shear Modulus (GPa) = 34.26476 40.64886 37.45681
#
# Velocity S-wave (km/s) = 3.79721 4.13585 3.97015
# Velocity P-wave (km/s) = 5.88901 6.58891 6.24877
#
# Compressibility (1/GPa) = 0.02722732
#
# Stress axis : x y z
#
# Youngs Moduli (GPa) = 63.75059 93.48204 70.25763
#
# Poissons Ratio (x) = 0.05399 0.15914
# Poissons Ratio (y) = 0.03682 0.27064
# Poissons Ratio (z) = 0.14440 0.36010
#
# Static dielectric constant tensor:
#      x y z
#    x 1.962570 0.030120 -0.046640 
#    y 0.030120 1.937390 -0.002660 
#    z -0.046640 -0.002660 1.915490 
# 
# From -- ./inp_files/557248.got.cif
#   From: 2010.05.17/outbox.cif.g08.bks.cpg/sg2_279_cif.got.tgz:557248.got - 2010.06.03 11:33:40.
