data_PCOD9079680
_publ_section_title
;
Structure prediction by ZEFSAII (Michael W. Deem and Ramdas Pophale) SiO2 
 PCOD9079680
Probable space group: P -1
;
_chemical_formula_sum "Si O2"
_cell_formula_units_Z 14
_cell_length_a 10.369344
_cell_length_b 14.310145
_cell_length_c 9.296582
_cell_angle_alpha 60.263499
_cell_angle_beta 128.133139
_cell_angle_gamma 78.937564
_cell_volume 644.565209
_symmetry_space_group_name_H-M "P -1"
_symmetry_group_IT_number 2
_symmetry_cell_setting 'triclinic'
loop_
_space_group_symop_operation_xyz
x,y,z
-x,-y,-z
loop_
_atom_site_type_symbol
_atom_site_label
_atom_site_fract_x
_atom_site_fract_y
_atom_site_fract_z
Si Si1 0.449985 0.034552 0.613799
Si Si2 0.979682 0.752508 0.249915
Si Si3 0.536741 0.368217 0.705092
Si Si4 0.585475 0.561251 0.107171
Si Si5 0.718259 0.646451 0.666346
Si Si6 0.331586 0.782504 0.523851
Si Si7 0.950500 0.879981 0.851211
O O1 0.364719 0.192136 0.485705
O O2 0.215794 0.072477 0.433148
O O3 0.500000 0.000000 0.500000
O O4 0.695727 0.887151 0.975629
O O5 0.131042 0.585150 0.555010
O O6 0.128298 0.787776 0.374574
O O7 0.998539 0.755998 0.086180
O O8 0.500000 0.500000 0.500000
O O9 0.528670 0.389621 0.852400
O O10 0.343166 0.374494 0.513929
O O11 0.795482 0.200569 0.963947
O O12 0.500000 0.500000 0.000000
O O13 0.481104 0.709377 0.831044
O O14 0.536828 0.669140 0.631720
O O15 0.000000 0.500000 0.000000
O O16 0.191582 0.961583 0.278200
#
# Coordination Sequence:
#
# PCOD9079680 Si02
#       7
#     2   2   2   2   2   2   2
#     4  10  21  36  61  95 123 164 213 261 304 370
#     4  10  18  37  63  87 120 167 206 250 310 382
#     4  12  22  39  66  95 126 167 216 265 309 377
#     4  10  23  39  62  93 130 165 207 263 326 376
#     4  12  24  38  65  98 128 161 222 265 309 375
#     4  11  21  40  62  95 123 166 208 263 320 377
#     4  11  20  36  68  89 123 163 220 253 309 375
#
# _framework density 21.720068000000001
#
# number of rings (size 3 to 8) (size 9 to 14) (size 15 to 20)
#    0.000    1.143    5.714    3.000    2.000    0.571 
#    0.000    2.857    0.000    5.143    0.000    0.000 
#    0.000    0.000    0.000    0.000    0.000    0.000 
#
# Total GULP energy -78080.850499 kJ/mol
# GULP energy per Si atom -5577.203607 kJ/mol
# Density = 2.167063 g / cm^3
# Si number density = 21.720068 Si / 1000 Ang^3
#
#
#
# Elastic Constant Matrix: (Units=GPa)
#
#
# Indices 1 2 3 4 5 6 
#
# 1 16.6282 12.8156 33.0622 8.2861 11.1622 -5.8684
# 2 12.8156 97.9183 38.5036 3.9676 6.9357 -9.9696
# 3 33.0622 38.5036 197.2204 -3.2253 28.6980 -7.0417
# 4 8.2861 3.9676 -3.2253 35.5280 -0.4317 3.1344
# 5 11.1622 6.9357 28.6980 -0.4317 45.8107 7.5646
# 6 -5.8684 -9.9696 -7.0417 3.1344 7.5646 29.4605
#
#
#
# Elastic Compliance Matrix: (Units=1/GPa)
#
#
# Indices 1 2 3 4 5 6 
#
# 1 0.162248 -0.005088 -0.020803 -0.042956 -0.032500 0.038540
# 2 -0.005088 0.011706 -0.001320 -0.000483 -0.000160 0.002725
# 3 -0.020803 -0.001320 0.008743 0.006084 0.000385 -0.003247
# 4 -0.042956 -0.000483 0.006084 0.040117 0.009410 -0.013950
# 5 -0.032500 -0.000160 0.000385 0.009410 0.032213 -0.015709
# 6 0.038540 0.002725 -0.003247 -0.013950 -0.015709 0.047285
#
#
# Mechanical properties :
#
#
# Convention : Reuss Voigt Hill
#
# Bulk Modulus (GPa) = 7.79579 53.39220 30.59399
# Shear Modulus (GPa) = 12.51589 37.31887 24.91738
#
# Velocity S-wave (km/s) = 2.40310 4.14958 3.39072
# Velocity P-wave (km/s) = 3.36108 6.89884 5.42637
#
# Compressibility (1/GPa) = 0.12827438
#
# Stress axis : x y z
#
# Youngs Moduli (GPa) = 6.16341 85.42785 114.37566
#
# Poissons Ratio (x) = 0.43468 2.37939
# Poissons Ratio (y) = 0.03136 0.15093
# Poissons Ratio (z) = 0.12822 0.11273
#
# Static dielectric constant tensor:
#      x y z
#    x 1.891050 0.030910 0.011080 
#    y 0.030910 1.811110 -0.006790 
#    z 0.011080 -0.006790 1.847720 
# 
# From -- ./inp_files/171288.got.cif
#   From: 2010.05.17/outbox.cif.g08.bks.cpg/sg2_86_cif.got.tgz:171288.got - 2010.06.03 11:33:40.
