data_PCOD9079027
_publ_section_title
;
Structure prediction by ZEFSAII (Michael W. Deem and Ramdas Pophale) SiO2 
 PCOD9079027
Probable space group: P -1
;
_chemical_formula_sum "Si O2"
_cell_formula_units_Z 16
_cell_length_a 9.858422
_cell_length_b 10.398414
_cell_length_c 13.367879
_cell_angle_alpha 124.143471
_cell_angle_beta 103.995812
_cell_angle_gamma 43.845139
_cell_volume 753.248930
_symmetry_space_group_name_H-M "P -1"
_symmetry_group_IT_number 2
_symmetry_cell_setting 'triclinic'
loop_
_space_group_symop_operation_xyz
x,y,z
-x,-y,-z
loop_
_atom_site_type_symbol
_atom_site_label
_atom_site_fract_x
_atom_site_fract_y
_atom_site_fract_z
Si Si1 0.109802 0.126272 0.589573
Si Si2 0.661478 0.739712 0.300622
Si Si3 0.504291 0.628135 0.383652
Si Si4 0.721242 0.465594 0.792319
Si Si5 0.784385 0.623557 0.059207
Si Si6 0.445317 0.101655 0.144573
Si Si7 0.765920 0.807669 0.672749
Si Si8 0.869113 0.361944 0.455599
O O1 0.196357 0.230085 0.633696
O O2 0.957470 0.245914 0.708652
O O3 0.968165 0.205685 0.502910
O O4 0.310947 0.858522 0.506826
O O5 0.621974 0.660969 0.352359
O O6 0.767802 0.580669 0.151364
O O7 0.436345 0.978832 0.330656
O O8 0.411402 0.578781 0.269168
O O9 0.674287 0.432897 0.406610
O O10 0.633630 0.661513 0.781975
O O11 0.704089 0.559451 0.938761
O O12 0.648488 0.892100 0.149839
O O13 0.000000 0.500000 0.000000
O O14 0.275958 0.144798 0.195459
O O15 0.500000 0.000000 0.000000
O O16 0.802555 0.594352 0.568914
O O17 0.950445 0.761232 0.646237
#
# Coordination Sequence:
#
# PCOD9079027 Si02
#       8
#     2   2   2   2   2   2   2   2
#     4  12  22  42  64  93 128 173 212 254 305 381
#     4  11  21  39  69  91 126 161 219 259 304 374
#     4  12  26  40  59  99 134 167 202 259 322 374
#     4  11  24  43  61  92 133 162 207 263 321 370
#     4  10  21  41  70  94 113 166 216 262 312 368
#     4   9  20  37  62  86 116 157 212 258 298 365
#     4  10  18  36  61  92 115 163 212 262 293 363
#     4  11  22  35  62  88 127 162 209 252 311 360
#
# _framework density 21.241316999999999
#
# number of rings (size 3 to 8) (size 9 to 14) (size 15 to 20)
#    0.000    1.250    5.000    2.250    0.000    1.000 
#    2.250    0.000    0.000    7.500    0.000    0.000 
#    0.000    0.000    0.000    0.000    0.000    0.000 
#
# Total GULP energy -89367.171011 kJ/mol
# GULP energy per Si atom -5585.448188 kJ/mol
# Density = 2.119297 g / cm^3
# Si number density = 21.241317 Si / 1000 Ang^3
#
#
#
# Elastic Constant Matrix: (Units=GPa)
#
#
# Indices 1 2 3 4 5 6 
#
# 1 63.7431 7.4962 30.1679 -8.8942 -2.8173 -22.1090
# 2 7.4962 73.9192 20.3248 -1.7872 -8.8939 -23.6867
# 3 30.1679 20.3248 93.7664 -2.6948 -19.0916 -14.0265
# 4 -8.8942 -1.7872 -2.6948 25.3816 -5.3297 -2.7996
# 5 -2.8173 -8.8939 -19.0916 -5.3297 39.2872 -8.5262
# 6 -22.1090 -23.6867 -14.0265 -2.7996 -8.5262 29.7826
#
#
#
# Elastic Compliance Matrix: (Units=1/GPa)
#
#
# Indices 1 2 3 4 5 6 
#
# 1 0.032316 0.011828 -0.004108 0.018666 0.013583 0.037105
# 2 0.011828 0.025844 -0.000638 0.013026 0.015698 0.034753
# 3 -0.004108 -0.000638 0.014821 0.002528 0.008424 0.006072
# 4 0.018666 0.013026 0.002528 0.055579 0.021009 0.036646
# 5 0.013583 0.015698 0.008424 0.021009 0.045969 0.041671
# 6 0.037105 0.034753 0.006072 0.036646 0.041671 0.106995
#
#
# Mechanical properties :
#
#
# Convention : Reuss Voigt Hill
#
# Bulk Modulus (GPa) = 11.47521 38.60073 25.03797
# Shear Modulus (GPa) = 16.86861 30.45294 23.66077
#
# Velocity S-wave (km/s) = 2.82111 3.79048 3.34114
# Velocity P-wave (km/s) = 4.00320 6.11302 5.16694
#
# Compressibility (1/GPa) = 0.08714437
#
# Stress axis : x y z
#
# Youngs Moduli (GPa) = 30.94456 38.69328 67.47162
#
# Poissons Ratio (x) = -0.45767 0.27719
# Poissons Ratio (y) = -0.36601 0.04306
# Poissons Ratio (z) = 0.12713 0.02469
#
# Static dielectric constant tensor:
#      x y z
#    x 1.759050 0.019000 -0.011370 
#    y 0.019000 1.840430 -0.000860 
#    z -0.011370 -0.000860 1.795720 
# 
# From -- ./inp_files/308459.got.cif
#   From: 2010.05.17/outbox.cif.g08.bks.cpg/sg2_155_cif.got.tgz:308459.got - 2010.06.03 11:33:40.
