data_PCOD9079657
_publ_section_title
;
Structure prediction by ZEFSAII (Michael W. Deem and Ramdas Pophale) SiO2 
 PCOD9079657
Probable space group: P -1
;
_chemical_formula_sum "Si O2"
_cell_formula_units_Z 16
_cell_length_a 24.469050
_cell_length_b 5.647881
_cell_length_c 8.151681
_cell_angle_alpha 95.267686
_cell_angle_beta 40.410005
_cell_angle_gamma 99.877174
_cell_volume 718.134432
_symmetry_space_group_name_H-M "P -1"
_symmetry_group_IT_number 2
_symmetry_cell_setting 'triclinic'
loop_
_space_group_symop_operation_xyz
x,y,z
-x,-y,-z
loop_
_atom_site_type_symbol
_atom_site_label
_atom_site_fract_x
_atom_site_fract_y
_atom_site_fract_z
Si Si1 0.650732 0.946635 0.856770
Si Si2 0.097008 0.554028 0.954144
Si Si3 0.347022 0.168400 0.496115
Si Si4 0.745686 0.360613 0.843842
Si Si5 0.550225 0.772515 0.394621
Si Si6 0.820046 0.766478 0.508591
Si Si7 0.739781 0.352141 0.231198
Si Si8 0.076657 0.787049 0.690186
O O1 0.604080 0.857690 0.789572
O O2 0.747090 0.893971 0.603754
O O3 0.673046 0.226638 0.879498
O O4 0.608498 0.802361 0.100035
O O5 0.154107 0.417177 0.693453
O O6 0.157878 0.611418 0.973145
O O7 0.080367 0.762763 0.879119
O O8 0.008152 0.383308 0.181893
O O9 0.401633 0.194786 0.539266
O O10 0.299304 0.406037 0.615867
O O11 0.293084 0.897581 0.616518
O O12 0.772092 0.641052 0.767112
O O13 0.837563 0.279775 0.592486
O O14 0.717943 0.307523 0.087791
O O15 0.500000 0.500000 0.500000
O O16 0.500000 0.000000 0.500000
O O17 0.908091 0.931777 0.364342
#
# Coordination Sequence:
#
# PCOD9079657 Si02
#       8
#     2   2   2   2   2   2   2   2
#     4  11  24  44  74  99 142 183 235 278 342 424
#     4  10  20  36  59  93 138 177 243 293 344 401
#     4  12  26  47  76 106 138 184 233 283 343 420
#     4  10  22  38  64  95 137 189 232 293 345 404
#     4  12  29  50  75 110 147 176 219 286 355 419
#     4  10  18  37  62  94 123 187 235 281 345 400
#     4  12  24  42  68 106 137 183 241 292 337 409
#     4   9  20  36  57  91 136 186 233 296 351 398
#
# _framework density 22.279948999999998
#
# number of rings (size 3 to 8) (size 9 to 14) (size 15 to 20)
#    0.000    1.250    2.500    4.125    3.500    1.500 
#    0.000    0.625    0.000    0.000    0.000    0.000 
#    0.000    0.000    0.000    0.000    0.000    0.000 
#
# Total GULP energy -89141.030529 kJ/mol
# GULP energy per Si atom -5571.314408 kJ/mol
# Density = 2.222924 g / cm^3
# Si number density = 22.279949 Si / 1000 Ang^3
#
#
#
# Elastic Constant Matrix: (Units=GPa)
#
#
# Indices 1 2 3 4 5 6 
#
# 1 105.6683 46.7701 35.3024 -2.5958 12.1101 19.4999
# 2 46.7701 116.3422 47.1563 -25.7813 1.4564 -7.6477
# 3 35.3024 47.1563 94.4236 -6.3479 13.3679 5.8625
# 4 -2.5958 -25.7813 -6.3479 38.0110 1.0509 -6.1237
# 5 12.1101 1.4564 13.3679 1.0509 33.2886 11.7517
# 6 19.4999 -7.6477 5.8625 -6.1237 11.7517 24.2181
#
#
#
# Elastic Compliance Matrix: (Units=1/GPa)
#
#
# Indices 1 2 3 4 5 6 
#
# 1 0.017538 -0.009897 -0.001246 -0.009028 0.001962 -0.020180
# 2 -0.009897 0.019804 -0.006088 0.015166 -0.002649 0.020817
# 3 -0.001246 -0.006088 0.014715 -0.002138 -0.004042 -0.003061
# 4 -0.009028 0.015166 -0.002138 0.040018 -0.006994 0.026089
# 5 0.001962 -0.002649 -0.004042 -0.006994 0.039119 -0.022189
# 6 -0.020180 0.020817 -0.003061 0.026089 -0.022189 0.082218
#
#
# Mechanical properties :
#
#
# Convention : Reuss Voigt Hill
#
# Bulk Modulus (GPa) = 56.83432 63.87684 60.35558
# Shear Modulus (GPa) = 19.70530 31.58389 25.64460
#
# Velocity S-wave (km/s) = 2.97718 3.76918 3.39634
# Velocity P-wave (km/s) = 6.11414 6.90468 6.52140
#
# Compressibility (1/GPa) = 0.01759500
#
# Stress axis : x y z
#
# Youngs Moduli (GPa) = 57.02034 50.49503 67.95628
#
# Poissons Ratio (x) = 0.49974 0.08468
# Poissons Ratio (y) = 0.56432 0.41372
# Poissons Ratio (z) = 0.07105 0.30741
#
# Static dielectric constant tensor:
#      x y z
#    x 1.901630 -0.049910 -0.006690 
#    y -0.049910 2.005670 0.043170 
#    z -0.006690 0.043170 1.822570 
# 
# From -- ./inp_files/356015.got.cif
#   From: 2010.05.17/outbox.cif.g08.bks.cpg/sg2_179_cif.got.tgz:356015.got - 2010.06.03 11:33:40.
