data_PCOD9079331
_publ_section_title
;
Structure prediction by ZEFSAII (Michael W. Deem and Ramdas Pophale) SiO2 
 PCOD9079331
Probable space group: P -1
;
_chemical_formula_sum "Si O2"
_cell_formula_units_Z 16
_cell_length_a 10.214899
_cell_length_b 13.518298
_cell_length_c 13.357298
_cell_angle_alpha 140.384873
_cell_angle_beta 131.788269
_cell_angle_gamma 36.484516
_cell_volume 693.915202
_symmetry_space_group_name_H-M "P -1"
_symmetry_group_IT_number 2
_symmetry_cell_setting 'triclinic'
loop_
_space_group_symop_operation_xyz
x,y,z
-x,-y,-z
loop_
_atom_site_type_symbol
_atom_site_label
_atom_site_fract_x
_atom_site_fract_y
_atom_site_fract_z
Si Si1 0.594290 0.692498 0.708393
Si Si2 0.789317 0.202021 0.673477
Si Si3 0.628955 0.188886 0.790735
Si Si4 0.787400 0.427415 0.119104
Si Si5 0.624427 0.418702 0.339245
Si Si6 0.967305 0.850339 0.813373
Si Si7 0.948072 0.526678 0.110588
Si Si8 0.251126 0.054727 0.705490
O O1 0.641011 0.552533 0.529801
O O2 0.427002 0.698732 0.706195
O O3 0.822465 0.582055 0.797883
O O4 0.468038 0.911542 0.772376
O O5 0.769189 0.140629 0.724787
O O6 0.590093 0.428192 0.720138
O O7 0.028773 0.144896 0.727801
O O8 0.755359 0.077596 0.482563
O O9 0.373568 0.346425 0.753343
O O10 0.669815 0.323173 0.982424
O O11 0.729963 0.990738 0.747501
O O12 0.996308 0.297100 0.197178
O O13 0.842329 0.435294 0.038627
O O14 0.839035 0.279697 0.271200
O O15 0.000000 0.000000 0.000000
O O16 0.782553 0.761710 0.220396
O O17 0.000000 0.500000 0.000000
#
# Coordination Sequence:
#
# PCOD9079331 Si02
#       8
#     2   2   2   2   2   2   2   2
#     4  10  23  39  64  96 126 163 207 260 316 372
#     4  10  18  36  67  93 122 157 211 263 302 360
#     4  10  20  37  65  87 117 162 208 261 299 359
#     4  10  23  40  57  90 125 160 211 250 310 378
#     4  10  19  38  67  96 127 158 207 269 311 359
#     4  10  21  36  62  94 122 159 207 257 312 364
#     4  12  26  42  62  89 131 169 201 258 319 379
#     4  10  22  38  61  96 123 161 208 253 312 373
#
# _framework density 23.057573999999999
#
# number of rings (size 3 to 8) (size 9 to 14) (size 15 to 20)
#    0.000    1.750    2.500    1.500    3.500    2.500 
#    0.000    1.250    0.000    0.000    0.000    0.000 
#    0.000    0.000    0.000    0.000    0.000    0.000 
#
# Total GULP energy -89358.880148 kJ/mol
# GULP energy per Si atom -5584.930009 kJ/mol
# Density = 2.300509 g / cm^3
# Si number density = 23.057574 Si / 1000 Ang^3
#
#
#
# Elastic Constant Matrix: (Units=GPa)
#
#
# Indices 1 2 3 4 5 6 
#
# 1 68.4251 39.8054 21.0676 8.1665 -20.2400 18.6674
# 2 39.8054 231.5125 32.3696 9.3184 -2.2818 26.9728
# 3 21.0676 32.3696 33.6134 2.8878 -15.1818 1.7957
# 4 8.1665 9.3184 2.8878 32.1899 0.5216 -2.9454
# 5 -20.2400 -2.2818 -15.1818 0.5216 29.8049 2.9079
# 6 18.6674 26.9728 1.7957 -2.9454 2.9079 30.5227
#
#
#
# Elastic Compliance Matrix: (Units=1/GPa)
#
#
# Indices 1 2 3 4 5 6 
#
# 1 0.028920 -0.001301 -0.007080 -0.008320 0.017896 -0.018629
# 2 -0.001301 0.005824 -0.005860 -0.001131 -0.003029 -0.003827
# 3 -0.007080 -0.005860 0.048122 -0.000688 0.018797 0.004820
# 4 -0.008320 -0.001131 -0.000688 0.034624 -0.007688 0.010202
# 5 0.017896 -0.003029 0.018797 -0.007688 0.056696 -0.015518
# 6 -0.018629 -0.003827 0.004820 0.010202 -0.015518 0.049717
#
#
# Mechanical properties :
#
#
# Convention : Reuss Voigt Hill
#
# Bulk Modulus (GPa) = 18.38764 57.78181 38.08473
# Shear Modulus (GPa) = 18.48347 34.52407 26.50377
#
# Velocity S-wave (km/s) = 2.83437 3.87369 3.39405
# Velocity P-wave (km/s) = 4.32475 6.71726 5.64911
#
# Compressibility (1/GPa) = 0.05438437
#
# Stress axis : x y z
#
# Youngs Moduli (GPa) = 34.57798 171.70690 20.78054
#
# Poissons Ratio (x) = 0.22335 0.14714
# Poissons Ratio (y) = 0.04498 0.12176
# Poissons Ratio (z) = 0.24483 1.00612
#
# Static dielectric constant tensor:
#      x y z
#    x 1.856090 -0.001320 0.007510 
#    y -0.001320 1.962000 0.029990 
#    z 0.007510 0.029990 1.889350 
# 
# From -- ./inp_files/522533.got.cif
#   From: 2010.05.17/outbox.cif.g08.bks.cpg/sg2_262_cif.got.tgz:522533.got - 2010.06.03 11:33:40.
