data_PCOD9079032
_publ_section_title
;
Structure prediction by ZEFSAII (Michael W. Deem and Ramdas Pophale) SiO2 
 PCOD9079032
Probable space group: P -1
;
_chemical_formula_sum "Si O2"
_cell_formula_units_Z 16
_cell_length_a 10.577763
_cell_length_b 13.077991
_cell_length_c 5.396768
_cell_angle_alpha 94.039243
_cell_angle_beta 54.615079
_cell_angle_gamma 91.978564
_cell_volume 607.131166
_symmetry_space_group_name_H-M "P -1"
_symmetry_group_IT_number 2
_symmetry_cell_setting 'triclinic'
loop_
_space_group_symop_operation_xyz
x,y,z
-x,-y,-z
loop_
_atom_site_type_symbol
_atom_site_label
_atom_site_fract_x
_atom_site_fract_y
_atom_site_fract_z
Si Si1 0.588710 0.576888 0.097907
Si Si2 0.833617 0.953976 0.602332
Si Si3 0.678524 0.385910 0.199948
Si Si4 0.411696 0.928941 0.779502
Si Si5 0.493487 0.761705 0.977242
Si Si6 0.004942 0.376792 0.956338
Si Si7 0.776086 0.135423 0.404972
Si Si8 0.057621 0.258524 0.360460
O O1 0.709380 0.499232 0.073145
O O2 0.470523 0.607831 0.454224
O O3 0.500000 0.500000 0.000000
O O4 0.618146 0.682404 0.937274
O O5 0.846832 0.835425 0.639079
O O6 0.813093 0.013050 0.374582
O O7 0.000000 0.000000 0.500000
O O8 0.679857 0.997518 0.918014
O O9 0.630878 0.314774 0.017335
O O10 0.823099 0.350453 0.189157
O O11 0.530826 0.844649 0.739655
O O12 0.264072 0.862348 0.837620
O O13 0.500000 0.000000 0.500000
O O14 0.391682 0.827123 0.295949
O O15 0.037266 0.337124 0.630417
O O16 0.096540 0.319149 0.066983
O O17 0.000000 0.500000 0.000000
O O18 0.905531 0.196950 0.417260
#
# Coordination Sequence:
#
# PCOD9079032 Si02
#       8
#     2   2   2   2   2   2   2   2
#     4   9  19  34  61  91 122 161 227 285 331 407
#     4   9  23  41  69 104 131 178 242 288 346 418
#     4  10  20  38  63  92 125 168 229 287 339 418
#     4  11  24  40  64  99 146 181 225 290 356 422
#     4  10  18  36  61  93 123 174 222 270 347 414
#     4  12  26  44  69  99 138 179 231 293 361 413
#     4  10  21  39  70  96 131 176 231 284 345 426
#     4  11  24  44  73  99 133 181 236 298 344 424
#
# _framework density 26.353448
#
# number of rings (size 3 to 8) (size 9 to 14) (size 15 to 20)
#    0.000    1.750    1.250    2.625    7.000    3.000 
#    0.000    6.250    5.500    0.000    0.000    0.000 
#    0.000    0.000    0.000    0.000    0.000    0.000 
#
# Total GULP energy -89222.907977 kJ/mol
# GULP energy per Si atom -5576.431749 kJ/mol
# Density = 2.629347 g / cm^3
# Si number density = 26.353448 Si / 1000 Ang^3
#
#
#
# Elastic Constant Matrix: (Units=GPa)
#
#
# Indices 1 2 3 4 5 6 
#
# 1 125.0386 67.7009 14.1863 -0.9417 24.8774 -26.2083
# 2 67.7009 220.0508 43.2694 -22.0143 22.4836 -21.6180
# 3 14.1863 43.2694 43.0531 -7.8704 16.9803 0.2295
# 4 -0.9417 -22.0143 -7.8704 47.3435 1.4118 10.4430
# 5 24.8774 22.4836 16.9803 1.4118 33.7733 -7.2112
# 6 -26.2083 -21.6180 0.2295 10.4430 -7.2112 65.3122
#
#
#
# Elastic Compliance Matrix: (Units=1/GPa)
#
#
# Indices 1 2 3 4 5 6 
#
# 1 0.011346 -0.002967 0.001507 -0.001391 -0.006424 0.003079
# 2 -0.002967 0.006801 -0.005766 0.001939 0.000656 0.000843
# 3 0.001507 -0.005766 0.035845 0.004673 -0.016338 -0.003981
# 4 -0.001391 0.001939 0.004673 0.023844 -0.004519 -0.004244
# 5 -0.006424 0.000656 -0.016338 -0.004519 0.042984 0.003165
# 6 0.003079 0.000843 -0.003981 -0.004244 0.003165 0.017868
#
#
# Mechanical properties :
#
#
# Convention : Reuss Voigt Hill
#
# Bulk Modulus (GPa) = 25.29177 70.93952 48.11564
# Shear Modulus (GPa) = 30.06239 46.81821 38.44030
#
# Velocity S-wave (km/s) = 3.38115 4.21949 3.82336
# Velocity P-wave (km/s) = 4.98606 7.12149 6.14722
#
# Compressibility (1/GPa) = 0.03953856
#
# Stress axis : x y z
#
# Youngs Moduli (GPa) = 88.13537 147.03849 27.89772
#
# Poissons Ratio (x) = 0.43632 -0.04203
# Poissons Ratio (y) = 0.26153 0.16086
# Poissons Ratio (z) = -0.13279 0.84784
#
# Static dielectric constant tensor:
#      x y z
#    x 2.123990 0.070220 -0.040720 
#    y 0.070220 2.212860 0.002120 
#    z -0.040720 0.002120 0.806850 
# 
# From -- ./inp_files/70312.got.cif
#   From: 2010.05.17/outbox.cif.g08.bks.cpg/sg2_36_cif.got.tgz:70312.got - 2010.06.03 11:33:40.
