data_PCOD9079449
_publ_section_title
;
Structure prediction by ZEFSAII (Michael W. Deem and Ramdas Pophale) SiO2 
 PCOD9079449
Probable space group: P -1
;
_chemical_formula_sum "Si O2"
_cell_formula_units_Z 16
_cell_length_a 8.990530
_cell_length_b 23.141384
_cell_length_c 12.040045
_cell_angle_alpha 19.852624
_cell_angle_beta 54.616745
_cell_angle_gamma 55.088503
_cell_volume 690.092818
_symmetry_space_group_name_H-M "P -1"
_symmetry_group_IT_number 2
_symmetry_cell_setting 'triclinic'
loop_
_space_group_symop_operation_xyz
x,y,z
-x,-y,-z
loop_
_atom_site_type_symbol
_atom_site_label
_atom_site_fract_x
_atom_site_fract_y
_atom_site_fract_z
Si Si1 0.487332 0.164259 0.348147
Si Si2 0.921647 0.519316 0.377918
Si Si3 0.073093 0.133668 0.550800
Si Si4 0.249720 0.763092 0.351871
Si Si5 0.605786 0.313072 0.808115
Si Si6 0.955600 0.520669 0.830078
Si Si7 0.437193 0.487529 0.922626
Si Si8 0.847508 0.921272 0.633824
O O1 0.277597 0.123017 0.532782
O O2 0.650500 0.020935 0.564256
O O3 0.500619 0.207921 0.132382
O O4 0.537002 0.336562 0.078915
O O5 0.787740 0.372799 0.678593
O O6 0.000000 0.500000 0.500000
O O7 0.071662 0.479213 0.289809
O O8 0.844555 0.717466 0.028705
O O9 0.098470 0.044522 0.580477
O O10 0.896324 0.100740 0.764622
O O11 0.019628 0.329222 0.184492
O O12 0.354836 0.779098 0.160488
O O13 0.395537 0.666560 0.549938
O O14 0.109500 0.632943 0.601709
O O15 0.500000 0.500000 0.500000
O O16 0.764450 0.574031 0.870302
O O17 0.500000 0.500000 0.000000
O O18 0.000000 0.000000 0.500000
#
# Coordination Sequence:
#
# PCOD9079449 Si02
#       8
#     2   2   2   2   2   2   2   2
#     4  12  22  39  63  95 126 161 211 257 310 375
#     4  10  22  39  62  86 123 164 203 252 316 368
#     4  10  19  38  60  85 122 168 204 250 302 372
#     4  10  18  37  58  86 126 159 211 255 303 360
#     4  11  21  36  63  97 123 157 207 264 304 361
#     4   9  17  34  57  85 115 155 207 255 293 360
#     4  11  21  30  57  93 123 154 210 258 300 355
#     4  11  25  39  60  92 127 163 208 258 317 371
#
# _framework density 23.185285
#
# number of rings (size 3 to 8) (size 9 to 14) (size 15 to 20)
#    0.000    1.500    3.750    3.375    7.000    0.000 
#    0.000    0.625    0.000    0.750    0.000    0.000 
#    0.000    0.000    0.000    0.000    0.000    0.000 
#
# Total GULP energy -89291.038654 kJ/mol
# GULP energy per Si atom -5580.689916 kJ/mol
# Density = 2.313251 g / cm^3
# Si number density = 23.185285 Si / 1000 Ang^3
#
#
#
# Elastic Constant Matrix: (Units=GPa)
#
#
# Indices 1 2 3 4 5 6 
#
# 1 108.8564 54.5260 22.6588 -4.5529 19.3023 25.2302
# 2 54.5260 160.5868 33.9247 4.2327 14.9262 6.0251
# 3 22.6588 33.9247 70.5842 -3.8187 15.0792 -4.7575
# 4 -4.5529 4.2327 -3.8187 25.0308 3.7885 7.3218
# 5 19.3023 14.9262 15.0792 3.7885 28.6123 6.9957
# 6 25.2302 6.0251 -4.7575 7.3218 6.9957 44.1945
#
#
#
# Elastic Compliance Matrix: (Units=1/GPa)
#
#
# Indices 1 2 3 4 5 6 
#
# 1 0.014725 -0.003941 -0.001813 0.006339 -0.005756 -0.008203
# 2 -0.003941 0.008174 -0.002702 -0.002885 -0.000128 0.001343
# 3 -0.001813 -0.002702 0.018294 0.002961 -0.008432 0.004217
# 4 0.006339 -0.002885 0.002961 0.045979 -0.008162 -0.009232
# 5 -0.005756 -0.000128 -0.008432 -0.008162 0.045259 -0.003416
# 6 -0.008203 0.001343 0.004217 -0.009232 -0.003416 0.029652
#
#
# Mechanical properties :
#
#
# Convention : Reuss Voigt Hill
#
# Bulk Modulus (GPa) = 41.18489 62.47180 51.82834
# Shear Modulus (GPa) = 26.72553 34.82870 30.77712
#
# Velocity S-wave (km/s) = 3.39882 3.88001 3.64736
# Velocity P-wave (km/s) = 5.76234 6.86118 6.33563
#
# Compressibility (1/GPa) = 0.02428075
#
# Stress axis : x y z
#
# Youngs Moduli (GPa) = 67.91222 122.34604 54.66382
#
# Poissons Ratio (x) = 0.48217 0.09911
# Poissons Ratio (y) = 0.26764 0.14768
# Poissons Ratio (z) = 0.12313 0.33052
#
# Static dielectric constant tensor:
#      x y z
#    x 1.858040 -0.022980 0.008370 
#    y -0.022980 1.993340 0.018740 
#    z 0.008370 0.018740 1.972910 
# 
# From -- ./inp_files/406851.got.cif
#   From: 2010.05.17/outbox.cif.g08.bks.cpg/sg2_204_cif.got.tgz:406851.got - 2010.06.03 11:33:40.
