data_PCOD9079991
_publ_section_title
;
Structure prediction by ZEFSAII (Michael W. Deem and Ramdas Pophale) SiO2 
 PCOD9079991
Probable space group: P -1
;
_chemical_formula_sum "Si O2"
_cell_formula_units_Z 14
_cell_length_a 8.937863
_cell_length_b 25.383759
_cell_length_c 9.021293
_cell_angle_alpha 41.252500
_cell_angle_beta 60.949234
_cell_angle_gamma 31.567002
_cell_volume 631.277918
_symmetry_space_group_name_H-M "P -1"
_symmetry_group_IT_number 2
_symmetry_cell_setting 'triclinic'
loop_
_space_group_symop_operation_xyz
x,y,z
-x,-y,-z
loop_
_atom_site_type_symbol
_atom_site_label
_atom_site_fract_x
_atom_site_fract_y
_atom_site_fract_z
Si Si1 0.552457 0.597692 0.238170
Si Si2 0.421356 0.162532 0.501611
Si Si3 0.943222 0.743738 0.244122
Si Si4 0.876038 0.340067 0.148170
Si Si5 0.360767 0.365339 0.174565
Si Si6 0.778298 0.900990 0.697200
Si Si7 0.013517 0.450154 0.752490
O O1 0.222882 0.696336 0.254994
O O2 0.845335 0.422019 0.508122
O O3 0.661229 0.642655 0.138534
O O4 0.505584 0.621904 0.032292
O O5 0.499450 0.223051 0.377165
O O6 0.333433 0.155954 0.713779
O O7 0.090327 0.276562 0.324759
O O8 0.698925 0.013743 0.583583
O O9 0.803461 0.829306 0.974457
O O10 0.937910 0.229604 0.278863
O O11 0.500000 0.500000 0.000000
O O12 0.005432 0.358707 0.938165
O O13 0.280521 0.413453 0.283040
O O14 0.000000 0.500000 0.000000
O O15 0.500000 0.000000 0.500000
O O16 0.000000 0.500000 0.500000
#
# Coordination Sequence:
#
# PCOD9079991 Si02
#       7
#     2   2   2   2   2   2   2
#     4  10  21  36  64  99 125 156 216 276 306 363
#     4  11  21  42  65  89 130 169 211 259 320 386
#     4  11  21  37  67  96 122 162 226 260 302 383
#     4  11  24  38  66  92 127 166 212 262 308 374
#     4  10  18  38  60  87 123 167 204 256 323 370
#     4  10  25  42  61  93 133 171 206 256 331 380
#     4  11  21  35  57  93 130 157 200 267 323 359
#
# _framework density 22.177237999999999
#
# number of rings (size 3 to 8) (size 9 to 14) (size 15 to 20)
#    0.000    1.429    5.714    1.286    8.000    0.000 
#    0.000    0.714    0.000    0.857    0.000    0.000 
#    0.000    0.000    0.000    0.000    0.000    0.000 
#
# Total GULP energy -77970.649287 kJ/mol
# GULP energy per Si atom -5569.332092 kJ/mol
# Density = 2.212676 g / cm^3
# Si number density = 22.177238 Si / 1000 Ang^3
#
#
#
# Elastic Constant Matrix: (Units=GPa)
#
#
# Indices 1 2 3 4 5 6 
#
# 1 37.2437 4.2787 9.8105 -7.3732 -1.6879 5.3136
# 2 4.2787 92.6813 22.5398 -6.1837 -9.5761 21.0465
# 3 9.8105 22.5398 91.6699 16.7977 6.5849 12.1187
# 4 -7.3732 -6.1837 16.7977 48.3230 7.2931 -8.2120
# 5 -1.6879 -9.5761 6.5849 7.2931 38.7075 0.8885
# 6 5.3136 21.0465 12.1187 -8.2120 0.8885 43.6654
#
#
#
# Elastic Compliance Matrix: (Units=1/GPa)
#
#
# Indices 1 2 3 4 5 6 
#
# 1 0.029256 0.000509 -0.004129 0.005519 0.001102 -0.001644
# 2 0.000509 0.013218 -0.003110 0.001379 0.003685 -0.005386
# 3 -0.004129 -0.003110 0.013745 -0.005982 -0.002094 -0.002896
# 4 0.005519 0.001379 -0.005982 0.025154 -0.003258 0.005121
# 5 0.001102 0.003685 -0.002094 -0.003258 0.027822 -0.002508
# 6 -0.001644 -0.005386 -0.002896 0.005121 -0.002508 0.027515
#
#
# Mechanical properties :
#
#
# Convention : Reuss Voigt Hill
#
# Bulk Modulus (GPa) = 23.38695 32.76144 28.07419
# Shear Modulus (GPa) = 30.40920 38.47024 34.43972
#
# Velocity S-wave (km/s) = 3.70698 4.16946 3.94500
# Velocity P-wave (km/s) = 5.37500 6.16310 5.78249
#
# Compressibility (1/GPa) = 0.04275889
#
# Stress axis : x y z
#
# Youngs Moduli (GPa) = 34.18045 75.65291 72.75566
#
# Poissons Ratio (x) = -0.03851 0.30043
# Poissons Ratio (y) = -0.01740 0.22627
# Poissons Ratio (z) = 0.14114 0.23528
#
# Static dielectric constant tensor:
#      x y z
#    x 1.915040 -0.011950 0.030240 
#    y -0.011950 1.982160 -0.050300 
#    z 0.030240 -0.050300 1.905220 
# 
# From -- ./inp_files/225940.got.cif
#   From: 2010.05.17/outbox.cif.g08.bks.cpg/sg2_113_cif.got.tgz:225940.got - 2010.06.03 11:33:40.
