data_PCOD9079757
_publ_section_title
;
Structure prediction by ZEFSAII (Michael W. Deem and Ramdas Pophale) SiO2 
 PCOD9079757
Probable space group: P -1
;
_chemical_formula_sum "Si O2"
_cell_formula_units_Z 14
_cell_length_a 8.848976
_cell_length_b 9.454600
_cell_length_c 23.590635
_cell_angle_alpha 25.587309
_cell_angle_beta 135.116582
_cell_angle_gamma 130.949695
_cell_volume 600.647022
_symmetry_space_group_name_H-M "P -1"
_symmetry_group_IT_number 2
_symmetry_cell_setting 'triclinic'
loop_
_space_group_symop_operation_xyz
x,y,z
-x,-y,-z
loop_
_atom_site_type_symbol
_atom_site_label
_atom_site_fract_x
_atom_site_fract_y
_atom_site_fract_z
Si Si1 0.097662 0.781376 0.746805
Si Si2 0.007293 0.309538 0.734058
Si Si3 0.439302 0.290700 0.003995
Si Si4 0.311557 0.215653 0.559167
Si Si5 0.156899 0.763538 0.161194
Si Si6 0.479153 0.525004 0.812929
Si Si7 0.936725 0.718200 0.850427
O O1 0.233687 0.497230 0.858156
O O2 0.871492 0.624718 0.719265
O O3 0.084541 0.744528 0.824277
O O4 0.213930 0.107136 0.634414
O O5 0.264347 0.346034 0.795189
O O6 0.897499 0.653667 0.573979
O O7 0.894108 0.161844 0.814044
O O8 0.936496 0.081039 0.745380
O O9 0.552948 0.333151 0.958859
O O10 0.500000 0.500000 0.000000
O O11 0.384416 0.925741 0.142529
O O12 0.500000 0.500000 0.500000
O O13 0.409131 0.891308 0.676779
O O14 0.000000 0.000000 0.000000
O O15 0.701556 0.574720 0.820233
O O16 0.000000 0.500000 0.000000
#
# Coordination Sequence:
#
# PCOD9079757 Si02
#       7
#     2   2   2   2   2   2   2
#     4  10  23  41  60  96 133 170 222 277 329 399
#     4  12  23  42  71  95 134 178 226 281 330 391
#     4  10  19  36  64  93 126 169 227 272 324 393
#     4  11  23  45  72  96 127 179 239 279 323 394
#     4  10  18  37  64  91 126 167 220 277 325 383
#     4  11  23  43  67 100 129 178 227 274 331 400
#     4  12  26  44  65 100 144 177 212 277 354 403
#
# _framework density 23.308198999999998
#
# number of rings (size 3 to 8) (size 9 to 14) (size 15 to 20)
#    0.000    1.143    5.714    3.857    2.000    1.143 
#    2.571    0.714    0.000    0.000    0.000    0.000 
#    0.000    0.000    0.000    0.000    0.000    0.000 
#
# Total GULP energy -77952.279868 kJ/mol
# GULP energy per Si atom -5568.019991 kJ/mol
# Density = 2.325515 g / cm^3
# Si number density = 23.308199 Si / 1000 Ang^3
#
#
#
# Elastic Constant Matrix: (Units=GPa)
#
#
# Indices 1 2 3 4 5 6 
#
# 1 121.8708 22.2802 37.6333 -4.9322 -31.7729 11.0478
# 2 22.2802 87.3864 18.3362 -20.2781 -15.3811 18.0556
# 3 37.6333 18.3362 86.2011 -15.9933 -24.5374 13.6565
# 4 -4.9322 -20.2781 -15.9933 37.1959 6.9232 -3.2513
# 5 -31.7729 -15.3811 -24.5374 6.9232 38.1498 -5.1120
# 6 11.0478 18.0556 13.6565 -3.2513 -5.1120 37.9091
#
#
#
# Elastic Compliance Matrix: (Units=1/GPa)
#
#
# Indices 1 2 3 4 5 6 
#
# 1 0.011176 -0.001237 -0.002750 -0.001800 0.007253 -0.000853
# 2 -0.001237 0.015129 0.000545 0.007178 0.003316 -0.005979
# 3 -0.002750 0.000545 0.016253 0.005294 0.006896 -0.003929
# 4 -0.001800 0.007178 0.005294 0.032918 -0.001465 -0.002176
# 5 0.007253 0.003316 0.006896 -0.001465 0.038135 -0.001160
# 6 -0.000853 -0.005979 -0.003929 -0.002176 -0.001160 0.030548
#
#
# Mechanical properties :
#
#
# Convention : Reuss Voigt Hill
#
# Bulk Modulus (GPa) = 28.03205 50.21752 39.12478
# Shear Modulus (GPa) = 30.68691 37.13156 33.90923
#
# Velocity S-wave (km/s) = 3.63240 3.99566 3.81835
# Velocity P-wave (km/s) = 5.44474 6.54819 6.02179
#
# Compressibility (1/GPa) = 0.03567345
#
# Stress axis : x y z
#
# Youngs Moduli (GPa) = 89.47579 66.09705 61.52655
#
# Poissons Ratio (x) = 0.08177 0.16922
# Poissons Ratio (y) = 0.11069 -0.03352
# Poissons Ratio (z) = 0.24609 -0.03601
#
# Static dielectric constant tensor:
#      x y z
#    x 2.115350 0.266490 -0.048930 
#    y 0.266490 2.196890 -0.027650 
#    z -0.048930 -0.027650 1.926130 
# 
# From -- ./inp_files/356493.got.cif
#   From: 2010.05.17/outbox.cif.g08.bks.cpg/sg2_179_cif.got.tgz:356493.got - 2010.06.03 11:33:40.
