data_PCOD9079440
_publ_section_title
;
Structure prediction by ZEFSAII (Michael W. Deem and Ramdas Pophale) SiO2 
 PCOD9079440
Probable space group: P -1
;
_chemical_formula_sum "Si O2"
_cell_formula_units_Z 16
_cell_length_a 5.965524
_cell_length_b 11.021045
_cell_length_c 23.186790
_cell_angle_alpha 32.146598
_cell_angle_beta 98.948104
_cell_angle_gamma 96.263858
_cell_volume 800.526358
_symmetry_space_group_name_H-M "P -1"
_symmetry_group_IT_number 2
_symmetry_cell_setting 'triclinic'
loop_
_space_group_symop_operation_xyz
x,y,z
-x,-y,-z
loop_
_atom_site_type_symbol
_atom_site_label
_atom_site_fract_x
_atom_site_fract_y
_atom_site_fract_z
Si Si1 0.283235 0.558070 0.314420
Si Si2 0.236063 0.957410 0.059224
Si Si3 0.038855 0.159434 0.599806
Si Si4 0.767054 0.761371 0.719426
Si Si5 0.469709 0.365294 0.880082
Si Si6 0.103516 0.625653 0.683102
Si Si7 0.654976 0.934727 0.464090
Si Si8 0.348797 0.439441 0.573422
O O1 0.380668 0.297934 0.409070
O O2 0.459758 0.614344 0.349158
O O3 0.015755 0.489711 0.329633
O O4 0.262048 0.777830 0.184393
O O5 0.371349 0.820478 0.070031
O O6 0.324628 0.206613 0.979146
O O7 0.000000 0.000000 0.000000
O O8 0.202932 0.137715 0.558918
O O9 0.190325 0.237697 0.627796
O O10 0.832504 0.349256 0.506733
O O11 0.932118 0.913952 0.701593
O O12 0.625200 0.570122 0.822802
O O13 0.918761 0.651519 0.717659
O O14 0.578755 0.940354 0.614119
O O15 0.304089 0.471801 0.781151
O O16 0.200378 0.873621 0.576359
O O17 0.500000 0.500000 0.500000
#
# Coordination Sequence:
#
# PCOD9079440 Si02
#       8
#     2   2   2   2   2   2   2   2
#     4  12  21  37  56  83 125 152 191 235 289 342
#     4  11  22  39  55  83 119 156 195 238 281 343
#     4  10  20  38  58  79 119 153 196 232 285 344
#     4  10  18  37  58  83 116 152 188 235 286 349
#     4  10  20  38  58  79 119 153 196 232 285 344
#     4  10  21  35  55  87 119 152 183 233 290 357
#     4  10  21  35  55  87 119 152 183 233 290 357
#     4  11  22  39  55  83 119 156 195 238 281 343
#
# _framework density 19.98685
#
# number of rings (size 3 to 8) (size 9 to 14) (size 15 to 20)
#    0.000    1.500    5.000    0.375    0.000    1.500 
#    0.000    0.000    0.000    0.750    0.000   16.625 
#    0.000    0.000    0.000    0.000    0.000    0.000 
#
# Total GULP energy -89085.673546 kJ/mol
# GULP energy per Si atom -5567.854597 kJ/mol
# Density = 1.994136 g / cm^3
# Si number density = 19.986850 Si / 1000 Ang^3
#
#
#
# Elastic Constant Matrix: (Units=GPa)
#
#
# Indices 1 2 3 4 5 6 
#
# 1 100.7210 56.9280 53.5206 -6.2373 11.7704 21.8152
# 2 56.9280 93.8597 40.7619 -5.5165 -14.9522 45.7636
# 3 53.5206 40.7619 139.7404 -7.3855 -13.7115 25.5167
# 4 -6.2373 -5.5165 -7.3855 25.9362 7.9131 -0.7740
# 5 11.7704 -14.9522 -13.7115 7.9131 47.1828 -20.1162
# 6 21.8152 45.7636 25.5167 -0.7740 -20.1162 54.9745
#
#
#
# Elastic Compliance Matrix: (Units=1/GPa)
#
#
# Indices 1 2 3 4 5 6 
#
# 1 0.021339 -0.012135 -0.005535 0.004486 -0.011506 0.000057
# 2 -0.012135 0.026176 0.000330 0.000845 0.004715 -0.015391
# 3 -0.005535 0.000330 0.009794 0.000350 0.003740 -0.001251
# 4 0.004486 0.000845 0.000350 0.042928 -0.010450 -0.005866
# 5 -0.011506 0.004715 0.003740 -0.010450 0.033020 0.010841
# 6 0.000057 -0.015391 -0.001251 -0.005866 0.010841 0.035445
#
#
# Mechanical properties :
#
#
# Convention : Reuss Voigt Hill
#
# Bulk Modulus (GPa) = 44.19366 70.74912 57.47139
# Shear Modulus (GPa) = 23.70520 37.82608 30.76564
#
# Velocity S-wave (km/s) = 3.44763 4.35506 3.92764
# Velocity P-wave (km/s) = 6.16503 7.79509 7.02748
#
# Compressibility (1/GPa) = 0.02262768
#
# Stress axis : x y z
#
# Youngs Moduli (GPa) = 46.86302 38.20256 102.10782
#
# Poissons Ratio (x) = 0.46361 0.56517
# Poissons Ratio (y) = 0.56870 -0.03370
# Poissons Ratio (z) = 0.25939 -0.01261
#
# Static dielectric constant tensor:
#      x y z
#    x 1.856030 0.018750 -0.062430 
#    y 0.018750 1.755120 -0.007680 
#    z -0.062430 -0.007680 1.735040 
# 
# From -- ./inp_files/615490.got.cif
#   From: 2010.05.17/outbox.cif.g08.bks.cpg/sg2_308_cif.got.tgz:615490.got - 2010.06.03 11:33:40.
