data_PCOD9079251
_publ_section_title
;
Structure prediction by ZEFSAII (Michael W. Deem and Ramdas Pophale) SiO2 
 PCOD9079251
Probable space group: P -1
;
_chemical_formula_sum "Si O2"
_cell_formula_units_Z 16
_cell_length_a 14.230918
_cell_length_b 26.464181
_cell_length_c 19.275668
_cell_angle_alpha 162.096043
_cell_angle_beta 20.308792
_cell_angle_gamma 160.390637
_cell_volume 685.864954
_symmetry_space_group_name_H-M "P -1"
_symmetry_group_IT_number 2
_symmetry_cell_setting 'triclinic'
loop_
_space_group_symop_operation_xyz
x,y,z
-x,-y,-z
loop_
_atom_site_type_symbol
_atom_site_label
_atom_site_fract_x
_atom_site_fract_y
_atom_site_fract_z
Si Si1 0.994856 0.957542 0.642805
Si Si2 0.906561 0.102059 0.756896
Si Si3 0.150345 0.364358 0.582796
Si Si4 0.687369 0.228313 0.522041
Si Si5 0.040702 0.950113 0.813658
Si Si6 0.431816 0.673815 0.112632
Si Si7 0.696309 0.062271 0.104335
Si Si8 0.414624 0.621582 0.345388
O O1 0.878534 0.747072 0.472172
O O2 0.823670 0.977777 0.720691
O O3 0.357088 0.056305 0.507989
O O4 0.943080 0.074909 0.893721
O O5 0.216466 0.284162 0.798565
O O6 0.612411 0.105036 0.932063
O O7 0.000000 0.000000 0.500000
O O8 0.500000 0.500000 0.500000
O O9 0.890317 0.430855 0.842507
O O10 0.029561 0.202298 0.396961
O O11 0.639472 0.303927 0.728437
O O12 0.741651 0.374515 0.614203
O O13 0.932220 0.152897 0.270794
O O14 0.366528 0.126641 0.802387
O O15 0.784859 0.011323 0.050607
O O16 0.642449 0.570600 0.832783
O O17 0.652881 0.243781 0.381685
#
# Coordination Sequence:
#
# PCOD9079251 Si02
#       8
#     2   2   2   2   2   2   2   2
#     4  10  18  36  65  84 117 164 200 250 303 366
#     4   9  20  38  58  88 123 159 195 249 311 361
#     4  10  20  34  60  95 118 157 213 253 295 361
#     4  10  18  39  57  86 113 163 204 245 307 358
#     4  10  20  37  63  81 122 160 201 252 305 363
#     4  11  19  37  59  89 124 159 200 251 310 360
#     4  10  20  36  54  88 120 160 198 243 301 361
#     4  10  23  33  58  87 124 158 203 253 296 365
#
# _framework density 23.328209000000001
#
# number of rings (size 3 to 8) (size 9 to 14) (size 15 to 20)
#    0.000    2.000    3.750    1.500    3.500    1.000 
#    0.000    1.250    0.000    9.000    0.000    0.000 
#    0.000    0.000    0.000    0.000    0.000    0.000 
#
# Total GULP energy -89285.091960 kJ/mol
# GULP energy per Si atom -5580.318248 kJ/mol
# Density = 2.327511 g / cm^3
# Si number density = 23.328209 Si / 1000 Ang^3
#
#
#
# Elastic Constant Matrix: (Units=GPa)
#
#
# Indices 1 2 3 4 5 6 
#
# 1 129.9683 20.5861 31.6312 -2.5340 -27.5358 -4.6360
# 2 20.5861 76.8668 22.5539 -12.1302 -25.9686 5.1943
# 3 31.6312 22.5539 110.2081 2.2847 -27.7115 -5.2233
# 4 -2.5340 -12.1302 2.2847 34.7339 0.5021 -11.4893
# 5 -27.5358 -25.9686 -27.7115 0.5021 41.2247 -8.9152
# 6 -4.6360 5.1943 -5.2233 -11.4893 -8.9152 27.0727
#
#
#
# Elastic Compliance Matrix: (Units=1/GPa)
#
#
# Indices 1 2 3 4 5 6 
#
# 1 0.009546 0.000022 -0.000865 0.002194 0.006783 0.004628
# 2 0.000022 0.018034 -0.000819 0.007257 0.011435 0.003231
# 3 -0.000865 -0.000819 0.011693 0.000433 0.007850 0.005034
# 4 0.002194 0.007257 0.000433 0.037311 0.009794 0.018126
# 5 0.006783 0.011435 0.007850 0.009794 0.045383 0.019584
# 6 0.004628 0.003231 0.005034 0.018126 0.019584 0.052223
#
#
# Mechanical properties :
#
#
# Convention : Reuss Voigt Hill
#
# Bulk Modulus (GPa) = 27.81690 51.84285 39.82987
# Shear Modulus (GPa) = 26.38567 36.75772 31.57169
#
# Velocity S-wave (km/s) = 3.36678 3.97379 3.68281
# Velocity P-wave (km/s) = 5.20227 6.58226 5.93253
#
# Compressibility (1/GPa) = 0.03594937
#
# Stress axis : x y z
#
# Youngs Moduli (GPa) = 104.75437 55.45139 85.52112
#
# Poissons Ratio (x) = -0.00123 0.07397
# Poissons Ratio (y) = -0.00233 0.07005
# Poissons Ratio (z) = 0.09061 0.04542
#
# Static dielectric constant tensor:
#      x y z
#    x 1.946270 0.059060 -0.024780 
#    y 0.059060 1.973160 -0.005620 
#    z -0.024780 -0.005620 2.047620 
# 
# From -- ./inp_files/598643.got.cif
#   From: 2010.05.17/outbox.cif.g08.bks.cpg/sg2_300_cif.got.tgz:598643.got - 2010.06.03 11:33:40.
