data_PCOD9079841
_publ_section_title
;
Structure prediction by ZEFSAII (Michael W. Deem and Ramdas Pophale) SiO2 
 PCOD9079841
Probable space group: P -1
;
_chemical_formula_sum "Si O2"
_cell_formula_units_Z 16
_cell_length_a 8.212879
_cell_length_b 9.413886
_cell_length_c 17.355048
_cell_angle_alpha 129.950473
_cell_angle_beta 119.467264
_cell_angle_gamma 49.872728
_cell_volume 779.495080
_symmetry_space_group_name_H-M "P -1"
_symmetry_group_IT_number 2
_symmetry_cell_setting 'triclinic'
loop_
_space_group_symop_operation_xyz
x,y,z
-x,-y,-z
loop_
_atom_site_type_symbol
_atom_site_label
_atom_site_fract_x
_atom_site_fract_y
_atom_site_fract_z
Si Si1 0.929841 0.826797 0.437955
Si Si2 0.388645 0.441492 0.381831
Si Si3 0.101005 0.952177 0.902580
Si Si4 0.702300 0.922274 0.739659
Si Si5 0.072384 0.254958 0.422333
Si Si6 0.333848 0.338308 0.758970
Si Si7 0.250082 0.655166 0.972354
Si Si8 0.340807 0.640129 0.728802
O O1 0.852881 0.854816 0.517233
O O2 0.758016 0.815172 0.339838
O O3 0.139326 0.598014 0.395436
O O4 0.000000 0.000000 0.500000
O O5 0.500000 0.500000 0.500000
O O6 0.411093 0.207307 0.301106
O O7 0.463377 0.470639 0.324438
O O8 0.222941 0.842749 0.972321
O O9 0.283053 0.844485 0.841214
O O10 0.927208 0.873106 0.813963
O O11 0.944641 0.206390 0.965180
O O12 0.750858 0.848830 0.637159
O O13 0.562093 0.175498 0.792030
O O14 0.000000 0.500000 0.500000
O O15 0.859956 0.261715 0.342660
O O16 0.201954 0.503635 0.852944
O O17 0.344748 0.466736 0.730838
O O18 0.500000 0.500000 0.000000
#
# Coordination Sequence:
#
# PCOD9079841 Si02
#       8
#     2   2   2   2   2   2   2   2
#     4  12  25  38  56  88 124 164 208 254 302 363
#     4  12  22  38  57  85 123 170 203 245 305 363
#     4   9  20  38  64  91 122 159 199 258 311 364
#     4  11  22  37  61  88 119 165 203 247 308 364
#     4  11  19  39  55  78 120 164 202 245 305 362
#     4  11  23  38  61  92 120 158 208 254 301 372
#     4  10  18  37  66  97 117 151 211 258 306 365
#     4  10  21  37  59  87 123 163 204 248 306 366
#
# _framework density 20.526105999999999
#
# number of rings (size 3 to 8) (size 9 to 14) (size 15 to 20)
#    0.000    1.250    5.000    2.250    1.750    0.500 
#    0.000    0.000    0.000   12.750    0.000    0.000 
#    0.000    0.000    0.000    0.000    0.000    0.000 
#
# Total GULP energy -89068.773253 kJ/mol
# GULP energy per Si atom -5566.798328 kJ/mol
# Density = 2.047939 g / cm^3
# Si number density = 20.526106 Si / 1000 Ang^3
#
#
#
# Elastic Constant Matrix: (Units=GPa)
#
#
# Indices 1 2 3 4 5 6 
#
# 1 46.6862 6.8288 23.3255 3.0195 -13.6239 5.1250
# 2 6.8288 85.1998 24.3688 5.1326 1.5064 -14.1981
# 3 23.3255 24.3688 85.3305 10.8541 -22.5984 14.3253
# 4 3.0195 5.1326 10.8541 32.5846 -10.8261 4.9338
# 5 -13.6239 1.5064 -22.5984 -10.8261 30.8283 4.7924
# 6 5.1250 -14.1981 14.3253 4.9338 4.7924 31.2626
#
#
#
# Elastic Compliance Matrix: (Units=1/GPa)
#
#
# Indices 1 2 3 4 5 6 
#
# 1 0.027518 -0.003337 -0.002285 0.004349 0.013376 -0.007717
# 2 -0.003337 0.018456 -0.010316 -0.006698 -0.014933 0.017002
# 3 -0.002285 -0.010316 0.023557 0.003855 0.021061 -0.018942
# 4 0.004349 -0.006698 0.003855 0.039383 0.021236 -0.014992
# 5 0.013376 -0.014933 0.021061 0.021236 0.066988 -0.032246
# 6 -0.007717 0.017002 -0.018942 -0.014992 -0.032246 0.056962
#
#
# Mechanical properties :
#
#
# Convention : Reuss Voigt Hill
#
# Bulk Modulus (GPa) = 26.55544 36.25141 31.40342
# Shear Modulus (GPa) = 18.03161 29.78131 23.90646
#
# Velocity S-wave (km/s) = 2.96712 3.81320 3.41645
# Velocity P-wave (km/s) = 4.97030 6.08989 5.55836
#
# Compressibility (1/GPa) = 0.03765707
#
# Stress axis : x y z
#
# Youngs Moduli (GPa) = 36.33933 54.18334 42.45041
#
# Poissons Ratio (x) = 0.18079 0.09698
# Poissons Ratio (y) = 0.12125 0.43791
# Poissons Ratio (z) = 0.08302 0.55894
#
# Static dielectric constant tensor:
#      x y z
#    x 1.803560 -0.002850 -0.004080 
#    y -0.002850 1.804350 0.004700 
#    z -0.004080 0.004700 1.824220 
# 
# From -- ./inp_files/202870.got.cif
#   From: 2010.05.17/outbox.cif.g08.bks.cpg/sg2_102_cif.got.tgz:202870.got - 2010.06.03 11:33:40.
