data_PCOD9079838
_publ_section_title
;
Structure prediction by ZEFSAII (Michael W. Deem and Ramdas Pophale) SiO2 
 PCOD9079838
Probable space group: P -1
;
_chemical_formula_sum "Si O2"
_cell_formula_units_Z 14
_cell_length_a 11.336003
_cell_length_b 20.646472
_cell_length_c 9.637731
_cell_angle_alpha 142.879753
_cell_angle_beta 127.536642
_cell_angle_gamma 29.652989
_cell_volume 646.502699
_symmetry_space_group_name_H-M "P -1"
_symmetry_group_IT_number 2
_symmetry_cell_setting 'triclinic'
loop_
_space_group_symop_operation_xyz
x,y,z
-x,-y,-z
loop_
_atom_site_type_symbol
_atom_site_label
_atom_site_fract_x
_atom_site_fract_y
_atom_site_fract_z
Si Si1 0.761137 0.335866 0.484746
Si Si2 0.550701 0.055434 0.503086
Si Si3 0.422885 0.771576 0.731599
Si Si4 0.737213 0.662121 0.013841
Si Si5 0.836754 0.849044 0.778177
Si Si6 0.854754 0.469602 0.331329
Si Si7 0.981225 0.306675 0.851143
O O1 0.500000 0.500000 0.500000
O O2 0.768492 0.210802 0.335606
O O3 0.796042 0.395528 0.742250
O O4 0.986440 0.228135 0.357906
O O5 0.459705 0.212370 0.788952
O O6 0.360707 0.126650 0.371010
O O7 0.500000 0.000000 0.500000
O O8 0.826822 0.904234 0.381624
O O9 0.580606 0.648940 0.500493
O O10 0.625327 0.652307 0.798965
O O11 0.302004 0.959405 0.957700
O O12 0.807510 0.726040 0.082235
O O13 0.000000 0.500000 0.000000
O O14 0.000851 0.700892 0.762171
O O15 0.000000 0.500000 0.500000
O O16 0.855128 0.418367 0.091140
#
# Coordination Sequence:
#
# PCOD9079838 Si02
#       7
#     2   2   2   2   2   2   2
#     4  12  24  45  72 100 134 184 225 285 337 400
#     4  10  18  37  66  95 128 163 224 286 326 377
#     4  12  24  42  69 100 138 178 229 275 343 401
#     4  11  19  37  65  98 128 169 229 288 323 386
#     4  12  23  45  70 100 139 174 229 289 334 402
#     4  12  26  44  68 103 140 181 223 278 345 410
#     4  11  23  42  66  97 136 177 225 274 340 402
#
# _framework density 21.654975
#
# number of rings (size 3 to 8) (size 9 to 14) (size 15 to 20)
#    0.000    0.571    8.571    2.143    0.000    2.857 
#    0.000    0.714    0.000    0.000    0.000    0.000 
#    0.000    0.000    0.000    0.000    0.000    0.000 
#
# Total GULP energy -78102.692731 kJ/mol
# GULP energy per Si atom -5578.763766 kJ/mol
# Density = 2.160569 g / cm^3
# Si number density = 21.654975 Si / 1000 Ang^3
#
#
#
# Elastic Constant Matrix: (Units=GPa)
#
#
# Indices 1 2 3 4 5 6 
#
# 1 66.0916 26.2968 50.8310 -3.1173 -5.8311 2.4947
# 2 26.2968 81.6784 60.1879 -1.3788 -23.1635 -8.1700
# 3 50.8310 60.1879 169.5479 -5.1582 -47.2169 -1.7338
# 4 -3.1173 -1.3788 -5.1582 39.2254 -7.2199 5.1503
# 5 -5.8311 -23.1635 -47.2169 -7.2199 42.6565 0.2909
# 6 2.4947 -8.1700 -1.7338 5.1503 0.2909 24.1522
#
#
#
# Elastic Compliance Matrix: (Units=1/GPa)
#
#
# Indices 1 2 3 4 5 6 
#
# 1 0.021757 -0.004242 -0.007045 -0.000122 -0.007121 -0.004076
# 2 -0.004242 0.018516 -0.003779 -0.000056 0.005239 0.006380
# 3 -0.007045 -0.003779 0.012653 0.003153 0.011528 -0.000453
# 4 -0.000122 -0.000056 0.003153 0.028189 0.008254 -0.005891
# 5 -0.007121 0.005239 0.011528 0.008254 0.039464 0.001100
# 6 -0.004076 0.006380 -0.000453 -0.005891 0.001100 0.045194
#
#
# Mechanical properties :
#
#
# Convention : Reuss Voigt Hill
#
# Bulk Modulus (GPa) = 43.87158 65.77213 54.82185
# Shear Modulus (GPa) = 24.56953 33.20696 28.88824
#
# Velocity S-wave (km/s) = 3.37202 3.92019 3.65639
# Velocity P-wave (km/s) = 5.95517 7.13647 6.57241
#
# Compressibility (1/GPa) = 0.02279380
#
# Stress axis : x y z
#
# Youngs Moduli (GPa) = 45.96262 54.00595 79.03142
#
# Poissons Ratio (x) = 0.22912 0.55679
# Poissons Ratio (y) = 0.19499 0.29864
# Poissons Ratio (z) = 0.32382 0.20407
#
# Static dielectric constant tensor:
#      x y z
#    x 1.816620 0.105640 0.112440 
#    y 0.105640 1.928450 0.218540 
#    z 0.112440 0.218540 2.121710 
# 
# From -- ./inp_files/219030.got.cif
#   From: 2010.05.17/outbox.cif.g08.bks.cpg/sg2_110_cif.got.tgz:219030.got - 2010.06.03 11:33:40.
