data_PCOD9079531
_publ_section_title
;
Structure prediction by ZEFSAII (Michael W. Deem and Ramdas Pophale) SiO2 
 PCOD9079531
Probable space group: P -1
;
_chemical_formula_sum "Si O2"
_cell_formula_units_Z 16
_cell_length_a 9.475855
_cell_length_b 9.139705
_cell_length_c 17.634026
_cell_angle_alpha 107.827562
_cell_angle_beta 99.480844
_cell_angle_gamma 132.909201
_cell_volume 899.544223
_symmetry_space_group_name_H-M "P -1"
_symmetry_group_IT_number 2
_symmetry_cell_setting 'triclinic'
loop_
_space_group_symop_operation_xyz
x,y,z
-x,-y,-z
loop_
_atom_site_type_symbol
_atom_site_label
_atom_site_fract_x
_atom_site_fract_y
_atom_site_fract_z
Si Si1 0.988133 0.095227 0.719477
Si Si2 0.143402 0.774152 0.391302
Si Si3 0.751278 0.626167 0.705040
Si Si4 0.529199 0.660647 0.226185
Si Si5 0.848130 0.277967 0.216599
Si Si6 0.054767 0.448843 0.881840
Si Si7 0.546383 0.897111 0.397787
Si Si8 0.646918 0.279341 0.903189
O O1 0.236928 0.228447 0.752796
O O2 0.003966 0.243057 0.806605
O O3 0.916900 0.119022 0.639204
O O4 0.813981 0.819925 0.688848
O O5 0.359173 0.874995 0.383039
O O6 0.936335 0.481836 0.315436
O O7 0.230327 0.871126 0.499562
O O8 0.629988 0.565698 0.764747
O O9 0.576815 0.352988 0.612276
O O10 0.980491 0.722311 0.759176
O O11 0.581001 0.860965 0.310840
O O12 0.397577 0.603936 0.130876
O O13 0.880877 0.382462 0.153888
O O14 0.591901 0.008931 0.160526
O O15 0.833314 0.332736 0.884770
O O16 0.253201 0.604488 0.986485
#
# Coordination Sequence:
#
# PCOD9079531 Si02
#       8
#     2   2   2   2   2   2   2   2
#     4  11  21  35  57  84 112 146 183 230 275 327
#     4   9  18  35  61  83 110 143 189 233 262 321
#     4   9  19  36  56  78 117 148 181 217 282 328
#     4  10  20  36  57  78 117 150 175 228 281 325
#     4  10  18  37  61  80 109 149 185 226 277 327
#     4  10  23  37  57  88 109 135 198 234 264 330
#     4   8  18  38  59  77 114 151 179 226 275 320
#     4  11  20  38  63  78 108 153 182 228 285 324
#
# _framework density 17.786785999999999
#
# number of rings (size 3 to 8) (size 9 to 14) (size 15 to 20)
#    0.750    1.500    2.500    1.125    0.000    3.500 
#    0.000    1.250    5.500    0.000    0.000    0.000 
#    0.000    0.000    0.000    0.000    0.000    0.000 
#
# Total GULP energy -89140.847912 kJ/mol
# GULP energy per Si atom -5571.302995 kJ/mol
# Density = 1.774630 g / cm^3
# Si number density = 17.786786 Si / 1000 Ang^3
#
#
#
# Elastic Constant Matrix: (Units=GPa)
#
#
# Indices 1 2 3 4 5 6 
#
# 1 34.0644 -10.8871 -5.0686 -1.0882 1.9897 -3.3517
# 2 -10.8871 44.8181 -12.3204 13.7344 -1.3757 6.7541
# 3 -5.0686 -12.3204 61.4257 5.3375 11.9755 4.4313
# 4 -1.0882 13.7344 5.3375 16.4623 4.5747 8.4847
# 5 1.9897 -1.3757 11.9755 4.5747 11.4459 1.6884
# 6 -3.3517 6.7541 4.4313 8.4847 1.6884 17.7894
#
#
#
# Elastic Compliance Matrix: (Units=1/GPa)
#
#
# Indices 1 2 3 4 5 6 
#
# 1 0.035544 0.013288 0.007949 -0.012042 -0.009010 0.006270
# 2 0.013288 0.040630 0.011289 -0.039787 0.006274 0.002647
# 3 0.007949 0.011289 0.024355 -0.009747 -0.021289 -0.002186
# 4 -0.012042 -0.039787 -0.009747 0.128692 -0.037651 -0.042542
# 5 -0.009010 0.006274 -0.021289 -0.037651 0.125944 0.007228
# 6 0.006270 0.002647 -0.002186 -0.042542 0.007228 0.076539
#
#
# Mechanical properties :
#
#
# Convention : Reuss Voigt Hill
#
# Bulk Modulus (GPa) = 6.03932 9.30622 7.67277
# Shear Modulus (GPa) = 11.85264 20.37847 16.11556
#
# Velocity S-wave (km/s) = 2.58422 3.38850 3.01332
# Velocity P-wave (km/s) = 3.50814 4.53351 4.05338
#
# Compressibility (1/GPa) = 0.16558151
#
# Stress axis : x y z
#
# Youngs Moduli (GPa) = 28.13386 24.61239 41.05905
#
# Poissons Ratio (x) = -0.32705 -0.32637
# Poissons Ratio (y) = -0.37385 -0.46352
# Poissons Ratio (z) = -0.22363 -0.27785
#
# Static dielectric constant tensor:
#      x y z
#    x 1.596900 -0.002970 -0.004500 
#    y -0.002970 1.602920 -0.002120 
#    z -0.004500 -0.002120 1.603620 
# 
# From -- ./inp_files/325641.got.cif
#   From: 2010.05.17/outbox.cif.g08.bks.cpg/sg2_163_cif.got.tgz:325641.got - 2010.06.03 11:33:40.
