data_PCOD9079826
_publ_section_title
;
Structure prediction by ZEFSAII (Michael W. Deem and Ramdas Pophale) SiO2 
 PCOD9079826
Probable space group: P -1
;
_chemical_formula_sum "Si O2"
_cell_formula_units_Z 14
_cell_length_a 9.322179
_cell_length_b 21.121059
_cell_length_c 11.670884
_cell_angle_alpha 138.949680
_cell_angle_beta 50.200629
_cell_angle_gamma 153.264078
_cell_volume 674.558536
_symmetry_space_group_name_H-M "P -1"
_symmetry_group_IT_number 2
_symmetry_cell_setting 'triclinic'
loop_
_space_group_symop_operation_xyz
x,y,z
-x,-y,-z
loop_
_atom_site_type_symbol
_atom_site_label
_atom_site_fract_x
_atom_site_fract_y
_atom_site_fract_z
Si Si1 0.533883 0.255214 0.820226
Si Si2 0.423361 0.515477 0.183742
Si Si3 0.892158 0.863050 0.937090
Si Si4 0.769397 0.164854 0.164393
Si Si5 0.693329 0.309126 0.556341
Si Si6 0.315399 0.520046 0.644492
Si Si7 0.948163 0.616846 0.163456
O O1 0.520885 0.218682 0.644711
O O2 0.671894 0.241181 0.831064
O O3 0.202378 0.150889 0.902567
O O4 0.768642 0.449138 0.969327
O O5 0.379964 0.611864 0.331153
O O6 0.746016 0.622605 0.233997
O O7 0.098003 0.333576 0.158045
O O8 0.500000 0.500000 0.000000
O O9 0.577203 0.700817 0.806795
O O10 0.119913 0.865768 0.837143
O O11 0.000000 0.000000 0.000000
O O12 0.626590 0.199932 0.346944
O O13 0.500000 0.000000 0.000000
O O14 0.078644 0.459794 0.587174
O O15 0.500000 0.500000 0.500000
O O16 0.096339 0.406795 0.710484
#
# Coordination Sequence:
#
# PCOD9079826 Si02
#       7
#     2   2   2   2   2   2   2
#     4   9  18  38  64  92 120 162 208 268 314 362
#     4  12  22  40  67  99 126 168 217 260 317 392
#     4  11  23  41  64  91 130 169 207 260 326 381
#     4  12  27  45  59  94 139 172 205 268 331 383
#     4  11  22  40  70  93 124 167 220 267 313 383
#     4  10  18  37  66  90 120 157 217 264 307 363
#     4   9  17  33  62  91 122 151 203 266 310 355
#
# _framework density 20.754314999999998
#
# number of rings (size 3 to 8) (size 9 to 14) (size 15 to 20)
#    0.000    1.429    5.714    1.286    2.000    0.000 
#    0.000    3.571    0.000    0.000    0.000    0.000 
#    0.000    0.000    0.000    0.000    0.000    0.000 
#
# Total GULP energy -77971.412154 kJ/mol
# GULP energy per Si atom -5569.386582 kJ/mol
# Density = 2.070708 g / cm^3
# Si number density = 20.754315 Si / 1000 Ang^3
#
#
#
# Elastic Constant Matrix: (Units=GPa)
#
#
# Indices 1 2 3 4 5 6 
#
# 1 144.4503 17.3646 53.0649 14.2009 -34.3736 9.9366
# 2 17.3646 35.6775 37.0305 -9.3662 -11.0993 -11.4114
# 3 53.0649 37.0305 140.4252 -19.8477 -15.1288 -3.7127
# 4 14.2009 -9.3662 -19.8477 19.4807 8.7238 -0.0181
# 5 -34.3736 -11.0993 -15.1288 8.7238 37.9111 -4.4836
# 6 9.9366 -11.4114 -3.7127 -0.0181 -4.4836 27.3395
#
#
#
# Elastic Compliance Matrix: (Units=1/GPa)
#
#
# Indices 1 2 3 4 5 6 
#
# 1 0.019390 -0.005693 -0.008812 -0.034578 0.019473 -0.007450
# 2 -0.005693 0.053835 -0.008051 0.019235 0.005848 0.024418
# 3 -0.008812 -0.008051 0.014629 0.021698 -0.009468 0.000291
# 4 -0.034578 0.019235 0.021698 0.127861 -0.044554 0.016320
# 5 0.019473 0.005848 -0.009468 -0.044554 0.052535 0.002664
# 6 -0.007450 0.024418 0.000291 0.016320 0.002664 0.049964
#
#
# Mechanical properties :
#
#
# Convention : Reuss Voigt Hill
#
# Bulk Modulus (GPa) = 23.39638 59.49699 41.44668
# Shear Modulus (GPa) = 13.24247 31.15245 22.19746
#
# Velocity S-wave (km/s) = 2.52872 3.87849 3.27392
# Velocity P-wave (km/s) = 4.45235 6.98473 5.85704
#
# Compressibility (1/GPa) = 0.04274165
#
# Stress axis : x y z
#
# Youngs Moduli (GPa) = 51.57286 18.57526 68.35897
#
# Poissons Ratio (x) = 0.10575 0.60239
# Poissons Ratio (y) = 0.29361 0.55034
# Poissons Ratio (z) = 0.45447 0.14954
#
# Static dielectric constant tensor:
#      x y z
#    x 2.399260 0.751960 -0.311390 
#    y 0.751960 2.672450 -0.397660 
#    z -0.311390 -0.397660 1.939050 
# 
# From -- ./inp_files/204770.got.cif
#   From: 2010.05.17/outbox.cif.g08.bks.cpg/sg2_103_cif.got.tgz:204770.got - 2010.06.03 11:33:40.
