data_PCOD9079119
_publ_section_title
;
Structure prediction by ZEFSAII (Michael W. Deem and Ramdas Pophale) SiO2 
 PCOD9079119
Probable space group: P -1
;
_chemical_formula_sum "Si O2"
_cell_formula_units_Z 14
_cell_length_a 26.170338
_cell_length_b 8.430047
_cell_length_c 14.584297
_cell_angle_alpha 47.732596
_cell_angle_beta 17.322917
_cell_angle_gamma 40.112003
_cell_volume 588.869476
_symmetry_space_group_name_H-M "P -1"
_symmetry_group_IT_number 2
_symmetry_cell_setting 'triclinic'
loop_
_space_group_symop_operation_xyz
x,y,z
-x,-y,-z
loop_
_atom_site_type_symbol
_atom_site_label
_atom_site_fract_x
_atom_site_fract_y
_atom_site_fract_z
Si Si1 0.473646 0.140304 0.083256
Si Si2 0.834207 0.301743 0.153327
Si Si3 0.859380 0.509178 0.862241
Si Si4 0.931395 0.871790 0.491119
Si Si5 0.655602 0.331729 0.884775
Si Si6 0.602370 0.792068 0.489345
Si Si7 0.619080 0.082746 0.502589
O O1 0.363822 0.088862 0.373204
O O2 0.353395 0.435150 0.143744
O O3 0.500000 0.000000 0.000000
O O4 0.708783 0.006019 0.769924
O O5 0.735375 0.503750 0.328041
O O6 0.675286 0.277039 0.371367
O O7 0.932654 0.409146 0.876604
O O8 0.000000 0.000000 0.000000
O O9 0.965751 0.641698 0.585065
O O10 0.901792 0.272071 0.817668
O O11 0.619602 0.730667 0.188349
O O12 0.880729 0.109146 0.548746
O O13 0.557886 0.220006 0.162376
O O14 0.500000 0.500000 0.000000
O O15 0.500000 0.000000 0.500000
O O16 0.715087 0.888319 0.326100
#
# Coordination Sequence:
#
# PCOD9079119 Si02
#       7
#     2   2   2   2   2   2   2
#     4  10  20  35  64  95 128 167 217 276 330 387
#     4  12  28  41  69  99 132 174 227 278 334 392
#     4  10  20  40  64  93 130 171 214 270 329 397
#     4   9  19  36  66  89 124 170 215 263 331 387
#     4  10  18  36  62  93 125 171 213 268 334 379
#     4  12  23  43  70  96 137 182 220 267 338 405
#     4  11  23  45  66  96 133 181 222 269 334 404
#
# _framework density 23.774367000000002
#
# number of rings (size 3 to 8) (size 9 to 14) (size 15 to 20)
#    0.000    1.429    5.714    1.286    6.000    0.571 
#    0.000    0.000    3.143    3.429    0.000    0.000 
#    0.000    0.000    0.000    0.000    0.000    0.000 
#
# Total GULP energy -78041.129759 kJ/mol
# GULP energy per Si atom -5574.366411 kJ/mol
# Density = 2.372026 g / cm^3
# Si number density = 23.774367 Si / 1000 Ang^3
#
#
#
# Elastic Constant Matrix: (Units=GPa)
#
#
# Indices 1 2 3 4 5 6 
#
# 1 93.5645 35.9860 25.5221 11.3884 21.9146 8.3894
# 2 35.9860 149.8666 43.6091 39.3167 23.6223 19.8711
# 3 25.5221 43.6091 57.8324 25.0575 28.5256 2.1233
# 4 11.3884 39.3167 25.0575 48.2235 11.6746 18.7862
# 5 21.9146 23.6223 28.5256 11.6746 35.1271 9.4778
# 6 8.3894 19.8711 2.1233 18.7862 9.4778 57.1356
#
#
#
# Elastic Compliance Matrix: (Units=1/GPa)
#
#
# Indices 1 2 3 4 5 6 
#
# 1 0.013197 -0.001884 -0.002239 0.001145 -0.005343 -0.000689
# 2 -0.001884 0.009858 -0.004678 -0.004649 0.000294 -0.001498
# 3 -0.002239 -0.004678 0.040437 -0.013992 -0.026181 0.009396
# 4 0.001145 -0.004649 -0.013992 0.034235 0.005132 -0.010139
# 5 -0.005343 0.000294 -0.026181 0.005132 0.053564 -0.008918
# 6 -0.000689 -0.001498 0.009396 -0.010139 -0.008918 0.022588
#
#
# Mechanical properties :
#
#
# Convention : Reuss Voigt Hill
#
# Bulk Modulus (GPa) = 21.79068 56.83308 39.31188
# Shear Modulus (GPa) = 24.18050 41.17364 32.67707
#
# Velocity S-wave (km/s) = 3.19263 4.16606 3.71140
# Velocity P-wave (km/s) = 4.77243 6.86284 5.91078
#
# Compressibility (1/GPa) = 0.04589117
#
# Stress axis : x y z
#
# Youngs Moduli (GPa) = 75.77494 101.43796 24.72958
#
# Poissons Ratio (x) = 0.19114 0.05536
# Poissons Ratio (y) = 0.14278 0.11568
# Poissons Ratio (z) = 0.16963 0.47451
#
# Static dielectric constant tensor:
#      x y z
#    x 2.032430 0.079440 -0.030650 
#    y 0.079440 1.995480 0.002450 
#    z -0.030650 0.002450 1.979620 
# 
# From -- ./inp_files/544752.got.cif
#   From: 2010.05.17/outbox.cif.g08.bks.cpg/sg2_273_cif.got.tgz:544752.got - 2010.06.03 11:33:40.
