data_PCOD9079976
_publ_section_title
;
Structure prediction by ZEFSAII (Michael W. Deem and Ramdas Pophale) SiO2 
 PCOD9079976
Probable space group: P -1
;
_chemical_formula_sum "Si O2"
_cell_formula_units_Z 16
_cell_length_a 11.281621
_cell_length_b 12.064413
_cell_length_c 13.736081
_cell_angle_alpha 32.633414
_cell_angle_beta 121.429378
_cell_angle_gamma 100.528917
_cell_volume 714.339183
_symmetry_space_group_name_H-M "P -1"
_symmetry_group_IT_number 2
_symmetry_cell_setting 'triclinic'
loop_
_space_group_symop_operation_xyz
x,y,z
-x,-y,-z
loop_
_atom_site_type_symbol
_atom_site_label
_atom_site_fract_x
_atom_site_fract_y
_atom_site_fract_z
Si Si1 0.623313 0.355386 0.569986
Si Si2 0.686623 0.552555 0.746548
Si Si3 0.919311 0.563006 0.689421
Si Si4 0.390501 0.233161 0.851965
Si Si5 0.307933 0.852783 0.825995
Si Si6 0.838166 0.810581 0.075717
Si Si7 0.368304 0.938647 0.578306
Si Si8 0.270869 0.221328 0.152324
O O1 0.500000 0.500000 0.500000
O O2 0.495139 0.352279 0.442647
O O3 0.786538 0.088808 0.862117
O O4 0.670545 0.526543 0.413807
O O5 0.810309 0.485037 0.758248
O O6 0.678395 0.787680 0.614026
O O7 0.735173 0.326854 0.006878
O O8 0.819890 0.856893 0.417588
O O9 0.988384 0.409866 0.731845
O O10 0.085294 0.467389 0.897436
O O11 0.234535 0.245093 0.822037
O O12 0.515459 0.214376 0.003654
O O13 0.500000 0.000000 0.000000
O O14 0.319462 0.839827 0.722305
O O15 0.721952 0.840936 0.911732
O O16 0.283095 0.008781 0.383758
O O17 0.567077 0.770694 0.768705
#
# Coordination Sequence:
#
# PCOD9079976 Si02
#       8
#     2   2   2   2   2   2   2   2
#     4  11  21  35  61  80 103 142 193 228 271 321
#     4  10  20  35  56  82 112 148 183 225 269 330
#     4   9  20  37  56  76 124 142 178 220 290 313
#     4  11  21  35  61  80 103 142 193 228 271 321
#     4  10  20  35  56  82 112 148 183 225 269 330
#     4  10  19  40  55  83 109 144 177 235 268 320
#     4  10  18  38  60  82 110 146 190 225 268 317
#     4   9  19  36  62  80 112 150 178 229 278 318
#
# _framework density 22.398325
#
# number of rings (size 3 to 8) (size 9 to 14) (size 15 to 20)
#    0.750    1.250    3.750    0.750    0.000    3.000 
#    0.000    8.750    0.000    0.000    0.000    0.000 
#    0.000    0.000    0.000    0.000    0.000    0.000 
#
# Total GULP energy -89206.864735 kJ/mol
# GULP energy per Si atom -5575.429046 kJ/mol
# Density = 2.234735 g / cm^3
# Si number density = 22.398325 Si / 1000 Ang^3
#
#
#
# Elastic Constant Matrix: (Units=GPa)
#
#
# Indices 1 2 3 4 5 6 
#
# 1 143.5811 28.8723 78.6729 -21.5321 -27.2091 -32.8121
# 2 28.8723 35.8330 11.2168 -2.5333 -10.3011 -20.8480
# 3 78.6729 11.2168 132.9495 -11.9845 -17.0315 -2.9815
# 4 -21.5321 -2.5333 -11.9845 32.4012 0.5891 2.4617
# 5 -27.2091 -10.3011 -17.0315 0.5891 47.0910 5.4568
# 6 -32.8121 -20.8480 -2.9815 2.4617 5.4568 34.8452
#
#
#
# Elastic Compliance Matrix: (Units=1/GPa)
#
#
# Indices 1 2 3 4 5 6 
#
# 1 0.016602 -0.001527 -0.008187 0.006827 0.004729 0.012797
# 2 -0.001527 0.045788 -0.001683 -0.000054 0.005636 0.024935
# 3 -0.008187 -0.001683 0.012330 -0.000434 0.000255 -0.007671
# 4 0.006827 -0.000054 -0.000434 0.034921 0.002941 0.003432
# 5 0.004729 0.005636 0.000255 0.002941 0.024822 0.003753
# 6 0.012797 0.024935 -0.007671 0.003432 0.003753 0.054180
#
#
# Mechanical properties :
#
#
# Convention : Reuss Voigt Hill
#
# Bulk Modulus (GPa) = 19.25828 61.09863 40.17845
# Shear Modulus (GPa) = 21.85818 35.77423 28.81621
#
# Velocity S-wave (km/s) = 3.12730 4.00081 3.59072
# Velocity P-wave (km/s) = 4.65369 6.97707 5.93027
#
# Compressibility (1/GPa) = 0.05192572
#
# Stress axis : x y z
#
# Youngs Moduli (GPa) = 60.23273 21.83964 81.10257
#
# Poissons Ratio (x) = 0.03335 0.66401
# Poissons Ratio (y) = 0.09197 0.13651
# Poissons Ratio (z) = 0.49315 0.03676
#
# Static dielectric constant tensor:
#      x y z
#    x 1.735720 -0.079410 -0.065050 
#    y -0.079410 1.893140 -0.031890 
#    z -0.065050 -0.031890 1.798380 
# 
# From -- ./inp_files/358579.got.cif
#   From: 2010.05.17/outbox.cif.g08.bks.cpg/sg2_180_cif.got.tgz:358579.got - 2010.06.03 11:33:40.
