data_PCOD9079666
_publ_section_title
;
Structure prediction by ZEFSAII (Michael W. Deem and Ramdas Pophale) SiO2 
 PCOD9079666
Probable space group: P -1
;
_chemical_formula_sum "Si O2"
_cell_formula_units_Z 16
_cell_length_a 8.801030
_cell_length_b 8.752811
_cell_length_c 18.064353
_cell_angle_alpha 90.852240
_cell_angle_beta 38.850312
_cell_angle_gamma 113.839938
_cell_volume 680.685473
_symmetry_space_group_name_H-M "P -1"
_symmetry_group_IT_number 2
_symmetry_cell_setting 'triclinic'
loop_
_space_group_symop_operation_xyz
x,y,z
-x,-y,-z
loop_
_atom_site_type_symbol
_atom_site_label
_atom_site_fract_x
_atom_site_fract_y
_atom_site_fract_z
Si Si1 0.870206 0.252666 0.356589
Si Si2 0.621384 0.528944 0.061916
Si Si3 0.048096 0.688637 0.506955
Si Si4 0.259117 0.033378 0.345483
Si Si5 0.450353 0.227735 0.001675
Si Si6 0.646812 0.453671 0.213910
Si Si7 0.103254 0.408603 0.720466
Si Si8 0.047708 0.061662 0.698967
O O1 0.778783 0.375328 0.350078
O O2 0.247572 0.401879 0.209644
O O3 0.803390 0.242438 0.468485
O O4 0.794065 0.046044 0.360485
O O5 0.729795 0.725183 0.982495
O O6 0.753265 0.546629 0.092814
O O7 0.634719 0.398865 0.996053
O O8 0.702051 0.619909 0.644312
O O9 0.000000 0.500000 0.500000
O O10 0.253419 0.856427 0.369698
O O11 0.137373 0.012637 0.309118
O O12 0.582858 0.246625 0.236073
O O13 0.000000 0.000000 0.500000
O O14 0.728226 0.260153 0.851361
O O15 0.195803 0.033539 0.141395
O O16 0.824081 0.574668 0.219952
O O17 0.218638 0.293984 0.639908
#
# Coordination Sequence:
#
# PCOD9079666 Si02
#       8
#     2   2   2   2   2   2   2   2
#     4   9  18  37  57  80 112 155 189 226 288 350
#     4   8  15  33  60  78 112 156 192 228 274 347
#     4  10  19  37  65  83 103 152 204 233 280 351
#     4  10  18  37  63  78 106 151 196 236 279 342
#     4   9  17  33  59  86 109 160 198 222 277 353
#     4  10  20  38  55  89 119 143 187 248 292 327
#     4  11  23  34  58  90 123 147 186 246 293 331
#     4  11  19  38  60  84 116 158 199 230 276 356
#
# _framework density 23.505717000000001
#
# number of rings (size 3 to 8) (size 9 to 14) (size 15 to 20)
#    0.000    2.250    5.000    1.875    0.000    0.500 
#    2.250    6.875    0.000    0.000    0.000    0.000 
#    0.000    0.000    0.000    0.000    0.000    0.000 
#
# Total GULP energy -89264.013545 kJ/mol
# GULP energy per Si atom -5579.000847 kJ/mol
# Density = 2.345222 g / cm^3
# Si number density = 23.505717 Si / 1000 Ang^3
#
#
#
# Elastic Constant Matrix: (Units=GPa)
#
#
# Indices 1 2 3 4 5 6 
#
# 1 72.3926 41.8942 28.7272 -0.4061 18.9931 -7.7691
# 2 41.8942 165.4050 28.2311 -3.9252 6.3977 -36.1982
# 3 28.7272 28.2311 55.7169 -1.1337 6.6606 -15.6619
# 4 -0.4061 -3.9252 -1.1337 21.9871 -12.3057 4.0678
# 5 18.9931 6.3977 6.6606 -12.3057 21.8179 -10.8035
# 6 -7.7691 -36.1982 -15.6619 4.0678 -10.8035 36.1427
#
#
#
# Elastic Compliance Matrix: (Units=1/GPa)
#
#
# Indices 1 2 3 4 5 6 
#
# 1 0.034393 -0.009342 -0.013264 -0.023966 -0.045953 -0.018749
# 2 -0.009342 0.010600 0.001389 0.008124 0.015599 0.012958
# 3 -0.013264 0.001389 0.026342 0.006297 0.013178 0.013185
# 4 -0.023966 0.008124 0.006297 0.084383 0.073098 0.018067
# 5 -0.045953 0.015599 0.013178 0.073098 0.140926 0.045353
# 6 -0.018749 0.012958 0.013185 0.018067 0.045353 0.053853
#
#
# Mechanical properties :
#
#
# Convention : Reuss Voigt Hill
#
# Bulk Modulus (GPa) = 34.60085 54.57995 44.59040
# Shear Modulus (GPa) = 12.42039 28.96702 20.69370
#
# Velocity S-wave (km/s) = 2.30119 3.51428 2.97032
# Velocity P-wave (km/s) = 4.67041 6.30374 5.54752
#
# Compressibility (1/GPa) = 0.02890102
#
# Stress axis : x y z
#
# Youngs Moduli (GPa) = 29.07583 94.33771 37.96214
#
# Poissons Ratio (x) = 0.88128 0.50353
# Poissons Ratio (y) = 0.27162 -0.05272
# Poissons Ratio (z) = 0.38566 -0.13101
#
# Static dielectric constant tensor:
#      x y z
#    x 1.886030 -0.073540 -0.032580 
#    y -0.073540 1.939760 -0.005630 
#    z -0.032580 -0.005630 1.920920 
# 
# From -- ./inp_files/180701.got.cif
#   From: 2010.05.17/outbox.cif.g08.bks.cpg/sg2_91_cif.got.tgz:180701.got - 2010.06.03 11:33:40.
