data_PCOD9079762
_publ_section_title
;
Structure prediction by ZEFSAII (Michael W. Deem and Ramdas Pophale) SiO2 
 PCOD9079762
Probable space group: P -1
;
_chemical_formula_sum "Si O2"
_cell_formula_units_Z 16
_cell_length_a 9.904621
_cell_length_b 12.610788
_cell_length_c 10.617953
_cell_angle_alpha 43.228543
_cell_angle_beta 122.371242
_cell_angle_gamma 99.945013
_cell_volume 710.948461
_symmetry_space_group_name_H-M "P -1"
_symmetry_group_IT_number 2
_symmetry_cell_setting 'triclinic'
loop_
_space_group_symop_operation_xyz
x,y,z
-x,-y,-z
loop_
_atom_site_type_symbol
_atom_site_label
_atom_site_fract_x
_atom_site_fract_y
_atom_site_fract_z
Si Si1 0.161261 0.546243 0.594075
Si Si2 0.124334 0.239248 0.215266
Si Si3 0.809322 0.134391 0.791219
Si Si4 0.968679 0.399562 0.250798
Si Si5 0.514210 0.901936 0.396563
Si Si6 0.226255 0.759777 0.049786
Si Si7 0.339967 0.378508 0.492992
Si Si8 0.487361 0.233068 0.958311
O O1 0.185479 0.686555 0.396434
O O2 0.129374 0.618696 0.658036
O O3 0.341035 0.385611 0.824241
O O4 0.000000 0.500000 0.500000
O O5 0.324132 0.116432 0.416381
O O6 0.040668 0.264141 0.293039
O O7 0.124640 0.420237 0.017279
O O8 0.977054 0.204931 0.093047
O O9 0.675181 0.093229 0.669874
O O10 0.753644 0.139353 0.905551
O O11 0.000000 0.000000 0.000000
O O12 0.142431 0.406433 0.387860
O O13 0.590615 0.732455 0.499227
O O14 0.484751 0.062922 0.157516
O O15 0.330143 0.564294 0.302722
O O16 0.313074 0.786298 0.940367
O O17 0.429408 0.276128 0.748059
#
# Coordination Sequence:
#
# PCOD9079762 Si02
#       8
#     2   2   2   2   2   2   2   2
#     4  12  22  39  64  98 129 162 214 267 317 371
#     4   9  21  43  65  89 127 174 205 258 316 382
#     4  12  26  41  64  98 129 164 207 273 322 367
#     4   9  19  37  66  91 124 166 214 252 315 378
#     4  11  24  39  62  96 129 166 213 257 319 373
#     4  11  22  42  67  94 125 166 221 258 315 380
#     4  10  18  37  64  92 122 161 208 267 304 365
#     4  12  22  36  65  97 127 165 212 267 313 370
#
# _framework density 22.505148999999999
#
# number of rings (size 3 to 8) (size 9 to 14) (size 15 to 20)
#    0.000    1.250    3.750    3.750    0.000    1.500 
#    0.000    5.000    0.000    0.000    0.000    0.000 
#    0.000    0.000    0.000    0.000    0.000    0.000 
#
# Total GULP energy -89229.304865 kJ/mol
# GULP energy per Si atom -5576.831554 kJ/mol
# Density = 2.245393 g / cm^3
# Si number density = 22.505149 Si / 1000 Ang^3
#
#
#
# Elastic Constant Matrix: (Units=GPa)
#
#
# Indices 1 2 3 4 5 6 
#
# 1 94.6614 14.6096 39.2775 -2.3162 21.3007 10.2102
# 2 14.6096 42.9363 27.9595 5.5851 11.5355 7.0047
# 3 39.2775 27.9595 100.5031 -1.8993 27.3309 23.2674
# 4 -2.3162 5.5851 -1.8993 32.2358 2.4182 4.1376
# 5 21.3007 11.5355 27.3309 2.4182 34.7420 5.1943
# 6 10.2102 7.0047 23.2674 4.1376 5.1943 43.2261
#
#
#
# Elastic Compliance Matrix: (Units=1/GPa)
#
#
# Indices 1 2 3 4 5 6 
#
# 1 0.013398 -0.001056 -0.003325 0.001434 -0.005241 -0.000711
# 2 -0.001056 0.029867 -0.007142 -0.005446 -0.003297 0.000171
# 3 -0.003325 -0.007142 0.017079 0.003472 -0.008283 -0.006588
# 4 0.001434 -0.005446 0.003472 0.033057 -0.003495 -0.004069
# 5 -0.005241 -0.003297 -0.008283 -0.003495 0.039581 0.001809
# 6 -0.000711 0.000171 -0.006588 -0.004069 0.001809 0.026992
#
#
# Mechanical properties :
#
#
# Convention : Reuss Voigt Hill
#
# Bulk Modulus (GPa) = 26.81113 44.64380 35.72747
# Shear Modulus (GPa) = 25.58159 32.45772 29.01965
#
# Velocity S-wave (km/s) = 3.37515 3.80180 3.59481
# Velocity P-wave (km/s) = 5.20846 6.25714 5.75673
#
# Compressibility (1/GPa) = 0.03729794
#
# Stress axis : x y z
#
# Youngs Moduli (GPa) = 74.63883 33.48204 58.54985
#
# Poissons Ratio (x) = 0.03535 0.19469
# Poissons Ratio (y) = 0.07881 0.41817
# Poissons Ratio (z) = 0.24819 0.23913
#
# Static dielectric constant tensor:
#      x y z
#    x 1.910070 0.026100 0.065400 
#    y 0.026100 1.874630 0.061000 
#    z 0.065400 0.061000 1.852590 
# 
# From -- ./inp_files/396978.got.cif
#   From: 2010.05.17/outbox.cif.g08.bks.cpg/sg2_199_cif.got.tgz:396978.got - 2010.06.03 11:33:40.
