data_PCOD9079798
_publ_section_title
;
Structure prediction by ZEFSAII (Michael W. Deem and Ramdas Pophale) SiO2 
 PCOD9079798
Probable space group: P -1
;
_chemical_formula_sum "Si O2"
_cell_formula_units_Z 16
_cell_length_a 9.005942
_cell_length_b 15.474394
_cell_length_c 18.828464
_cell_angle_alpha 40.033190
_cell_angle_beta 143.483627
_cell_angle_gamma 149.565473
_cell_volume 767.563847
_symmetry_space_group_name_H-M "P -1"
_symmetry_group_IT_number 2
_symmetry_cell_setting 'triclinic'
loop_
_space_group_symop_operation_xyz
x,y,z
-x,-y,-z
loop_
_atom_site_type_symbol
_atom_site_label
_atom_site_fract_x
_atom_site_fract_y
_atom_site_fract_z
Si Si1 0.822113 0.534884 0.464831
Si Si2 0.440245 0.362167 0.814874
Si Si3 0.638446 0.657389 0.046068
Si Si4 0.717453 0.175590 0.426459
Si Si5 0.135002 0.717563 0.835172
Si Si6 0.899970 0.815050 0.557172
Si Si7 0.338344 0.276217 0.139881
Si Si8 0.686405 0.147246 0.038104
O O1 0.741837 0.639504 0.321514
O O2 0.484034 0.351181 0.477208
O O3 0.000000 0.500000 0.500000
O O4 0.065246 0.655157 0.545825
O O5 0.244032 0.297582 0.855006
O O6 0.773880 0.564200 0.823940
O O7 0.571110 0.259907 0.912933
O O8 0.599871 0.488560 0.114670
O O9 0.310112 0.635410 0.940811
O O10 0.789582 0.775898 0.958213
O O11 0.489700 0.191667 0.280142
O O12 0.963810 0.174981 0.473571
O O13 0.500000 0.000000 0.500000
O O14 0.338856 0.873806 0.872917
O O15 0.082912 0.779400 0.704576
O O16 0.000000 0.000000 0.500000
O O17 0.052314 0.232015 0.106788
O O18 0.500000 0.000000 0.000000
#
# Coordination Sequence:
#
# PCOD9079798 Si02
#       8
#     2   2   2   2   2   2   2   2
#     4  11  25  44  71 104 136 183 234 285 343 413
#     4  10  20  40  66  91 130 168 220 265 341 399
#     4  10  18  37  65  95 121 163 213 273 326 400
#     4  12  27  45  69 101 142 187 233 284 341 416
#     4  10  19  41  63  90 128 168 218 265 339 404
#     4  11  25  45  69  97 136 186 233 285 344 406
#     4  11  22  38  67  98 130 166 226 270 346 395
#     4  11  23  37  62  96 126 168 212 277 332 397
#
# _framework density 20.845171000000001
#
# number of rings (size 3 to 8) (size 9 to 14) (size 15 to 20)
#    0.000    1.250    3.750    2.625    5.250    0.000 
#    0.000    8.750    0.000    0.000    0.000    0.000 
#    0.000    0.000    0.000    0.000    0.000    0.000 
#
# Total GULP energy -89242.994080 kJ/mol
# GULP energy per Si atom -5577.687130 kJ/mol
# Density = 2.079773 g / cm^3
# Si number density = 20.845171 Si / 1000 Ang^3
#
#
#
# Elastic Constant Matrix: (Units=GPa)
#
#
# Indices 1 2 3 4 5 6 
#
# 1 143.1710 33.7219 16.8890 -9.5881 -12.0202 -3.8374
# 2 33.7219 72.3491 20.9021 -5.9811 -14.7407 -14.6305
# 3 16.8890 20.9021 60.4083 -16.1382 -4.7529 13.3524
# 4 -9.5881 -5.9811 -16.1382 18.8808 -2.1551 -2.2865
# 5 -12.0202 -14.7407 -4.7529 -2.1551 28.7416 2.3549
# 6 -3.8374 -14.6305 13.3524 -2.2865 2.3549 29.9694
#
#
#
# Elastic Compliance Matrix: (Units=1/GPa)
#
#
# Indices 1 2 3 4 5 6 
#
# 1 0.008115 -0.003159 -0.000060 0.003255 0.002040 -0.000388
# 2 -0.003159 0.022383 -0.009392 0.000019 0.007450 0.014123
# 3 -0.000060 -0.009392 0.029000 0.020139 0.002791 -0.016196
# 4 0.003255 0.000019 0.020139 0.072566 0.010457 -0.003832
# 5 0.002040 0.007450 0.002791 0.010457 0.040691 0.000255
# 6 -0.000388 0.014123 -0.016196 -0.003832 0.000255 0.047116
#
#
# Mechanical properties :
#
#
# Convention : Reuss Voigt Hill
#
# Bulk Modulus (GPa) = 29.17475 46.55049 37.86262
# Shear Modulus (GPa) = 19.49183 29.14607 24.31895
#
# Velocity S-wave (km/s) = 3.06122 3.74333 3.41933
# Velocity P-wave (km/s) = 5.14986 6.40807 5.81311
#
# Compressibility (1/GPa) = 0.03427621
#
# Stress axis : x y z
#
# Youngs Moduli (GPa) = 123.23596 44.67670 34.48246
#
# Poissons Ratio (x) = 0.14112 0.00207
# Poissons Ratio (y) = 0.38927 0.32386
# Poissons Ratio (z) = 0.00738 0.41961
#
# Static dielectric constant tensor:
#      x y z
#    x 1.675550 0.024200 -0.021680 
#    y 0.024200 1.791890 0.017190 
#    z -0.021680 0.017190 1.777620 
# 
# From -- ./inp_files/299270.got.cif
#   From: 2010.05.17/outbox.cif.g08.bks.cpg/sg2_150_cif.got.tgz:299270.got - 2010.06.03 11:33:40.
