data_PCOD9079862
_publ_section_title
;
Structure prediction by ZEFSAII (Michael W. Deem and Ramdas Pophale) SiO2 
 PCOD9079862
Probable space group: P -1
;
_chemical_formula_sum "Si O2"
_cell_formula_units_Z 16
_cell_length_a 12.163465
_cell_length_b 9.442523
_cell_length_c 8.464458
_cell_angle_alpha 100.298544
_cell_angle_beta 121.158962
_cell_angle_gamma 59.222212
_cell_volume 709.849324
_symmetry_space_group_name_H-M "P -1"
_symmetry_group_IT_number 2
_symmetry_cell_setting 'triclinic'
loop_
_space_group_symop_operation_xyz
x,y,z
-x,-y,-z
loop_
_atom_site_type_symbol
_atom_site_label
_atom_site_fract_x
_atom_site_fract_y
_atom_site_fract_z
Si Si1 0.137620 0.173275 0.151494
Si Si2 0.617601 0.832401 0.462742
Si Si3 0.690941 0.228473 0.187987
Si Si4 0.337342 0.626720 0.463712
Si Si5 0.011718 0.062913 0.298613
Si Si6 0.233699 0.101570 0.691089
Si Si7 0.640340 0.213559 0.798300
Si Si8 0.022636 0.710299 0.244829
O O1 0.230458 0.231848 0.340407
O O2 0.021213 0.143219 0.158981
O O3 0.257454 0.986838 0.145463
O O4 0.049794 0.300498 0.973714
O O5 0.655086 0.865874 0.321312
O O6 0.527358 0.736392 0.360501
O O7 0.500000 0.000000 0.500000
O O8 0.634429 0.320916 0.330882
O O9 0.861599 0.185218 0.301139
O O10 0.685269 0.057248 0.166822
O O11 0.636479 0.293041 0.982220
O O12 0.500000 0.500000 0.500000
O O13 0.291686 0.749505 0.299601
O O14 0.198534 0.593990 0.371292
O O15 0.152064 0.041320 0.494276
O O16 0.008228 0.893409 0.258975
O O17 0.098014 0.261468 0.705000
#
# Coordination Sequence:
#
# PCOD9079862 Si02
#       8
#     2   2   2   2   2   2   2   2
#     4  10  17  30  55  87 114 143 172 226 280 335
#     4   9  20  33  48  83 123 146 172 214 279 346
#     4  11  19  33  57  84 109 148 178 224 285 332
#     4  12  25  39  56  81 114 146 187 238 275 324
#     4  10  15  27  53  81 114 136 172 226 282 330
#     4  10  17  30  54  84 114 138 175 222 279 333
#     4  11  21  37  55  80 118 152 178 220 281 332
#     4  11  17  31  54  85 109 138 181 225 283 325
#
# _framework density 22.539995000000001
#
# number of rings (size 3 to 8) (size 9 to 14) (size 15 to 20)
#    0.000    1.500    6.250    3.375    0.000    1.000 
#    2.250    0.000    0.000    1.500    0.000    0.000 
#    0.000    0.000    0.000    0.000    0.000    0.000 
#
# Total GULP energy -89163.970858 kJ/mol
# GULP energy per Si atom -5572.748179 kJ/mol
# Density = 2.248869 g / cm^3
# Si number density = 22.539995 Si / 1000 Ang^3
#
#
#
# Elastic Constant Matrix: (Units=GPa)
#
#
# Indices 1 2 3 4 5 6 
#
# 1 144.9229 31.0664 19.5909 12.6008 -16.5355 -37.9418
# 2 31.0664 55.0674 23.4417 1.4049 -6.4014 -30.4687
# 3 19.5909 23.4417 94.0651 10.2831 -21.0263 -12.5580
# 4 12.6008 1.4049 10.2831 19.4441 -14.8459 -1.1372
# 5 -16.5355 -6.4014 -21.0263 -14.8459 34.5125 5.8038
# 6 -37.9418 -30.4687 -12.5580 -1.1372 5.8038 38.7249
#
#
#
# Elastic Compliance Matrix: (Units=1/GPa)
#
#
# Indices 1 2 3 4 5 6 
#
# 1 0.009928 -0.000248 0.000002 -0.005160 0.000938 0.009240
# 2 -0.000248 0.034499 -0.005487 0.001558 -0.000641 0.025263
# 3 0.000002 -0.005487 0.013545 -0.001751 0.006645 -0.000970
# 4 -0.005160 0.001558 -0.001751 0.079794 0.032232 -0.006886
# 5 0.000938 -0.000641 0.006645 0.032232 0.047833 -0.003653
# 6 0.009240 0.025263 -0.000970 -0.006886 -0.003653 0.054784
#
#
# Mechanical properties :
#
#
# Convention : Reuss Voigt Hill
#
# Bulk Modulus (GPa) = 21.50268 49.13926 35.32097
# Shear Modulus (GPa) = 18.70188 33.20005 25.95097
#
# Velocity S-wave (km/s) = 2.88361 3.84205 3.39681
# Velocity P-wave (km/s) = 4.54395 6.44438 5.57573
#
# Compressibility (1/GPa) = 0.04650583
#
# Stress axis : x y z
#
# Youngs Moduli (GPa) = 100.72383 28.98638 73.82681
#
# Poissons Ratio (x) = 0.00719 -0.00011
# Poissons Ratio (y) = 0.02500 0.40505
# Poissons Ratio (z) = -0.00015 0.15904
#
# Static dielectric constant tensor:
#      x y z
#    x 1.854240 0.005920 -0.038280 
#    y 0.005920 1.916760 -0.042470 
#    z -0.038280 -0.042470 1.929180 
# 
# From -- ./inp_files/260015.got.cif
#   From: 2010.05.17/outbox.cif.g08.bks.cpg/sg2_131_cif.got.tgz:260015.got - 2010.06.03 11:33:40.
