data_PCOD9079373
_publ_section_title
;
Structure prediction by ZEFSAII (Michael W. Deem and Ramdas Pophale) SiO2 
 PCOD9079373
Probable space group: P -1
;
_chemical_formula_sum "Si O2"
_cell_formula_units_Z 16
_cell_length_a 12.164303
_cell_length_b 18.712203
_cell_length_c 12.538455
_cell_angle_alpha 143.434305
_cell_angle_beta 132.253781
_cell_angle_gamma 29.486556
_cell_volume 833.419136
_symmetry_space_group_name_H-M "P -1"
_symmetry_group_IT_number 2
_symmetry_cell_setting 'triclinic'
loop_
_space_group_symop_operation_xyz
x,y,z
-x,-y,-z
loop_
_atom_site_type_symbol
_atom_site_label
_atom_site_fract_x
_atom_site_fract_y
_atom_site_fract_z
Si Si1 0.390637 0.575239 0.402705
Si Si2 0.189158 0.943352 0.630679
Si Si3 0.568928 0.058448 0.401343
Si Si4 0.002923 0.705114 0.992685
Si Si5 0.665394 0.405914 0.168480
Si Si6 0.905085 0.689593 0.689587
Si Si7 0.488986 0.669692 0.190992
Si Si8 0.979876 0.653892 0.162188
O O1 0.500000 0.500000 0.500000
O O2 0.305538 0.762782 0.550543
O O3 0.567415 0.441252 0.262757
O O4 0.185901 0.605936 0.287489
O O5 0.353278 0.918201 0.628292
O O6 0.000000 0.000000 0.500000
O O7 0.065655 0.113489 0.831017
O O8 0.323815 0.154642 0.335812
O O9 0.554182 0.167640 0.614093
O O10 0.752496 0.847299 0.292834
O O11 0.965674 0.686435 0.065702
O O12 0.258400 0.512944 0.902344
O O13 0.863125 0.728045 0.834885
O O14 0.489855 0.597826 0.218478
O O15 0.900347 0.333064 0.238277
O O16 0.670381 0.288123 0.952799
O O17 0.000000 0.500000 0.500000
O O18 0.000000 0.500000 0.000000
#
# Coordination Sequence:
#
# PCOD9079373 Si02
#       8
#     2   2   2   2   2   2   2   2
#     4  12  24  42  68  96 136 173 217 278 329 391
#     4  11  20  39  68 100 123 166 236 263 317 389
#     4  11  22  39  69  98 128 168 222 278 323 390
#     4  10  21  37  69  92 129 167 220 275 318 383
#     4  10  20  35  65  98 127 168 212 275 329 381
#     4  11  21  35  62 103 134 155 213 284 333 375
#     4  10  18  36  70  96 120 164 229 271 319 379
#     4  11  26  44  61  89 135 180 221 256 336 402
#
# _framework density 19.198022999999999
#
# number of rings (size 3 to 8) (size 9 to 14) (size 15 to 20)
#    0.000    1.250    7.500    0.000    3.500    5.000 
#    0.000    0.625    0.000    6.000    0.000    0.000 
#    0.000    0.000    0.000    0.000    0.000    0.000 
#
# Total GULP energy -89295.112509 kJ/mol
# GULP energy per Si atom -5580.944532 kJ/mol
# Density = 1.915433 g / cm^3
# Si number density = 19.198023 Si / 1000 Ang^3
#
#
#
# Elastic Constant Matrix: (Units=GPa)
#
#
# Indices 1 2 3 4 5 6 
#
# 1 58.9596 54.9172 45.8483 -5.5105 3.9793 -7.8938
# 2 54.9172 110.4101 79.5123 -7.0460 12.8643 -10.9149
# 3 45.8483 79.5123 186.1987 -1.1525 5.8527 -4.8317
# 4 -5.5105 -7.0460 -1.1525 40.8151 3.0018 2.9116
# 5 3.9793 12.8643 5.8527 3.0018 34.3995 -3.1731
# 6 -7.8938 -10.9149 -4.8317 2.9116 -3.1731 36.6313
#
#
#
# Elastic Compliance Matrix: (Units=1/GPa)
#
#
# Indices 1 2 3 4 5 6 
#
# 1 0.032370 -0.014856 -0.001624 0.001427 0.002185 0.002410
# 2 -0.014856 0.021016 -0.005094 0.001737 -0.005260 0.001795
# 3 -0.001624 -0.005094 0.007898 -0.000882 0.000762 -0.000690
# 4 0.001427 0.001737 -0.000882 0.025302 -0.003017 -0.001564
# 5 0.002185 -0.005260 0.000762 -0.003017 0.031097 0.001938
# 6 0.002410 0.001795 -0.000690 -0.001564 0.001938 0.028555
#
#
# Mechanical properties :
#
#
# Convention : Reuss Voigt Hill
#
# Bulk Modulus (GPa) = 55.13737 79.56934 67.35336
# Shear Modulus (GPa) = 25.58455 34.05521 29.81988
#
# Velocity S-wave (km/s) = 3.65453 4.21633 3.94544
# Velocity P-wave (km/s) = 6.82570 8.07712 7.47763
#
# Compressibility (1/GPa) = 0.01813652
#
# Stress axis : x y z
#
# Youngs Moduli (GPa) = 30.89289 47.58271 126.61068
#
# Poissons Ratio (x) = 0.70691 0.20558
# Poissons Ratio (y) = 0.45896 0.64491
# Poissons Ratio (z) = 0.05016 0.24237
#
# Static dielectric constant tensor:
#      x y z
#    x 1.712500 -0.016440 -0.003660 
#    y -0.016440 1.671490 0.011180 
#    z -0.003660 0.011180 1.694640 
# 
# From -- ./inp_files/437026.got.cif
#   From: 2010.05.17/outbox.cif.g08.bks.cpg/sg2_219_cif.got.tgz:437026.got - 2010.06.03 11:33:40.
