data_PCOD9079187
_publ_section_title
;
Structure prediction by ZEFSAII (Michael W. Deem and Ramdas Pophale) SiO2 
 PCOD9079187
Probable space group: P -1
;
_chemical_formula_sum "Si O2"
_cell_formula_units_Z 16
_cell_length_a 18.549984
_cell_length_b 7.845773
_cell_length_c 19.123834
_cell_angle_alpha 47.368480
_cell_angle_beta 158.826894
_cell_angle_gamma 132.549835
_cell_volume 729.082546
_symmetry_space_group_name_H-M "P -1"
_symmetry_group_IT_number 2
_symmetry_cell_setting 'triclinic'
loop_
_space_group_symop_operation_xyz
x,y,z
-x,-y,-z
loop_
_atom_site_type_symbol
_atom_site_label
_atom_site_fract_x
_atom_site_fract_y
_atom_site_fract_z
Si Si1 0.065386 0.836172 0.163929
Si Si2 0.538231 0.057729 0.821654
Si Si3 0.098448 0.878012 0.502439
Si Si4 0.613230 0.208345 0.437562
Si Si5 0.265128 0.263875 0.015275
Si Si6 0.366579 0.287295 0.479256
Si Si7 0.967474 0.294229 0.196628
Si Si8 0.977782 0.465563 0.606975
O O1 0.299177 0.825896 0.396146
O O2 0.975618 0.564689 0.145969
O O3 0.943922 0.900839 0.104481
O O4 0.000000 0.000000 0.000000
O O5 0.464372 0.257195 0.651787
O O6 0.340414 0.928254 0.718549
O O7 0.606672 0.864097 0.886469
O O8 0.739564 0.173852 0.009512
O O9 0.989936 0.712029 0.510467
O O10 0.046570 0.733469 0.421983
O O11 0.036845 0.131097 0.365209
O O12 0.405404 0.292089 0.203967
O O13 0.785734 0.392180 0.503461
O O14 0.612689 0.951444 0.475689
O O15 0.178631 0.459143 0.837042
O O16 0.500000 0.500000 0.500000
O O17 0.132170 0.297299 0.281775
#
# Coordination Sequence:
#
# PCOD9079187 Si02
#       8
#     2   2   2   2   2   2   2   2
#     4  11  27  40  59  85 120 170 203 245 297 360
#     4  10  20  37  61  90 119 154 199 252 300 355
#     4  10  20  35  64  97 121 150 198 255 304 357
#     4  10  21  43  60  88 127 156 204 249 301 359
#     4  10  20  39  59  86 122 156 197 245 294 360
#     4  10  22  37  62  88 114 159 201 258 305 348
#     4  11  22  41  57  87 127 154 203 251 295 357
#     4  10  18  36  63  98 120 151 196 251 313 353
#
# _framework density 21.94539
#
# number of rings (size 3 to 8) (size 9 to 14) (size 15 to 20)
#    0.000    1.750    5.000    0.750    5.250    4.500 
#    0.000    2.500    0.000    4.500    0.000    0.000 
#    0.000    0.000    0.000    0.000    0.000    0.000 
#
# Total GULP energy -89209.939007 kJ/mol
# GULP energy per Si atom -5575.621188 kJ/mol
# Density = 2.189544 g / cm^3
# Si number density = 21.945390 Si / 1000 Ang^3
#
#
#
# Elastic Constant Matrix: (Units=GPa)
#
#
# Indices 1 2 3 4 5 6 
#
# 1 33.1516 30.6473 20.6728 -6.4892 -0.0437 19.6917
# 2 30.6473 120.6440 44.7046 -16.3059 3.9195 29.4668
# 3 20.6728 44.7046 152.7821 6.9989 -3.8286 4.6064
# 4 -6.4892 -16.3059 6.9989 32.1737 7.4126 -1.6922
# 5 -0.0437 3.9195 -3.8286 7.4126 31.3768 -3.3139
# 6 19.6917 29.4668 4.6064 -1.6922 -3.3139 31.9564
#
#
#
# Elastic Compliance Matrix: (Units=1/GPa)
#
#
# Indices 1 2 3 4 5 6 
#
# 1 0.058658 -0.002447 -0.006943 0.011924 -0.006758 -0.032957
# 2 -0.002447 0.014546 -0.004105 0.008443 -0.005524 -0.011439
# 3 -0.006943 -0.004105 0.008842 -0.005896 0.003700 0.006861
# 4 0.011924 0.008443 -0.005896 0.041322 -0.012939 -0.013437
# 5 -0.006758 -0.005524 0.003700 -0.012939 0.037317 0.011909
# 6 -0.032957 -0.011439 0.006861 -0.013437 0.011909 0.061683
#
#
# Mechanical properties :
#
#
# Convention : Reuss Voigt Hill
#
# Bulk Modulus (GPa) = 18.16372 55.40301 36.78336
# Shear Modulus (GPa) = 18.67682 33.13825 25.90753
#
# Velocity S-wave (km/s) = 2.92046 3.89013 3.43963
# Velocity P-wave (km/s) = 4.43473 6.74375 5.70723
#
# Compressibility (1/GPa) = 0.05505480
#
# Stress axis : x y z
#
# Youngs Moduli (GPa) = 17.04805 68.74570 113.09783
#
# Poissons Ratio (x) = 0.16825 0.78521
# Poissons Ratio (y) = 0.04172 0.46432
# Poissons Ratio (z) = 0.11836 0.28223
#
# Static dielectric constant tensor:
#      x y z
#    x 1.878620 -0.056410 -0.017740 
#    y -0.056410 1.789960 0.018900 
#    z -0.017740 0.018900 1.882840 
# 
# From -- ./inp_files/506938.got.cif
#   From: 2010.05.17/outbox.cif.g08.bks.cpg/sg2_254_cif.got.tgz:506938.got - 2010.06.03 11:33:40.
