data_PCOD9079227
_publ_section_title
;
Structure prediction by ZEFSAII (Michael W. Deem and Ramdas Pophale) SiO2 
 PCOD9079227
Probable space group: P -1
;
_chemical_formula_sum "Si O2"
_cell_formula_units_Z 15
_cell_length_a 15.186695
_cell_length_b 17.070859
_cell_length_c 6.978819
_cell_angle_alpha 126.096711
_cell_angle_beta 54.929659
_cell_angle_gamma 154.841009
_cell_volume 616.996556
_symmetry_space_group_name_H-M "P -1"
_symmetry_group_IT_number 2
_symmetry_cell_setting 'triclinic'
loop_
_space_group_symop_operation_xyz
x,y,z
-x,-y,-z
loop_
_atom_site_type_symbol
_atom_site_label
_atom_site_fract_x
_atom_site_fract_y
_atom_site_fract_z
Si Si1 0.000000 0.500000 0.000000
Si Si2 0.949774 0.152331 0.473241
Si Si3 0.144695 0.691829 0.699536
Si Si4 0.524588 0.863499 0.402590
Si Si5 0.035492 0.011633 0.245271
Si Si6 0.310764 0.570017 0.566072
Si Si7 0.060348 0.270350 0.947307
Si Si8 0.510197 0.694878 0.880526
O O1 0.106395 0.646449 0.905780
O O2 0.161593 0.535492 0.798651
O O3 0.162488 0.362953 0.429623
O O4 0.961807 0.177682 0.724888
O O5 0.934846 0.024659 0.282092
O O6 0.749601 0.049148 0.483327
O O7 0.378866 0.845196 0.570841
O O8 0.000000 0.500000 0.500000
O O9 0.061127 0.733010 0.813770
O O10 0.408354 0.692696 0.433303
O O11 0.529192 0.817440 0.122503
O O12 0.958686 0.842662 0.072133
O O13 0.000000 0.000000 0.500000
O O14 0.283443 0.203623 0.177396
O O15 0.488176 0.683669 0.663185
O O16 0.298951 0.483608 0.916865
#
# Coordination Sequence:
#
# PCOD9079227 Si02
#       8
#     1   2   2   2   2   2   2   2
#     4  10  18  36  64  92 124 170 202 262 316 374
#     4  10  22  42  60  97 131 168 222 271 317 381
#     4  11  20  41  67  97 133 168 214 265 321 393
#     4  11  24  39  68  99 131 170 215 267 327 390
#     4  10  23  41  67  94 130 172 220 273 315 382
#     4  10  21  40  64  91 132 168 215 265 324 379
#     4  10  21  42  67  97 132 173 215 265 326 385
#     4  11  22  43  66  94 130 173 219 261 329 386
#
# _framework density 24.311319999999998
#
# number of rings (size 3 to 8) (size 9 to 14) (size 15 to 20)
#    0.000    1.600    4.000    1.600    0.000    8.000 
#    2.400    2.000    0.000    0.000    0.000    0.000 
#    0.000    0.000    0.000    0.000    0.000    0.000 
#
# Total GULP energy -83778.116699 kJ/mol
# GULP energy per Si atom -5585.207780 kJ/mol
# Density = 2.425599 g / cm^3
# Si number density = 24.311320 Si / 1000 Ang^3
#
#
#
# Elastic Constant Matrix: (Units=GPa)
#
#
# Indices 1 2 3 4 5 6 
#
# 1 63.4321 30.4341 28.1298 -9.6027 -3.4217 -10.5382
# 2 30.4341 107.1712 35.7528 -4.9955 5.0691 6.5789
# 3 28.1298 35.7528 85.5759 0.3589 -11.1227 13.4859
# 4 -9.6027 -4.9955 0.3589 30.2927 7.0276 -3.6457
# 5 -3.4217 5.0691 -11.1227 7.0276 41.7665 -0.4150
# 6 -10.5382 6.5789 13.4859 -3.6457 -0.4150 44.2745
#
#
#
# Elastic Compliance Matrix: (Units=1/GPa)
#
#
# Indices 1 2 3 4 5 6 
#
# 1 0.024075 -0.004419 -0.007695 0.008323 -0.000848 0.009408
# 2 -0.004419 0.012139 -0.003761 0.001155 -0.003048 -0.001644
# 3 -0.007695 -0.003761 0.017611 -0.005354 0.005347 -0.007028
# 4 0.008323 0.001155 -0.005354 0.038378 -0.007277 0.006532
# 5 -0.000848 -0.003048 0.005347 -0.007277 0.026874 -0.001725
# 6 0.009408 -0.001644 -0.007028 0.006532 -0.001725 0.027732
#
#
# Mechanical properties :
#
#
# Convention : Reuss Voigt Hill
#
# Bulk Modulus (GPa) = 45.30009 49.42362 47.36186
# Shear Modulus (GPa) = 26.89344 34.05758 30.47551
#
# Velocity S-wave (km/s) = 3.32958 3.74691 3.54439
# Velocity P-wave (km/s) = 5.78405 6.25242 6.02279
#
# Compressibility (1/GPa) = 0.02207501
#
# Stress axis : x y z
#
# Youngs Moduli (GPa) = 41.53697 82.37676 56.78171
#
# Poissons Ratio (x) = 0.36403 0.43694
# Poissons Ratio (y) = 0.18356 0.21356
# Poissons Ratio (z) = 0.31963 0.30982
#
# Static dielectric constant tensor:
#      x y z
#    x 1.969530 -0.007460 0.029560 
#    y -0.007460 1.902540 0.028500 
#    z 0.029560 0.028500 1.965980 
# 
# From -- ./inp_files/337889.got.cif
#   From: 2010.05.17/outbox.cif.g08.bks.cpg/sg2_169_cif.got.tgz:337889.got - 2010.06.03 11:33:40.
