data_PCOD9079327
_publ_section_title
;
Structure prediction by ZEFSAII (Michael W. Deem and Ramdas Pophale) SiO2 
 PCOD9079327
Probable space group: P -1
;
_chemical_formula_sum "Si O2"
_cell_formula_units_Z 16
_cell_length_a 15.279418
_cell_length_b 10.109240
_cell_length_c 8.813628
_cell_angle_alpha 77.298486
_cell_angle_beta 32.829289
_cell_angle_gamma 64.522828
_cell_volume 637.798003
_symmetry_space_group_name_H-M "P -1"
_symmetry_group_IT_number 2
_symmetry_cell_setting 'triclinic'
loop_
_space_group_symop_operation_xyz
x,y,z
-x,-y,-z
loop_
_atom_site_type_symbol
_atom_site_label
_atom_site_fract_x
_atom_site_fract_y
_atom_site_fract_z
Si Si1 0.904480 0.186882 0.968514
Si Si2 0.337217 0.953490 0.651349
Si Si3 0.614899 0.459514 0.136586
Si Si4 0.457108 0.904013 0.820965
Si Si5 0.804715 0.451430 0.269185
Si Si6 0.673893 0.599677 0.722808
Si Si7 0.257552 0.322730 0.933729
Si Si8 0.791819 0.822373 0.683405
O O1 0.828301 0.070979 0.161618
O O2 0.736544 0.294509 0.072431
O O3 0.916650 0.290210 0.062465
O O4 0.073972 0.139456 0.621474
O O5 0.330262 0.965654 0.840832
O O6 0.537364 0.812928 0.358071
O O7 0.360272 0.089180 0.502469
O O8 0.404423 0.517107 0.465667
O O9 0.706157 0.553808 0.059587
O O10 0.625016 0.503766 0.937798
O O11 0.507294 0.732313 0.837008
O O12 0.369221 0.017447 0.061562
O O13 0.805601 0.480492 0.438333
O O14 0.824889 0.589327 0.123442
O O15 0.743799 0.707206 0.683406
O O16 0.145949 0.268359 0.222707
#
# Coordination Sequence:
#
# PCOD9079327 Si02
#       8
#     2   2   2   2   2   2   2   2
#     4  11  21  39  61  91 120 148 198 239 305 345
#     4  10  18  36  67  87 106 153 205 253 269 344
#     4  10  19  33  61  92 115 146 191 252 293 339
#     4  10  21  39  64  86 112 155 208 238 285 342
#     4  11  19  34  63  88 117 152 195 247 286 354
#     4  11  22  37  59  89 122 154 196 239 296 347
#     4   9  16  34  57  86 110 145 198 230 289 333
#     4  10  24  37  56  90 121 161 186 243 294 346
#
# _framework density 25.086313000000001
#
# number of rings (size 3 to 8) (size 9 to 14) (size 15 to 20)
#    0.000    1.750    3.750    1.500    0.000    5.500 
#    0.000    0.625    0.000    0.000    0.000    0.000 
#    0.000    0.000    0.000    0.000    0.000    0.000 
#
# Total GULP energy -89405.407358 kJ/mol
# GULP energy per Si atom -5587.837960 kJ/mol
# Density = 2.502922 g / cm^3
# Si number density = 25.086313 Si / 1000 Ang^3
#
#
#
# Elastic Constant Matrix: (Units=GPa)
#
#
# Indices 1 2 3 4 5 6 
#
# 1 54.2029 20.2589 39.6721 12.5931 20.1407 1.9256
# 2 20.2589 95.5665 43.7972 -17.8888 11.7966 22.9907
# 3 39.6721 43.7972 154.9081 -11.2680 28.3074 13.1560
# 4 12.5931 -17.8888 -11.2680 36.0636 0.0367 8.0393
# 5 20.1407 11.7966 28.3074 0.0367 46.0690 -4.1372
# 6 1.9256 22.9907 13.1560 8.0393 -4.1372 34.5678
#
#
#
# Elastic Compliance Matrix: (Units=1/GPa)
#
#
# Indices 1 2 3 4 5 6 
#
# 1 0.035120 -0.010238 -0.007461 -0.022351 -0.007049 0.012047
# 2 -0.010238 0.020366 0.000042 0.017561 -0.002338 -0.017355
# 3 -0.007461 0.000042 0.009928 0.006936 -0.003340 -0.005404
# 4 -0.022351 0.017561 0.006936 0.052062 -0.001304 -0.025338
# 5 -0.007049 -0.002338 -0.003340 -0.001304 0.028058 0.006880
# 6 0.012047 -0.017355 -0.005404 -0.025338 0.006880 0.048573
#
#
# Mechanical properties :
#
#
# Convention : Reuss Voigt Hill
#
# Bulk Modulus (GPa) = 33.22042 56.90375 45.06208
# Shear Modulus (GPa) = 20.88090 36.73671 28.80881
#
# Velocity S-wave (km/s) = 2.88820 3.83092 3.39246
# Velocity P-wave (km/s) = 4.93897 6.50387 5.77468
#
# Compressibility (1/GPa) = 0.03010197
#
# Stress axis : x y z
#
# Youngs Moduli (GPa) = 28.47341 49.10233 100.72477
#
# Poissons Ratio (x) = 0.50270 0.75148
# Poissons Ratio (y) = 0.29150 -0.00427
# Poissons Ratio (z) = 0.21243 -0.00208
#
# Static dielectric constant tensor:
#      x y z
#    x 2.109900 -0.011620 -0.006090 
#    y -0.011620 2.055110 -0.030110 
#    z -0.006090 -0.030110 1.939620 
# 
# From -- ./inp_files/333188.got.cif
#   From: 2010.05.17/outbox.cif.g08.bks.cpg/sg2_167_cif.got.tgz:333188.got - 2010.06.03 11:33:40.
