data_PCOD9079306
_publ_section_title
;
Structure prediction by ZEFSAII (Michael W. Deem and Ramdas Pophale) SiO2 
 PCOD9079306
Probable space group: P -1
;
_chemical_formula_sum "Si O2"
_cell_formula_units_Z 16
_cell_length_a 19.902794
_cell_length_b 15.155325
_cell_length_c 10.563088
_cell_angle_alpha 50.323530
_cell_angle_beta 32.958184
_cell_angle_gamma 29.486186
_cell_volume 801.326713
_symmetry_space_group_name_H-M "P -1"
_symmetry_group_IT_number 2
_symmetry_cell_setting 'triclinic'
loop_
_space_group_symop_operation_xyz
x,y,z
-x,-y,-z
loop_
_atom_site_type_symbol
_atom_site_label
_atom_site_fract_x
_atom_site_fract_y
_atom_site_fract_z
Si Si1 0.114799 0.425330 0.022312
Si Si2 0.133541 0.051177 0.819002
Si Si3 0.605070 0.521081 0.895179
Si Si4 0.623007 0.292744 0.649565
Si Si5 0.734931 0.453987 0.210518
Si Si6 0.509031 0.947920 0.339049
Si Si7 0.987592 0.086807 0.743934
Si Si8 0.309588 0.291072 0.472088
O O1 0.937176 0.530113 0.307723
O O2 0.197680 0.491247 0.858008
O O3 0.313398 0.196524 0.913455
O O4 0.000000 0.500000 0.000000
O O5 0.102834 0.027318 0.747995
O O6 0.326565 0.991871 0.571658
O O7 0.929567 0.269899 0.986938
O O8 0.142286 0.933352 0.004590
O O9 0.619712 0.631407 0.701830
O O10 0.832669 0.304365 0.762509
O O11 0.500000 0.500000 0.000000
O O12 0.476650 0.637191 0.119669
O O13 0.666772 0.393419 0.453484
O O14 0.454005 0.375583 0.739123
O O15 0.838427 0.067646 0.493910
O O16 0.619634 0.828902 0.404356
O O17 0.414114 0.143853 0.327574
#
# Coordination Sequence:
#
# PCOD9079306 Si02
#       8
#     2   2   2   2   2   2   2   2
#     4  10  21  35  61  92 121 159 204 259 306 359
#     4  10  18  36  66  91 121 154 211 265 302 354
#     4  12  26  42  61  90 135 167 198 251 321 379
#     4  10  23  39  62  94 123 168 207 257 308 367
#     4  10  19  38  65  94 126 153 217 266 301 359
#     4  10  20  38  63  88 116 162 210 255 302 357
#     4  10  22  38  60  93 121 163 207 252 309 369
#     4  10  23  40  57  89 125 162 205 250 306 377
#
# _framework density 19.966887
#
# number of rings (size 3 to 8) (size 9 to 14) (size 15 to 20)
#    0.000    1.750    2.500    1.500    7.000    1.500 
#    0.000    2.500    0.000    3.000    0.000    0.000 
#    0.000    0.000    0.000    0.000    0.000    0.000 
#
# Total GULP energy -89317.876263 kJ/mol
# GULP energy per Si atom -5582.367266 kJ/mol
# Density = 1.992144 g / cm^3
# Si number density = 19.966887 Si / 1000 Ang^3
#
#
#
# Elastic Constant Matrix: (Units=GPa)
#
#
# Indices 1 2 3 4 5 6 
#
# 1 55.2623 11.2724 17.6069 3.0420 -11.8153 24.9274
# 2 11.2724 86.9503 46.5265 21.5995 9.6098 29.2355
# 3 17.6069 46.5265 80.3853 28.5696 -9.9926 12.7959
# 4 3.0420 21.5995 28.5696 25.5918 10.5586 -2.3544
# 5 -11.8153 9.6098 -9.9926 10.5586 34.8341 -5.1256
# 6 24.9274 29.2355 12.7959 -2.3544 -5.1256 26.7658
#
#
#
# Elastic Compliance Matrix: (Units=1/GPa)
#
#
# Indices 1 2 3 4 5 6 
#
# 1 0.061942 0.037561 0.003604 -0.058433 0.014261 -0.102846
# 2 0.037561 0.057690 -0.008046 -0.051460 -0.004532 -0.099542
# 3 0.003604 -0.008046 0.040305 -0.051689 0.028778 -0.012872
# 4 -0.058433 -0.051460 -0.051689 0.182871 -0.055154 0.140863
# 5 0.014261 -0.004532 0.028778 -0.055154 0.057422 -0.015944
# 6 -0.102846 -0.099542 -0.012872 0.140863 -0.015944 0.257361
#
#
# Mechanical properties :
#
#
# Convention : Reuss Voigt Hill
#
# Bulk Modulus (GPa) = 4.42137 41.48995 22.95566
# Shear Modulus (GPa) = 7.49911 27.25115 17.37513
#
# Velocity S-wave (km/s) = 1.94008 3.69835 2.95311
# Velocity P-wave (km/s) = 2.69030 6.24992 4.81141
#
# Compressibility (1/GPa) = 0.22617448
#
# Stress axis : x y z
#
# Youngs Moduli (GPa) = 16.14405 17.33389 24.81086
#
# Poissons Ratio (x) = -0.65107 -0.08943
# Poissons Ratio (y) = -0.60638 0.19964
# Poissons Ratio (z) = -0.05819 0.13948
#
# Static dielectric constant tensor:
#      x y z
#    x 1.673590 0.027160 0.021480 
#    y 0.027160 1.716140 0.037530 
#    z 0.021480 0.037530 1.710660 
# 
# From -- ./inp_files/436939.got.cif
#   From: 2010.05.17/outbox.cif.g08.bks.cpg/sg2_219_cif.got.tgz:436939.got - 2010.06.03 11:33:40.
