data_PCOD9079010
_publ_section_title
;
Structure prediction by ZEFSAII (Michael W. Deem and Ramdas Pophale) SiO2 
 PCOD9079010
Probable space group: P -1
;
_chemical_formula_sum "Si O2"
_cell_formula_units_Z 16
_cell_length_a 14.678738
_cell_length_b 10.051519
_cell_length_c 10.225479
_cell_angle_alpha 92.654804
_cell_angle_beta 59.947850
_cell_angle_gamma 43.744201
_cell_volume 660.461553
_symmetry_space_group_name_H-M "P -1"
_symmetry_group_IT_number 2
_symmetry_cell_setting 'triclinic'
loop_
_space_group_symop_operation_xyz
x,y,z
-x,-y,-z
loop_
_atom_site_type_symbol
_atom_site_label
_atom_site_fract_x
_atom_site_fract_y
_atom_site_fract_z
Si Si1 0.507764 0.665200 0.132631
Si Si2 0.473494 0.279677 0.574306
Si Si3 0.550554 0.066561 0.141989
Si Si4 0.226226 0.393905 0.206774
Si Si5 0.918184 0.830326 0.265194
Si Si6 0.204144 0.366509 0.855272
Si Si7 0.890715 0.152535 0.225734
Si Si8 0.735041 0.132683 0.927201
O O1 0.485544 0.737704 0.300370
O O2 0.305768 0.859388 0.195313
O O3 0.639604 0.631652 0.956275
O O4 0.628993 0.392420 0.036508
O O5 0.327781 0.311228 0.654552
O O6 0.340832 0.543846 0.621272
O O7 0.711162 0.004429 0.351252
O O8 0.308600 0.312078 0.291270
O O9 0.107854 0.593133 0.020196
O O10 0.623071 0.903745 0.204647
O O11 0.619345 0.144294 0.093984
O O12 0.994382 0.674273 0.335636
O O13 0.309732 0.162786 0.079868
O O14 0.890895 0.017624 0.304162
O O15 0.000000 0.500000 0.000000
O O16 0.032339 0.104361 0.198169
O O17 0.000000 0.000000 0.000000
#
# Coordination Sequence:
#
# PCOD9079010 Si02
#       8
#     2   2   2   2   2   2   2   2
#     4  10  18  36  61  89 117 161 204 249 308 364
#     4  12  23  39  64  90 121 162 209 252 309 370
#     4   9  18  30  62  89 112 155 203 245 296 366
#     4   9  16  37  58  84 118 156 198 246 305 360
#     4  11  23  39  62  89 122 160 205 258 305 363
#     4  11  22  40  63  87 122 166 205 248 307 365
#     4  12  20  39  62  88 121 165 204 250 313 368
#     4  10  19  32  64  90 117 158 207 254 301 358
#
# _framework density 24.225483000000001
#
# number of rings (size 3 to 8) (size 9 to 14) (size 15 to 20)
#    0.000    1.500    6.250    1.125    0.000    0.500 
#    0.000    1.250    2.750    0.000    0.000    0.000 
#    0.000    0.000    0.000    0.000    0.000    0.000 
#
# Total GULP energy -89314.356385 kJ/mol
# GULP energy per Si atom -5582.147274 kJ/mol
# Density = 2.417034 g / cm^3
# Si number density = 24.225483 Si / 1000 Ang^3
#
#
#
# Elastic Constant Matrix: (Units=GPa)
#
#
# Indices 1 2 3 4 5 6 
#
# 1 86.8509 25.4949 22.6967 9.8223 -18.8247 -3.2071
# 2 25.4949 153.8573 29.1498 46.4897 -6.2865 -0.7962
# 3 22.6967 29.1498 60.9043 31.7928 -4.4216 -8.2645
# 4 9.8223 46.4897 31.7928 33.1481 -11.4553 -17.0156
# 5 -18.8247 -6.2865 -4.4216 -11.4553 34.1711 2.7414
# 6 -3.2071 -0.7962 -8.2645 -17.0156 2.7414 51.5498
#
#
#
# Elastic Compliance Matrix: (Units=1/GPa)
#
#
# Indices 1 2 3 4 5 6 
#
# 1 0.020547 -0.011711 -0.022230 0.044357 0.020268 0.011097
# 2 -0.011711 0.025474 0.028240 -0.077464 -0.022460 -0.020183
# 3 -0.022230 0.028240 0.073727 -0.133402 -0.039741 -0.031047
# 4 0.044357 -0.077464 -0.133402 0.330228 0.096886 0.084026
# 5 0.020268 -0.022460 -0.039741 0.096886 0.061771 0.023238
# 6 0.011097 -0.020183 -0.031047 0.084026 0.023238 0.041299
#
#
# Mechanical properties :
#
#
# Convention : Reuss Voigt Hill
#
# Bulk Modulus (GPa) = 9.22962 50.69947 29.96454
# Shear Modulus (GPa) = 8.32550 38.72522 23.52536
#
# Velocity S-wave (km/s) = 1.85584 4.00250 3.11963
# Velocity P-wave (km/s) = 2.90006 6.50643 5.03706
#
# Compressibility (1/GPa) = 0.10834688
#
# Stress axis : x y z
#
# Youngs Moduli (GPa) = 48.66816 39.25524 13.56356
#
# Poissons Ratio (x) = 0.45970 0.30152
# Poissons Ratio (y) = 0.56993 -0.38303
# Poissons Ratio (z) = 1.08190 -1.10856
#
# Static dielectric constant tensor:
#      x y z
#    x 2.028360 -0.051500 -0.027230 
#    y -0.051500 1.950570 -0.022110 
#    z -0.027230 -0.022110 1.953860 
# 
# From -- ./inp_files/379180.got.cif
#   From: 2010.05.17/outbox.cif.g08.bks.cpg/sg2_190_cif.got.tgz:379180.got - 2010.06.03 11:33:40.
