data_PCOD9079545
_publ_section_title
;
Structure prediction by ZEFSAII (Michael W. Deem and Ramdas Pophale) SiO2 
 PCOD9079545
Probable space group: P -1
;
_chemical_formula_sum "Si O2"
_cell_formula_units_Z 16
_cell_length_a 14.083014
_cell_length_b 14.115223
_cell_length_c 12.135435
_cell_angle_alpha 30.437035
_cell_angle_beta 71.273630
_cell_angle_gamma 51.947207
_cell_volume 817.587374
_symmetry_space_group_name_H-M "P -1"
_symmetry_group_IT_number 2
_symmetry_cell_setting 'triclinic'
loop_
_space_group_symop_operation_xyz
x,y,z
-x,-y,-z
loop_
_atom_site_type_symbol
_atom_site_label
_atom_site_fract_x
_atom_site_fract_y
_atom_site_fract_z
Si Si1 0.302227 0.505287 0.727645
Si Si2 0.971526 0.400315 0.714982
Si Si3 0.588808 0.207241 0.853815
Si Si4 0.824282 0.202050 0.737096
Si Si5 0.921286 0.299334 0.234318
Si Si6 0.925859 0.637915 0.048386
Si Si7 0.306898 0.309944 0.556425
Si Si8 0.396682 0.963727 0.219676
O O1 0.443093 0.442620 0.734960
O O2 0.191253 0.734596 0.451146
O O3 0.238917 0.547262 0.828717
O O4 0.354607 0.234526 0.935298
O O5 0.802197 0.594201 0.596817
O O6 0.000000 0.500000 0.500000
O O7 0.046734 0.391020 0.803126
O O8 0.039336 0.102763 0.980425
O O9 0.698293 0.228878 0.790879
O O10 0.558662 0.193825 0.751943
O O11 0.657795 0.934005 0.156228
O O12 0.789250 0.436319 0.580994
O O13 0.956067 0.395955 0.225431
O O14 0.000000 0.000000 0.500000
O O15 0.967778 0.356591 0.054177
O O16 0.759078 0.905778 0.815915
O O17 0.461501 0.204191 0.589970
#
# Coordination Sequence:
#
# PCOD9079545 Si02
#       8
#     2   2   2   2   2   2   2   2
#     4  10  20  33  61  91 119 149 198 252 300 348
#     4  12  24  39  57  88 132 165 190 239 309 369
#     4  11  19  35  57  88 127 154 193 249 307 354
#     4  12  21  33  57  87 125 165 191 235 298 366
#     4  10  22  39  62  89 114 156 209 257 288 338
#     4  10  22  42  63  87 119 159 202 248 301 348
#     4  11  22  36  52  89 126 158 191 231 300 370
#     4  10  18  37  61  84 123 155 194 252 298 355
#
# _framework density 19.569773999999999
#
# number of rings (size 3 to 8) (size 9 to 14) (size 15 to 20)
#    0.000    1.250    5.000    2.250    1.750    0.000 
#    2.250    0.000    0.000   12.000    0.000   12.250 
#    0.000    0.000    0.000    0.000    0.000    0.000 
#
# Total GULP energy -89194.864688 kJ/mol
# GULP energy per Si atom -5574.679043 kJ/mol
# Density = 1.952523 g / cm^3
# Si number density = 19.569774 Si / 1000 Ang^3
#
#
#
# Elastic Constant Matrix: (Units=GPa)
#
#
# Indices 1 2 3 4 5 6 
#
# 1 66.5365 29.2094 23.9207 -2.6466 13.9575 -21.5609
# 2 29.2094 82.9519 29.2410 0.7167 0.8639 -19.5874
# 3 23.9207 29.2410 108.2444 -13.0352 4.8897 -6.3649
# 4 -2.6466 0.7167 -13.0352 24.7350 -3.5146 -9.0056
# 5 13.9575 0.8639 4.8897 -3.5146 36.6376 -6.2217
# 6 -21.5609 -19.5874 -6.3649 -9.0056 -6.2217 40.6559
#
#
#
# Elastic Compliance Matrix: (Units=1/GPa)
#
#
# Indices 1 2 3 4 5 6 
#
# 1 0.022403 -0.004889 -0.002375 0.003687 -0.006217 0.009019
# 2 -0.004889 0.016026 -0.003134 -0.000453 0.002700 0.004951
# 3 -0.002375 -0.003134 0.011342 0.005950 0.000093 0.000338
# 4 0.003687 -0.000453 0.005950 0.049977 0.005071 0.014515
# 5 -0.006217 0.002700 0.000093 0.005071 0.030726 0.003844
# 6 0.009019 0.004951 0.000338 0.014515 0.003844 0.035621
#
#
# Mechanical properties :
#
#
# Convention : Reuss Voigt Hill
#
# Bulk Modulus (GPa) = 34.51246 46.94168 40.72707
# Shear Modulus (GPa) = 25.43878 32.09647 28.76763
#
# Velocity S-wave (km/s) = 3.60933 4.05421 3.83822
# Velocity P-wave (km/s) = 5.91976 6.77897 6.36388
#
# Compressibility (1/GPa) = 0.02897504
#
# Stress axis : x y z
#
# Youngs Moduli (GPa) = 44.63743 62.39720 88.16678
#
# Poissons Ratio (x) = 0.30505 0.20938
# Poissons Ratio (y) = 0.21823 0.27635
# Poissons Ratio (z) = 0.10601 0.19558
#
# Static dielectric constant tensor:
#      x y z
#    x 1.789450 -0.044950 -0.002160 
#    y -0.044950 1.716970 -0.040430 
#    z -0.002160 -0.040430 1.723190 
# 
# From -- ./inp_files/424442.got.cif
#   From: 2010.05.17/outbox.cif.g08.bks.cpg/sg2_213_cif.got.tgz:424442.got - 2010.06.03 11:33:40.
