data_PCOD9079163
_publ_section_title
;
Structure prediction by ZEFSAII (Michael W. Deem and Ramdas Pophale) SiO2 
 PCOD9079163
Probable space group: P -1
;
_chemical_formula_sum "Si O2"
_cell_formula_units_Z 14
_cell_length_a 14.642566
_cell_length_b 8.009279
_cell_length_c 11.197708
_cell_angle_alpha 102.408687
_cell_angle_beta 28.517003
_cell_angle_gamma 100.867561
_cell_volume 612.314073
_symmetry_space_group_name_H-M "P -1"
_symmetry_group_IT_number 2
_symmetry_cell_setting 'triclinic'
loop_
_space_group_symop_operation_xyz
x,y,z
-x,-y,-z
loop_
_atom_site_type_symbol
_atom_site_label
_atom_site_fract_x
_atom_site_fract_y
_atom_site_fract_z
Si Si1 0.374310 0.998528 0.526138
Si Si2 0.552769 0.196721 0.828096
Si Si3 0.252389 0.490673 0.445585
Si Si4 0.861613 0.472614 0.972780
Si Si5 0.907137 0.277414 0.134351
Si Si6 0.469923 0.724704 0.772876
Si Si7 0.227141 0.989144 0.244176
O O1 0.402909 0.180480 0.457408
O O2 0.500000 0.000000 0.500000
O O3 0.445900 0.874213 0.318980
O O4 0.174336 0.910070 0.778319
O O5 0.650132 0.381391 0.739330
O O6 0.690041 0.078006 0.734523
O O7 0.336161 0.165391 0.114298
O O8 0.231971 0.592428 0.612434
O O9 0.390666 0.337241 0.293688
O O10 0.028646 0.448766 0.677789
O O11 0.897698 0.661594 0.015482
O O12 0.904613 0.337257 0.009655
O O13 0.652860 0.432343 0.160271
O O14 0.314031 0.854711 0.027608
O O15 0.000000 0.000000 0.500000
#
# Coordination Sequence:
#
# PCOD9079163 Si02
#       7
#     2   2   2   2   2   2   2
#     4  10  18  36  63  89 125 166 204 249 300 374
#     4   9  21  42  62  88 126 164 199 256 319 364
#     4   9  20  37  59  90 127 161 197 254 313 364
#     4   9  18  35  57  85 128 162 203 247 296 367
#     4   8  17  37  56  79 133 168 195 249 304 358
#     4  11  22  35  65  94 119 163 215 253 302 373
#     4  10  23  43  67  86 120 165 211 262 310 366
#
# _framework density 22.864083999999998
#
# number of rings (size 3 to 8) (size 9 to 14) (size 15 to 20)
#    0.857    1.714    1.429    0.000    0.000    5.714 
#    0.000    2.143    9.429    0.000    0.000    0.000 
#    0.000    0.000    0.000    0.000    0.000    0.000 
#
# Total GULP energy -78026.878764 kJ/mol
# GULP energy per Si atom -5573.348483 kJ/mol
# Density = 2.281204 g / cm^3
# Si number density = 22.864084 Si / 1000 Ang^3
#
#
#
# Elastic Constant Matrix: (Units=GPa)
#
#
# Indices 1 2 3 4 5 6 
#
# 1 76.7213 25.7863 20.4750 -13.3004 4.4817 17.4592
# 2 25.7863 87.0537 75.5206 -53.8170 -15.6305 -2.7423
# 3 20.4750 75.5206 129.2978 -22.6194 -8.6093 3.9090
# 4 -13.3004 -53.8170 -22.6194 51.3629 -0.3382 0.3975
# 5 4.4817 -15.6305 -8.6093 -0.3382 26.3293 -11.6222
# 6 17.4592 -2.7423 3.9090 0.3975 -11.6222 30.1863
#
#
#
# Elastic Compliance Matrix: (Units=1/GPa)
#
#
# Indices 1 2 3 4 5 6 
#
# 1 0.003915 0.050728 -0.020833 0.045066 0.030334 0.016128
# 2 0.050728 -0.181163 0.065558 -0.147927 -0.144269 -0.107885
# 3 -0.020833 0.065558 -0.014796 0.056835 0.056407 0.040890
# 4 0.045066 -0.147927 0.056835 -0.098901 -0.118411 -0.091151
# 5 0.030334 -0.144269 0.056407 -0.118411 -0.062613 -0.060503
# 6 0.016128 -0.107885 0.040890 -0.091151 -0.060503 -0.013391
#
#
# Mechanical properties :
#
#
# Convention : Reuss Voigt Hill
#
# Bulk Modulus (GPa) = -878.30755 59.62628 -409.34063
# Shear Modulus (GPa) = -8.95680 32.99511 12.01915
#
# Velocity S-wave (km/s) = -1.98139 3.80293 2.29525
# Velocity P-wave (km/s) = 19.75377 6.73931 13.12999
#
# Compressibility (1/GPa) = -0.00113855
#
# Stress axis : x y z
#
# Youngs Moduli (GPa) = 255.45387 -5.51988 -67.58622
#
# Poissons Ratio (x) = 0.28001 -1.40803
# Poissons Ratio (y) = -12.95864 4.43083
# Poissons Ratio (z) = 5.32191 0.36187
#
# Static dielectric constant tensor:
#      x y z
#    x 1.856010 -0.027020 -0.216860 
#    y -0.027020 2.249590 0.879360 
#    z -0.216860 0.879360 4.147800 
# 
# From -- ./inp_files/442997.got.cif
#   From: 2010.05.17/outbox.cif.g08.bks.cpg/sg2_222_cif.got.tgz:442997.got - 2010.06.03 11:33:40.
