data_PCOD9079777
_publ_section_title
;
Structure prediction by ZEFSAII (Michael W. Deem and Ramdas Pophale) SiO2 
 PCOD9079777
Probable space group: P -1
;
_chemical_formula_sum "Si O2"
_cell_formula_units_Z 12
_cell_length_a 16.949593
_cell_length_b 8.571971
_cell_length_c 6.876919
_cell_angle_alpha 106.366638
_cell_angle_beta 135.303702
_cell_angle_gamma 48.105923
_cell_volume 486.322292
_symmetry_space_group_name_H-M "P -1"
_symmetry_group_IT_number 2
_symmetry_cell_setting 'triclinic'
loop_
_space_group_symop_operation_xyz
x,y,z
-x,-y,-z
loop_
_atom_site_type_symbol
_atom_site_label
_atom_site_fract_x
_atom_site_fract_y
_atom_site_fract_z
Si Si1 0.942364 0.337455 0.164392
Si Si2 0.468457 0.549266 0.725486
Si Si3 0.799031 0.835206 0.147141
Si Si4 0.812602 0.160523 0.121246
Si Si5 0.508700 0.824927 0.057351
Si Si6 0.198329 0.636593 0.429407
O O1 0.837180 0.608692 0.085458
O O2 0.883403 0.237506 0.145867
O O3 0.104554 0.226190 0.507025
O O4 0.940840 0.287832 0.919033
O O5 0.310703 0.611292 0.459571
O O6 0.500000 0.500000 0.000000
O O7 0.625425 0.345311 0.820886
O O8 0.455062 0.753951 0.770783
O O9 0.852357 0.927978 0.128651
O O10 0.617090 0.047289 0.945394
O O11 0.837383 0.205538 0.401746
O O12 0.684500 0.612293 0.359158
O O13 0.500000 0.000000 0.000000
#
# Coordination Sequence:
#
# PCOD9079777 Si02
#       6
#     2   2   2   2   2   2
#     4  11  26  37  60  93 123 159 197 245 300 354
#     4   8  15  34  59  83 112 147 196 247 284 336
#     4  11  21  43  57  87 131 154 195 253 295 357
#     4  10  19  43  64  81 124 165 189 246 309 345
#     4  10  18  37  65  86 116 160 196 247 306 342
#     4  10  20  41  61  89 117 150 213 247 281 365
#
# _framework density 24.674994999999999
#
# number of rings (size 3 to 8) (size 9 to 14) (size 15 to 20)
#    0.000    2.333    5.000    2.500    0.000    2.000 
#    3.000    7.500    0.000    0.000    0.000    0.000 
#    0.000    0.000    0.000    0.000    0.000    0.000 
#
# Total GULP energy -66917.824592 kJ/mol
# GULP energy per Si atom -5576.485383 kJ/mol
# Density = 2.461883 g / cm^3
# Si number density = 24.674995 Si / 1000 Ang^3
#
#
#
# Elastic Constant Matrix: (Units=GPa)
#
#
# Indices 1 2 3 4 5 6 
#
# 1 110.0907 58.0356 17.7675 0.0019 -9.1719 15.2255
# 2 58.0356 142.4964 17.5734 -22.6970 -13.1288 44.6233
# 3 17.7675 17.5734 77.2879 8.9362 -12.9515 -4.0245
# 4 0.0019 -22.6970 8.9362 14.7758 -6.0383 5.5297
# 5 -9.1719 -13.1288 -12.9515 -6.0383 17.0616 6.9457
# 6 15.2255 44.6233 -4.0245 5.5297 6.9457 43.9456
#
#
#
# Elastic Compliance Matrix: (Units=1/GPa)
#
#
# Indices 1 2 3 4 5 6 
#
# 1 0.011158 0.000180 -0.002221 0.008397 0.010243 -0.006928
# 2 0.000180 -0.017206 0.005142 -0.059293 -0.043328 0.032189
# 3 -0.002221 0.005142 0.014060 0.010583 0.020318 -0.007707
# 4 0.008397 -0.059293 0.010583 -0.106625 -0.106872 0.088575
# 5 0.010243 -0.043328 0.020318 -0.106872 -0.015306 0.058175
# 6 -0.006928 0.032189 -0.007707 0.088575 0.058175 -0.028575
#
#
# Mechanical properties :
#
#
# Convention : Reuss Voigt Hill
#
# Bulk Modulus (GPa) = 70.35511 57.40312 63.87912
# Shear Modulus (GPa) = -34.73238 30.92316 -1.90461
#
# Velocity S-wave (km/s) = -3.75586 3.54392 -0.87952
# Velocity P-wave (km/s) = 3.12505 6.32930 4.99129
#
# Compressibility (1/GPa) = 0.01421361
#
# Stress axis : x y z
#
# Youngs Moduli (GPa) = 89.61947 -58.11921 71.12341
#
# Poissons Ratio (x) = 0.01047 0.15799
# Poissons Ratio (y) = -0.01614 -0.36570
# Poissons Ratio (z) = 0.19907 0.29884
#
# Static dielectric constant tensor:
#      x y z
#    x 2.082330 0.031170 0.091750 
#    y 0.031170 2.049710 0.020480 
#    z 0.091750 0.020480 2.124470 
# 
# From -- ./inp_files/258040.got.cif
#   From: 2010.05.17/outbox.cif.g08.bks.cpg/sg2_130_cif.got.tgz:258040.got - 2010.06.03 11:33:40.
