data_PCOD9079951
_publ_section_title
;
Structure prediction by ZEFSAII (Michael W. Deem and Ramdas Pophale) SiO2 
 PCOD9079951
Probable space group: P -1
;
_chemical_formula_sum "Si O2"
_cell_formula_units_Z 16
_cell_length_a 9.286278
_cell_length_b 11.948516
_cell_length_c 14.616948
_cell_angle_alpha 55.583528
_cell_angle_beta 139.698219
_cell_angle_gamma 102.174598
_cell_volume 788.307302
_symmetry_space_group_name_H-M "P -1"
_symmetry_group_IT_number 2
_symmetry_cell_setting 'triclinic'
loop_
_space_group_symop_operation_xyz
x,y,z
-x,-y,-z
loop_
_atom_site_type_symbol
_atom_site_label
_atom_site_fract_x
_atom_site_fract_y
_atom_site_fract_z
Si Si1 0.325482 0.374227 0.126977
Si Si2 0.054867 0.281854 0.182273
Si Si3 0.731744 0.618257 0.606003
Si Si4 0.269758 0.565279 0.628772
Si Si5 0.207520 0.412685 0.846563
Si Si6 0.239900 0.887002 0.940798
Si Si7 0.192092 0.207986 0.792902
Si Si8 0.604934 0.362432 0.726860
O O1 0.579405 0.337743 0.318300
O O2 0.191336 0.282394 0.153293
O O3 0.157478 0.549880 0.986246
O O4 0.349389 0.362210 0.034206
O O5 0.245570 0.270123 0.360478
O O6 0.927180 0.167992 0.177763
O O7 0.749518 0.465770 0.733014
O O8 0.500638 0.664968 0.407026
O O9 0.971509 0.561938 0.686167
O O10 0.317383 0.461055 0.789400
O O11 0.390215 0.465387 0.644407
O O12 0.989838 0.668285 0.421759
O O13 0.138670 0.283697 0.831858
O O14 0.520271 0.838990 0.065518
O O15 0.257556 0.792022 0.084440
O O16 0.140107 0.062063 0.827297
#
# Coordination Sequence:
#
# PCOD9079951 Si02
#       8
#     2   2   2   2   2   2   2   2
#     4  10  20  34  62  92 118 144 199 248 293 343
#     4  10  18  38  58  88 120 159 188 239 296 355
#     4  10  21  33  64  94 119 146 203 245 286 347
#     4  12  20  38  63  91 119 147 199 254 290 339
#     4  11  20  34  59  92 117 149 197 248 289 341
#     4  11  22  40  59  82 122 167 191 234 305 359
#     4  11  24  38  58  86 121 159 200 240 294 355
#     4  11  19  37  63  92 116 155 195 244 294 347
#
# _framework density 20.296652999999999
#
# number of rings (size 3 to 8) (size 9 to 14) (size 15 to 20)
#    0.000    1.250    5.000    3.000    0.000    1.000 
#    0.000    4.375    0.000    6.000    0.000    0.000 
#    0.000    0.000    0.000    0.000    0.000    0.000 
#
# Total GULP energy -89247.021651 kJ/mol
# GULP energy per Si atom -5577.938853 kJ/mol
# Density = 2.025046 g / cm^3
# Si number density = 20.296653 Si / 1000 Ang^3
#
#
#
# Elastic Constant Matrix: (Units=GPa)
#
#
# Indices 1 2 3 4 5 6 
#
# 1 69.6649 31.0587 14.4285 9.7227 -12.7781 2.5298
# 2 31.0587 132.7696 43.3362 26.9152 -15.7623 13.6999
# 3 14.4285 43.3362 62.0554 28.2615 -11.6982 -7.5165
# 4 9.7227 26.9152 28.2615 40.9523 -1.1620 -1.3956
# 5 -12.7781 -15.7623 -11.6982 -1.1620 23.1477 9.0902
# 6 2.5298 13.6999 -7.5165 -1.3956 9.0902 28.2277
#
#
#
# Elastic Compliance Matrix: (Units=1/GPa)
#
#
# Indices 1 2 3 4 5 6 
#
# 1 0.017546 -0.001972 -0.000162 -0.002617 0.009661 -0.003899
# 2 -0.001972 0.013044 -0.006735 -0.003587 0.008472 -0.010853
# 3 -0.000162 -0.006735 0.030438 -0.016065 0.006571 0.008478
# 4 -0.002617 -0.003587 -0.016065 0.038272 -0.011360 0.003248
# 5 0.009661 0.008472 0.006571 -0.011360 0.067017 -0.025371
# 6 -0.003899 -0.010853 0.008478 0.003248 -0.025371 0.051631
#
#
# Mechanical properties :
#
#
# Convention : Reuss Voigt Hill
#
# Bulk Modulus (GPa) = 23.09991 49.12630 36.11310
# Shear Modulus (GPa) = 19.99073 30.17663 25.08368
#
# Velocity S-wave (km/s) = 3.14176 3.86006 3.51928
# Velocity P-wave (km/s) = 4.95648 6.64255 5.86047
#
# Compressibility (1/GPa) = 0.04329022
#
# Stress axis : x y z
#
# Youngs Moduli (GPa) = 56.99324 76.66237 32.85405
#
# Poissons Ratio (x) = 0.15117 0.00532
# Poissons Ratio (y) = 0.11239 0.22127
# Poissons Ratio (z) = 0.00922 0.51632
#
# Static dielectric constant tensor:
#      x y z
#    x 1.760010 0.018370 0.011540 
#    y 0.018370 1.755530 0.054250 
#    z 0.011540 0.054250 1.751510 
# 
# From -- ./inp_files/500214.got.cif
#   From: 2010.05.17/outbox.cif.g08.bks.cpg/sg2_251_cif.got.tgz:500214.got - 2010.06.03 11:33:40.
