data_PCOD9079910
_publ_section_title
;
Structure prediction by ZEFSAII (Michael W. Deem and Ramdas Pophale) SiO2 
 PCOD9079910
Probable space group: P -1
;
_chemical_formula_sum "Si O2"
_cell_formula_units_Z 16
_cell_length_a 7.877571
_cell_length_b 14.748114
_cell_length_c 9.221807
_cell_angle_alpha 48.786136
_cell_angle_beta 100.188320
_cell_angle_gamma 119.669954
_cell_volume 681.783258
_symmetry_space_group_name_H-M "P -1"
_symmetry_group_IT_number 2
_symmetry_cell_setting 'triclinic'
loop_
_space_group_symop_operation_xyz
x,y,z
-x,-y,-z
loop_
_atom_site_type_symbol
_atom_site_label
_atom_site_fract_x
_atom_site_fract_y
_atom_site_fract_z
Si Si1 0.673217 0.843132 0.964350
Si Si2 0.875871 0.210430 0.958745
Si Si3 0.275169 0.633078 0.039832
Si Si4 0.082681 0.649254 0.700909
Si Si5 0.583688 0.757033 0.367408
Si Si6 0.687571 0.110621 0.731281
Si Si7 0.072132 0.010267 0.663098
Si Si8 0.825006 0.502428 0.369839
O O1 0.886989 0.936798 0.824335
O O2 0.590366 0.951304 0.839997
O O3 0.513275 0.709133 0.990100
O O4 0.674111 0.799693 0.175586
O O5 0.773869 0.299288 0.900625
O O6 0.795449 0.130517 0.880034
O O7 0.100620 0.336720 0.821805
O O8 0.847993 0.097945 0.191772
O O9 0.154039 0.464488 0.210037
O O10 0.179133 0.669351 0.851434
O O11 0.158657 0.789943 0.473826
O O12 0.166851 0.567224 0.706072
O O13 0.462770 0.835058 0.312388
O O14 0.403682 0.594428 0.509630
O O15 0.768656 0.831448 0.429361
O O16 0.000000 0.000000 0.500000
O O17 0.000000 0.500000 0.500000
#
# Coordination Sequence:
#
# PCOD9079910 Si02
#       8
#     2   2   2   2   2   2   2   2
#     4  12  24  40  63  91 127 173 214 255 310 379
#     4  11  21  43  66  96 128 160 213 264 318 375
#     4  10  21  38  65  95 127 161 207 272 317 369
#     4   9  20  35  61 101 128 150 201 271 328 366
#     4  11  21  42  67  96 125 159 210 267 317 375
#     4  11  21  37  71  99 120 157 215 273 316 367
#     4  12  30  45  57  85 138 183 211 251 314 381
#     4  10  18  37  71 103 121 152 204 277 326 363
#
# _framework density 23.467870000000001
#
# number of rings (size 3 to 8) (size 9 to 14) (size 15 to 20)
#    0.000    1.250    5.000    2.250    5.250    0.500 
#    0.000    2.500    0.000    0.000    0.000    0.000 
#    0.000    0.000    0.000    0.000    0.000    0.000 
#
# Total GULP energy -89372.303872 kJ/mol
# GULP energy per Si atom -5585.768992 kJ/mol
# Density = 2.341446 g / cm^3
# Si number density = 23.467870 Si / 1000 Ang^3
#
#
#
# Elastic Constant Matrix: (Units=GPa)
#
#
# Indices 1 2 3 4 5 6 
#
# 1 46.1411 16.1523 -6.5119 2.0377 -13.8370 14.4353
# 2 16.1523 134.6561 57.6637 -6.4116 -12.7749 42.6812
# 3 -6.5119 57.6637 117.8432 -3.5588 -8.3958 19.8485
# 4 2.0377 -6.4116 -3.5588 31.1886 3.0407 -3.4226
# 5 -13.8370 -12.7749 -8.3958 3.0407 25.4217 -4.8467
# 6 14.4353 42.6812 19.8485 -3.4226 -4.8467 34.1471
#
#
#
# Elastic Compliance Matrix: (Units=1/GPa)
#
#
# Indices 1 2 3 4 5 6 
#
# 1 0.032457 -0.000147 0.005424 -0.004821 0.017151 -0.014739
# 2 -0.000147 0.014268 -0.004276 0.000555 0.002783 -0.014835
# 3 0.005424 -0.004276 0.011696 -0.000656 0.004130 -0.003226
# 4 -0.004821 0.000555 -0.000656 0.033446 -0.005750 0.004261
# 5 0.017151 0.002783 0.004130 -0.005750 0.050886 -0.006483
# 6 -0.014739 -0.014835 -0.003226 0.004261 -0.006483 0.055441
#
#
# Mechanical properties :
#
#
# Convention : Reuss Voigt Hill
#
# Bulk Modulus (GPa) = 16.54990 48.13874 32.34432
# Shear Modulus (GPa) = 23.11272 33.57388 28.34330
#
# Velocity S-wave (km/s) = 3.14166 3.78647 3.47904
# Velocity P-wave (km/s) = 4.49750 6.29870 5.47271
#
# Compressibility (1/GPa) = 0.06042334
#
# Stress axis : x y z
#
# Youngs Moduli (GPa) = 30.81019 70.08790 85.50118
#
# Poissons Ratio (x) = 0.01029 -0.46378
# Poissons Ratio (y) = 0.00452 0.36559
# Poissons Ratio (z) = -0.16712 0.29969
#
# Static dielectric constant tensor:
#      x y z
#    x 2.015790 0.057250 -0.007750 
#    y 0.057250 1.886940 -0.057650 
#    z -0.007750 -0.057650 1.895450 
# 
# From -- ./inp_files/214510.got.cif
#   From: 2010.05.17/outbox.cif.g08.bks.cpg/sg2_108_cif.got.tgz:214510.got - 2010.06.03 11:33:40.
