data_PCOD9079733
_publ_section_title
;
Structure prediction by ZEFSAII (Michael W. Deem and Ramdas Pophale) SiO2 
 PCOD9079733
Probable space group: P -1
;
_chemical_formula_sum "Si O2"
_cell_formula_units_Z 16
_cell_length_a 18.811162
_cell_length_b 11.460944
_cell_length_c 8.517986
_cell_angle_alpha 121.936122
_cell_angle_beta 147.794158
_cell_angle_gamma 47.545790
_cell_volume 717.970208
_symmetry_space_group_name_H-M "P -1"
_symmetry_group_IT_number 2
_symmetry_cell_setting 'triclinic'
loop_
_space_group_symop_operation_xyz
x,y,z
-x,-y,-z
loop_
_atom_site_type_symbol
_atom_site_label
_atom_site_fract_x
_atom_site_fract_y
_atom_site_fract_z
Si Si1 0.690597 0.506502 0.517278
Si Si2 0.899740 0.735147 0.564614
Si Si3 0.713216 0.987251 0.801223
Si Si4 0.480196 0.172283 0.756888
Si Si5 0.819609 0.061546 0.734197
Si Si6 0.020470 0.332346 0.966434
Si Si7 0.463074 0.658926 0.749072
Si Si8 0.767538 0.524773 0.030806
O O1 0.640333 0.657250 0.421737
O O2 0.563193 0.456169 0.267632
O O3 0.729783 0.545487 0.790717
O O4 0.850534 0.356693 0.652759
O O5 0.922182 0.699739 0.768669
O O6 0.813338 0.652965 0.266350
O O7 0.076806 0.644578 0.768869
O O8 0.806958 0.924493 0.517065
O O9 0.589609 0.944401 0.463658
O O10 0.854586 0.818878 0.002105
O O11 0.627652 0.101003 0.867191
O O12 0.777174 0.051656 0.829084
O O13 0.511681 0.215222 0.016502
O O14 0.697269 0.235860 0.568574
O O15 0.000000 0.000000 0.000000
O O16 0.000000 0.500000 0.000000
O O17 0.613151 0.557657 0.852532
#
# Coordination Sequence:
#
# PCOD9079733 Si02
#       8
#     2   2   2   2   2   2   2   2
#     4  11  23  40  62  90 126 166 208 257 315 370
#     4   9  21  38  61  96 121 158 213 256 305 370
#     4  10  22  41  65  91 125 163 206 254 316 373
#     4  11  24  41  61  95 127 161 208 258 314 378
#     4  11  23  43  65  88 128 166 206 260 316 378
#     4  10  18  37  64  87 120 161 201 252 309 364
#     4  12  24  40  63  93 127 166 211 256 316 372
#     4  10  21  39  64  92 126 160 215 257 309 371
#
# _framework density 22.285049999999998
#
# number of rings (size 3 to 8) (size 9 to 14) (size 15 to 20)
#    0.000    1.500    1.250    5.250    0.000    5.000 
#    2.250    2.500    0.000    0.000    0.000    0.000 
#    0.000    0.000    0.000    0.000    0.000    0.000 
#
# Total GULP energy -89455.820469 kJ/mol
# GULP energy per Si atom -5590.988779 kJ/mol
# Density = 2.223433 g / cm^3
# Si number density = 22.285050 Si / 1000 Ang^3
#
#
#
# Elastic Constant Matrix: (Units=GPa)
#
#
# Indices 1 2 3 4 5 6 
#
# 1 71.7462 13.2749 24.4361 -20.0783 28.4118 -8.0051
# 2 13.2749 64.5003 11.4570 -16.1683 -3.2973 -11.2614
# 3 24.4361 11.4570 62.1379 -17.9230 18.3920 -9.0909
# 4 -20.0783 -16.1683 -17.9230 28.8142 -4.5840 4.5020
# 5 28.4118 -3.2973 18.3920 -4.5840 30.5818 -5.2712
# 6 -8.0051 -11.2614 -9.0909 4.5020 -5.2712 41.1974
#
#
#
# Elastic Compliance Matrix: (Units=1/GPa)
#
#
# Indices 1 2 3 4 5 6 
#
# 1 0.028180 -0.003724 0.001156 0.014276 -0.025149 -0.000065
# 2 -0.003724 0.019852 -0.001750 0.008124 0.008652 0.004536
# 3 0.001156 -0.001750 0.023701 0.012137 -0.013363 0.001940
# 4 0.014276 0.008124 0.012137 0.054911 -0.011419 0.000211
# 5 -0.025149 0.008652 -0.013363 -0.011419 0.064005 0.003967
# 6 -0.000065 0.004536 0.001940 0.000211 0.003967 0.026413
#
#
# Mechanical properties :
#
#
# Convention : Reuss Voigt Hill
#
# Bulk Modulus (GPa) = 15.84823 32.96894 24.40859
# Shear Modulus (GPa) = 20.26512 30.06643 25.16578
#
# Velocity S-wave (km/s) = 3.01883 3.67710 3.36410
# Velocity P-wave (km/s) = 4.39069 5.73187 5.10551
#
# Compressibility (1/GPa) = 0.06309853
#
# Stress axis : x y z
#
# Youngs Moduli (GPa) = 35.48627 50.37376 42.19190
#
# Poissons Ratio (x) = 0.18758 -0.04879
# Poissons Ratio (y) = 0.13214 0.07383
# Poissons Ratio (z) = -0.04104 0.08815
#
# Static dielectric constant tensor:
#      x y z
#    x 1.822480 0.003820 0.035660 
#    y 0.003820 1.828080 -0.000450 
#    z 0.035660 -0.000450 1.862960 
# 
# From -- ./inp_files/223859.got.cif
#   From: 2010.05.17/outbox.cif.g08.bks.cpg/sg2_112_cif.got.tgz:223859.got - 2010.06.03 11:33:40.
