data_PCOD9079594
_publ_section_title
;
Structure prediction by ZEFSAII (Michael W. Deem and Ramdas Pophale) SiO2 
 PCOD9079594
Probable space group: P -1
;
_chemical_formula_sum "Si O2"
_cell_formula_units_Z 12
_cell_length_a 10.122572
_cell_length_b 8.917568
_cell_length_c 11.453043
_cell_angle_alpha 39.628028
_cell_angle_beta 127.187593
_cell_angle_gamma 140.044804
_cell_volume 423.204956
_symmetry_space_group_name_H-M "P -1"
_symmetry_group_IT_number 2
_symmetry_cell_setting 'triclinic'
loop_
_space_group_symop_operation_xyz
x,y,z
-x,-y,-z
loop_
_atom_site_type_symbol
_atom_site_label
_atom_site_fract_x
_atom_site_fract_y
_atom_site_fract_z
Si Si1 0.942827 0.903978 0.692736
Si Si2 0.602247 0.406154 0.249117
Si Si3 0.669905 0.232412 0.622758
Si Si4 0.275519 0.995669 0.652947
Si Si5 0.181385 0.973918 0.000482
Si Si6 0.372659 0.648088 0.068902
O O1 0.149773 0.056473 0.636136
O O2 0.788719 0.553507 0.795340
O O3 0.011660 0.908978 0.857895
O O4 0.837797 0.054100 0.501398
O O5 0.493413 0.111312 0.296392
O O6 0.418356 0.419220 0.188076
O O7 0.719864 0.402968 0.427228
O O8 0.252144 0.275764 0.921323
O O9 0.513737 0.255084 0.602926
O O10 0.838711 0.245181 0.783168
O O11 0.269800 0.740040 0.868047
O O12 0.385047 0.070272 0.970816
#
# Coordination Sequence:
#
# PCOD9079594 Si02
#       6
#     2   2   2   2   2   2
#     4  11  21  39  54  87 114 141 189 226 271 334
#     4   9  19  36  61  82 108 145 191 222 275 329
#     4  10  18  37  62  78 111 153 179 227 280 322
#     4  10  21  35  60  79 114 152 176 229 281 321
#     4   9  21  35  60  83 110 144 187 226 274 325
#     4   9  20  37  57  81 111 146 181 227 275 321
#
# _framework density 28.355056000000001
#
# number of rings (size 3 to 8) (size 9 to 14) (size 15 to 20)
#    1.000    1.333    1.667    1.000    0.000    4.000 
#    0.000    9.167    0.000    0.000    0.000    0.000 
#    0.000    0.000    0.000    0.000    0.000    0.000 
#
# Total GULP energy -67003.564448 kJ/mol
# GULP energy per Si atom -5583.630371 kJ/mol
# Density = 2.829052 g / cm^3
# Si number density = 28.355056 Si / 1000 Ang^3
#
#
#
# Elastic Constant Matrix: (Units=GPa)
#
#
# Indices 1 2 3 4 5 6 
#
# 1 36.0293 5.8641 31.8110 4.1391 6.9616 9.1772
# 2 5.8641 94.3441 60.4644 -4.1619 1.9812 0.3593
# 3 31.8110 60.4644 291.5770 26.7491 17.7066 3.0337
# 4 4.1391 -4.1619 26.7491 56.3707 10.3029 -1.7092
# 5 6.9616 1.9812 17.7066 10.3029 42.9682 1.0670
# 6 9.1772 0.3593 3.0337 -1.7092 1.0670 20.9775
#
#
#
# Elastic Compliance Matrix: (Units=1/GPa)
#
#
# Indices 1 2 3 4 5 6 
#
# 1 0.035359 0.000104 -0.003429 -0.000721 -0.003779 -0.014841
# 2 0.000104 0.012494 -0.002814 0.002257 0.000017 0.000330
# 3 -0.003429 -0.002814 0.004607 -0.001981 -0.000757 0.000759
# 4 -0.000721 0.002257 -0.001981 0.019693 -0.003952 0.002369
# 5 -0.003779 0.000017 -0.000757 -0.003952 0.025140 0.000162
# 6 -0.014841 0.000330 0.000759 0.002369 0.000162 0.054232
#
#
# Mechanical properties :
#
#
# Convention : Reuss Voigt Hill
#
# Bulk Modulus (GPa) = 24.88644 68.69216 46.78930
# Shear Modulus (GPa) = 28.21698 45.65067 36.93383
#
# Velocity S-wave (km/s) = 3.15799 4.01679 3.61300
# Velocity P-wave (km/s) = 4.70032 6.76691 5.82598
#
# Compressibility (1/GPa) = 0.04018253
#
# Stress axis : x y z
#
# Youngs Moduli (GPa) = 28.28116 80.03626 217.05886
#
# Poissons Ratio (x) = -0.00833 0.74435
# Poissons Ratio (y) = -0.00294 0.61077
# Poissons Ratio (z) = 0.09698 0.22521
#
# Static dielectric constant tensor:
#      x y z
#    x 2.331610 0.022020 -0.028690 
#    y 0.022020 2.345740 0.037790 
#    z -0.028690 0.037790 2.100990 
# 
# From -- ./inp_files/290951.got.cif
#   From: 2010.05.17/outbox.cif.g08.bks.cpg/sg2_146_cif.got.tgz:290951.got - 2010.06.03 11:33:40.
