data_PCOD9079579
_publ_section_title
;
Structure prediction by ZEFSAII (Michael W. Deem and Ramdas Pophale) SiO2 
 PCOD9079579
Probable space group: P -1
;
_chemical_formula_sum "Si O2"
_cell_formula_units_Z 16
_cell_length_a 12.738060
_cell_length_b 24.917815
_cell_length_c 8.044835
_cell_angle_alpha 138.346878
_cell_angle_beta 132.824190
_cell_angle_gamma 26.905992
_cell_volume 767.209467
_symmetry_space_group_name_H-M "P -1"
_symmetry_group_IT_number 2
_symmetry_cell_setting 'triclinic'
loop_
_space_group_symop_operation_xyz
x,y,z
-x,-y,-z
loop_
_atom_site_type_symbol
_atom_site_label
_atom_site_fract_x
_atom_site_fract_y
_atom_site_fract_z
Si Si1 0.065425 0.221193 0.807630
Si Si2 0.748100 0.148467 0.526407
Si Si3 0.279381 0.816322 0.819821
Si Si4 0.766883 0.989603 0.721210
Si Si5 0.608138 0.415235 0.585001
Si Si6 0.242827 0.113158 0.211841
Si Si7 0.235466 0.680494 0.965411
Si Si8 0.438970 0.139364 0.236825
O O1 0.208203 0.079513 0.570767
O O2 0.877144 0.320715 0.689938
O O3 0.897160 0.274931 0.902187
O O4 0.243008 0.207427 0.042546
O O5 0.749226 0.157479 0.348626
O O6 0.703548 0.252864 0.809693
O O7 0.540914 0.182294 0.436285
O O8 0.000000 0.000000 0.500000
O O9 0.414892 0.671726 0.646912
O O10 0.031213 0.903334 0.836625
O O11 0.363232 0.866275 0.094664
O O12 0.687997 0.965253 0.728544
O O13 0.500000 0.500000 0.500000
O O14 0.446769 0.526906 0.810247
O O15 0.339482 0.155269 0.344723
O O16 0.966033 0.241701 0.207910
O O17 0.340850 0.012655 0.936648
#
# Coordination Sequence:
#
# PCOD9079579 Si02
#       8
#     2   2   2   2   2   2   2   2
#     4  10  22  38  62  94 126 167 207 259 320 376
#     4  12  21  38  64  98 127 159 211 263 311 374
#     4  10  21  35  62  97 123 157 212 270 304 360
#     4  10  18  37  61  91 129 158 203 261 318 366
#     4  11  23  41  64  91 125 171 219 260 304 374
#     4  10  20  37  61  93 126 166 200 255 324 381
#     4  11  20  38  66  92 125 165 214 259 306 376
#     4  10  22  37  58  96 135 161 204 259 324 378
#
# _framework density 20.854799
#
# number of rings (size 3 to 8) (size 9 to 14) (size 15 to 20)
#    0.000    1.500    5.000    1.875    0.000    1.500 
#    0.000    0.625    0.000    0.750    0.000    0.000 
#    0.000    0.000    0.000    0.000    0.000    0.000 
#
# Total GULP energy -89242.854969 kJ/mol
# GULP energy per Si atom -5577.678436 kJ/mol
# Density = 2.080733 g / cm^3
# Si number density = 20.854799 Si / 1000 Ang^3
#
#
#
# Elastic Constant Matrix: (Units=GPa)
#
#
# Indices 1 2 3 4 5 6 
#
# 1 132.1376 37.2633 58.6084 -4.7601 15.7648 7.3241
# 2 37.2633 115.2857 60.5393 -1.8367 21.6473 5.1646
# 3 58.6084 60.5393 126.4135 17.3753 12.7080 -4.0164
# 4 -4.7601 -1.8367 17.3753 36.5501 -3.3582 2.0259
# 5 15.7648 21.6473 12.7080 -3.3582 32.8565 -4.2105
# 6 7.3241 5.1646 -4.0164 2.0259 -4.2105 32.7928
#
#
#
# Elastic Compliance Matrix: (Units=1/GPa)
#
#
# Indices 1 2 3 4 5 6 
#
# 1 0.010607 0.000212 -0.005338 0.003837 -0.003248 -0.003710
# 2 0.000212 0.013497 -0.006489 0.003403 -0.006653 -0.004032
# 3 -0.005338 -0.006489 0.014670 -0.008167 0.000921 0.004634
# 4 0.003837 0.003403 -0.008167 0.032313 0.001847 -0.004152
# 5 -0.003248 -0.006653 0.000921 0.001847 0.037046 0.006529
# 6 -0.003710 -0.004032 0.004634 -0.004152 0.006529 0.033621
#
#
# Mechanical properties :
#
#
# Convention : Reuss Voigt Hill
#
# Bulk Modulus (GPa) = 64.33273 76.29540 70.31406
# Shear Modulus (GPa) = 29.38315 34.93493 32.15904
#
# Velocity S-wave (km/s) = 3.75766 4.09730 3.93115
# Velocity P-wave (km/s) = 7.05277 7.68423 7.37526
#
# Compressibility (1/GPa) = 0.01554419
#
# Stress axis : x y z
#
# Youngs Moduli (GPa) = 94.27716 74.08849 68.16615
#
# Poissons Ratio (x) = -0.01568 0.36386
# Poissons Ratio (y) = -0.01996 0.44233
# Poissons Ratio (z) = 0.50324 0.48076
#
# Static dielectric constant tensor:
#      x y z
#    x 1.810880 0.050960 -0.031440 
#    y 0.050960 1.823420 -0.052430 
#    z -0.031440 -0.052430 1.821660 
# 
# From -- ./inp_files/285075.got.cif
#   From: 2010.05.17/outbox.cif.g08.bks.cpg/sg2_143_cif.got.tgz:285075.got - 2010.06.03 11:33:40.
