data_PCOD9079173
_publ_section_title
;
Structure prediction by ZEFSAII (Michael W. Deem and Ramdas Pophale) SiO2 
 PCOD9079173
Probable space group: P -1
;
_chemical_formula_sum "Si O2"
_cell_formula_units_Z 14
_cell_length_a 11.543375
_cell_length_b 12.240805
_cell_length_c 11.817539
_cell_angle_alpha 111.416729
_cell_angle_beta 37.708514
_cell_angle_gamma 79.600362
_cell_volume 538.234737
_symmetry_space_group_name_H-M "P -1"
_symmetry_group_IT_number 2
_symmetry_cell_setting 'triclinic'
loop_
_space_group_symop_operation_xyz
x,y,z
-x,-y,-z
loop_
_atom_site_type_symbol
_atom_site_label
_atom_site_fract_x
_atom_site_fract_y
_atom_site_fract_z
Si Si1 0.259083 0.407931 0.412949
Si Si2 0.844930 0.754463 0.155976
Si Si3 0.001015 0.210937 0.301896
Si Si4 0.262304 0.752969 0.820361
Si Si5 0.435400 0.752704 0.445321
Si Si6 0.235072 0.983818 0.272355
Si Si7 0.724857 0.812201 0.527030
O O1 0.040321 0.629999 0.627595
O O2 0.530189 0.330052 0.258274
O O3 0.134893 0.359111 0.562575
O O4 0.436787 0.253460 0.111903
O O5 0.745950 0.679636 0.152909
O O6 0.892272 0.722978 0.242144
O O7 0.500000 0.000000 0.500000
O O8 0.143535 0.681838 0.851916
O O9 0.660456 0.315717 0.574014
O O10 0.104311 0.120891 0.314526
O O11 0.319089 0.003838 0.903354
O O12 0.441922 0.718089 0.560115
O O13 0.905038 0.998030 0.211547
O O14 0.253994 0.071237 0.387948
O O15 0.000000 0.000000 0.500000
#
# Coordination Sequence:
#
# PCOD9079173 Si02
#       7
#     2   2   2   2   2   2   2
#     4  11  22  41  64  93 126 165 211 260 316 378
#     4  10  20  34  68  94 122 169 213 254 315 374
#     4  11  23  40  65  93 124 167 209 258 320 375
#     4  10  18  36  63  92 128 167 210 256 311 371
#     4  10  18  37  62  92 128 166 212 253 311 376
#     4  11  25  43  66  89 125 163 213 265 315 376
#     4  11  22  42  65  91 122 168 210 260 317 372
#
# _framework density 26.010954000000002
#
# number of rings (size 3 to 8) (size 9 to 14) (size 15 to 20)
#    0.000    1.429    4.286    4.286    2.000    3.429 
#    0.000    2.143    0.000    0.000    0.000    0.000 
#    0.000    0.000    0.000    0.000    0.000    0.000 
#
# Total GULP energy -78442.970337 kJ/mol
# GULP energy per Si atom -5603.069310 kJ/mol
# Density = 2.595175 g / cm^3
# Si number density = 26.010954 Si / 1000 Ang^3
#
#
#
# Elastic Constant Matrix: (Units=GPa)
#
#
# Indices 1 2 3 4 5 6 
#
# 1 118.0243 16.1589 18.8604 3.1380 -11.4827 47.1990
# 2 16.1589 152.1729 36.6052 21.7004 -1.0541 31.5769
# 3 18.8604 36.6052 63.7351 0.7243 9.5005 18.4189
# 4 3.1380 21.7004 0.7243 55.8447 12.5813 -10.6356
# 5 -11.4827 -1.0541 9.5005 12.5813 42.5765 -2.1838
# 6 47.1990 31.5769 18.4189 -10.6356 -2.1838 52.7100
#
#
#
# Elastic Compliance Matrix: (Units=1/GPa)
#
#
# Indices 1 2 3 4 5 6 
#
# 1 0.015668 0.003313 -0.002696 -0.006565 0.006021 -0.016148
# 2 0.003313 0.010087 -0.004798 -0.006494 0.003697 -0.008490
# 3 -0.002696 -0.004798 0.020625 0.002881 -0.006381 -0.001602
# 4 -0.006565 -0.006494 0.002881 0.025452 -0.009402 0.013508
# 5 0.006021 0.003697 -0.006381 -0.009402 0.029093 -0.006068
# 6 -0.016148 -0.008490 -0.001602 0.013508 -0.006068 0.041552
#
#
# Mechanical properties :
#
#
# Convention : Reuss Voigt Hill
#
# Bulk Modulus (GPa) = 26.30191 53.02015 39.66103
# Shear Modulus (GPa) = 30.57910 47.71344 39.14627
#
# Velocity S-wave (km/s) = 3.43246 4.28759 3.88363
# Velocity P-wave (km/s) = 5.08358 6.70367 5.94904
#
# Compressibility (1/GPa) = 0.03802005
#
# Stress axis : x y z
#
# Youngs Moduli (GPa) = 63.82437 99.13631 48.48595
#
# Poissons Ratio (x) = -0.32847 0.13070
# Poissons Ratio (y) = -0.21147 0.23261
# Poissons Ratio (z) = 0.17205 0.47561
#
# Static dielectric constant tensor:
#      x y z
#    x 2.028500 0.027060 -0.037680 
#    y 0.027060 2.066080 0.051510 
#    z -0.037680 0.051510 2.052630 
# 
# From -- ./inp_files/260824.got.cif
#   From: 2010.05.17/outbox.cif.g08.bks.cpg/sg2_131_cif.got.tgz:260824.got - 2010.06.03 11:33:40.
