data_PCOD9079959
_publ_section_title
;
Structure prediction by ZEFSAII (Michael W. Deem and Ramdas Pophale) SiO2 
 PCOD9079959
Probable space group: P -1
;
_chemical_formula_sum "Si O2"
_cell_formula_units_Z 12
_cell_length_a 7.451670
_cell_length_b 9.639419
_cell_length_c 8.463304
_cell_angle_alpha 117.918410
_cell_angle_beta 123.647742
_cell_angle_gamma 86.908641
_cell_volume 429.362670
_symmetry_space_group_name_H-M "P -1"
_symmetry_group_IT_number 2
_symmetry_cell_setting 'triclinic'
loop_
_space_group_symop_operation_xyz
x,y,z
-x,-y,-z
loop_
_atom_site_type_symbol
_atom_site_label
_atom_site_fract_x
_atom_site_fract_y
_atom_site_fract_z
Si Si1 0.458857 0.235415 0.887022
Si Si2 0.362831 0.525504 0.172562
Si Si3 0.859775 0.168344 0.202943
Si Si4 0.147472 0.978432 0.371568
Si Si5 0.690753 0.775119 0.664131
Si Si6 0.791106 0.317558 0.555481
O O1 0.359459 0.353514 0.008757
O O2 0.615553 0.147874 0.009502
O O3 0.630189 0.356537 0.911059
O O4 0.261813 0.114104 0.629499
O O5 0.601344 0.619011 0.420256
O O6 0.195700 0.530506 0.239292
O O7 0.909010 0.303567 0.440757
O O8 0.911669 0.008660 0.219892
O O9 0.049410 0.211236 0.181170
O O10 0.299123 0.055916 0.334651
O O11 0.158266 0.811318 0.363401
O O12 0.475384 0.742343 0.651020
#
# Coordination Sequence:
#
# PCOD9079959 Si02
#       6
#     2   2   2   2   2   2
#     4  10  19  37  57  82 111 143 180 229 267 322
#     4   8  19  37  59  73 115 149 170 226 281 306
#     4  10  21  33  60  83 107 145 182 222 274 319
#     4   9  19  37  58  78 113 143 180 221 276 317
#     4   7  18  34  55  79 103 147 174 213 274 313
#     4  10  18  38  59  79 110 148 177 226 269 323
#
# _framework density 27.948399999999999
#
# number of rings (size 3 to 8) (size 9 to 14) (size 15 to 20)
#    2.000    1.000    0.000    1.000    0.000    2.000 
#    0.000    5.833    0.000    0.000    0.000    0.000 
#    0.000    0.000    0.000    0.000    0.000    0.000 
#
# Total GULP energy -66990.788546 kJ/mol
# GULP energy per Si atom -5582.565712 kJ/mol
# Density = 2.788479 g / cm^3
# Si number density = 27.948400 Si / 1000 Ang^3
#
#
#
# Elastic Constant Matrix: (Units=GPa)
#
#
# Indices 1 2 3 4 5 6 
#
# 1 118.8937 51.5969 29.5624 -4.7804 -7.1992 -22.7399
# 2 51.5969 107.7588 59.6158 0.8812 -8.9710 -7.0034
# 3 29.5624 59.6158 97.4416 11.5154 4.2059 -21.4422
# 4 -4.7804 0.8812 11.5154 38.0826 -10.0799 -14.4258
# 5 -7.1992 -8.9710 4.2059 -10.0799 50.2301 2.7264
# 6 -22.7399 -7.0034 -21.4422 -14.4258 2.7264 42.1738
#
#
#
# Elastic Compliance Matrix: (Units=1/GPa)
#
#
# Indices 1 2 3 4 5 6 
#
# 1 0.012496 -0.005948 0.000953 0.004664 0.001164 0.007755
# 2 -0.005948 0.017993 -0.010706 0.000954 0.003752 -0.005578
# 3 0.000953 -0.010706 0.018762 -0.003734 -0.004491 0.007288
# 4 0.004664 0.000954 -0.003734 0.034496 0.007417 0.012095
# 5 0.001164 0.003752 -0.004491 0.007417 0.022607 0.000043
# 6 0.007755 -0.005578 0.007288 0.012095 0.000043 0.034806
#
#
# Mechanical properties :
#
#
# Convention : Reuss Voigt Hill
#
# Bulk Modulus (GPa) = 56.02365 67.29382 61.65874
# Shear Modulus (GPa) = 28.00915 38.31857 33.16386
#
# Velocity S-wave (km/s) = 3.16915 3.70678 3.44846
# Velocity P-wave (km/s) = 5.78621 6.51540 6.16160
#
# Compressibility (1/GPa) = 0.01784960
#
# Stress axis : x y z
#
# Youngs Moduli (GPa) = 80.02322 55.57780 53.29794
#
# Poissons Ratio (x) = 0.33057 -0.05078
# Poissons Ratio (y) = 0.47597 0.57060
# Poissons Ratio (z) = -0.07625 0.59501
#
# Static dielectric constant tensor:
#      x y z
#    x 2.166680 0.001710 -0.050470 
#    y 0.001710 2.151900 -0.029040 
#    z -0.050470 -0.029040 2.130370 
# 
# From -- ./inp_files/182011.got.cif
#   From: 2010.05.17/outbox.cif.g08.bks.cpg/sg2_92_cif.got.tgz:182011.got - 2010.06.03 11:33:40.
