data_PCOD9079272
_publ_section_title
;
Structure prediction by ZEFSAII (Michael W. Deem and Ramdas Pophale) SiO2 
 PCOD9079272
Probable space group: P -1
;
_chemical_formula_sum "Si O2"
_cell_formula_units_Z 16
_cell_length_a 12.959895
_cell_length_b 8.635183
_cell_length_c 8.968292
_cell_angle_alpha 113.765908
_cell_angle_beta 112.723040
_cell_angle_gamma 45.258826
_cell_volume 644.256098
_symmetry_space_group_name_H-M "P -1"
_symmetry_group_IT_number 2
_symmetry_cell_setting 'triclinic'
loop_
_space_group_symop_operation_xyz
x,y,z
-x,-y,-z
loop_
_atom_site_type_symbol
_atom_site_label
_atom_site_fract_x
_atom_site_fract_y
_atom_site_fract_z
Si Si1 0.306856 0.263989 0.454029
Si Si2 0.466906 0.303347 0.124928
Si Si3 0.070378 0.251980 0.885720
Si Si4 0.444762 0.087230 0.756463
Si Si5 0.912017 0.916259 0.884681
Si Si6 0.188048 0.763460 0.290724
Si Si7 0.020021 0.474789 0.676694
Si Si8 0.374374 0.586487 0.587342
O O1 0.312431 0.202714 0.606982
O O2 0.150155 0.416267 0.343945
O O3 0.366076 0.397309 0.542883
O O4 0.415995 0.047121 0.329871
O O5 0.314536 0.522823 0.193540
O O6 0.582893 0.342535 0.220859
O O7 0.527458 0.098707 0.190827
O O8 0.439373 0.251848 0.927688
O O9 0.955907 0.211219 0.784847
O O10 0.121556 0.258191 0.753009
O O11 0.000000 0.500000 0.000000
O O12 0.165156 0.085758 0.012066
O O13 0.030258 0.658517 0.804958
O O14 0.818468 0.060769 0.745053
O O15 0.000000 0.000000 0.000000
O O16 0.227156 0.771445 0.485115
O O17 0.000000 0.500000 0.500000
O O18 0.500000 0.500000 0.500000
#
# Coordination Sequence:
#
# PCOD9079272 Si02
#       8
#     2   2   2   2   2   2   2   2
#     4  11  22  39  63  92 127 171 206 258 326 380
#     4  10  21  38  62  95 129 160 209 262 308 392
#     4   9  18  37  62  89 122 162 215 260 312 375
#     4  10  22  38  61  95 129 160 215 257 313 381
#     4   9  21  38  64  90 119 168 210 259 317 383
#     4  10  18  36  65  91 131 169 204 257 333 376
#     4  11  23  41  66  91 125 167 217 265 311 374
#     4  10  19  36  63  91 123 169 200 256 322 377
#
# _framework density 24.834845000000001
#
# number of rings (size 3 to 8) (size 9 to 14) (size 15 to 20)
#    0.000    2.000    3.750    0.000    1.750    4.500 
#    0.000    5.000    2.750    0.000    0.000    0.000 
#    0.000    0.000    0.000    0.000    0.000    0.000 
#
# Total GULP energy -89320.859200 kJ/mol
# GULP energy per Si atom -5582.553700 kJ/mol
# Density = 2.477832 g / cm^3
# Si number density = 24.834845 Si / 1000 Ang^3
#
#
#
# Elastic Constant Matrix: (Units=GPa)
#
#
# Indices 1 2 3 4 5 6 
#
# 1 54.0508 13.0159 23.1614 -0.8158 -2.0134 27.1729
# 2 13.0159 83.0637 27.3312 -21.6010 -15.7351 31.7301
# 3 23.1614 27.3312 131.5561 -3.0273 -4.6518 17.4324
# 4 -0.8158 -21.6010 -3.0273 50.4608 14.2368 -3.4623
# 5 -2.0134 -15.7351 -4.6518 14.2368 44.7492 -7.5275
# 6 27.1729 31.7301 17.4324 -3.4623 -7.5275 32.5793
#
#
#
# Elastic Compliance Matrix: (Units=1/GPa)
#
#
# Indices 1 2 3 4 5 6 
#
# 1 0.037754 0.011109 -0.003588 0.003092 -0.002591 -0.040659
# 2 0.011109 0.025785 -0.002880 0.008526 0.001231 -0.031648
# 3 -0.003588 -0.002880 0.008672 -0.000736 0.000149 0.001113
# 4 0.003092 0.008526 -0.000736 0.024622 -0.006344 -0.009338
# 5 -0.002591 0.001231 0.000149 -0.006344 0.025732 0.006153
# 6 -0.040659 -0.031648 0.001113 -0.009338 0.006153 0.095263
#
#
# Mechanical properties :
#
#
# Convention : Reuss Voigt Hill
#
# Bulk Modulus (GPa) = 12.27060 43.96531 28.11795
# Shear Modulus (GPa) = 21.21262 39.23533 30.22398
#
# Velocity S-wave (km/s) = 2.92575 3.97904 3.49234
# Velocity P-wave (km/s) = 4.04536 6.23313 5.25437
#
# Compressibility (1/GPa) = 0.08149563
#
# Stress axis : x y z
#
# Youngs Moduli (GPa) = 26.48743 38.78158 115.31283
#
# Poissons Ratio (x) = -0.43084 0.41370
# Poissons Ratio (y) = -0.29426 0.33205
# Poissons Ratio (z) = 0.09503 0.11167
#
# Static dielectric constant tensor:
#      x y z
#    x 2.060340 -0.066120 -0.040140 
#    y -0.066120 2.015990 -0.044600 
#    z -0.040140 -0.044600 2.051170 
# 
# From -- ./inp_files/296190.got.cif
#   From: 2010.05.17/outbox.cif.g08.bks.cpg/sg2_149_cif.got.tgz:296190.got - 2010.06.03 11:33:40.
