data_PCOD9079904
_publ_section_title
;
Structure prediction by ZEFSAII (Michael W. Deem and Ramdas Pophale) SiO2 
 PCOD9079904
Probable space group: P -1
;
_chemical_formula_sum "Si O2"
_cell_formula_units_Z 16
_cell_length_a 10.776954
_cell_length_b 9.204096
_cell_length_c 22.914545
_cell_angle_alpha 141.761621
_cell_angle_beta 32.225064
_cell_angle_gamma 140.699675
_cell_volume 707.774988
_symmetry_space_group_name_H-M "P -1"
_symmetry_group_IT_number 2
_symmetry_cell_setting 'triclinic'
loop_
_space_group_symop_operation_xyz
x,y,z
-x,-y,-z
loop_
_atom_site_type_symbol
_atom_site_label
_atom_site_fract_x
_atom_site_fract_y
_atom_site_fract_z
Si Si1 0.646185 0.729669 0.796338
Si Si2 0.995314 0.675633 0.338981
Si Si3 0.025923 0.784088 0.565319
Si Si4 0.219191 0.446834 0.733831
Si Si5 0.992770 0.861958 0.804664
Si Si6 0.692314 0.810628 0.598870
Si Si7 0.114933 0.697689 0.964444
Si Si8 0.541694 0.811860 0.347321
O O1 0.868913 0.844607 0.698800
O O2 0.755968 0.818935 0.843652
O O3 0.408101 0.792941 0.890640
O O4 0.563503 0.429106 0.729026
O O5 0.952325 0.709794 0.298480
O O6 0.767949 0.711003 0.477273
O O7 0.010478 0.402917 0.254794
O O8 0.236182 0.891093 0.335694
O O9 0.889031 0.778059 0.557179
O O10 0.000000 0.500000 0.500000
O O11 0.318457 0.908583 0.482545
O O12 0.427121 0.661709 0.683150
O O13 0.080896 0.561675 0.872685
O O14 0.359324 0.304272 0.673561
O O15 0.236371 0.978681 0.705304
O O16 0.988044 0.074401 0.918965
O O17 0.000000 0.500000 0.000000
#
# Coordination Sequence:
#
# PCOD9079904 Si02
#       8
#     2   2   2   2   2   2   2   2
#     4  10  21  40  68 100 135 175 222 293 346 383
#     4  11  28  43  67  98 145 190 221 277 354 423
#     4  10  18  37  69  98 130 170 222 291 335 393
#     4  11  23  44  72  98 139 187 222 285 351 407
#     4  12  25  43  69 105 138 186 235 275 345 415
#     4  11  23  48  65  97 145 180 234 278 349 419
#     4  11  22  46  72 106 137 175 236 298 335 396
#     4  10  22  39  69 108 135 169 237 291 339 407
#
# _framework density 22.606055999999999
#
# number of rings (size 3 to 8) (size 9 to 14) (size 15 to 20)
#    0.000    1.250    6.250    2.250    1.750    5.000 
#    2.250    0.625    0.000    0.000    0.000    0.000 
#    0.000    0.000    0.000    0.000    0.000    0.000 
#
# Total GULP energy -89514.008079 kJ/mol
# GULP energy per Si atom -5594.625505 kJ/mol
# Density = 2.255460 g / cm^3
# Si number density = 22.606056 Si / 1000 Ang^3
#
#
#
# Elastic Constant Matrix: (Units=GPa)
#
#
# Indices 1 2 3 4 5 6 
#
# 1 58.2658 -4.0069 32.9274 5.0034 15.3170 -1.8926
# 2 -4.0069 78.2927 32.7791 11.5773 -9.0844 -9.4373
# 3 32.9274 32.7791 141.2796 6.8175 14.3478 -5.0483
# 4 5.0034 11.5773 6.8175 32.9303 3.8135 -2.9746
# 5 15.3170 -9.0844 14.3478 3.8135 42.8505 -0.6433
# 6 -1.8926 -9.4373 -5.0483 -2.9746 -0.6433 33.9803
#
#
#
# Elastic Compliance Matrix: (Units=1/GPa)
#
#
# Indices 1 2 3 4 5 6 
#
# 1 0.021925 0.003203 -0.005161 -0.002698 -0.005174 0.001010
# 2 0.003203 0.016689 -0.004675 -0.005573 0.004510 0.003716
# 3 -0.005161 -0.004675 0.009572 0.000713 -0.002417 -0.000147
# 4 -0.002698 -0.005573 0.000713 0.033093 -0.003382 0.001241
# 5 -0.005174 0.004510 -0.002417 -0.003382 0.027265 0.000825
# 6 0.001010 0.003716 -0.000147 0.001241 0.000825 0.030620
#
#
# Mechanical properties :
#
#
# Convention : Reuss Voigt Hill
#
# Bulk Modulus (GPa) = 28.63751 44.58191 36.60971
# Shear Modulus (GPa) = 30.47504 36.36145 33.41824
#
# Velocity S-wave (km/s) = 3.67562 4.01494 3.84902
# Velocity P-wave (km/s) = 5.54158 6.42316 5.99859
#
# Compressibility (1/GPa) = 0.03491923
#
# Stress axis : x y z
#
# Youngs Moduli (GPa) = 45.61093 59.91891 104.47636
#
# Poissons Ratio (x) = -0.19194 0.53923
# Poissons Ratio (y) = -0.14611 0.48843
# Poissons Ratio (z) = 0.23541 0.28012
#
# Static dielectric constant tensor:
#      x y z
#    x 1.838760 0.006600 -0.004170 
#    y 0.006600 1.916180 0.037060 
#    z -0.004170 0.037060 1.874810 
# 
# From -- ./inp_files/593824.got.cif
#   From: 2010.05.17/outbox.cif.g08.bks.cpg/sg2_297_cif.got.tgz:593824.got - 2010.06.03 11:33:40.
