data_PCOD9079616
_publ_section_title
;
Structure prediction by ZEFSAII (Michael W. Deem and Ramdas Pophale) SiO2 
 PCOD9079616
Probable space group: P -1
;
_chemical_formula_sum "Si O2"
_cell_formula_units_Z 16
_cell_length_a 8.742590
_cell_length_b 18.752350
_cell_length_c 5.557609
_cell_angle_alpha 96.774956
_cell_angle_beta 59.631012
_cell_angle_gamma 63.513431
_cell_volume 630.188917
_symmetry_space_group_name_H-M "P -1"
_symmetry_group_IT_number 2
_symmetry_cell_setting 'triclinic'
loop_
_space_group_symop_operation_xyz
x,y,z
-x,-y,-z
loop_
_atom_site_type_symbol
_atom_site_label
_atom_site_fract_x
_atom_site_fract_y
_atom_site_fract_z
Si Si1 0.138693 0.122482 0.390738
Si Si2 0.520683 0.850775 0.672003
Si Si3 0.842504 0.315003 0.605981
Si Si4 0.747267 0.972368 0.246833
Si Si5 0.514165 0.581507 0.468036
Si Si6 0.794493 0.713477 0.025269
Si Si7 0.610310 0.677811 0.775814
Si Si8 0.076741 0.567835 0.134468
O O1 0.362389 0.117738 0.239669
O O2 0.142595 0.067610 0.596077
O O3 0.919312 0.223794 0.635590
O O4 0.145609 0.089319 0.101110
O O5 0.522403 0.770046 0.746225
O O6 0.299638 0.934830 0.767342
O O7 0.691812 0.800011 0.298988
O O8 0.670944 0.350313 0.542791
O O9 0.793086 0.398713 0.827145
O O10 0.075287 0.281506 0.289642
O O11 0.500000 0.000000 0.500000
O O12 0.500000 0.500000 0.500000
O O13 0.501624 0.633062 0.737378
O O14 0.750868 0.532126 0.127456
O O15 0.613376 0.703311 0.057122
O O16 0.967377 0.629313 0.012676
O O17 0.869009 0.599202 0.479037
#
# Coordination Sequence:
#
# PCOD9079616 Si02
#       8
#     2   2   2   2   2   2   2   2
#     4  11  20  34  60  94 131 168 207 267 328 377
#     4  10  19  35  60  91 127 160 207 260 316 382
#     4  11  21  38  62  84 128 167 202 266 319 389
#     4  10  21  30  59  98 130 160 211 271 318 380
#     4  12  25  42  61  92 123 162 220 266 319 387
#     4  10  18  37  62  86 122 163 209 254 327 371
#     4  10  23  39  64  87 124 170 204 267 322 382
#     4  10  21  42  62  84 120 167 208 264 321 382
#
# _framework density 25.389212000000001
#
# number of rings (size 3 to 8) (size 9 to 14) (size 15 to 20)
#    0.000    1.500    5.000    3.750    1.750    0.500 
#    9.000    0.000    0.000    1.500    0.000    0.000 
#    0.000    0.000    0.000    0.000    0.000    0.125 
#
# Total GULP energy -89435.258298 kJ/mol
# GULP energy per Si atom -5589.703644 kJ/mol
# Density = 2.533142 g / cm^3
# Si number density = 25.389212 Si / 1000 Ang^3
#
#
#
# Elastic Constant Matrix: (Units=GPa)
#
#
# Indices 1 2 3 4 5 6 
#
# 1 78.9719 26.0084 1.6751 -5.5374 19.0308 -1.3789
# 2 26.0084 101.7858 8.8112 13.7087 4.5405 -14.0961
# 3 1.6751 8.8112 76.6800 3.9665 12.7097 3.4881
# 4 -5.5374 13.7087 3.9665 32.7468 -6.8541 2.3354
# 5 19.0308 4.5405 12.7097 -6.8541 30.7551 -7.4291
# 6 -1.3789 -14.0961 3.4881 2.3354 -7.4291 43.1361
#
#
#
# Elastic Compliance Matrix: (Units=1/GPa)
#
#
# Indices 1 2 3 4 5 6 
#
# 1 0.016927 -0.004809 0.001978 0.002609 -0.010770 -0.003186
# 2 -0.004809 0.012552 -0.001502 -0.005893 0.001555 0.004656
# 3 0.001978 -0.001502 0.014813 -0.002372 -0.008362 -0.002937
# 4 0.002609 -0.005893 -0.002372 0.035484 0.007597 -0.002263
# 5 -0.010770 0.001555 -0.008362 0.007597 0.046120 0.008372
# 6 -0.003186 0.004656 -0.002937 -0.002263 0.008372 0.026404
#
#
# Mechanical properties :
#
#
# Convention : Reuss Voigt Hill
#
# Bulk Modulus (GPa) = 28.06874 36.71412 32.39143
# Shear Modulus (GPa) = 28.92814 36.05713 32.49264
#
# Velocity S-wave (km/s) = 3.37914 3.77261 3.58128
# Velocity P-wave (km/s) = 5.12876 5.78521 5.46685
#
# Compressibility (1/GPa) = 0.03562682
#
# Stress axis : x y z
#
# Youngs Moduli (GPa) = 59.07688 79.66587 67.50906
#
# Poissons Ratio (x) = 0.38308 -0.13352
# Poissons Ratio (y) = 0.28408 0.10140
# Poissons Ratio (z) = -0.11685 0.11966
#
# Static dielectric constant tensor:
#      x y z
#    x 2.103550 0.061320 -0.038370 
#    y 0.061320 2.037160 -0.035270 
#    z -0.038370 -0.035270 2.049970 
# 
# From -- ./inp_files/51828.got.cif
#   From: 2010.05.17/outbox.cif.g08.bks.cpg/sg2_26_cif.got.tgz:51828.got - 2010.06.03 11:33:40.
