data_PCOD9079669
_publ_section_title
;
Structure prediction by ZEFSAII (Michael W. Deem and Ramdas Pophale) SiO2 
 PCOD9079669
Probable space group: P -1
;
_chemical_formula_sum "Si O2"
_cell_formula_units_Z 16
_cell_length_a 11.198750
_cell_length_b 9.968133
_cell_length_c 7.966408
_cell_angle_alpha 110.993418
_cell_angle_beta 115.692722
_cell_angle_gamma 63.830220
_cell_volume 703.714444
_symmetry_space_group_name_H-M "P -1"
_symmetry_group_IT_number 2
_symmetry_cell_setting 'triclinic'
loop_
_space_group_symop_operation_xyz
x,y,z
-x,-y,-z
loop_
_atom_site_type_symbol
_atom_site_label
_atom_site_fract_x
_atom_site_fract_y
_atom_site_fract_z
Si Si1 0.240207 0.711560 0.322009
Si Si2 0.187324 0.218596 0.238258
Si Si3 0.696505 0.976265 0.443764
Si Si4 0.322889 0.458844 0.537039
Si Si5 0.575892 0.027197 0.889953
Si Si6 0.570617 0.342716 0.875599
Si Si7 0.930705 0.377018 0.338843
Si Si8 0.030801 0.155647 0.609081
O O1 0.277568 0.863989 0.450505
O O2 0.320225 0.587603 0.457214
O O3 0.286986 0.666834 0.139537
O O4 0.072601 0.750672 0.267025
O O5 0.249225 0.355764 0.347571
O O6 0.268899 0.098071 0.093500
O O7 0.018775 0.296660 0.193107
O O8 0.243855 0.120263 0.397176
O O9 0.535921 0.993903 0.322787
O O10 0.801827 0.882825 0.317636
O O11 0.468378 0.353354 0.657489
O O12 0.232767 0.535460 0.683491
O O13 0.583871 0.195557 0.932939
O O14 0.500000 0.000000 0.000000
O O15 0.500000 0.500000 0.000000
O O16 0.000000 0.500000 0.500000
O O17 0.968569 0.247720 0.444681
O O18 0.000000 0.000000 0.500000
#
# Coordination Sequence:
#
# PCOD9079669 Si02
#       8
#     2   2   2   2   2   2   2   2
#     4  10  20  36  61  89 112 145 185 228 285 338
#     4  10  18  37  63  84 110 144 192 237 274 327
#     4  10  18  37  63  84 110 144 192 237 274 327
#     4  10  20  36  61  89 112 145 185 228 285 338
#     4  12  26  39  56  82 113 155 196 232 275 325
#     4  12  26  40  54  80 121 154 185 233 282 334
#     4   8  16  30  56  88 111 134 177 236 281 324
#     4   8  16  30  56  88 111 134 177 236 281 324
#
# _framework density 22.736492999999999
#
# number of rings (size 3 to 8) (size 9 to 14) (size 15 to 20)
#    0.000    2.000    2.500    1.500    3.500    0.000 
#    0.000    1.250    0.000    3.000    0.000    0.000 
#    0.000    0.000    0.000    0.000    0.000    0.000 
#
# Total GULP energy -89199.396999 kJ/mol
# GULP energy per Si atom -5574.962312 kJ/mol
# Density = 2.268474 g / cm^3
# Si number density = 22.736493 Si / 1000 Ang^3
#
#
#
# Elastic Constant Matrix: (Units=GPa)
#
#
# Indices 1 2 3 4 5 6 
#
# 1 117.5143 23.0094 20.9529 9.7725 -42.3022 -30.2744
# 2 23.0094 68.9833 -1.3932 13.2288 -10.1799 -6.8868
# 3 20.9529 -1.3932 54.2225 4.6267 -28.0439 -10.6219
# 4 9.7725 13.2288 4.6267 20.7904 -11.4656 -11.9875
# 5 -42.3022 -10.1799 -28.0439 -11.4656 43.4443 10.2621
# 6 -30.2744 -6.8868 -10.6219 -11.9875 10.2621 45.7293
#
#
#
# Elastic Compliance Matrix: (Units=1/GPa)
#
#
# Indices 1 2 3 4 5 6 
#
# 1 0.016845 -0.003639 0.003963 0.009249 0.018219 0.009860
# 2 -0.003639 0.017672 0.002129 -0.011566 -0.000571 -0.002157
# 3 0.003963 0.002129 0.030101 0.007076 0.024151 0.006371
# 4 0.009249 -0.011566 0.007076 0.075404 0.026052 0.019945
# 5 0.018219 -0.000571 0.024151 0.026052 0.060531 0.010831
# 6 0.009860 -0.002157 0.006371 0.019945 0.010831 0.032349
#
#
# Mechanical properties :
#
#
# Convention : Reuss Voigt Hill
#
# Bulk Modulus (GPa) = 14.38380 36.20646 25.29513
# Shear Modulus (GPa) = 19.90678 35.20285 27.55482
#
# Velocity S-wave (km/s) = 2.96217 3.93911 3.48504
# Velocity P-wave (km/s) = 4.24727 6.05374 5.22910
#
# Compressibility (1/GPa) = 0.06952268
#
# Stress axis : x y z
#
# Youngs Moduli (GPa) = 59.36375 56.58818 33.22149
#
# Poissons Ratio (x) = 0.20594 -0.13164
# Poissons Ratio (y) = 0.21604 -0.07074
# Poissons Ratio (z) = -0.23523 -0.12049
#
# Static dielectric constant tensor:
#      x y z
#    x 1.903550 -0.106230 -0.096660 
#    y -0.106230 1.759020 -0.009000 
#    z -0.096660 -0.009000 1.841320 
# 
# From -- ./inp_files/225157.got.cif
#   From: 2010.05.17/outbox.cif.g08.bks.cpg/sg2_113_cif.got.tgz:225157.got - 2010.06.03 11:33:40.
