data_PCOD9079260
_publ_section_title
;
Structure prediction by ZEFSAII (Michael W. Deem and Ramdas Pophale) SiO2 
 PCOD9079260
Probable space group: P -1
;
_chemical_formula_sum "Si O2"
_cell_formula_units_Z 14
_cell_length_a 14.433455
_cell_length_b 24.380499
_cell_length_c 18.175584
_cell_angle_alpha 18.109246
_cell_angle_beta 154.024254
_cell_angle_gamma 161.124063
_cell_volume 643.164672
_symmetry_space_group_name_H-M "P -1"
_symmetry_group_IT_number 2
_symmetry_cell_setting 'triclinic'
loop_
_space_group_symop_operation_xyz
x,y,z
-x,-y,-z
loop_
_atom_site_type_symbol
_atom_site_label
_atom_site_fract_x
_atom_site_fract_y
_atom_site_fract_z
Si Si1 0.599520 0.059775 0.751679
Si Si2 0.692104 0.352767 0.173328
Si Si3 0.034892 0.055087 0.041981
Si Si4 0.021599 0.809121 0.741644
Si Si5 0.474638 0.275000 0.270489
Si Si6 0.281488 0.538969 0.159575
Si Si7 0.970551 0.782677 0.475941
O O1 0.568264 0.219521 0.479396
O O2 0.346900 0.936973 0.788302
O O3 0.928820 0.185072 0.834167
O O4 0.512268 0.823355 0.951379
O O5 0.374632 0.226773 0.081780
O O6 0.666494 0.308612 0.297859
O O7 0.808257 0.248890 0.345884
O O8 0.914607 0.631916 0.958664
O O9 0.895676 0.827335 0.287256
O O10 0.000000 0.000000 0.000000
O O11 0.785200 0.635672 0.730015
O O12 0.000000 0.000000 0.500000
O O13 0.149704 0.029451 0.334612
O O14 0.500000 0.500000 0.000000
O O15 0.260766 0.432350 0.359954
O O16 0.000000 0.500000 0.000000
#
# Coordination Sequence:
#
# PCOD9079260 Si02
#       7
#     2   2   2   2   2   2   2
#     4  11  21  41  63  91 125 159 208 256 309 361
#     4  11  22  39  62  92 121 161 209 255 299 370
#     4  11  23  36  62  96 128 158 201 262 315 356
#     4  11  21  37  63  89 117 161 209 251 302 365
#     4  11  21  36  61  90 120 162 207 252 302 369
#     4  10  18  36  65  87 118 156 206 257 296 361
#     4  11  20  39  63  90 122 161 209 250 302 369
#
# _framework density 21.767364000000001
#
# number of rings (size 3 to 8) (size 9 to 14) (size 15 to 20)
#    0.000    1.143    5.714    5.143    0.000    0.571 
#    0.000    6.429    0.000    0.857    0.000    0.000 
#    0.000    0.000    0.000    0.000    0.000    0.000 
#
# Total GULP energy -78024.569662 kJ/mol
# GULP energy per Si atom -5573.183547 kJ/mol
# Density = 2.171782 g / cm^3
# Si number density = 21.767364 Si / 1000 Ang^3
#
#
#
# Elastic Constant Matrix: (Units=GPa)
#
#
# Indices 1 2 3 4 5 6 
#
# 1 50.3232 1.4979 10.2000 -16.8535 -11.5573 23.8460
# 2 1.4979 26.3450 20.6174 4.7988 6.3244 16.9906
# 3 10.2000 20.6174 140.0444 -16.0721 -2.8410 5.9779
# 4 -16.8535 4.7988 -16.0721 35.5696 -6.2439 1.2962
# 5 -11.5573 6.3244 -2.8410 -6.2439 57.0983 -4.0548
# 6 23.8460 16.9906 5.9779 1.2962 -4.0548 31.8481
#
#
#
# Elastic Compliance Matrix: (Units=1/GPa)
#
#
# Indices 1 2 3 4 5 6 
#
# 1 0.057722 0.031777 -0.003348 0.024863 0.006474 -0.059731
# 2 0.031777 0.099499 -0.014439 -0.004093 -0.011110 -0.075412
# 3 -0.003348 -0.014439 0.009762 0.004910 0.002548 0.008502
# 4 0.024863 -0.004093 0.004910 0.044966 0.009370 -0.017991
# 5 0.006474 -0.011110 0.002548 0.009370 0.021415 0.002947
# 6 -0.059731 -0.075412 0.008502 -0.017991 0.002947 0.115865
#
#
# Mechanical properties :
#
#
# Convention : Reuss Voigt Hill
#
# Bulk Modulus (GPa) = 5.12916 31.26034 18.19475
# Shear Modulus (GPa) = 12.94544 37.19635 25.07090
#
# Velocity S-wave (km/s) = 2.44133 4.13826 3.39745
# Velocity P-wave (km/s) = 3.21065 6.10130 4.87515
#
# Compressibility (1/GPa) = 0.19496381
#
# Stress axis : x y z
#
# Youngs Moduli (GPa) = 17.32455 10.05034 102.43344
#
# Poissons Ratio (x) = -0.31937 0.34295
# Poissons Ratio (y) = -0.55053 1.47902
# Poissons Ratio (z) = 0.05800 0.14512
#
# Static dielectric constant tensor:
#      x y z
#    x 1.870560 0.026950 -0.032770 
#    y 0.026950 2.068910 -0.066990 
#    z -0.032770 -0.066990 1.649840 
# 
# From -- ./inp_files/574403.got.cif
#   From: 2010.05.17/outbox.cif.g08.bks.cpg/sg2_288_cif.got.tgz:574403.got - 2010.06.03 11:33:40.
