data_PCOD9079387
_publ_section_title
;
Structure prediction by ZEFSAII (Michael W. Deem and Ramdas Pophale) SiO2 
 PCOD9079387
Probable space group: P -1
;
_chemical_formula_sum "Si O2"
_cell_formula_units_Z 12
_cell_length_a 9.849760
_cell_length_b 16.318474
_cell_length_c 16.943212
_cell_angle_alpha 154.692229
_cell_angle_beta 136.029179
_cell_angle_gamma 34.887545
_cell_volume 663.203056
_symmetry_space_group_name_H-M "P -1"
_symmetry_group_IT_number 2
_symmetry_cell_setting 'triclinic'
loop_
_space_group_symop_operation_xyz
x,y,z
-x,-y,-z
loop_
_atom_site_type_symbol
_atom_site_label
_atom_site_fract_x
_atom_site_fract_y
_atom_site_fract_z
Si Si1 0.937340 0.757585 0.201496
Si Si2 0.041795 0.224881 0.505002
Si Si3 0.305999 0.921689 0.769826
Si Si4 0.848657 0.715158 0.845857
Si Si5 0.874982 0.567412 0.422079
Si Si6 0.315910 0.877232 0.447689
O O1 0.776072 0.906489 0.189078
O O2 0.172363 0.759706 0.296399
O O3 0.796871 0.908142 0.351133
O O4 0.000000 0.500000 0.000000
O O5 0.086789 0.259160 0.462826
O O6 0.988763 0.463081 0.728246
O O7 0.253309 0.996053 0.438339
O O8 0.810381 0.220889 0.413226
O O9 0.589250 0.775009 0.768236
O O10 0.192103 0.081234 0.939056
O O11 0.996155 0.659929 0.779068
O O12 0.593728 0.694321 0.419609
O O13 0.000000 0.500000 0.500000
#
# Coordination Sequence:
#
# PCOD9079387 Si02
#       6
#     2   2   2   2   2   2
#     4  10  21  36  59  82 109 144 184 228 270 322
#     4   9  20  35  59  78 109 148 180 221 273 319
#     4  10  18  37  54  85 107 145 185 221 268 327
#     4   9  20  33  57  79 114 139 183 224 268 321
#     4  10  21  38  55  82 112 147 180 225 276 322
#     4  10  20  39  57  82 112 143 184 223 272 327
#
# _framework density 18.094006
#
# number of rings (size 3 to 8) (size 9 to 14) (size 15 to 20)
#    1.000    1.333    0.000    3.000    0.000    0.000 
#    9.000    2.500    0.000    0.000    0.000    0.000 
#    0.000    0.000    0.000    0.000    0.000    0.000 
#
# Total GULP energy -66823.065549 kJ/mol
# GULP energy per Si atom -5568.588796 kJ/mol
# Density = 1.805282 g / cm^3
# Si number density = 18.094006 Si / 1000 Ang^3
#
#
#
# Elastic Constant Matrix: (Units=GPa)
#
#
# Indices 1 2 3 4 5 6 
#
# 1 71.0133 45.1074 22.5583 7.5620 -12.5531 9.9778
# 2 45.1074 106.2411 17.1334 -2.2323 -8.9730 3.7437
# 3 22.5583 17.1334 66.7046 14.9588 -3.9827 4.9833
# 4 7.5620 -2.2323 14.9588 18.6729 2.6715 -6.0495
# 5 -12.5531 -8.9730 -3.9827 2.6715 18.1896 -2.3365
# 6 9.9778 3.7437 4.9833 -6.0495 -2.3365 29.3240
#
#
#
# Elastic Compliance Matrix: (Units=1/GPa)
#
#
# Indices 1 2 3 4 5 6 
#
# 1 0.026192 -0.009726 -0.001227 -0.015923 0.014112 -0.009622
# 2 -0.009726 0.013929 -0.002708 0.009185 -0.001297 0.003783
# 3 -0.001227 -0.002708 0.021261 -0.019623 0.004514 -0.006538
# 4 -0.015923 0.009185 -0.019623 0.087533 -0.020527 0.024002
# 5 0.014112 -0.001297 0.004514 -0.020527 0.067532 -0.004257
# 6 -0.009622 0.003783 -0.006538 0.024002 -0.004257 0.042617
#
#
# Mechanical properties :
#
#
# Convention : Reuss Voigt Hill
#
# Bulk Modulus (GPa) = 29.36162 45.95082 37.65622
# Shear Modulus (GPa) = 16.79327 23.84795 20.32061
#
# Velocity S-wave (km/s) = 3.04980 3.63437 3.35484
# Velocity P-wave (km/s) = 5.35389 6.56218 5.98859
#
# Compressibility (1/GPa) = 0.03405806
#
# Stress axis : x y z
#
# Youngs Moduli (GPa) = 38.17986 71.79292 47.03551
#
# Poissons Ratio (x) = 0.69827 0.05772
# Poissons Ratio (y) = 0.37134 0.12739
# Poissons Ratio (z) = 0.04685 0.19444
#
# Static dielectric constant tensor:
#      x y z
#    x 1.625880 0.015610 -0.022670 
#    y 0.015610 1.614310 -0.002630 
#    z -0.022670 -0.002630 1.617040 
# 
# From -- ./inp_files/64855.got.cif
#   From: 2010.05.17/outbox.cif.g08.bks.cpg/sg2_33_cif.got.tgz:64855.got - 2010.06.03 11:33:40.
