data_PCOD9079374
_publ_section_title
;
Structure prediction by ZEFSAII (Michael W. Deem and Ramdas Pophale) SiO2 
 PCOD9079374
Probable space group: P -1
;
_chemical_formula_sum "Si O2"
_cell_formula_units_Z 15
_cell_length_a 11.625089
_cell_length_b 8.597357
_cell_length_c 13.873378
_cell_angle_alpha 56.578240
_cell_angle_beta 76.696833
_cell_angle_gamma 39.286461
_cell_volume 680.419553
_symmetry_space_group_name_H-M "P -1"
_symmetry_group_IT_number 2
_symmetry_cell_setting 'triclinic'
loop_
_space_group_symop_operation_xyz
x,y,z
-x,-y,-z
loop_
_atom_site_type_symbol
_atom_site_label
_atom_site_fract_x
_atom_site_fract_y
_atom_site_fract_z
Si Si1 0.500000 0.000000 0.500000
Si Si2 0.289465 0.154047 0.280282
Si Si3 0.019676 0.492972 0.383870
Si Si4 0.523416 0.568797 0.730834
Si Si5 0.223549 0.658240 0.060654
Si Si6 0.832188 0.070883 0.687823
Si Si7 0.166945 0.872902 0.796750
Si Si8 0.272263 0.458588 0.563482
O O1 0.486243 0.833083 0.630929
O O2 0.669676 0.678007 0.509554
O O3 0.244343 0.411812 0.158944
O O4 0.237866 0.216577 0.385814
O O5 0.154744 0.161298 0.261914
O O6 0.514788 0.819585 0.334261
O O7 0.884102 0.488486 0.379939
O O8 0.000000 0.500000 0.500000
O O9 0.930344 0.805604 0.266245
O O10 0.648599 0.402414 0.861726
O O11 0.639944 0.334716 0.700474
O O12 0.318941 0.726198 0.733705
O O13 0.272168 0.655239 0.943702
O O14 0.000000 0.000000 0.000000
O O15 0.806493 0.233741 0.542783
O O16 0.005305 0.937572 0.763996
#
# Coordination Sequence:
#
# PCOD9079374 Si02
#       8
#     1   2   2   2   2   2   2   2
#     4  10  18  36  70  98 122 164 214 274 320 376
#     4  12  26  44  65  97 140 175 216 271 336 401
#     4  12  23  39  70  98 127 168 226 279 325 385
#     4  11  23  43  71  98 133 170 224 276 329 386
#     4  12  23  45  70  96 129 176 231 277 320 382
#     4  11  26  42  64 100 138 178 209 269 343 402
#     4  12  24  43  69 100 131 174 227 278 322 390
#     4  11  22  39  64  99 132 168 216 264 337 388
#
# _framework density 22.045221000000002
#
# number of rings (size 3 to 8) (size 9 to 14) (size 15 to 20)
#    0.000    0.533    6.667    1.600    1.867    2.133 
#    0.000    0.667    0.000    0.000    0.000    0.000 
#    0.000    0.000    0.000    0.000    0.000    0.000 
#
# Total GULP energy -83724.809702 kJ/mol
# GULP energy per Si atom -5581.653980 kJ/mol
# Density = 2.199505 g / cm^3
# Si number density = 22.045221 Si / 1000 Ang^3
#
#
#
# Elastic Constant Matrix: (Units=GPa)
#
#
# Indices 1 2 3 4 5 6 
#
# 1 79.4692 11.9728 16.1475 -0.6019 -20.2747 -0.1428
# 2 11.9728 52.7170 2.7186 9.4955 -10.1664 -14.2480
# 3 16.1475 2.7186 117.6190 -1.5043 -9.6664 7.1579
# 4 -0.6019 9.4955 -1.5043 24.5273 -8.2926 -8.0476
# 5 -20.2747 -10.1664 -9.6664 -8.2926 25.2042 -1.9362
# 6 -0.1428 -14.2480 7.1579 -8.0476 -1.9362 34.2644
#
#
#
# Elastic Compliance Matrix: (Units=1/GPa)
#
#
# Indices 1 2 3 4 5 6 
#
# 1 0.016894 -0.001551 -0.001100 0.006658 0.014891 0.002061
# 2 -0.001551 0.024133 -0.000328 -0.003525 0.007947 0.009718
# 3 -0.001100 -0.000328 0.008990 0.001007 0.002636 -0.001634
# 4 0.006658 -0.003525 0.001007 0.054246 0.023121 0.012399
# 5 0.014891 0.007947 0.002636 0.023121 0.064392 0.011885
# 6 0.002061 0.009718 -0.001634 0.012399 0.011885 0.037159
#
#
# Mechanical properties :
#
#
# Convention : Reuss Voigt Hill
#
# Bulk Modulus (GPa) = 22.69719 34.60924 28.65322
# Shear Modulus (GPa) = 22.07928 31.39692 26.73810
#
# Velocity S-wave (km/s) = 3.16815 3.77796 3.48641
# Velocity P-wave (km/s) = 4.86837 5.89609 5.40671
#
# Compressibility (1/GPa) = 0.04405831
#
# Stress axis : x y z
#
# Youngs Moduli (GPa) = 59.19281 41.43785 111.24005
#
# Poissons Ratio (x) = 0.06426 0.12235
# Poissons Ratio (y) = 0.09179 0.03651
# Poissons Ratio (z) = 0.06510 0.01360
#
# Static dielectric constant tensor:
#      x y z
#    x 1.777020 -0.030500 -0.017110 
#    y -0.030500 1.834960 0.009400 
#    z -0.017110 0.009400 1.772810 
# 
# From -- ./inp_files/515051.got.cif
#   From: 2010.05.17/outbox.cif.g08.bks.cpg/sg2_258_cif.got.tgz:515051.got - 2010.06.03 11:33:40.
