data_PCOD9079649
_publ_section_title
;
Structure prediction by ZEFSAII (Michael W. Deem and Ramdas Pophale) SiO2 
 PCOD9079649
Probable space group: P -1
;
_chemical_formula_sum "Si O2"
_cell_formula_units_Z 15
_cell_length_a 13.225119
_cell_length_b 11.500750
_cell_length_c 15.697287
_cell_angle_alpha 40.275843
_cell_angle_beta 26.370093
_cell_angle_gamma 34.876549
_cell_volume 602.710398
_symmetry_space_group_name_H-M "P -1"
_symmetry_group_IT_number 2
_symmetry_cell_setting 'triclinic'
loop_
_space_group_symop_operation_xyz
x,y,z
-x,-y,-z
loop_
_atom_site_type_symbol
_atom_site_label
_atom_site_fract_x
_atom_site_fract_y
_atom_site_fract_z
Si Si1 0.304765 0.592387 0.364162
Si Si2 0.500000 0.000000 0.000000
Si Si3 0.466884 0.816646 0.406857
Si Si4 0.130055 0.145299 0.344238
Si Si5 0.702898 0.638284 0.159835
Si Si6 0.719293 0.695098 0.585345
Si Si7 0.016474 0.038131 0.732056
Si Si8 0.764773 0.025539 0.104252
O O1 0.530749 0.598745 0.242746
O O2 0.379675 0.385747 0.373530
O O3 0.082736 0.644405 0.572663
O O4 0.182541 0.790274 0.281148
O O5 0.635640 0.867799 0.056521
O O6 0.259361 0.161521 0.151880
O O7 0.597113 0.648356 0.329535
O O8 0.315849 0.027905 0.348312
O O9 0.227872 0.837679 0.633361
O O10 0.686895 0.845175 0.273842
O O11 0.000000 0.000000 0.500000
O O12 0.000000 0.500000 0.000000
O O13 0.799703 0.872483 0.417431
O O14 0.494580 0.770323 0.784022
O O15 0.000000 0.500000 0.500000
O O16 0.859473 0.019956 0.939577
O O17 0.000000 0.000000 0.000000
#
# Coordination Sequence:
#
# PCOD9079649 Si02
#       8
#     2   1   2   2   2   2   2   2
#     4  10  20  39  66  94 134 168 213 280 327 394
#     4  10  22  40  66  90 132 182 218 254 336 384
#     4   9  21  38  63  93 131 166 222 273 320 409
#     4  10  18  37  62  92 124 172 220 260 321 402
#     4  11  24  41  66 104 140 172 224 273 327 409
#     4   9  21  42  60  92 129 161 220 280 324 390
#     4   9  21  41  69  91 123 177 222 265 341 392
#     4  11  24  41  66  94 125 174 228 272 337 399
#
# _framework density 24.887574000000001
#
# number of rings (size 3 to 8) (size 9 to 14) (size 15 to 20)
#    0.000    2.133    2.667    0.800    5.600    4.267 
#    2.400    2.000    2.933    0.000    0.000    0.000 
#    0.000    0.000    0.000    0.000    0.000    0.000 
#
# Total GULP energy -83602.250465 kJ/mol
# GULP energy per Si atom -5573.483364 kJ/mol
# Density = 2.483093 g / cm^3
# Si number density = 24.887574 Si / 1000 Ang^3
#
#
#
# Elastic Constant Matrix: (Units=GPa)
#
#
# Indices 1 2 3 4 5 6 
#
# 1 150.0841 47.8774 63.6575 18.8612 -9.1963 25.2541
# 2 47.8774 70.7923 68.4261 25.7950 11.8044 10.6801
# 3 63.6575 68.4261 171.7760 48.4735 27.2798 11.7712
# 4 18.8612 25.7950 48.4735 37.4329 9.0899 10.7454
# 5 -9.1963 11.8044 27.2798 9.0899 61.1640 4.9182
# 6 25.2541 10.6801 11.7712 10.7454 4.9182 43.1563
#
#
#
# Elastic Compliance Matrix: (Units=1/GPa)
#
#
# Indices 1 2 3 4 5 6 
#
# 1 0.010176 -0.005004 -0.002687 0.002321 0.003750 -0.004989
# 2 -0.005004 0.026633 -0.006474 -0.006988 -0.001972 0.000068
# 3 -0.002687 -0.006474 0.012771 -0.010664 -0.003486 0.002743
# 4 0.002321 -0.006988 -0.010664 0.046508 0.000211 -0.008324
# 5 0.003750 -0.001972 -0.003486 0.000211 0.019057 -0.002980
# 6 -0.004989 0.000068 0.002743 -0.008324 -0.002980 0.027738
#
#
# Mechanical properties :
#
#
# Convention : Reuss Voigt Hill
#
# Bulk Modulus (GPa) = 47.05754 83.61939 65.33847
# Shear Modulus (GPa) = 28.04334 42.53008 35.28671
#
# Velocity S-wave (km/s) = 3.36043 4.13835 3.76951
# Velocity P-wave (km/s) = 5.83144 7.51708 6.72726
#
# Compressibility (1/GPa) = 0.02125058
#
# Stress axis : x y z
#
# Youngs Moduli (GPa) = 98.26733 37.54785 78.30335
#
# Poissons Ratio (x) = 0.18789 0.21037
# Poissons Ratio (y) = 0.49173 0.50694
# Poissons Ratio (z) = 0.26400 0.24309
#
# Static dielectric constant tensor:
#      x y z
#    x 1.989640 0.011560 -0.252420 
#    y 0.011560 2.042990 -0.208980 
#    z -0.252420 -0.208980 0.935970 
# 
# From -- ./inp_files/518831.got.cif
#   From: 2010.05.17/outbox.cif.g08.bks.cpg/sg2_260_cif.got.tgz:518831.got - 2010.06.03 11:33:40.
