data_PCOD9079194
_publ_section_title
;
Structure prediction by ZEFSAII (Michael W. Deem and Ramdas Pophale) SiO2 
 PCOD9079194
Probable space group: P -1
;
_chemical_formula_sum "Si O2"
_cell_formula_units_Z 16
_cell_length_a 13.270290
_cell_length_b 14.394376
_cell_length_c 6.716941
_cell_angle_alpha 105.705426
_cell_angle_beta 57.310073
_cell_angle_gamma 140.108424
_cell_volume 667.537568
_symmetry_space_group_name_H-M "P -1"
_symmetry_group_IT_number 2
_symmetry_cell_setting 'triclinic'
loop_
_space_group_symop_operation_xyz
x,y,z
-x,-y,-z
loop_
_atom_site_type_symbol
_atom_site_label
_atom_site_fract_x
_atom_site_fract_y
_atom_site_fract_z
Si Si1 0.020772 0.085817 0.347252
Si Si2 0.311424 0.999064 0.492682
Si Si3 0.631087 0.293313 0.081153
Si Si4 0.617340 0.699788 0.146725
Si Si5 0.439780 0.790470 0.358256
Si Si6 0.039164 0.307767 0.450476
Si Si7 0.372031 0.502227 0.907379
Si Si8 0.955468 0.486295 0.303961
O O1 0.082720 0.229595 0.448406
O O2 0.828995 0.997263 0.392179
O O3 0.000000 0.000000 0.500000
O O4 0.173149 0.148175 0.060739
O O5 0.493452 0.136516 0.250845
O O6 0.391708 0.037385 0.651144
O O7 0.178943 0.831427 0.459826
O O8 0.591208 0.382988 0.202902
O O9 0.588528 0.242607 0.864502
O O10 0.852645 0.419395 0.954608
O O11 0.509285 0.729689 0.333920
O O12 0.618724 0.604400 0.225610
O O13 0.515892 0.605399 0.995018
O O14 0.239657 0.688740 0.608929
O O15 0.079303 0.420452 0.616538
O O16 0.168684 0.393084 0.165372
O O17 0.000000 0.500000 0.500000
#
# Coordination Sequence:
#
# PCOD9079194 Si02
#       8
#     2   2   2   2   2   2   2   2
#     4   9  18  32  54  82 118 153 181 229 290 344
#     4  10  23  36  55  88 122 143 188 244 292 336
#     4  10  20  37  64  80 111 158 197 226 295 342
#     4   9  16  28  58  78 107 151 189 221 282 338
#     4  10  20  37  58  87 114 150 193 238 284 341
#     4   9  18  34  56  86 112 149 191 234 288 335
#     4   9  15  31  56  83 104 150 192 226 276 342
#     4  10  18  36  64  83 107 155 202 233 278 348
#
# _framework density 23.968689999999999
#
# number of rings (size 3 to 8) (size 9 to 14) (size 15 to 20)
#    0.750    1.750    3.750    1.500    0.000    1.500 
#    0.000    3.125    2.750    0.000    0.000    0.000 
#    0.000    0.000    0.000    0.000    0.000    0.000 
#
# Total GULP energy -89213.210189 kJ/mol
# GULP energy per Si atom -5575.825637 kJ/mol
# Density = 2.391414 g / cm^3
# Si number density = 23.968690 Si / 1000 Ang^3
#
#
#
# Elastic Constant Matrix: (Units=GPa)
#
#
# Indices 1 2 3 4 5 6 
#
# 1 61.2419 26.2658 22.9086 -7.0387 -7.4690 4.4219
# 2 26.2658 80.3712 12.6299 -22.0067 -1.5217 11.8119
# 3 22.9086 12.6299 59.0613 -19.2949 -4.9010 7.4533
# 4 -7.0387 -22.0067 -19.2949 33.7675 5.8036 -16.8783
# 5 -7.4690 -1.5217 -4.9010 5.8036 31.9485 -6.3594
# 6 4.4219 11.8119 7.4533 -16.8783 -6.3594 51.5538
#
#
#
# Elastic Compliance Matrix: (Units=1/GPa)
#
#
# Indices 1 2 3 4 5 6 
#
# 1 0.022773 -0.007624 -0.008810 -0.006261 0.004666 -0.000407
# 2 -0.007624 0.017742 0.002876 0.011961 -0.002718 -0.000246
# 3 -0.008810 0.002876 0.024318 0.014696 -0.000599 0.001318
# 4 -0.006261 0.011961 0.014696 0.051363 -0.005622 0.011794
# 5 0.004666 -0.002718 -0.000599 -0.005622 0.033714 0.002627
# 6 -0.000407 -0.000246 0.001318 0.011794 0.002627 0.023483
#
#
# Mechanical properties :
#
#
# Convention : Reuss Voigt Hill
#
# Bulk Modulus (GPa) = 26.51243 36.03144 31.27193
# Shear Modulus (GPa) = 23.46529 32.71197 28.08863
#
# Velocity S-wave (km/s) = 3.13229 3.69830 3.42700
# Velocity P-wave (km/s) = 4.91599 5.77078 5.36045
#
# Compressibility (1/GPa) = 0.03771815
#
# Stress axis : x y z
#
# Youngs Moduli (GPa) = 43.91210 56.36462 41.12109
#
# Poissons Ratio (x) = 0.42973 0.36226
# Poissons Ratio (y) = 0.33479 -0.11828
# Poissons Ratio (z) = 0.38685 -0.16212
#
# Static dielectric constant tensor:
#      x y z
#    x 1.967980 -0.017500 -0.018580 
#    y -0.017500 2.000260 0.051190 
#    z -0.018580 0.051190 1.936550 
# 
# From -- ./inp_files/313656.got.cif
#   From: 2010.05.17/outbox.cif.g08.bks.cpg/sg2_157_cif.got.tgz:313656.got - 2010.06.03 11:33:40.
