data_PCOD9079690
_publ_section_title
;
Structure prediction by ZEFSAII (Michael W. Deem and Ramdas Pophale) SiO2 
 PCOD9079690
Probable space group: P -1
;
_chemical_formula_sum "Si O2"
_cell_formula_units_Z 16
_cell_length_a 10.180123
_cell_length_b 17.883499
_cell_length_c 8.036138
_cell_angle_alpha 94.469549
_cell_angle_beta 122.624522
_cell_angle_gamma 41.335448
_cell_volume 658.482163
_symmetry_space_group_name_H-M "P -1"
_symmetry_group_IT_number 2
_symmetry_cell_setting 'triclinic'
loop_
_space_group_symop_operation_xyz
x,y,z
-x,-y,-z
loop_
_atom_site_type_symbol
_atom_site_label
_atom_site_fract_x
_atom_site_fract_y
_atom_site_fract_z
Si Si1 0.268224 0.908898 0.290692
Si Si2 0.178491 0.103540 0.253205
Si Si3 0.766189 0.533653 0.997927
Si Si4 0.257264 0.042848 0.906420
Si Si5 0.412788 0.234498 0.813311
Si Si6 0.841363 0.488653 0.671220
Si Si7 0.465667 0.635967 0.126836
Si Si8 0.200093 0.848738 0.550931
O O1 0.555858 0.807351 0.361792
O O2 0.300754 0.832480 0.433154
O O3 0.175592 0.024017 0.328623
O O4 0.000000 0.000000 0.000000
O O5 0.500000 0.000000 0.500000
O O6 0.172607 0.097041 0.046917
O O7 0.858446 0.263817 0.103508
O O8 0.804956 0.477404 0.836017
O O9 0.496090 0.702465 0.815168
O O10 0.673252 0.526124 0.097559
O O11 0.049286 0.469207 0.221140
O O12 0.377056 0.908736 0.973613
O O13 0.500000 0.000000 0.000000
O O14 0.996013 0.144656 0.614870
O O15 0.506757 0.283170 0.857306
O O16 0.111855 0.348847 0.722456
O O17 0.576864 0.579636 0.381560
O O18 0.000000 0.000000 0.500000
#
# Coordination Sequence:
#
# PCOD9079690 Si02
#       8
#     2   2   2   2   2   2   2   2
#     4  11  19  38  62  87 121 163 205 262 328 374
#     4  11  23  39  60  92 123 165 212 257 322 386
#     4  10  21  33  58  99 125 153 211 261 316 387
#     4  11  24  39  58  91 133 167 202 259 334 380
#     4  10  18  37  63  90 120 163 210 252 313 388
#     4  10  21  37  60  95 128 162 210 266 323 370
#     4  11  20  39  65  89 131 164 208 266 322 370
#     4  12  22  36  62  97 125 159 213 271 323 377
#
# _framework density 24.298304000000002
#
# number of rings (size 3 to 8) (size 9 to 14) (size 15 to 20)
#    0.000    1.250    3.750    5.250    3.500    1.000 
#    0.000    0.000    0.000    6.000    0.000    0.000 
#    0.000    0.000    0.000    0.000    0.000    0.000 
#
# Total GULP energy -89199.668949 kJ/mol
# GULP energy per Si atom -5574.979309 kJ/mol
# Density = 2.424300 g / cm^3
# Si number density = 24.298304 Si / 1000 Ang^3
#
#
#
# Elastic Constant Matrix: (Units=GPa)
#
#
# Indices 1 2 3 4 5 6 
#
# 1 60.6317 7.4678 20.9162 10.2522 5.2447 -22.0046
# 2 7.4678 77.2037 16.3545 -1.6927 -2.6168 -41.8874
# 3 20.9162 16.3545 144.0836 5.7884 14.8747 -17.1049
# 4 10.2522 -1.6927 5.7884 25.6757 -13.5457 -5.9990
# 5 5.2447 -2.6168 14.8747 -13.5457 41.6566 3.2631
# 6 -22.0046 -41.8874 -17.1049 -5.9990 3.2631 44.0806
#
#
#
# Elastic Compliance Matrix: (Units=1/GPa)
#
#
# Indices 1 2 3 4 5 6 
#
# 1 0.024471 0.007284 -0.001278 -0.008068 -0.006201 0.018002
# 2 0.007284 0.030905 -0.001035 0.007914 0.001337 0.033580
# 3 -0.001278 -0.001035 0.007918 -0.003054 -0.003828 0.001319
# 4 -0.008068 0.007914 -0.003054 0.055978 0.020145 0.008434
# 5 -0.006201 0.001337 -0.003828 0.020145 0.033024 -0.003014
# 6 0.018002 0.033580 0.001319 0.008434 -0.003014 0.065464
#
#
# Mechanical properties :
#
#
# Convention : Reuss Voigt Hill
#
# Bulk Modulus (GPa) = 13.65442 41.26623 27.46033
# Shear Modulus (GPa) = 21.53039 38.09462 29.81251
#
# Velocity S-wave (km/s) = 2.97995 3.96383 3.50657
# Velocity P-wave (km/s) = 4.17993 6.16192 5.26503
#
# Compressibility (1/GPa) = 0.07323636
#
# Stress axis : x y z
#
# Youngs Moduli (GPa) = 40.86536 32.35679 126.29721
#
# Poissons Ratio (x) = -0.23568 0.16137
# Poissons Ratio (y) = -0.29765 0.13069
# Poissons Ratio (z) = 0.05221 0.03348
#
# Static dielectric constant tensor:
#      x y z
#    x 1.949650 -0.034460 -0.004420 
#    y -0.034460 2.066460 -0.001990 
#    z -0.004420 -0.001990 2.011060 
# 
# From -- ./inp_files/282043.got.cif
#   From: 2010.05.17/outbox.cif.g08.bks.cpg/sg2_142_cif.got.tgz:282043.got - 2010.06.03 11:33:40.
