data_PCOD9079295
_publ_section_title
;
Structure prediction by ZEFSAII (Michael W. Deem and Ramdas Pophale) SiO2 
 PCOD9079295
Probable space group: P -1
;
_chemical_formula_sum "Si O2"
_cell_formula_units_Z 15
_cell_length_a 10.402329
_cell_length_b 7.535999
_cell_length_c 11.355661
_cell_angle_alpha 84.849344
_cell_angle_beta 138.788572
_cell_angle_gamma 101.172814
_cell_volume 573.215016
_symmetry_space_group_name_H-M "P -1"
_symmetry_group_IT_number 2
_symmetry_cell_setting 'triclinic'
loop_
_space_group_symop_operation_xyz
x,y,z
-x,-y,-z
loop_
_atom_site_type_symbol
_atom_site_label
_atom_site_fract_x
_atom_site_fract_y
_atom_site_fract_z
Si Si1 0.718280 0.720624 0.212187
Si Si2 0.262572 0.313465 0.435362
Si Si3 0.230253 0.976733 0.306651
Si Si4 0.350033 0.697017 0.574360
Si Si5 0.651931 0.224323 0.824038
Si Si6 0.661549 0.539837 0.945366
Si Si7 0.000000 0.500000 0.500000
Si Si8 0.136713 0.941185 0.831381
O O1 0.493170 0.626197 0.088705
O O2 0.842565 0.634187 0.396271
O O3 0.775789 0.934051 0.224060
O O4 0.771116 0.634045 0.128660
O O5 0.312219 0.530147 0.463056
O O6 0.428667 0.246870 0.636157
O O7 0.290786 0.197288 0.343117
O O8 0.027430 0.237765 0.302553
O O9 0.345308 0.883693 0.492175
O O10 0.253627 0.867303 0.212760
O O11 0.001995 0.955051 0.190403
O O12 0.536783 0.671194 0.785389
O O13 0.161608 0.660795 0.534188
O O14 0.761269 0.429087 0.924337
O O15 0.686869 0.100924 0.965377
#
# Coordination Sequence:
#
# PCOD9079295 Si02
#       8
#     2   2   2   2   2   2   1   2
#     4  10  20  41  60  92 123 159 214 260 318 373
#     4   9  23  40  61  93 124 166 211 256 313 367
#     4  10  22  41  63  96 125 170 210 256 317 370
#     4  10  20  41  63  92 124 165 212 253 319 367
#     4  11  22  43  61  90 134 161 211 264 307 380
#     4   9  23  38  64  92 121 169 208 261 315 376
#     4  10  18  36  66  82 126 152 202 268 294 378
#     4  10  23  38  64  91 123 167 208 261 314 372
#
# _framework density 26.168191
#
# number of rings (size 3 to 8) (size 9 to 14) (size 15 to 20)
#    0.800    1.333    1.333    0.800    3.733    2.667 
#    4.800   12.000    0.000    0.000    0.000    0.000 
#    0.000    0.000    0.000    0.000    0.000    0.000 
#
# Total GULP energy -83504.802658 kJ/mol
# GULP energy per Si atom -5566.986844 kJ/mol
# Density = 2.610863 g / cm^3
# Si number density = 26.168191 Si / 1000 Ang^3
#
#
#
# Elastic Constant Matrix: (Units=GPa)
#
#
# Indices 1 2 3 4 5 6 
#
# 1 54.6893 21.4142 9.9680 14.6905 5.4624 -13.7566
# 2 21.4142 113.9407 10.4691 3.5038 -6.2751 -7.0136
# 3 9.9680 10.4691 49.8799 -10.0423 -6.3758 -2.2659
# 4 14.6905 3.5038 -10.0423 34.4824 -11.4999 -13.2313
# 5 5.4624 -6.2751 -6.3758 -11.4999 33.7692 1.5506
# 6 -13.7566 -7.0136 -2.2659 -13.2313 1.5506 45.1494
#
#
#
# Elastic Compliance Matrix: (Units=1/GPa)
#
#
# Indices 1 2 3 4 5 6 
#
# 1 0.028914 -0.004530 -0.010181 -0.018410 -0.013833 0.002675
# 2 -0.004530 0.009803 -0.000273 0.002178 0.003214 0.000657
# 3 -0.010181 -0.000273 0.027472 0.017748 0.012689 0.003000
# 4 -0.018410 0.002178 0.017748 0.054095 0.024667 0.010625
# 5 -0.013833 0.003214 0.012689 0.024667 0.043121 0.002669
# 6 0.002675 0.000657 0.003000 0.010625 0.002669 0.026239
#
#
# Mechanical properties :
#
#
# Convention : Reuss Voigt Hill
#
# Bulk Modulus (GPa) = 27.60739 33.57915 30.59327
# Shear Modulus (GPa) = 21.58108 34.45746 28.01927
#
# Velocity S-wave (km/s) = 2.87489 3.63267 3.27576
# Velocity P-wave (km/s) = 4.64681 5.51860 5.10136
#
# Compressibility (1/GPa) = 0.03622219
#
# Stress axis : x y z
#
# Youngs Moduli (GPa) = 34.58518 102.00537 36.40134
#
# Poissons Ratio (x) = 0.46206 0.37059
# Poissons Ratio (y) = 0.15666 0.00994
# Poissons Ratio (z) = 0.35210 0.02786
#
# Static dielectric constant tensor:
#      x y z
#    x 2.151480 -0.007420 -0.038760 
#    y -0.007420 2.012620 0.028460 
#    z -0.038760 0.028460 2.076690 
# 
# From -- ./inp_files/414812.got.cif
#   From: 2010.05.17/outbox.cif.g08.bks.cpg/sg2_208_cif.got.tgz:414812.got - 2010.06.03 11:33:40.
