data_PCOD9079794
_publ_section_title
;
Structure prediction by ZEFSAII (Michael W. Deem and Ramdas Pophale) SiO2 
 PCOD9079794
Probable space group: P -1
;
_chemical_formula_sum "Si O2"
_cell_formula_units_Z 14
_cell_length_a 9.858413
_cell_length_b 15.035141
_cell_length_c 7.516471
_cell_angle_alpha 92.022867
_cell_angle_beta 70.682755
_cell_angle_gamma 46.243752
_cell_volume 700.098251
_symmetry_space_group_name_H-M "P -1"
_symmetry_group_IT_number 2
_symmetry_cell_setting 'triclinic'
loop_
_space_group_symop_operation_xyz
x,y,z
-x,-y,-z
loop_
_atom_site_type_symbol
_atom_site_label
_atom_site_fract_x
_atom_site_fract_y
_atom_site_fract_z
Si Si1 0.787952 0.150561 0.543134
Si Si2 0.236028 0.853813 0.844382
Si Si3 0.738525 0.366454 0.658271
Si Si4 0.061439 0.554670 0.356811
Si Si5 0.911263 0.642844 0.062053
Si Si6 0.253793 0.637299 0.913987
Si Si7 0.559547 0.728019 0.997138
O O1 0.712908 0.152648 0.383712
O O2 0.833017 0.234789 0.521868
O O3 0.602022 0.227898 0.775710
O O4 0.000000 0.000000 0.500000
O O5 0.229287 0.750302 0.870739
O O6 0.411688 0.815661 0.897232
O O7 0.000000 0.000000 0.000000
O O8 0.873841 0.390876 0.551210
O O9 0.486432 0.495841 0.737283
O O10 0.751702 0.354901 0.867232
O O11 0.000000 0.500000 0.500000
O O12 0.886807 0.660457 0.288865
O O13 0.280229 0.424665 0.147720
O O14 0.075463 0.645949 0.941109
O O15 0.000000 0.500000 0.000000
O O16 0.708077 0.734409 0.024545
#
# Coordination Sequence:
#
# PCOD9079794 Si02
#       7
#     2   2   2   2   2   2   2
#     4  12  24  40  68  93 126 171 215 266 322 374
#     4  12  24  42  69  93 125 171 222 264 314 390
#     4  10  18  37  65  93 129 161 212 272 314 372
#     4  10  21  37  65  99 131 167 210 263 326 383
#     4   9  20  35  61  90 133 165 198 266 321 368
#     4  10  19  39  66  96 123 168 214 264 319 379
#     4  11  22  43  61  93 133 166 212 262 321 373
#
# _framework density 19.997192999999999
#
# number of rings (size 3 to 8) (size 9 to 14) (size 15 to 20)
#    0.000    1.429    4.286    2.571    2.000    2.857 
#    0.000    0.714    3.143    2.571    0.000    0.000 
#    0.000    0.000    0.000    0.000    0.000    0.000 
#
# Total GULP energy -78143.187159 kJ/mol
# GULP energy per Si atom -5581.656226 kJ/mol
# Density = 1.995168 g / cm^3
# Si number density = 19.997193 Si / 1000 Ang^3
#
#
#
# Elastic Constant Matrix: (Units=GPa)
#
#
# Indices 1 2 3 4 5 6 
#
# 1 173.7487 58.2048 31.7762 -10.7190 -0.9825 -20.3838
# 2 58.2048 107.2884 28.0928 3.1744 1.0868 -7.8009
# 3 31.7762 28.0928 86.7925 -10.7861 11.6994 -6.8489
# 4 -10.7190 3.1744 -10.7861 31.2669 0.3796 9.1537
# 5 -0.9825 1.0868 11.6994 0.3796 23.4949 -11.9021
# 6 -20.3838 -7.8009 -6.8489 9.1537 -11.9021 34.4970
#
#
#
# Elastic Compliance Matrix: (Units=1/GPa)
#
#
# Indices 1 2 3 4 5 6 
#
# 1 0.007877 -0.003569 -0.001721 0.001124 0.003585 0.004444
# 2 -0.003569 0.012364 -0.003331 -0.004176 0.001914 0.001794
# 3 -0.001721 -0.003331 0.014953 0.006080 -0.009297 -0.003623
# 4 0.001124 -0.004176 0.006080 0.038746 -0.009878 -0.012762
# 5 0.003585 0.001914 -0.009297 -0.009878 0.059497 0.023854
# 6 0.004444 0.001794 -0.003623 -0.012762 0.023854 0.042917
#
#
# Mechanical properties :
#
#
# Convention : Reuss Voigt Hill
#
# Bulk Modulus (GPa) = 55.70581 67.10857 61.40719
# Shear Modulus (GPa) = 25.05277 34.50215 29.77746
#
# Velocity S-wave (km/s) = 3.54335 4.15824 3.86305
# Velocity P-wave (km/s) = 6.68265 7.52904 7.11843
#
# Compressibility (1/GPa) = 0.01795145
#
# Stress axis : x y z
#
# Youngs Moduli (GPa) = 126.95447 80.88285 66.87646
#
# Poissons Ratio (x) = 0.28867 0.11513
# Poissons Ratio (y) = 0.45309 0.22273
# Poissons Ratio (z) = 0.21855 0.26938
#
# Static dielectric constant tensor:
#      x y z
#    x 1.755240 -0.023710 0.018220 
#    y -0.023710 1.722410 -0.036880 
#    z 0.018220 -0.036880 1.733230 
# 
# From -- ./inp_files/196811.got.cif
#   From: 2010.05.17/outbox.cif.g08.bks.cpg/sg2_99_cif.got.tgz:196811.got - 2010.06.03 11:33:40.
