data_PCOD9079233
_publ_section_title
;
Structure prediction by ZEFSAII (Michael W. Deem and Ramdas Pophale) SiO2 
 PCOD9079233
Probable space group: P -1
;
_chemical_formula_sum "Si O2"
_cell_formula_units_Z 16
_cell_length_a 8.191446
_cell_length_b 12.870935
_cell_length_c 13.460921
_cell_angle_alpha 28.972615
_cell_angle_beta 55.338731
_cell_angle_gamma 58.515073
_cell_volume 564.358589
_symmetry_space_group_name_H-M "P -1"
_symmetry_group_IT_number 2
_symmetry_cell_setting 'triclinic'
loop_
_space_group_symop_operation_xyz
x,y,z
-x,-y,-z
loop_
_atom_site_type_symbol
_atom_site_label
_atom_site_fract_x
_atom_site_fract_y
_atom_site_fract_z
Si Si1 0.484589 0.000405 0.385705
Si Si2 0.993637 0.792546 0.888376
Si Si3 0.496564 0.777220 0.306041
Si Si4 0.147769 0.810396 0.529196
Si Si5 0.271340 0.405991 0.360282
Si Si6 0.051307 0.225193 0.843508
Si Si7 0.249109 0.404698 0.130475
Si Si8 0.557087 0.715485 0.105580
O O1 0.292655 0.896964 0.490312
O O2 0.675623 0.843951 0.419803
O O3 0.500000 0.000000 0.500000
O O4 0.436252 0.249197 0.162428
O O5 0.958234 0.011789 0.657357
O O6 0.980180 0.815835 0.993155
O O7 0.790822 0.673799 0.038465
O O8 0.194005 0.649193 0.914199
O O9 0.309551 0.687459 0.502837
O O10 0.723693 0.716396 0.303163
O O11 0.483317 0.731464 0.232042
O O12 0.479856 0.032952 0.121521
O O13 0.041141 0.297350 0.270397
O O14 0.267326 0.404660 0.243321
O O15 0.443541 0.539858 0.234506
O O16 0.080431 0.562762 0.319961
O O17 0.000000 0.000000 0.000000
#
# Coordination Sequence:
#
# PCOD9079233 Si02
#       8
#     2   2   2   2   2   2   2   2
#     4  10  23  44  63  87 129 170 212 281 333 363
#     4   9  21  38  66  96 123 172 215 255 321 388
#     4   9  19  34  59  95 130 171 206 255 313 383
#     4  11  22  41  68  95 129 166 223 266 313 398
#     4  10  20  37  63  91 123 175 212 252 321 387
#     4  10  18  36  64  93 134 171 203 256 321 377
#     4  10  22  43  65  91 131 170 218 271 328 368
#     4   9  16  34  60  89 133 168 202 253 318 377
#
# _framework density 28.350769
#
# number of rings (size 3 to 8) (size 9 to 14) (size 15 to 20)
#    0.000    2.250    1.250    1.875    0.000    0.500 
#    4.500   12.500    0.000   14.250    0.000    0.000 
#    0.000    0.000    0.000    0.000    0.000    0.000 
#
# Total GULP energy -89639.895731 kJ/mol
# GULP energy per Si atom -5602.493483 kJ/mol
# Density = 2.828624 g / cm^3
# Si number density = 28.350769 Si / 1000 Ang^3
#
#
#
# Elastic Constant Matrix: (Units=GPa)
#
#
# Indices 1 2 3 4 5 6 
#
# 1 148.4262 39.1462 43.6735 -11.5482 17.9740 -3.7517
# 2 39.1462 144.6050 80.2544 -22.3608 16.9290 -3.7536
# 3 43.6735 80.2544 154.2556 -24.8725 41.8188 -37.6924
# 4 -11.5482 -22.3608 -24.8725 68.6685 -20.9434 19.3427
# 5 17.9740 16.9290 41.8188 -20.9434 51.7140 -3.5646
# 6 -3.7517 -3.7536 -37.6924 19.3427 -3.5646 54.3233
#
#
#
# Elastic Compliance Matrix: (Units=1/GPa)
#
#
# Indices 1 2 3 4 5 6 
#
# 1 0.007578 -0.001131 -0.001389 0.000266 -0.001080 -0.000684
# 2 -0.001131 0.011204 -0.007225 0.003430 0.003592 -0.005303
# 3 -0.001389 -0.007225 0.015486 -0.003062 -0.010186 0.010572
# 4 0.000266 0.003430 -0.003062 0.019574 0.008617 -0.008273
# 5 -0.001080 0.003592 -0.010186 0.008617 0.029711 -0.008013
# 6 -0.000684 -0.005303 0.010572 -0.008273 -0.008013 0.027750
#
#
# Mechanical properties :
#
#
# Convention : Reuss Voigt Hill
#
# Bulk Modulus (GPa) = 67.66516 85.93721 76.80119
# Shear Modulus (GPa) = 36.84079 53.88868 45.36473
#
# Velocity S-wave (km/s) = 3.60872 4.36453 4.00449
# Velocity P-wave (km/s) = 6.42516 7.46838 6.96633
#
# Compressibility (1/GPa) = 0.01477865
#
# Stress axis : x y z
#
# Youngs Moduli (GPa) = 131.95274 89.25577 64.57496
#
# Poissons Ratio (x) = 0.10095 0.08966
# Poissons Ratio (y) = 0.14925 0.46656
# Poissons Ratio (z) = 0.18322 0.64489
#
# Static dielectric constant tensor:
#      x y z
#    x 2.152070 -0.004330 0.006730 
#    y -0.004330 2.253080 -0.024630 
#    z 0.006730 -0.024630 2.263740 
# 
# From -- ./inp_files/247281.got.cif
#   From: 2010.05.17/outbox.cif.g08.bks.cpg/sg2_124_cif.got.tgz:247281.got - 2010.06.03 11:33:40.
