data_PCOD9079208
_publ_section_title
;
Structure prediction by ZEFSAII (Michael W. Deem and Ramdas Pophale) SiO2 
 PCOD9079208
Probable space group: P -1
;
_chemical_formula_sum "Si O2"
_cell_formula_units_Z 16
_cell_length_a 9.163375
_cell_length_b 22.629922
_cell_length_c 7.963375
_cell_angle_alpha 120.929615
_cell_angle_beta 102.411999
_cell_angle_gamma 126.285050
_cell_volume 754.265473
_symmetry_space_group_name_H-M "P -1"
_symmetry_group_IT_number 2
_symmetry_cell_setting 'triclinic'
loop_
_space_group_symop_operation_xyz
x,y,z
-x,-y,-z
loop_
_atom_site_type_symbol
_atom_site_label
_atom_site_fract_x
_atom_site_fract_y
_atom_site_fract_z
Si Si1 0.674074 0.672656 0.809482
Si Si2 0.266602 0.145689 0.472429
Si Si3 0.978640 0.168108 0.555472
Si Si4 0.531223 0.986109 0.677974
Si Si5 0.170500 0.378718 0.754897
Si Si6 0.844685 0.598649 0.582943
Si Si7 0.185789 0.713836 0.167997
Si Si8 0.071352 0.117385 0.020438
O O1 0.715841 0.624938 0.623104
O O2 0.394771 0.548951 0.656949
O O3 0.701802 0.756747 0.850160
O O4 0.916742 0.763536 0.138693
O O5 0.141458 0.161277 0.561728
O O6 0.591322 0.260734 0.735837
O O7 0.197645 0.136379 0.248550
O O8 0.100009 0.012324 0.289843
O O9 0.064651 0.259933 0.580700
O O10 0.650731 0.032717 0.282402
O O11 0.370627 0.851882 0.459511
O O12 0.500000 0.000000 0.500000
O O13 0.841472 0.088199 0.950132
O O14 0.063146 0.367806 0.537198
O O15 0.055688 0.377258 0.884847
O O16 0.500000 0.500000 0.000000
O O17 0.065950 0.673787 0.893234
#
# Coordination Sequence:
#
# PCOD9079208 Si02
#       8
#     2   2   2   2   2   2   2   2
#     4  11  20  37  64  95 125 156 211 262 312 368
#     4  10  24  42  61  88 130 171 207 255 316 377
#     4  11  21  38  62  97 124 163 209 258 316 374
#     4  10  18  36  64  89 123 155 208 271 305 359
#     4  11  20  38  67  93 125 160 212 263 307 367
#     4  11  20  38  67  95 121 167 205 262 316 361
#     4  10  22  42  59  94 129 163 210 259 307 377
#     4  10  21  42  62  86 126 170 206 256 317 371
#
# _framework density 21.212689000000001
#
# number of rings (size 3 to 8) (size 9 to 14) (size 15 to 20)
#    0.000    1.500    5.000    1.500    0.000    1.000 
#    2.250    8.125    0.000    0.000    0.000    0.000 
#    0.000    0.000    0.000    0.000    0.000    0.000 
#
# Total GULP energy -89312.118918 kJ/mol
# GULP energy per Si atom -5582.007432 kJ/mol
# Density = 2.116441 g / cm^3
# Si number density = 21.212689 Si / 1000 Ang^3
#
#
#
# Elastic Constant Matrix: (Units=GPa)
#
#
# Indices 1 2 3 4 5 6 
#
# 1 110.1417 35.8466 23.5400 8.0336 22.4037 6.5870
# 2 35.8466 127.1507 29.6071 5.6284 -1.1742 -8.0810
# 3 23.5400 29.6071 53.1333 -5.3430 7.9111 0.4246
# 4 8.0336 5.6284 -5.3430 37.3646 -6.2959 -0.4821
# 5 22.4037 -1.1742 7.9111 -6.2959 26.9159 2.4335
# 6 6.5870 -8.0810 0.4246 -0.4821 2.4335 25.2357
#
#
#
# Elastic Compliance Matrix: (Units=1/GPa)
#
#
# Indices 1 2 3 4 5 6 
#
# 1 0.013685 -0.003280 -0.002987 -0.004854 -0.011470 -0.003559
# 2 -0.003280 0.010268 -0.004993 -0.000814 0.004110 0.003816
# 3 -0.002987 -0.004993 0.023905 0.004178 -0.003709 -0.000784
# 4 -0.004854 -0.000814 0.004178 0.030183 0.009786 0.000569
# 5 -0.011470 0.004110 -0.003709 0.009786 0.050284 -0.000290
# 6 -0.003559 0.003816 -0.000784 0.000569 -0.000290 0.041829
#
#
# Mechanical properties :
#
#
# Convention : Reuss Voigt Hill
#
# Bulk Modulus (GPa) = 39.46620 52.04588 45.75604
# Shear Modulus (GPa) = 24.86059 31.33203 28.09631
#
# Velocity S-wave (km/s) = 3.42712 3.84740 3.64332
# Velocity P-wave (km/s) = 5.85709 6.65772 6.27020
#
# Compressibility (1/GPa) = 0.02533814
#
# Stress axis : x y z
#
# Youngs Moduli (GPa) = 73.07289 97.38553 41.83223
#
# Poissons Ratio (x) = 0.31940 0.12497
# Poissons Ratio (y) = 0.23966 0.20887
# Poissons Ratio (z) = 0.21830 0.48625
#
# Static dielectric constant tensor:
#      x y z
#    x 1.810750 0.024100 -0.002580 
#    y 0.024100 1.793470 -0.003040 
#    z -0.002580 -0.003040 1.810900 
# 
# From -- ./inp_files/226387.got.cif
#   From: 2010.05.17/outbox.cif.g08.bks.cpg/sg2_114_cif.got.tgz:226387.got - 2010.06.03 11:33:40.
