data_PCOD9079033
_publ_section_title
;
Structure prediction by ZEFSAII (Michael W. Deem and Ramdas Pophale) SiO2 
 PCOD9079033
Probable space group: P -1
;
_chemical_formula_sum "Si O2"
_cell_formula_units_Z 16
_cell_length_a 6.949848
_cell_length_b 12.551892
_cell_length_c 9.838950
_cell_angle_alpha 130.007538
_cell_angle_beta 97.106358
_cell_angle_gamma 102.085328
_cell_volume 603.402814
_symmetry_space_group_name_H-M "P -1"
_symmetry_group_IT_number 2
_symmetry_cell_setting 'triclinic'
loop_
_space_group_symop_operation_xyz
x,y,z
-x,-y,-z
loop_
_atom_site_type_symbol
_atom_site_label
_atom_site_fract_x
_atom_site_fract_y
_atom_site_fract_z
Si Si1 0.352703 0.823440 0.831300
Si Si2 0.973150 0.962483 0.259288
Si Si3 0.099821 0.583835 0.433495
Si Si4 0.450844 0.151293 0.877020
Si Si5 0.714765 0.134309 0.675400
Si Si6 0.105225 0.285196 0.176447
Si Si7 0.246033 0.292028 0.483111
Si Si8 0.471554 0.639242 0.185487
O O1 0.309420 0.723445 0.610123
O O2 0.118442 0.799629 0.837309
O O3 0.463205 0.759063 0.903942
O O4 0.500000 0.000000 0.000000
O O5 0.759609 0.997039 0.269131
O O6 0.078307 0.902637 0.341908
O O7 0.887868 0.827812 0.031534
O O8 0.151619 0.112649 0.345608
O O9 0.117925 0.442822 0.242306
O O10 0.000000 0.500000 0.500000
O O11 0.925062 0.644469 0.420331
O O12 0.659770 0.129250 0.827304
O O13 0.401762 0.236752 0.815227
O O14 0.719491 0.297894 0.764835
O O15 0.500000 0.000000 0.500000
O O16 0.264664 0.322374 0.348451
O O17 0.437593 0.353692 0.652006
O O18 0.500000 0.500000 0.000000
#
# Coordination Sequence:
#
# PCOD9079033 Si02
#       8
#     2   2   2   2   2   2   2   2
#     4  10  18  36  61  94 129 164 210 261 321 378
#     4  12  21  41  65  94 127 163 211 267 321 377
#     4   8  19  34  59  90 124 168 204 262 317 376
#     4  10  23  38  66  91 127 163 212 257 318 378
#     4  10  22  41  62  90 123 165 208 259 314 366
#     4  10  21  37  66  92 130 170 209 268 326 380
#     4  10  20  34  63  96 120 164 217 250 323 379
#     4  10  23  38  65  90 124 171 207 261 314 376
#
# _framework density 26.516280999999999
#
# number of rings (size 3 to 8) (size 9 to 14) (size 15 to 20)
#    0.750    1.500    2.500    1.875    7.000    2.000 
#    0.000    1.250    8.250    0.000    0.000    0.000 
#    0.000    0.000    0.000    0.000    0.000    0.000 
#
# Total GULP energy -89121.111238 kJ/mol
# GULP energy per Si atom -5570.069452 kJ/mol
# Density = 2.645593 g / cm^3
# Si number density = 26.516281 Si / 1000 Ang^3
#
#
#
# Elastic Constant Matrix: (Units=GPa)
#
#
# Indices 1 2 3 4 5 6 
#
# 1 89.5117 24.6984 25.0868 -4.7692 14.9839 -26.0458
# 2 24.6984 91.4474 33.2380 16.0435 -2.2081 -35.8969
# 3 25.0868 33.2380 102.8264 -0.1232 -10.8905 -12.9492
# 4 -4.7692 16.0435 -0.1232 54.3764 -12.0112 2.6887
# 5 14.9839 -2.2081 -10.8905 -12.0112 31.8643 1.3338
# 6 -26.0458 -35.8969 -12.9492 2.6887 1.3338 42.6071
#
#
#
# Elastic Compliance Matrix: (Units=1/GPa)
#
#
# Indices 1 2 3 4 5 6 
#
# 1 0.016662 0.001098 -0.004216 -0.001643 -0.010249 0.010254
# 2 0.001098 0.020448 -0.005233 -0.007788 -0.004533 0.016942
# 3 -0.004216 -0.005233 0.012774 0.002980 0.007257 -0.003519
# 4 -0.001643 -0.007788 0.002980 0.023260 0.010373 -0.008452
# 5 -0.010249 -0.004533 0.007257 0.010373 0.042692 -0.009869
# 6 0.010254 0.016942 -0.003519 -0.008452 -0.009869 0.043785
#
#
# Mechanical properties :
#
#
# Convention : Reuss Voigt Hill
#
# Bulk Modulus (GPa) = 30.13743 49.98133 40.05938
# Shear Modulus (GPa) = 26.68321 39.15374 32.91847
#
# Velocity S-wave (km/s) = 3.17566 3.84681 3.52724
# Velocity P-wave (km/s) = 4.98364 6.21457 5.63283
#
# Compressibility (1/GPa) = 0.03318133
#
# Stress axis : x y z
#
# Youngs Moduli (GPa) = 60.01690 48.90463 78.28189
#
# Poissons Ratio (x) = -0.05370 0.33005
# Poissons Ratio (y) = -0.06591 0.40969
# Poissons Ratio (z) = 0.25304 0.25594
#
# Static dielectric constant tensor:
#      x y z
#    x 2.374550 0.023720 -0.092780 
#    y 0.023720 2.208960 -0.012660 
#    z -0.092780 -0.012660 2.117200 
# 
# From -- ./inp_files/396442.got.cif
#   From: 2010.05.17/outbox.cif.g08.bks.cpg/sg2_199_cif.got.tgz:396442.got - 2010.06.03 11:33:40.
