data_PCOD9079605
_publ_section_title
;
Structure prediction by ZEFSAII (Michael W. Deem and Ramdas Pophale) SiO2 
 PCOD9079605
Probable space group: P -1
;
_chemical_formula_sum "Si O2"
_cell_formula_units_Z 14
_cell_length_a 9.168914
_cell_length_b 11.383161
_cell_length_c 7.922698
_cell_angle_alpha 100.273548
_cell_angle_beta 131.966531
_cell_angle_gamma 68.080168
_cell_volume 567.329118
_symmetry_space_group_name_H-M "P -1"
_symmetry_group_IT_number 2
_symmetry_cell_setting 'triclinic'
loop_
_space_group_symop_operation_xyz
x,y,z
-x,-y,-z
loop_
_atom_site_type_symbol
_atom_site_label
_atom_site_fract_x
_atom_site_fract_y
_atom_site_fract_z
Si Si1 0.303894 0.739081 0.163473
Si Si2 0.286941 0.188176 0.970448
Si Si3 0.478543 0.065478 0.737995
Si Si4 0.178984 0.589768 0.761317
Si Si5 0.915757 0.429604 0.676999
Si Si6 0.388754 0.343486 0.329891
Si Si7 0.860845 0.817717 0.722207
O O1 0.419764 0.832960 0.215692
O O2 0.404859 0.684891 0.406923
O O3 0.331004 0.626928 0.017128
O O4 0.056488 0.819799 0.983976
O O5 0.357561 0.122025 0.830162
O O6 0.052847 0.288536 0.803866
O O7 0.421205 0.276483 0.156613
O O8 0.348899 0.069120 0.117055
O O9 0.307664 0.061265 0.464844
O O10 0.230007 0.558921 0.597425
O O11 0.084980 0.491142 0.751735
O O12 0.983473 0.724078 0.640513
O O13 0.773089 0.513922 0.736890
O O14 0.255221 0.267148 0.299325
#
# Coordination Sequence:
#
# PCOD9079605 Si02
#       7
#     2   2   2   2   2   2   2
#     4   9  19  39  63  89 109 150 203 238 277 340
#     4  11  22  38  57  88 120 157 185 232 299 349
#     4  10  21  40  63  79 117 158 196 231 281 347
#     4   8  17  34  63  85 107 142 204 231 274 334
#     4  10  18  37  62  84 117 153 185 243 285 340
#     4  10  21  36  61  88 118 149 187 242 300 329
#     4   8  17  39  61  84 111 146 199 236 272 336
#
# _framework density 24.677032000000001
#
# number of rings (size 3 to 8) (size 9 to 14) (size 15 to 20)
#    0.857    1.714    1.429    0.429    2.000    2.857 
#    0.000   12.857    0.000    0.000    0.000    0.000 
#    0.000    0.000    0.000    0.000    0.000    0.000 
#
# Total GULP energy -78154.813513 kJ/mol
# GULP energy per Si atom -5582.486679 kJ/mol
# Density = 2.462087 g / cm^3
# Si number density = 24.677032 Si / 1000 Ang^3
#
#
#
# Elastic Constant Matrix: (Units=GPa)
#
#
# Indices 1 2 3 4 5 6 
#
# 1 13.6912 3.6899 14.2280 -12.1997 2.5365 4.9444
# 2 3.6899 86.5430 26.9769 -25.8919 -0.2436 -14.3135
# 3 14.2280 26.9769 166.1436 -20.7804 9.1066 -3.3841
# 4 -12.1997 -25.8919 -20.7804 54.5125 -8.5380 1.4675
# 5 2.5365 -0.2436 9.1066 -8.5380 31.9510 4.2586
# 6 4.9444 -14.3135 -3.3841 1.4675 4.2586 33.5596
#
#
#
# Elastic Compliance Matrix: (Units=1/GPa)
#
#
# Indices 1 2 3 4 5 6 
#
# 1 0.105569 0.001620 -0.006934 0.022495 0.001855 -0.016781
# 2 0.001620 0.015000 -0.001681 0.006948 0.001591 0.005484
# 3 -0.006934 -0.001681 0.007003 0.000035 -0.001611 0.001214
# 4 0.022495 0.006948 0.000035 0.027688 0.005965 -0.002315
# 5 0.001855 0.001591 -0.001611 0.005965 0.033790 -0.004306
# 6 -0.016781 0.005484 0.001214 -0.002315 -0.004306 0.035379
#
#
# Mechanical properties :
#
#
# Convention : Reuss Voigt Hill
#
# Bulk Modulus (GPa) = 8.80413 39.57417 24.18915
# Shear Modulus (GPa) = 18.09764 38.77014 28.43389
#
# Velocity S-wave (km/s) = 2.71104 3.96801 3.39815
# Velocity P-wave (km/s) = 3.65720 6.08812 5.02197
#
# Compressibility (1/GPa) = 0.11358301
#
# Stress axis : x y z
#
# Youngs Moduli (GPa) = 9.47247 66.66706 142.79790
#
# Poissons Ratio (x) = -0.10799 0.99010
# Poissons Ratio (y) = -0.01534 0.24001
# Poissons Ratio (z) = 0.06568 0.11205
#
# Static dielectric constant tensor:
#      x y z
#    x 1.971280 -0.031520 -0.025710 
#    y -0.031520 1.958520 0.027000 
#    z -0.025710 0.027000 2.006990 
# 
# From -- ./inp_files/259715.got.cif
#   From: 2010.05.17/outbox.cif.g08.bks.cpg/sg2_130_cif.got.tgz:259715.got - 2010.06.03 11:33:40.
