data_PCOD9079037
_publ_section_title
;
Structure prediction by ZEFSAII (Michael W. Deem and Ramdas Pophale) SiO2 
 PCOD9079037
Probable space group: P -1
;
_chemical_formula_sum "Si O2"
_cell_formula_units_Z 16
_cell_length_a 5.325753
_cell_length_b 8.128941
_cell_length_c 15.320982
_cell_angle_alpha 68.562229
_cell_angle_beta 105.418967
_cell_angle_gamma 89.932461
_cell_volume 591.589900
_symmetry_space_group_name_H-M "P -1"
_symmetry_group_IT_number 2
_symmetry_cell_setting 'triclinic'
loop_
_space_group_symop_operation_xyz
x,y,z
-x,-y,-z
loop_
_atom_site_type_symbol
_atom_site_label
_atom_site_fract_x
_atom_site_fract_y
_atom_site_fract_z
Si Si1 0.004337 0.172672 0.633428
Si Si2 0.703686 0.205896 0.297293
Si Si3 0.775360 0.383719 0.819380
Si Si4 0.547222 0.133967 0.060284
Si Si5 0.918761 0.537071 0.627626
Si Si6 0.478731 0.793321 0.539938
Si Si7 0.875658 0.014495 0.835994
Si Si8 0.320911 0.487780 0.884126
O O1 0.082337 0.366601 0.631472
O O2 0.800391 0.221611 0.527041
O O3 0.869188 0.084629 0.722073
O O4 0.207858 0.003941 0.658801
O O5 0.488886 0.238823 0.346564
O O6 0.644653 0.311242 0.181798
O O7 0.922348 0.318587 0.338713
O O8 0.767437 0.439178 0.707551
O O9 0.491584 0.398871 0.833816
O O10 0.006272 0.484807 0.863306
O O11 0.903631 0.181756 0.868585
O O12 0.383537 0.058019 0.138651
O O13 0.860821 0.115247 0.102442
O O14 0.440673 0.340879 0.993097
O O15 0.500000 0.000000 0.000000
O O16 0.690895 0.661519 0.533648
O O17 0.500000 0.000000 0.500000
#
# Coordination Sequence:
#
# PCOD9079037 Si02
#       8
#     2   2   2   2   2   2   2   2
#     4  11  26  46  71 105 145 192 240 307 362 433
#     4  11  25  48  68 104 144 190 240 302 365 439
#     4  10  18  36  61  98 136 180 228 290 350 426
#     4  12  21  38  67 105 140 189 242 300 362 443
#     4  10  23  44  69 102 142 186 245 289 364 437
#     4  12  24  46  74 105 142 192 243 298 370 441
#     4  11  23  40  62 106 147 180 246 303 360 432
#     4  11  21  36  68  95 135 185 233 290 358 421
#
# _framework density 27.045763999999998
#
# number of rings (size 3 to 8) (size 9 to 14) (size 15 to 20)
#    0.000    1.000    5.000    1.875    0.000    1.500 
#    2.250    1.250    0.000    0.000    0.000    0.000 
#    0.000    0.000    0.000    0.000    0.000    0.000 
#
# Total GULP energy -89343.718041 kJ/mol
# GULP energy per Si atom -5583.982378 kJ/mol
# Density = 2.698421 g / cm^3
# Si number density = 27.045764 Si / 1000 Ang^3
#
#
#
# Elastic Constant Matrix: (Units=GPa)
#
#
# Indices 1 2 3 4 5 6 
#
# 1 78.8422 48.6916 9.2214 14.6617 1.6585 -2.1631
# 2 48.6916 155.7925 40.1082 -42.3734 15.9106 -34.1111
# 3 9.2214 40.1082 103.2149 -2.3645 3.4913 2.8285
# 4 14.6617 -42.3734 -2.3645 34.5957 -14.7379 -8.8136
# 5 1.6585 15.9106 3.4913 -14.7379 50.5182 -5.9771
# 6 -2.1631 -34.1111 2.8285 -8.8136 -5.9771 32.6541
#
#
#
# Elastic Compliance Matrix: (Units=1/GPa)
#
#
# Indices 1 2 3 4 5 6 
#
# 1 -0.003750 0.018429 -0.007157 0.035216 0.008722 0.030725
# 2 0.018429 -0.018822 0.005964 -0.043874 -0.011788 -0.032957
# 3 -0.007157 0.005964 0.007974 0.014716 0.003238 0.009630
# 4 0.035216 -0.043874 0.014716 -0.060773 -0.013618 -0.063669
# 5 0.008722 -0.011788 0.003238 -0.013618 0.017548 -0.012480
# 6 0.030725 -0.032957 0.009630 -0.063669 -0.012480 -0.022072
#
#
# Mechanical properties :
#
#
# Convention : Reuss Voigt Hill
#
# Bulk Modulus (GPa) = 50.31314 59.32133 54.81723
# Shear Modulus (GPa) = -46.40637 39.54216 -3.43211
#
# Velocity S-wave (km/s) = -4.14677 3.82782 -1.12772
# Velocity P-wave (km/s) = 2.06985 6.44341 4.31470
#
# Compressibility (1/GPa) = 0.01987553
#
# Stress axis : x y z
#
# Youngs Moduli (GPa) = -266.63872 -53.12942 125.40870
#
# Poissons Ratio (x) = 0.97914 0.89750
# Poissons Ratio (y) = 4.91396 -0.74798
# Poissons Ratio (z) = -1.90823 0.31688
#
# Static dielectric constant tensor:
#      x y z
#    x 2.121570 0.054960 0.037090 
#    y 0.054960 2.228200 0.111280 
#    z 0.037090 0.111280 2.232710 
# 
# From -- ./inp_files/546991.got.cif
#   From: 2010.05.17/outbox.cif.g08.bks.cpg/sg2_274_cif.got.tgz:546991.got - 2010.06.03 11:33:40.
