data_PCOD9079833
_publ_section_title
;
Structure prediction by ZEFSAII (Michael W. Deem and Ramdas Pophale) SiO2 
 PCOD9079833
Probable space group: P -1
;
_chemical_formula_sum "Si O2"
_cell_formula_units_Z 16
_cell_length_a 8.551316
_cell_length_b 21.288409
_cell_length_c 12.291800
_cell_angle_alpha 32.907455
_cell_angle_beta 48.772465
_cell_angle_gamma 36.628507
_cell_volume 724.555817
_symmetry_space_group_name_H-M "P -1"
_symmetry_group_IT_number 2
_symmetry_cell_setting 'triclinic'
loop_
_space_group_symop_operation_xyz
x,y,z
-x,-y,-z
loop_
_atom_site_type_symbol
_atom_site_label
_atom_site_fract_x
_atom_site_fract_y
_atom_site_fract_z
Si Si1 0.911733 0.251587 0.273660
Si Si2 0.198395 0.595896 0.539151
Si Si3 0.091567 0.750072 0.966208
Si Si4 0.141364 0.419888 0.662476
Si Si5 0.701106 0.196351 0.804678
Si Si6 0.658940 0.537799 0.098585
Si Si7 0.021907 0.978298 0.266350
Si Si8 0.554524 0.810109 0.845330
O O1 0.829663 0.243020 0.202659
O O2 0.771788 0.420673 0.121133
O O3 0.222492 0.174559 0.249256
O O4 0.858633 0.167088 0.506566
O O5 0.500000 0.500000 0.500000
O O6 0.061362 0.541734 0.612631
O O7 0.110559 0.757182 0.329450
O O8 0.215607 0.558232 0.711332
O O9 0.948171 0.907966 0.855476
O O10 0.344023 0.635080 0.091555
O O11 0.931054 0.686675 0.121322
O O12 0.456177 0.316596 0.665168
O O13 0.000000 0.500000 0.500000
O O14 0.559084 0.207088 0.965394
O O15 0.862312 0.055542 0.859486
O O16 0.687741 0.665788 0.917978
O O17 0.709643 0.059466 0.281946
#
# Coordination Sequence:
#
# PCOD9079833 Si02
#       8
#     2   2   2   2   2   2   2   2
#     4  12  23  44  64  94 131 174 222 267 320 381
#     4  10  18  37  66  93 127 159 211 269 323 363
#     4  11  24  43  63  97 136 173 211 268 326 386
#     4  11  23  38  67 100 135 160 208 274 334 371
#     4  11  21  43  66  95 128 172 214 266 320 388
#     4  11  21  39  70  92 126 173 216 268 321 384
#     4  11  26  41  69  89 135 179 215 257 328 390
#     4  11  23  42  65  96 127 165 224 276 315 376
#
# _framework density 22.082495999999999
#
# number of rings (size 3 to 8) (size 9 to 14) (size 15 to 20)
#    0.000    1.000    5.000    3.375    1.750    0.500 
#    0.000    0.000    0.000    0.000    0.000    0.000 
#    0.000    0.000    0.000    0.000    0.000    0.000 
#
# Total GULP energy -89327.818518 kJ/mol
# GULP energy per Si atom -5582.988657 kJ/mol
# Density = 2.203224 g / cm^3
# Si number density = 22.082496 Si / 1000 Ang^3
#
#
#
# Elastic Constant Matrix: (Units=GPa)
#
#
# Indices 1 2 3 4 5 6 
#
# 1 95.1218 19.1370 35.1272 -6.1597 -18.5904 29.7386
# 2 19.1370 91.5716 31.4910 -8.9345 -6.1239 36.7457
# 3 35.1272 31.4910 83.4276 -5.0783 0.7794 9.5274
# 4 -6.1597 -8.9345 -5.0783 19.7948 -1.7621 -2.3099
# 5 -18.5904 -6.1239 0.7794 -1.7621 25.8685 1.0746
# 6 29.7386 36.7457 9.5274 -2.3099 1.0746 40.8728
#
#
#
# Elastic Compliance Matrix: (Units=1/GPa)
#
#
# Indices 1 2 3 4 5 6 
#
# 1 0.026579 0.012336 -0.012332 0.009603 0.024196 -0.027648
# 2 0.012336 0.026497 -0.011264 0.010961 0.017470 -0.030011
# 3 -0.012332 -0.011264 0.019675 -0.003316 -0.012957 0.014666
# 4 0.009603 0.010961 -0.003316 0.057314 0.014048 -0.013199
# 5 0.024196 0.017470 -0.012957 0.014048 0.062823 -0.031149
# 6 -0.027648 -0.030011 0.014666 -0.013199 -0.031149 0.068217
#
#
# Mechanical properties :
#
#
# Convention : Reuss Voigt Hill
#
# Bulk Modulus (GPa) = 19.90830 49.07015 34.48922
# Shear Modulus (GPa) = 16.64624 29.59827 23.12226
#
# Velocity S-wave (km/s) = 2.74856 3.66505 3.23938
# Velocity P-wave (km/s) = 4.37124 6.33874 5.44460
#
# Compressibility (1/GPa) = 0.05023031
#
# Stress axis : x y z
#
# Youngs Moduli (GPa) = 37.62315 37.74068 50.82626
#
# Poissons Ratio (x) = -0.46556 0.62677
# Poissons Ratio (y) = -0.46411 0.57252
# Poissons Ratio (z) = 0.46396 0.42512
#
# Static dielectric constant tensor:
#      x y z
#    x 1.816900 0.006810 -0.011920 
#    y 0.006810 1.852320 -0.029250 
#    z -0.011920 -0.029250 1.883600 
# 
# From -- ./inp_files/343709.got.cif
#   From: 2010.05.17/outbox.cif.g08.bks.cpg/sg2_172_cif.got.tgz:343709.got - 2010.06.03 11:33:40.
