data_PCOD9079441
_publ_section_title
;
Structure prediction by ZEFSAII (Michael W. Deem and Ramdas Pophale) SiO2 
 PCOD9079441
Probable space group: P -1
;
_chemical_formula_sum "Si O2"
_cell_formula_units_Z 15
_cell_length_a 9.164423
_cell_length_b 18.185329
_cell_length_c 4.897263
_cell_angle_alpha 80.359118
_cell_angle_beta 64.822538
_cell_angle_gamma 66.526966
_cell_volume 677.502666
_symmetry_space_group_name_H-M "P -1"
_symmetry_group_IT_number 2
_symmetry_cell_setting 'triclinic'
loop_
_space_group_symop_operation_xyz
x,y,z
-x,-y,-z
loop_
_atom_site_type_symbol
_atom_site_label
_atom_site_fract_x
_atom_site_fract_y
_atom_site_fract_z
Si Si1 0.037553 0.198294 0.439130
Si Si2 0.190992 0.801809 0.886073
Si Si3 0.939006 0.374320 0.249451
Si Si4 0.745100 0.504504 0.708920
Si Si5 0.317608 0.029289 0.280435
Si Si6 0.796661 0.036635 0.079718
Si Si7 0.619604 0.378086 0.163939
Si Si8 0.000000 0.500000 0.000000
O O1 0.888781 0.192081 0.356657
O O2 0.036713 0.288224 0.351908
O O3 0.214281 0.124776 0.282808
O O4 0.973318 0.188549 0.796817
O O5 0.262575 0.870252 0.859459
O O6 0.329533 0.714023 0.894043
O O7 0.892040 0.462768 0.385788
O O8 0.754598 0.374357 0.299734
O O9 0.042703 0.402112 0.921955
O O10 0.583091 0.575250 0.666881
O O11 0.677971 0.431926 0.870470
O O12 0.817781 0.527165 0.912283
O O13 0.304511 0.003329 0.617443
O O14 0.219052 0.983880 0.207877
O O15 0.500000 0.000000 0.000000
O O16 0.000000 0.000000 0.000000
#
# Coordination Sequence:
#
# PCOD9079441 Si02
#       8
#     2   2   2   2   2   2   2   1
#     4  11  21  39  65  90 124 164 215 260 318 389
#     4  11  21  38  64  98 120 159 217 269 311 375
#     4  10  20  36  60  81 116 165 206 254 307 380
#     4  10  18  37  58  83 117 158 200 251 313 370
#     4  12  25  43  64  97 133 173 209 269 330 393
#     4  12  22  41  71  94 127 169 222 265 320 381
#     4   9  20  34  58  89 116 149 204 262 313 355
#     4  10  22  36  54  84 120 162 208 240 308 386
#
# _framework density 22.140135999999998
#
# number of rings (size 3 to 8) (size 9 to 14) (size 15 to 20)
#    0.000    1.333    4.000    2.400    0.000    0.000 
#    2.400    1.333    0.000    0.000    0.000    0.000 
#    0.000    0.000    0.000    0.000    0.000    0.000 
#
# Total GULP energy -83530.110244 kJ/mol
# GULP energy per Si atom -5568.674016 kJ/mol
# Density = 2.208974 g / cm^3
# Si number density = 22.140136 Si / 1000 Ang^3
#
#
#
# Elastic Constant Matrix: (Units=GPa)
#
#
# Indices 1 2 3 4 5 6 
#
# 1 50.1826 53.8776 7.5563 1.0254 1.1963 11.8950
# 2 53.8776 174.8464 34.6171 15.8891 -19.8898 -10.2118
# 3 7.5563 34.6171 77.0915 2.8300 -5.1799 -5.0338
# 4 1.0254 15.8891 2.8300 30.6048 0.8546 -3.6773
# 5 1.1963 -19.8898 -5.1799 0.8546 36.6392 7.1701
# 6 11.8950 -10.2118 -5.0338 -3.6773 7.1701 22.8534
#
#
#
# Elastic Compliance Matrix: (Units=1/GPa)
#
#
# Indices 1 2 3 4 5 6 
#
# 1 0.043709 -0.016089 0.000680 0.003627 -0.004724 -0.027724
# 2 -0.016089 0.012920 -0.002985 -0.004693 0.005044 0.011152
# 3 0.000680 -0.002985 0.014335 0.000380 0.000080 0.001506
# 4 0.003627 -0.004693 0.000380 0.035436 -0.004039 0.003068
# 5 -0.004724 0.005044 0.000080 -0.004039 0.031422 -0.005778
# 6 -0.027724 0.011152 0.001506 0.003068 -0.005778 0.065809
#
#
# Mechanical properties :
#
#
# Convention : Reuss Voigt Hill
#
# Bulk Modulus (GPa) = 29.26167 54.91361 42.08764
# Shear Modulus (GPa) = 19.85614 31.75743 25.80678
#
# Velocity S-wave (km/s) = 2.99798 3.79143 3.41781
# Velocity P-wave (km/s) = 5.02286 6.63500 5.88440
#
# Compressibility (1/GPa) = 0.03417440
#
# Stress axis : x y z
#
# Youngs Moduli (GPa) = 22.87863 77.40110 69.75861
#
# Poissons Ratio (x) = 1.24533 -0.04741
# Poissons Ratio (y) = 0.36810 0.20823
# Poissons Ratio (z) = -0.01555 0.23104
#
# Static dielectric constant tensor:
#      x y z
#    x 1.793460 -0.017620 -0.040990 
#    y -0.017620 1.835980 -0.034290 
#    z -0.040990 -0.034290 1.873220 
# 
# From -- ./inp_files/47358.got.cif
#   From: 2010.05.17/outbox.cif.g08.bks.cpg/sg2_24_cif.got.tgz:47358.got - 2010.06.03 11:33:40.
