data_PCOD9079871
_publ_section_title
;
Structure prediction by ZEFSAII (Michael W. Deem and Ramdas Pophale) SiO2 
 PCOD9079871
Probable space group: P -1
;
_chemical_formula_sum "Si O2"
_cell_formula_units_Z 14
_cell_length_a 16.574324
_cell_length_b 9.567094
_cell_length_c 8.076438
_cell_angle_alpha 103.172709
_cell_angle_beta 36.993781
_cell_angle_gamma 86.988949
_cell_volume 687.591438
_symmetry_space_group_name_H-M "P -1"
_symmetry_group_IT_number 2
_symmetry_cell_setting 'triclinic'
loop_
_space_group_symop_operation_xyz
x,y,z
-x,-y,-z
loop_
_atom_site_type_symbol
_atom_site_label
_atom_site_fract_x
_atom_site_fract_y
_atom_site_fract_z
Si Si1 0.960211 0.679356 0.657087
Si Si2 0.428615 0.680076 0.215329
Si Si3 0.146534 0.064788 0.344968
Si Si4 0.341993 0.168096 0.629706
Si Si5 0.368594 0.161966 0.214147
Si Si6 0.898413 0.127319 0.334798
Si Si7 0.624500 0.146773 0.339113
O O1 0.967762 0.779634 0.511768
O O2 0.000000 0.500000 0.500000
O O3 0.043013 0.738377 0.677881
O O4 0.792496 0.741872 0.006886
O O5 0.272165 0.784242 0.414220
O O6 0.393628 0.708582 0.475953
O O7 0.500000 0.500000 0.000000
O O8 0.555537 0.736554 0.969024
O O9 0.260864 0.123281 0.261066
O O10 0.093098 0.978284 0.547103
O O11 0.232124 0.938534 0.028897
O O12 0.300991 0.219069 0.521759
O O13 0.486749 0.188932 0.455016
O O14 0.375729 0.986175 0.565003
O O15 0.500000 0.000000 0.000000
O O16 0.000000 0.000000 0.000000
#
# Coordination Sequence:
#
# PCOD9079871 Si02
#       7
#     2   2   2   2   2   2   2
#     4  11  26  42  63  97 136 169 217 279 331 384
#     4  12  26  40  63 100 136 163 214 286 335 368
#     4  11  22  42  73  92 124 178 226 263 321 403
#     4  10  19  37  66  93 120 169 215 259 313 399
#     4  12  19  40  68  96 122 165 222 265 322 396
#     4  12  25  46  68  94 136 182 226 261 323 416
#     4  10  18  37  67  93 121 163 219 262 321 386
#
# _framework density 20.360928999999999
#
# number of rings (size 3 to 8) (size 9 to 14) (size 15 to 20)
#    0.000    0.857    4.286    4.714    4.000    0.000 
#    5.143    2.857    0.000    0.000    0.000    0.000 
#    0.000    0.000    0.000    0.000    0.000    0.000 
#
# Total GULP energy -78174.397030 kJ/mol
# GULP energy per Si atom -5583.885502 kJ/mol
# Density = 2.031459 g / cm^3
# Si number density = 20.360929 Si / 1000 Ang^3
#
#
#
# Elastic Constant Matrix: (Units=GPa)
#
#
# Indices 1 2 3 4 5 6 
#
# 1 90.8700 35.3797 34.8063 8.2597 10.6596 17.3332
# 2 35.3797 118.8419 62.6993 15.8754 13.2005 22.9477
# 3 34.8063 62.6993 92.7983 12.7065 22.6766 -0.6486
# 4 8.2597 15.8754 12.7065 36.8305 3.5003 6.7552
# 5 10.6596 13.2005 22.6766 3.5003 42.7422 -8.3209
# 6 17.3332 22.9477 -0.6486 6.7552 -8.3209 25.7039
#
#
#
# Elastic Compliance Matrix: (Units=1/GPa)
#
#
# Indices 1 2 3 4 5 6 
#
# 1 0.015759 0.001531 -0.006218 0.000808 -0.003818 -0.013599
# 2 0.001531 0.018541 -0.012420 -0.000293 -0.003163 -0.018846
# 3 -0.006218 -0.012420 0.022958 -0.003733 -0.003425 0.015733
# 4 0.000808 -0.000293 -0.003733 0.030281 -0.002384 -0.009107
# 5 -0.003818 -0.003163 -0.003425 -0.002384 0.030410 0.015783
# 6 -0.013599 -0.018846 0.015733 -0.009107 0.015783 0.072799
#
#
# Mechanical properties :
#
#
# Convention : Reuss Voigt Hill
#
# Bulk Modulus (GPa) = 43.39601 63.14230 53.26916
# Shear Modulus (GPa) = 21.49218 32.36365 26.92792
#
# Velocity S-wave (km/s) = 3.25246 3.99118 3.64060
# Velocity P-wave (km/s) = 5.95519 7.23313 6.62505
#
# Compressibility (1/GPa) = 0.02304359
#
# Stress axis : x y z
#
# Youngs Moduli (GPa) = 63.45746 53.93489 43.55818
#
# Poissons Ratio (x) = -0.08257 0.27084
# Poissons Ratio (y) = -0.09715 0.54099
# Poissons Ratio (z) = 0.39457 0.66987
#
# Static dielectric constant tensor:
#      x y z
#    x 1.850530 0.045370 0.088420 
#    y 0.045370 1.754810 0.012600 
#    z 0.088420 0.012600 1.801940 
# 
# From -- ./inp_files/329369.got.cif
#   From: 2010.05.17/outbox.cif.g08.bks.cpg/sg2_165_cif.got.tgz:329369.got - 2010.06.03 11:33:40.
