data_PCOD9079193
_publ_section_title
;
Structure prediction by ZEFSAII (Michael W. Deem and Ramdas Pophale) SiO2 
 PCOD9079193
Probable space group: P -1
;
_chemical_formula_sum "Si O2"
_cell_formula_units_Z 16
_cell_length_a 18.262645
_cell_length_b 12.116183
_cell_length_c 17.070501
_cell_angle_alpha 27.266192
_cell_angle_beta 147.196025
_cell_angle_gamma 129.821201
_cell_volume 846.372437
_symmetry_space_group_name_H-M "P -1"
_symmetry_group_IT_number 2
_symmetry_cell_setting 'triclinic'
loop_
_space_group_symop_operation_xyz
x,y,z
-x,-y,-z
loop_
_atom_site_type_symbol
_atom_site_label
_atom_site_fract_x
_atom_site_fract_y
_atom_site_fract_z
Si Si1 0.269203 0.606204 0.720473
Si Si2 0.688058 0.307062 0.694670
Si Si3 0.186338 0.484895 0.114909
Si Si4 0.537900 0.813503 0.327222
Si Si5 0.506893 0.392040 0.946168
Si Si6 0.994218 0.144620 0.156859
Si Si7 0.663871 0.923341 0.797960
Si Si8 0.355655 0.304728 0.229422
O O1 0.374662 0.668156 0.837872
O O2 0.105152 0.839519 0.434776
O O3 0.345877 0.569939 0.727650
O O4 0.279276 0.321418 0.936422
O O5 0.585717 0.622567 0.414593
O O6 0.607252 0.189001 0.759188
O O7 0.691946 0.164121 0.706460
O O8 0.855493 0.239505 0.913341
O O9 0.324757 0.331078 0.396197
O O10 0.090997 0.313515 0.129306
O O11 0.249149 0.490306 0.082542
O O12 0.082921 0.768296 0.882120
O O13 0.515242 0.110998 0.103543
O O14 0.558922 0.545118 0.832707
O O15 0.718646 0.802325 0.837428
O O16 0.483032 0.048109 0.548576
#
# Coordination Sequence:
#
# PCOD9079193 Si02
#       8
#     2   2   2   2   2   2   2   2
#     4  10  19  34  58  85 114 142 195 235 270 330
#     4  10  20  35  58  86 114 147 188 232 280 333
#     4  10  19  39  59  85 111 149 195 229 273 340
#     4  10  18  36  64  81 109 148 198 234 267 327
#     4  10  19  33  59  90 107 143 195 241 267 323
#     4  10  22  33  61  85 115 148 187 233 281 330
#     4  10  20  36  56  85 111 146 186 235 277 325
#     4  10  21  34  62  85 111 144 193 239 276 324
#
# _framework density 18.904208000000001
#
# number of rings (size 3 to 8) (size 9 to 14) (size 15 to 20)
#    0.000    2.000    3.750    0.000    5.250    0.500 
#    0.000    3.750    0.000    0.000    0.000    0.000 
#    0.000    0.000    0.000    0.000    0.000    0.000 
#
# Total GULP energy -89222.256252 kJ/mol
# GULP energy per Si atom -5576.391016 kJ/mol
# Density = 1.886118 g / cm^3
# Si number density = 18.904208 Si / 1000 Ang^3
#
#
#
# Elastic Constant Matrix: (Units=GPa)
#
#
# Indices 1 2 3 4 5 6 
#
# 1 98.6072 22.1451 38.7932 -18.8960 20.5124 -20.2161
# 2 22.1451 86.8466 10.3893 -20.4779 0.5028 -13.0130
# 3 38.7932 10.3893 64.4973 -22.4484 16.0770 -0.0167
# 4 -18.8960 -20.4779 -22.4484 40.8332 -4.1314 8.3812
# 5 20.5124 0.5028 16.0770 -4.1314 17.9040 -5.5782
# 6 -20.2161 -13.0130 -0.0167 8.3812 -5.5782 24.8734
#
#
#
# Elastic Compliance Matrix: (Units=1/GPa)
#
#
# Indices 1 2 3 4 5 6 
#
# 1 0.018222 -0.001952 -0.008424 -0.000582 -0.009716 0.011801
# 2 -0.001952 0.014071 -0.000512 0.005339 0.005129 0.005126
# 3 -0.008424 -0.000512 0.030294 0.013846 -0.019359 -0.016101
# 4 -0.000582 0.005339 0.013846 0.036137 -0.007144 -0.011450
# 5 -0.009716 0.005129 -0.019359 -0.007144 0.087834 0.016879
# 6 0.011801 0.005126 -0.016101 -0.011450 0.016879 0.060109
#
#
# Mechanical properties :
#
#
# Convention : Reuss Voigt Hill
#
# Bulk Modulus (GPa) = 24.50207 43.62290 34.06249
# Shear Modulus (GPa) = 17.72761 28.63035 23.17898
#
# Velocity S-wave (km/s) = 3.06561 3.89587 3.50541
# Velocity P-wave (km/s) = 5.05172 6.58506 5.86868
#
# Compressibility (1/GPa) = 0.04081288
#
# Stress axis : x y z
#
# Youngs Moduli (GPa) = 54.87732 71.06972 33.01002
#
# Poissons Ratio (x) = 0.13870 0.27806
# Poissons Ratio (y) = 0.10710 0.01689
# Poissons Ratio (z) = 0.46227 0.03637
#
# Static dielectric constant tensor:
#      x y z
#    x 1.670120 -0.022850 0.013430 
#    y -0.022850 1.694510 -0.014840 
#    z 0.013430 -0.014840 1.657720 
# 
# From -- ./inp_files/238394.got.cif
#   From: 2010.05.17/outbox.cif.g08.bks.cpg/sg2_120_cif.got.tgz:238394.got - 2010.06.03 11:33:40.
