data_PCOD9079151
_publ_section_title
;
Structure prediction by ZEFSAII (Michael W. Deem and Ramdas Pophale) SiO2 
 PCOD9079151
Probable space group: P -1
;
_chemical_formula_sum "Si O2"
_cell_formula_units_Z 16
_cell_length_a 10.203660
_cell_length_b 9.460010
_cell_length_c 18.486663
_cell_angle_alpha 50.677168
_cell_angle_beta 36.359289
_cell_angle_gamma 39.333588
_cell_volume 670.262401
_symmetry_space_group_name_H-M "P -1"
_symmetry_group_IT_number 2
_symmetry_cell_setting 'triclinic'
loop_
_space_group_symop_operation_xyz
x,y,z
-x,-y,-z
loop_
_atom_site_type_symbol
_atom_site_label
_atom_site_fract_x
_atom_site_fract_y
_atom_site_fract_z
Si Si1 0.443686 0.030300 0.602040
Si Si2 0.916331 0.791698 0.069717
Si Si3 0.703413 0.549201 0.625244
Si Si4 0.052163 0.411805 0.235101
Si Si5 0.296808 0.743241 0.612656
Si Si6 0.435467 0.958309 0.964735
Si Si7 0.090025 0.852928 0.236754
Si Si8 0.549270 0.322538 0.098727
O O1 0.598243 0.137317 0.522223
O O2 0.125912 0.175003 0.697677
O O3 0.500000 0.000000 0.500000
O O4 0.543390 0.785772 0.661532
O O5 0.916446 0.652582 0.180848
O O6 0.738158 0.057614 0.079855
O O7 0.229163 0.682749 0.947329
O O8 0.741679 0.807508 0.074806
O O9 0.548530 0.579943 0.608233
O O10 0.732050 0.355531 0.722532
O O11 0.000000 0.500000 0.500000
O O12 0.249932 0.378806 0.223894
O O13 0.831260 0.355189 0.347566
O O14 0.288772 0.228374 0.135513
O O15 0.071819 0.930504 0.708444
O O16 0.245945 0.877878 0.095761
O O17 0.500000 0.000000 0.000000
O O18 0.500000 0.500000 0.000000
#
# Coordination Sequence:
#
# PCOD9079151 Si02
#       8
#     2   2   2   2   2   2   2   2
#     4   8  16  28  43  61  83 121 166 206 230 270
#     4   9  19  34  50  68  96 131 165 197 235 289
#     4  10  15  27  45  58  81 128 165 196 234 270
#     4  10  20  31  48  75  99 128 161 202 245 281
#     4  10  18  27  44  68  94 121 160 207 237 274
#     4  11  22  31  43  68 108 141 160 187 232 295
#     4  10  18  31  41  61  96 133 168 191 225 283
#     4   8  16  35  55  68  88 122 168 209 240 278
#
# _framework density 23.87125
#
# number of rings (size 3 to 8) (size 9 to 14) (size 15 to 20)
#    0.000    2.750    5.000    0.000    1.750    2.500 
#    0.000    0.000    0.000    0.000    0.000    0.875 
#    0.000   35.000    0.000    3.000    0.000    0.000 
#
# Total GULP energy -89138.479383 kJ/mol
# GULP energy per Si atom -5571.154961 kJ/mol
# Density = 2.381692 g / cm^3
# Si number density = 23.871250 Si / 1000 Ang^3
#
#
#
# Elastic Constant Matrix: (Units=GPa)
#
#
# Indices 1 2 3 4 5 6 
#
# 1 77.6995 32.0000 10.5251 5.2049 -25.0122 -18.5818
# 2 32.0000 113.1151 10.4478 4.4768 -10.0014 -27.4060
# 3 10.5251 10.4478 85.7500 -3.3828 -40.0249 4.5540
# 4 5.2049 4.4768 -3.3828 30.5362 1.9078 4.0047
# 5 -25.0122 -10.0014 -40.0249 1.9078 42.9550 2.0317
# 6 -18.5818 -27.4060 4.5540 4.0047 2.0317 33.8929
#
#
#
# Elastic Compliance Matrix: (Units=1/GPa)
#
#
# Indices 1 2 3 4 5 6 
#
# 1 0.020528 -0.002709 0.004241 -0.004642 0.015095 0.008138
# 2 -0.002709 0.011964 -0.002261 -0.002632 -0.001202 0.008876
# 3 0.004241 -0.002261 0.022384 0.001183 0.022938 -0.004026
# 4 -0.004642 -0.002632 0.001183 0.035423 -0.003370 -0.008816
# 5 0.015095 -0.001202 0.022938 -0.003370 0.053245 0.001429
# 6 0.008138 0.008876 -0.004026 -0.008816 0.001429 0.042640
#
#
# Mechanical properties :
#
#
# Convention : Reuss Voigt Hill
#
# Bulk Modulus (GPa) = 18.72055 42.50118 30.61086
# Shear Modulus (GPa) = 24.33703 36.38293 30.35998
#
# Velocity S-wave (km/s) = 3.19644 3.90825 3.57013
# Velocity P-wave (km/s) = 4.63490 6.18133 5.46311
#
# Compressibility (1/GPa) = 0.05341724
#
# Stress axis : x y z
#
# Youngs Moduli (GPa) = 48.71470 83.58275 44.67532
#
# Poissons Ratio (x) = 0.22642 -0.18947
# Poissons Ratio (y) = 0.13196 0.10103
# Poissons Ratio (z) = -0.20661 0.18901
#
# Static dielectric constant tensor:
#      x y z
#    x 2.105620 0.044310 -0.015260 
#    y 0.044310 1.969170 0.000780 
#    z -0.015260 0.000780 1.950490 
# 
# From -- ./inp_files/368963.got.cif
#   From: 2010.05.17/outbox.cif.g08.bks.cpg/sg2_185_cif.got.tgz:368963.got - 2010.06.03 11:33:40.
