data_PCOD9079198
_publ_section_title
;
Structure prediction by ZEFSAII (Michael W. Deem and Ramdas Pophale) SiO2 
 PCOD9079198
Probable space group: P -1
;
_chemical_formula_sum "Si O2"
_cell_formula_units_Z 16
_cell_length_a 20.406074
_cell_length_b 9.151367
_cell_length_c 9.062943
_cell_angle_alpha 61.739034
_cell_angle_beta 49.768394
_cell_angle_gamma 38.084320
_cell_volume 794.791642
_symmetry_space_group_name_H-M "P -1"
_symmetry_group_IT_number 2
_symmetry_cell_setting 'triclinic'
loop_
_space_group_symop_operation_xyz
x,y,z
-x,-y,-z
loop_
_atom_site_type_symbol
_atom_site_label
_atom_site_fract_x
_atom_site_fract_y
_atom_site_fract_z
Si Si1 0.229608 0.552544 0.302811
Si Si2 0.067440 0.087008 0.211440
Si Si3 0.792894 0.517000 0.313769
Si Si4 0.185337 0.139205 0.772140
Si Si5 0.435105 0.121120 0.693616
Si Si6 0.573985 0.240585 0.576313
Si Si7 0.500520 0.177516 0.994235
Si Si8 0.957785 0.475650 0.422654
O O1 0.260899 0.500360 0.455837
O O2 0.356255 0.418970 0.102981
O O3 0.167836 0.458701 0.401675
O O4 0.125077 0.831831 0.290415
O O5 0.935240 0.266127 0.234280
O O6 0.045170 0.227481 0.324459
O O7 0.158086 0.050890 0.983588
O O8 0.786997 0.721153 0.260870
O O9 0.703651 0.622076 0.255223
O O10 0.068104 0.342826 0.743795
O O11 0.291239 0.937709 0.603611
O O12 0.511312 0.162696 0.637826
O O13 0.500000 0.000000 0.500000
O O14 0.441777 0.948933 0.870193
O O15 0.500000 0.500000 0.500000
O O16 0.567507 0.217949 0.772807
O O17 0.500000 0.000000 0.000000
O O18 0.000000 0.500000 0.500000
#
# Coordination Sequence:
#
# PCOD9079198 Si02
#       8
#     2   2   2   2   2   2   2   2
#     4  10  19  38  63  85 123 156 197 250 299 364
#     4  10  21  39  62  88 118 163 198 242 308 350
#     4  10  18  36  64  86 113 149 204 245 286 361
#     4  10  20  41  58  80 121 162 199 242 289 366
#     4  11  19  39  64  88 111 156 209 246 287 369
#     4  11  23  41  57  86 125 158 194 254 313 341
#     4  10  20  38  63  88 116 163 203 240 310 355
#     4  10  20  38  59  88 117 153 198 241 298 362
#
# _framework density 20.131060999999999
#
# number of rings (size 3 to 8) (size 9 to 14) (size 15 to 20)
#    0.000    2.000    2.500    6.000    0.000    0.000 
#   18.000    1.250    0.000    0.000    0.000    0.000 
#    0.000    0.000    0.000    0.000    0.000    0.000 
#
# Total GULP energy -89212.395734 kJ/mol
# GULP energy per Si atom -5575.774733 kJ/mol
# Density = 2.008524 g / cm^3
# Si number density = 20.131061 Si / 1000 Ang^3
#
#
#
# Elastic Constant Matrix: (Units=GPa)
#
#
# Indices 1 2 3 4 5 6 
#
# 1 50.2899 8.9056 18.8107 -1.5957 17.3738 -12.7200
# 2 8.9056 103.3412 32.6154 -3.4207 3.1031 -15.6305
# 3 18.8107 32.6154 127.5056 -5.8454 8.4533 -3.0481
# 4 -1.5957 -3.4207 -5.8454 37.5624 -8.2638 -3.4242
# 5 17.3738 3.1031 8.4533 -8.2638 18.1876 -2.2508
# 6 -12.7200 -15.6305 -3.0481 -3.4242 -2.2508 17.3633
#
#
#
# Elastic Compliance Matrix: (Units=1/GPa)
#
#
# Indices 1 2 3 4 5 6 
#
# 1 0.038958 0.002461 -0.003669 -0.004066 -0.034706 0.024810
# 2 0.002461 0.012453 -0.003120 0.001772 -0.000645 0.012731
# 3 -0.003669 -0.003120 0.009144 0.000535 -0.000446 -0.003844
# 4 -0.004066 0.001772 0.000535 0.031435 0.018521 0.007311
# 5 -0.034706 -0.000645 -0.000446 0.018521 0.095626 -0.010035
# 6 0.024810 0.012731 -0.003844 0.007311 -0.010035 0.086694
#
#
# Mechanical properties :
#
#
# Convention : Reuss Voigt Hill
#
# Bulk Modulus (GPa) = 19.26858 44.64443 31.95651
# Shear Modulus (GPa) = 16.65188 29.34301 22.99744
#
# Velocity S-wave (km/s) = 2.87918 3.82199 3.38359
# Velocity P-wave (km/s) = 4.54371 6.45770 5.58333
#
# Compressibility (1/GPa) = 0.05189796
#
# Stress axis : x y z
#
# Youngs Moduli (GPa) = 25.66898 80.30218 109.35670
#
# Poissons Ratio (x) = -0.19762 0.40125
# Poissons Ratio (y) = -0.06317 0.34121
# Poissons Ratio (z) = 0.09418 0.25056
#
# Static dielectric constant tensor:
#      x y z
#    x 1.751420 -0.039930 0.014120 
#    y -0.039930 1.728420 0.033000 
#    z 0.014120 0.033000 1.757550 
# 
# From -- ./inp_files/343416.got.cif
#   From: 2010.05.17/outbox.cif.g08.bks.cpg/sg2_172_cif.got.tgz:343416.got - 2010.06.03 11:33:40.
