data_PCOD9079523
_publ_section_title
;
Structure prediction by ZEFSAII (Michael W. Deem and Ramdas Pophale) SiO2 
 PCOD9079523
Probable space group: P -1
;
_chemical_formula_sum "Si O2"
_cell_formula_units_Z 16
_cell_length_a 11.437048
_cell_length_b 15.072975
_cell_length_c 18.912642
_cell_angle_alpha 163.796454
_cell_angle_beta 129.333970
_cell_angle_gamma 46.684389
_cell_volume 656.953273
_symmetry_space_group_name_H-M "P -1"
_symmetry_group_IT_number 2
_symmetry_cell_setting 'triclinic'
loop_
_space_group_symop_operation_xyz
x,y,z
-x,-y,-z
loop_
_atom_site_type_symbol
_atom_site_label
_atom_site_fract_x
_atom_site_fract_y
_atom_site_fract_z
Si Si1 0.490591 0.324008 0.935839
Si Si2 0.209677 0.460583 0.413089
Si Si3 0.784707 0.263601 0.088305
Si Si4 0.024252 0.458620 0.726254
Si Si5 0.497538 0.991288 0.077729
Si Si6 0.682781 0.522166 0.383164
Si Si7 0.816529 0.827544 0.293636
Si Si8 0.171812 0.456396 0.153437
O O1 0.310318 0.352776 0.910242
O O2 0.580318 0.917927 0.652464
O O3 0.500000 0.500000 0.000000
O O4 0.600716 0.424623 0.111546
O O5 0.236230 0.605418 0.608367
O O6 0.062019 0.676273 0.471942
O O7 0.178110 0.118885 0.164138
O O8 0.376803 0.317561 0.322405
O O9 0.895018 0.301366 0.096014
O O10 0.800947 0.466997 0.319672
O O11 0.154229 0.202637 0.632551
O O12 0.880167 0.645925 0.868869
O O13 0.427607 0.696941 0.843467
O O14 0.686807 0.848260 0.061919
O O15 0.500000 0.000000 0.000000
O O16 0.997240 0.626569 0.179501
O O17 0.769703 0.225683 0.564182
#
# Coordination Sequence:
#
# PCOD9079523 Si02
#       8
#     2   2   2   2   2   2   2   2
#     4  11  19  38  64  92 119 167 209 250 315 372
#     4  10  22  38  62  92 122 165 209 255 314 359
#     4  10  22  38  62  92 122 165 209 255 314 359
#     4  10  18  37  60  91 127 163 201 257 309 378
#     4  11  19  38  64  92 119 167 209 250 315 372
#     4  10  24  39  57  90 128 160 214 266 287 369
#     4   9  18  34  62  95 128 156 198 262 315 366
#     4   9  18  34  62  95 128 156 198 262 315 366
#
# _framework density 24.354852999999999
#
# number of rings (size 3 to 8) (size 9 to 14) (size 15 to 20)
#    0.750    1.250    3.750    0.375    0.000    1.500 
#    0.000    1.250    0.000    8.250    0.000    0.000 
#    0.000    0.000    0.000    0.000    0.000    0.000 
#
# Total GULP energy -89331.025584 kJ/mol
# GULP energy per Si atom -5583.189099 kJ/mol
# Density = 2.429942 g / cm^3
# Si number density = 24.354853 Si / 1000 Ang^3
#
#
#
# Elastic Constant Matrix: (Units=GPa)
#
#
# Indices 1 2 3 4 5 6 
#
# 1 128.2894 35.8021 22.9829 -6.7483 16.0362 9.5685
# 2 35.8021 101.6856 21.2592 -14.9364 -4.8506 4.3655
# 3 22.9829 21.2592 38.4186 -2.8158 2.4240 4.1940
# 4 -6.7483 -14.9364 -2.8158 32.2140 3.7245 5.2671
# 5 16.0362 -4.8506 2.4240 3.7245 26.6073 -6.2097
# 6 9.5685 4.3655 4.1940 5.2671 -6.2097 47.8131
#
#
#
# Elastic Compliance Matrix: (Units=1/GPa)
#
#
# Indices 1 2 3 4 5 6 
#
# 1 0.010493 -0.002870 -0.003799 0.001824 -0.007378 -0.002664
# 2 -0.002870 0.012788 -0.005268 0.004436 0.003893 -0.000114
# 3 -0.003799 -0.005268 0.031538 0.000037 -0.001965 -0.001785
# 4 0.001824 0.004436 0.000037 0.035133 -0.006492 -0.005487
# 5 -0.007378 0.003893 -0.001965 -0.006492 0.045682 0.007942
# 6 -0.002664 -0.000114 -0.001785 -0.005487 0.007942 0.023251
#
#
# Mechanical properties :
#
#
# Convention : Reuss Voigt Hill
#
# Bulk Modulus (GPa) = 32.31407 47.60912 39.96159
# Shear Modulus (GPa) = 25.89684 33.88352 29.89018
#
# Velocity S-wave (km/s) = 3.26439 3.73398 3.50705
# Velocity P-wave (km/s) = 5.24453 6.17905 5.73087
#
# Compressibility (1/GPa) = 0.03094628
#
# Stress axis : x y z
#
# Youngs Moduli (GPa) = 95.29826 78.19673 31.70753
#
# Poissons Ratio (x) = 0.22442 0.12047
# Poissons Ratio (y) = 0.27350 0.16702
# Poissons Ratio (z) = 0.36206 0.41191
#
# Static dielectric constant tensor:
#      x y z
#    x 1.985320 -0.039760 0.019510 
#    y -0.039760 1.995300 -0.040210 
#    z 0.019510 -0.040210 1.929210 
# 
# From -- ./inp_files/569888.got.cif
#   From: 2010.05.17/outbox.cif.g08.bks.cpg/sg2_285_cif.got.tgz:569888.got - 2010.06.03 11:33:40.
