data_PCOD9079316
_publ_section_title
;
Structure prediction by ZEFSAII (Michael W. Deem and Ramdas Pophale) SiO2 
 PCOD9079316
Probable space group: P -1
;
_chemical_formula_sum "Si O2"
_cell_formula_units_Z 16
_cell_length_a 9.419185
_cell_length_b 15.475794
_cell_length_c 18.981842
_cell_angle_alpha 158.336519
_cell_angle_beta 136.974205
_cell_angle_gamma 39.191518
_cell_volume 644.776809
_symmetry_space_group_name_H-M "P -1"
_symmetry_group_IT_number 2
_symmetry_cell_setting 'triclinic'
loop_
_space_group_symop_operation_xyz
x,y,z
-x,-y,-z
loop_
_atom_site_type_symbol
_atom_site_label
_atom_site_fract_x
_atom_site_fract_y
_atom_site_fract_z
Si Si1 0.720139 0.036009 0.959055
Si Si2 0.040456 0.536527 0.773865
Si Si3 0.464932 0.061127 0.745957
Si Si4 0.756259 0.847627 0.560792
Si Si5 0.308689 0.700243 0.487755
Si Si6 0.224465 0.719929 0.712767
Si Si7 0.208068 0.637705 0.054200
Si Si8 0.272623 0.045770 0.861359
O O1 0.881060 0.763098 0.838804
O O2 0.661331 0.023642 0.846899
O O3 0.475379 0.120239 0.970000
O O4 0.806336 0.233903 0.179350
O O5 0.880806 0.418361 0.668696
O O6 0.213474 0.333004 0.631073
O O7 0.172109 0.624814 0.947367
O O8 0.357560 0.359329 0.920734
O O9 0.565585 0.905037 0.593628
O O10 0.281431 0.955690 0.629407
O O11 0.995417 0.733496 0.603204
O O12 0.721738 0.125599 0.729459
O O13 0.551024 0.511417 0.404356
O O14 0.312201 0.792095 0.638782
O O15 0.260220 0.961708 0.872902
O O16 0.962164 0.733166 0.072560
#
# Coordination Sequence:
#
# PCOD9079316 Si02
#       8
#     2   2   2   2   2   2   2   2
#     4  11  22  38  68 102 130 168 211 278 329 381
#     4  12  22  43  77  95 127 171 227 264 327 393
#     4  11  28  44  61  97 142 170 216 273 327 379
#     4  11  24  46  69  92 131 181 220 265 319 393
#     4  11  22  38  67 103 133 164 210 281 332 379
#     4  11  19  37  66 102 127 166 220 264 322 390
#     4  11  24  46  69  93 129 182 223 259 322 396
#     4  10  18  36  66  95 126 167 215 260 320 382
#
# _framework density 24.814786999999999
#
# number of rings (size 3 to 8) (size 9 to 14) (size 15 to 20)
#    0.000    1.000    6.250    3.375    0.000    5.500 
#    4.500    0.000    0.000    0.000    0.000    0.000 
#    0.000    0.000    0.000    0.000    0.000    0.000 
#
# Total GULP energy -89515.633281 kJ/mol
# GULP energy per Si atom -5594.727080 kJ/mol
# Density = 2.475831 g / cm^3
# Si number density = 24.814787 Si / 1000 Ang^3
#
#
#
# Elastic Constant Matrix: (Units=GPa)
#
#
# Indices 1 2 3 4 5 6 
#
# 1 96.2906 25.6064 28.9468 17.7209 -21.9786 3.6920
# 2 25.6064 74.6000 37.3632 28.8474 -1.6389 5.4698
# 3 28.9468 37.3632 127.8663 20.6437 -39.8029 5.5058
# 4 17.7209 28.8474 20.6437 29.8890 -1.7019 4.8560
# 5 -21.9786 -1.6389 -39.8029 -1.7019 22.8522 0.2171
# 6 3.6920 5.4698 5.5058 4.8560 0.2171 23.4552
#
#
#
# Elastic Compliance Matrix: (Units=1/GPa)
#
#
# Indices 1 2 3 4 5 6 
#
# 1 0.018904 -0.007202 0.010182 -0.008961 0.034753 -0.002153
# 2 -0.007202 0.027485 -0.012885 -0.015170 -0.028539 0.001154
# 3 0.010182 -0.012885 0.029752 -0.010077 0.059978 -0.004051
# 4 -0.008961 -0.015170 -0.010077 0.059867 -0.022753 -0.004870
# 5 0.034753 -0.028539 0.059978 -0.022753 0.178003 -0.009831
# 6 -0.002153 0.001154 -0.004051 -0.004870 -0.009831 0.044755
#
#
# Mechanical properties :
#
#
# Convention : Reuss Voigt Hill
#
# Bulk Modulus (GPa) = 17.75198 53.62108 35.68653
# Shear Modulus (GPa) = 12.58329 29.02863 20.80596
#
# Velocity S-wave (km/s) = 2.25431 3.42396 2.89874
# Velocity P-wave (km/s) = 3.73432 6.10629 5.06122
#
# Compressibility (1/GPa) = 0.05633174
#
# Stress axis : x y z
#
# Youngs Moduli (GPa) = 52.90022 36.38350 33.61085
#
# Poissons Ratio (x) = 0.26203 -0.34224
# Poissons Ratio (y) = 0.38099 0.43308
# Poissons Ratio (z) = -0.53866 0.46880
#
# Static dielectric constant tensor:
#      x y z
#    x 2.002810 -0.016060 0.045030 
#    y -0.016060 2.000580 -0.013180 
#    z 0.045030 -0.013180 1.988600 
# 
# From -- ./inp_files/595875.got.cif
#   From: 2010.05.17/outbox.cif.g08.bks.cpg/sg2_298_cif.got.tgz:595875.got - 2010.06.03 11:33:40.
