data_PCOD9079801
_publ_section_title
;
Structure prediction by ZEFSAII (Michael W. Deem and Ramdas Pophale) SiO2 
 PCOD9079801
Probable space group: P -1
;
_chemical_formula_sum "Si O2"
_cell_formula_units_Z 16
_cell_length_a 13.989235
_cell_length_b 18.892522
_cell_length_c 10.666286
_cell_angle_alpha 34.132859
_cell_angle_beta 32.197732
_cell_angle_gamma 29.348548
_cell_volume 690.971251
_symmetry_space_group_name_H-M "P -1"
_symmetry_group_IT_number 2
_symmetry_cell_setting 'triclinic'
loop_
_space_group_symop_operation_xyz
x,y,z
-x,-y,-z
loop_
_atom_site_type_symbol
_atom_site_label
_atom_site_fract_x
_atom_site_fract_y
_atom_site_fract_z
Si Si1 0.642111 0.899957 0.370531
Si Si2 0.772386 0.668207 0.999362
Si Si3 0.009930 0.310475 0.054499
Si Si4 0.743773 0.086218 0.306464
Si Si5 0.329183 0.713401 0.411023
Si Si6 0.186757 0.757603 0.223355
Si Si7 0.067155 0.373477 0.381566
Si Si8 0.942017 0.937570 0.820990
O O1 0.473230 0.908601 0.447095
O O2 0.811869 0.726369 0.484316
O O3 0.779410 0.962654 0.077449
O O4 0.500000 0.000000 0.500000
O O5 0.565400 0.665246 0.260851
O O6 0.769560 0.711285 0.795107
O O7 0.000000 0.500000 0.000000
O O8 0.814896 0.756549 0.927575
O O9 0.775156 0.367352 0.291611
O O10 0.997668 0.454306 0.797670
O O11 0.060426 0.182469 0.087412
O O12 0.711353 0.198278 0.064142
O O13 0.949588 0.915460 0.288081
O O14 0.825794 0.124044 0.284105
O O15 0.315178 0.703200 0.291265
O O16 0.162574 0.894337 0.365325
O O17 0.134014 0.639091 0.405847
#
# Coordination Sequence:
#
# PCOD9079801 Si02
#       8
#     2   2   2   2   2   2   2   2
#     4  12  21  39  69  98 124 162 216 272 325 368
#     4  10  23  42  63  96 124 166 213 266 318 373
#     4  11  26  44  58  90 138 176 211 258 315 387
#     4  10  20  37  62  95 126 154 211 270 318 368
#     4  11  23  41  69  91 124 171 218 264 318 370
#     4  10  18  37  65  96 122 158 209 271 315 372
#     4  11  21  40  64  94 128 164 207 273 321 372
#     4  11  25  41  64  95 129 171 218 261 310 388
#
# _framework density 23.155811
#
# number of rings (size 3 to 8) (size 9 to 14) (size 15 to 20)
#    0.000    1.250    3.750    3.375    0.000    4.000 
#    4.500    0.625    0.000    0.000    0.000    0.000 
#    0.000    0.000    0.000    0.000    0.000    0.000 
#
# Total GULP energy -89558.621002 kJ/mol
# GULP energy per Si atom -5597.413813 kJ/mol
# Density = 2.310311 g / cm^3
# Si number density = 23.155811 Si / 1000 Ang^3
#
#
#
# Elastic Constant Matrix: (Units=GPa)
#
#
# Indices 1 2 3 4 5 6 
#
# 1 109.2475 37.8075 10.7583 0.4085 -44.5900 2.1475
# 2 37.8075 47.2227 16.3996 -17.6420 -9.9567 0.8550
# 3 10.7583 16.3996 99.8831 -12.3038 -26.1441 -12.0931
# 4 0.4085 -17.6420 -12.3038 37.3534 -4.4574 -17.0316
# 5 -44.5900 -9.9567 -26.1441 -4.4574 45.0901 2.6900
# 6 2.1475 0.8550 -12.0931 -17.0316 2.6900 32.9565
#
#
#
# Elastic Compliance Matrix: (Units=1/GPa)
#
#
# Indices 1 2 3 4 5 6 
#
# 1 0.024739 -0.019423 0.004930 -0.007385 0.022600 -0.004961
# 2 -0.019423 0.044984 -0.003113 0.025104 -0.009355 0.012694
# 3 0.004930 -0.003113 0.015963 0.009722 0.013837 0.009512
# 4 -0.007385 0.025104 0.009722 0.057678 0.007635 0.032581
# 5 0.022600 -0.009355 0.013837 0.007635 0.051023 0.003628
# 6 -0.004961 0.012694 0.009512 0.032581 0.003628 0.050369
#
#
# Mechanical properties :
#
#
# Convention : Reuss Voigt Hill
#
# Bulk Modulus (GPa) = 19.81237 42.92045 31.36641
# Shear Modulus (GPa) = 16.84678 35.83919 26.34299
#
# Velocity S-wave (km/s) = 2.70022 3.93840 3.37655
# Velocity P-wave (km/s) = 4.27742 6.26555 5.36439
#
# Compressibility (1/GPa) = 0.05047353
#
# Stress axis : x y z
#
# Youngs Moduli (GPa) = 40.42169 22.23006 62.64599
#
# Poissons Ratio (x) = 0.43177 -0.30882
# Poissons Ratio (y) = 0.78510 0.19503
# Poissons Ratio (z) = -0.19926 0.06921
#
# Static dielectric constant tensor:
#      x y z
#    x 1.936120 0.019510 0.042780 
#    y 0.019510 1.881680 -0.020450 
#    z 0.042780 -0.020450 1.880550 
# 
# From -- ./inp_files/457605.got.cif
#   From: 2010.05.17/outbox.cif.g08.bks.cpg/sg2_229_cif.got.tgz:457605.got - 2010.06.03 11:33:40.
