data_PCOD9079717
_publ_section_title
;
Structure prediction by ZEFSAII (Michael W. Deem and Ramdas Pophale) SiO2 
 PCOD9079717
Probable space group: P -1
;
_chemical_formula_sum "Si O2"
_cell_formula_units_Z 14
_cell_length_a 15.661453
_cell_length_b 14.926597
_cell_length_c 12.912536
_cell_angle_alpha 150.714746
_cell_angle_beta 149.630507
_cell_angle_gamma 27.094430
_cell_volume 620.005226
_symmetry_space_group_name_H-M "P -1"
_symmetry_group_IT_number 2
_symmetry_cell_setting 'triclinic'
loop_
_space_group_symop_operation_xyz
x,y,z
-x,-y,-z
loop_
_atom_site_type_symbol
_atom_site_label
_atom_site_fract_x
_atom_site_fract_y
_atom_site_fract_z
Si Si1 0.739742 0.882252 0.615093
Si Si2 0.109470 0.308586 0.066061
Si Si3 0.071866 0.758117 0.373206
Si Si4 0.974137 0.450593 0.567308
Si Si5 0.334076 0.690677 0.943532
Si Si6 0.314575 0.241944 0.013037
Si Si7 0.617068 0.213725 0.137984
O O1 0.882889 0.672561 0.627099
O O2 0.826016 0.369101 0.311946
O O3 0.808800 0.760870 0.454141
O O4 0.500000 0.000000 0.500000
O O5 0.041319 0.461702 0.246724
O O6 0.237862 0.350688 0.159137
O O7 0.232217 0.922181 0.130846
O O8 0.243122 0.054534 0.985005
O O9 0.872414 0.780424 0.236381
O O10 0.079999 0.646514 0.157228
O O11 0.252151 0.708179 0.587954
O O12 0.000000 0.000000 0.500000
O O13 0.500000 0.500000 0.000000
O O14 0.421878 0.707582 0.942251
O O15 0.423181 0.287249 0.080457
O O16 0.500000 0.000000 0.000000
#
# Coordination Sequence:
#
# PCOD9079717 Si02
#       7
#     2   2   2   2   2   2   2
#     4  11  24  48  74 101 149 190 253 316 378 446
#     4   8  17  36  65 105 143 185 240 294 382 451
#     4   8  15  30  61  98 146 189 244 291 372 453
#     4  11  23  45  77 104 148 195 238 324 387 434
#     4  12  25  44  72 107 148 196 261 305 375 461
#     4   8  15  30  60  98 151 185 237 299 368 444
#     4  10  18  37  64 104 152 196 243 308 371 444
#
# _framework density 22.580455000000001
#
# number of rings (size 3 to 8) (size 9 to 14) (size 15 to 20)
#    0.857    1.429    4.286    0.429    0.000    0.000 
#    2.571    2.857    0.000    0.000    0.000    2.000 
#    0.000    0.000    0.000    0.000    0.000    0.000 
#
# Total GULP energy -78066.933423 kJ/mol
# GULP energy per Si atom -5576.209530 kJ/mol
# Density = 2.252906 g / cm^3
# Si number density = 22.580455 Si / 1000 Ang^3
#
#
#
# Elastic Constant Matrix: (Units=GPa)
#
#
# Indices 1 2 3 4 5 6 
#
# 1 177.5632 96.6607 82.3948 10.7090 -22.6303 -12.5823
# 2 96.6607 122.7248 58.0209 0.5614 -11.6139 -13.1580
# 3 82.3948 58.0209 196.2013 7.7571 -22.0738 -16.2738
# 4 10.7090 0.5614 7.7571 36.4056 -7.2515 4.5760
# 5 -22.6303 -11.6139 -22.0738 -7.2515 50.8017 8.2796
# 6 -12.5823 -13.1580 -16.2738 4.5760 8.2796 51.4176
#
#
#
# Elastic Compliance Matrix: (Units=1/GPa)
#
#
# Indices 1 2 3 4 5 6 
#
# 1 0.011123 -0.007560 -0.002122 -0.002310 0.001974 0.000003
# 2 -0.007560 0.014774 -0.001205 0.001977 -0.000467 0.001449
# 3 -0.002122 -0.001205 0.006616 -0.000629 0.001385 0.001099
# 4 -0.002310 0.001977 -0.000629 0.029476 0.003930 -0.003515
# 5 0.001974 -0.000467 0.001385 0.003930 0.022127 -0.003111
# 6 0.000003 0.001449 0.001099 -0.003515 -0.003111 0.020982
#
#
# Mechanical properties :
#
#
# Convention : Reuss Voigt Hill
#
# Bulk Modulus (GPa) = 93.10681 107.84913 100.47797
# Shear Modulus (GPa) = 38.32862 45.01919 41.67390
#
# Velocity S-wave (km/s) = 4.12445 4.46996 4.30068
# Velocity P-wave (km/s) = 8.00027 8.63172 8.32199
#
# Compressibility (1/GPa) = 0.01074035
#
# Stress axis : x y z
#
# Youngs Moduli (GPa) = 89.90465 67.68526 151.14746
#
# Poissons Ratio (x) = 0.51168 0.32069
# Poissons Ratio (y) = 0.67966 0.18212
# Poissons Ratio (z) = 0.19075 0.08156
#
# Static dielectric constant tensor:
#      x y z
#    x 1.889830 -0.019460 -0.041820 
#    y -0.019460 2.015540 0.203750 
#    z -0.041820 0.203750 2.048220 
# 
# From -- ./inp_files/533920.got.cif
#   From: 2010.05.17/outbox.cif.g08.bks.cpg/sg2_267_cif.got.tgz:533920.got - 2010.06.03 11:33:40.
