data_PCOD9079694
_publ_section_title
;
Structure prediction by ZEFSAII (Michael W. Deem and Ramdas Pophale) SiO2 
 PCOD9079694
Probable space group: P -1
;
_chemical_formula_sum "Si O2"
_cell_formula_units_Z 14
_cell_length_a 8.998517
_cell_length_b 10.978472
_cell_length_c 6.788737
_cell_angle_alpha 79.730951
_cell_angle_beta 83.140346
_cell_angle_gamma 109.189816
_cell_volume 611.703540
_symmetry_space_group_name_H-M "P -1"
_symmetry_group_IT_number 2
_symmetry_cell_setting 'triclinic'
loop_
_space_group_symop_operation_xyz
x,y,z
-x,-y,-z
loop_
_atom_site_type_symbol
_atom_site_label
_atom_site_fract_x
_atom_site_fract_y
_atom_site_fract_z
Si Si1 0.613645 0.949611 0.684851
Si Si2 0.910598 0.901883 0.869262
Si Si3 0.727746 0.192317 0.842574
Si Si4 0.979010 0.358113 0.451870
Si Si5 0.797606 0.136734 0.284280
Si Si6 0.752633 0.617841 0.914199
Si Si7 0.420217 0.663955 0.908272
O O1 0.765377 0.928904 0.777629
O O2 0.337018 0.982180 0.552622
O O3 0.601551 0.068950 0.785245
O O4 0.475495 0.804957 0.743917
O O5 0.843332 0.747688 0.991287
O O6 0.046170 0.902495 0.693150
O O7 0.000000 0.000000 0.000000
O O8 0.889772 0.256322 0.671241
O O9 0.640385 0.294669 0.886647
O O10 0.774453 0.144776 0.055045
O O11 0.847576 0.284768 0.324291
O O12 0.000000 0.500000 0.500000
O O13 0.144149 0.374134 0.304836
O O14 0.716852 0.478481 0.070784
O O15 0.582751 0.631995 0.891415
#
# Coordination Sequence:
#
# PCOD9079694 Si02
#       7
#     2   2   2   2   2   2   2
#     4  10  21  37  61  89 123 166 202 250 306 363
#     4  10  18  37  63  91 119 157 207 256 302 358
#     4  11  21  37  64  93 119 162 207 253 306 360
#     4  10  20  39  63  91 117 159 207 259 302 354
#     4  10  22  36  58  94 124 154 208 257 305 353
#     4   9  20  38  64  92 121 165 202 251 314 360
#     4  10  20  38  61  86 128 168 198 245 311 376
#
# _framework density 22.886904999999999
#
# number of rings (size 3 to 8) (size 9 to 14) (size 15 to 20)
#    0.000    2.000    2.857    0.857    0.000    2.286 
#    0.000    0.000    0.000    1.714    0.000    0.000 
#    0.000    0.000    0.000    0.000    0.000    0.000 
#
# Total GULP energy -77960.189956 kJ/mol
# GULP energy per Si atom -5568.584997 kJ/mol
# Density = 2.283481 g / cm^3
# Si number density = 22.886905 Si / 1000 Ang^3
#
#
#
# Elastic Constant Matrix: (Units=GPa)
#
#
# Indices 1 2 3 4 5 6 
#
# 1 87.7774 36.4539 38.6339 0.5585 -20.7338 5.6117
# 2 36.4539 227.6849 72.7229 -9.5773 -1.5275 16.0889
# 3 38.6339 72.7229 108.9948 -15.8872 -0.2383 8.7034
# 4 0.5585 -9.5773 -15.8872 47.9566 4.1642 -4.8277
# 5 -20.7338 -1.5275 -0.2383 4.1642 41.1611 0.4417
# 6 5.6117 16.0889 8.7034 -4.8277 0.4417 34.9804
#
#
#
# Elastic Compliance Matrix: (Units=1/GPa)
#
#
# Indices 1 2 3 4 5 6 
#
# 1 0.016277 -0.000808 -0.005547 -0.003063 0.008462 -0.001389
# 2 -0.000808 0.005725 -0.003420 -0.000132 -0.000183 -0.001669
# 3 -0.005547 -0.003420 0.014073 0.004287 -0.003269 -0.000406
# 4 -0.003063 -0.000132 0.004287 0.022889 -0.003868 0.002693
# 5 0.008462 -0.000183 -0.003269 -0.003868 0.028937 -0.001359
# 6 -0.001389 -0.001669 -0.000406 0.002693 -0.001359 0.030067
#
#
# Mechanical properties :
#
#
# Convention : Reuss Voigt Hill
#
# Bulk Modulus (GPa) = 60.51780 80.00871 70.26326
# Shear Modulus (GPa) = 34.95883 43.26273 39.11078
#
# Velocity S-wave (km/s) = 3.91251 4.35246 4.13833
# Velocity P-wave (km/s) = 6.84908 7.76484 7.32129
#
# Compressibility (1/GPa) = 0.01652406
#
# Stress axis : x y z
#
# Youngs Moduli (GPa) = 61.43792 174.67945 71.05945
#
# Poissons Ratio (x) = 0.14117 0.39418
# Poissons Ratio (y) = 0.04965 0.24300
# Poissons Ratio (z) = 0.34081 0.59734
#
# Static dielectric constant tensor:
#      x y z
#    x 1.982000 -0.009270 -0.063600 
#    y -0.009270 1.922990 -0.000700 
#    z -0.063600 -0.000700 1.848030 
# 
# From -- ./inp_files/180066.got.cif
#   From: 2010.05.17/outbox.cif.g08.bks.cpg/sg2_91_cif.got.tgz:180066.got - 2010.06.03 11:33:40.
