data_PCOD9079013
_publ_section_title
;
Structure prediction by ZEFSAII (Michael W. Deem and Ramdas Pophale) SiO2 
 PCOD9079013
Probable space group: P -1
;
_chemical_formula_sum "Si O2"
_cell_formula_units_Z 16
_cell_length_a 8.339449
_cell_length_b 15.185624
_cell_length_c 29.211463
_cell_angle_alpha 18.899777
_cell_angle_beta 40.280037
_cell_angle_gamma 47.779374
_cell_volume 752.504766
_symmetry_space_group_name_H-M "P -1"
_symmetry_group_IT_number 2
_symmetry_cell_setting 'triclinic'
loop_
_space_group_symop_operation_xyz
x,y,z
-x,-y,-z
loop_
_atom_site_type_symbol
_atom_site_label
_atom_site_fract_x
_atom_site_fract_y
_atom_site_fract_z
Si Si1 0.132664 0.032644 0.153432
Si Si2 0.236966 0.042044 0.647668
Si Si3 0.786383 0.118234 0.463843
Si Si4 0.215746 0.524308 0.539828
Si Si5 0.458308 0.703310 0.129671
Si Si6 0.954045 0.708281 0.179204
Si Si7 0.168440 0.167749 0.498557
Si Si8 0.594911 0.317322 0.672373
O O1 0.346029 0.901166 0.196798
O O2 0.952843 0.099806 0.200550
O O3 0.963287 0.781649 0.282594
O O4 0.293123 0.275773 0.966653
O O5 0.517597 0.983205 0.613360
O O6 0.156746 0.022022 0.621875
O O7 0.295241 0.372818 0.484468
O O8 0.859886 0.449738 0.292548
O O9 0.790623 0.031193 0.453190
O O10 0.000000 0.000000 0.500000
O O11 0.500000 0.500000 0.500000
O O12 0.246669 0.695858 0.401132
O O13 0.082612 0.704210 0.514005
O O14 0.396584 0.448201 0.304523
O O15 0.204241 0.674342 0.168122
O O16 0.500000 0.000000 0.000000
O O17 0.699683 0.710028 0.262827
O O18 0.000000 0.000000 0.000000
#
# Coordination Sequence:
#
# PCOD9079013 Si02
#       8
#     2   2   2   2   2   2   2   2
#     4  11  20  38  60  91 131 169 215 270 326 380
#     4  10  21  40  62  88 124 177 222 258 320 400
#     4  11  25  42  65  96 130 174 219 275 337 383
#     4  11  21  33  59  95 130 161 220 272 321 374
#     4  12  23  37  62  98 135 162 211 270 336 378
#     4  11  23  41  66  93 130 175 220 268 327 397
#     4  12  22  41  64  95 132 172 218 273 320 402
#     4  10  18  36  61  89 122 167 215 266 316 379
#
# _framework density 21.262322999999999
#
# number of rings (size 3 to 8) (size 9 to 14) (size 15 to 20)
#    0.000    1.000    6.250    1.875    5.250    0.000 
#    0.000    0.625    0.000    3.000    0.000    0.000 
#    0.000    0.000    0.000    0.000    0.000    0.000 
#
# Total GULP energy -89347.516645 kJ/mol
# GULP energy per Si atom -5584.219790 kJ/mol
# Density = 2.121393 g / cm^3
# Si number density = 21.262323 Si / 1000 Ang^3
#
#
#
# Elastic Constant Matrix: (Units=GPa)
#
#
# Indices 1 2 3 4 5 6 
#
# 1 66.4463 29.3772 10.4424 11.7109 -18.1625 -15.4278
# 2 29.3772 153.1791 42.1712 28.7431 -12.1255 0.6450
# 3 10.4424 42.1712 70.1273 13.6554 -12.9807 4.2694
# 4 11.7109 28.7431 13.6554 38.1707 -2.8576 -6.7326
# 5 -18.1625 -12.1255 -12.9807 -2.8576 25.8868 3.0256
# 6 -15.4278 0.6450 4.2694 -6.7326 3.0256 41.0444
#
#
#
# Elastic Compliance Matrix: (Units=1/GPa)
#
#
# Indices 1 2 3 4 5 6 
#
# 1 0.021900 -0.002969 0.001130 -0.002694 0.013458 0.006727
# 2 -0.002969 0.009100 -0.004032 -0.004798 -0.000183 -0.001613
# 3 0.001130 -0.004032 0.018995 -0.003969 0.008313 -0.002752
# 4 -0.002694 -0.004798 -0.003969 0.032719 -0.003108 0.005072
# 5 0.013458 -0.000183 0.008313 -0.003108 0.051827 -0.000134
# 6 0.006727 -0.001613 -0.002752 0.005072 -0.000134 0.028046
#
#
# Mechanical properties :
#
#
# Convention : Reuss Voigt Hill
#
# Bulk Modulus (GPa) = 26.14063 50.41491 38.27777
# Shear Modulus (GPa) = 26.72666 34.87118 30.79892
#
# Velocity S-wave (km/s) = 3.54926 4.05414 3.81007
# Velocity P-wave (km/s) = 5.39605 6.75849 6.11533
#
# Compressibility (1/GPa) = 0.03825462
#
# Stress axis : x y z
#
# Youngs Moduli (GPa) = 45.66231 109.88776 52.64497
#
# Poissons Ratio (x) = 0.32623 -0.05951
# Poissons Ratio (y) = 0.13556 0.21226
# Poissons Ratio (z) = -0.05161 0.44305
#
# Static dielectric constant tensor:
#      x y z
#    x 1.813810 0.023820 0.005510 
#    y 0.023820 1.863570 0.038650 
#    z 0.005510 0.038650 1.765100 
# 
# From -- ./inp_files/417634.got.cif
#   From: 2010.05.17/outbox.cif.g08.bks.cpg/sg2_209_cif.got.tgz:417634.got - 2010.06.03 11:33:40.
