data_PCOD9079420
_publ_section_title
;
Structure prediction by ZEFSAII (Michael W. Deem and Ramdas Pophale) SiO2 
 PCOD9079420
Probable space group: P -1
;
_chemical_formula_sum "Si O2"
_cell_formula_units_Z 13
_cell_length_a 15.850771
_cell_length_b 12.017070
_cell_length_c 7.194541
_cell_angle_alpha 129.808851
_cell_angle_beta 145.275718
_cell_angle_gamma 36.746806
_cell_volume 466.355574
_symmetry_space_group_name_H-M "P -1"
_symmetry_group_IT_number 2
_symmetry_cell_setting 'triclinic'
loop_
_space_group_symop_operation_xyz
x,y,z
-x,-y,-z
loop_
_atom_site_type_symbol
_atom_site_label
_atom_site_fract_x
_atom_site_fract_y
_atom_site_fract_z
Si Si1 0.500000 0.500000 0.000000
Si Si2 0.981105 0.587942 0.261601
Si Si3 0.408610 0.270864 0.746817
Si Si4 0.678223 0.254719 0.711171
Si Si5 0.642787 0.001623 0.560063
Si Si6 0.019065 0.161115 0.705575
Si Si7 0.238661 0.547455 0.172597
O O1 0.521663 0.349506 0.031899
O O2 0.653224 0.327840 0.953286
O O3 0.925672 0.786898 0.326247
O O4 0.193832 0.453450 0.577274
O O5 0.858114 0.550197 0.116205
O O6 0.000000 0.500000 0.000000
O O7 0.462256 0.178462 0.536707
O O8 0.424436 0.118673 0.737714
O O9 0.717619 0.060733 0.598990
O O10 0.461945 0.386945 0.385434
O O11 0.806569 0.286472 0.861711
O O12 0.818243 0.891269 0.907010
O O13 0.820683 0.357224 0.627341
O O14 0.000000 0.000000 0.500000
#
# Coordination Sequence:
#
# PCOD9079420 Si02
#       7
#     1   2   2   2   2   2   2
#     4  10  20  36  62  88 110 150 208 242 276 362
#     4  10  18  37  57  81 119 164 194 234 298 360
#     4  10  20  33  56  88 114 156 198 240 291 349
#     4  10  23  39  64  87 118 160 199 245 300 356
#     4  10  20  35  58  89 118 155 196 246 296 351
#     4  11  23  35  62  93 121 153 203 248 290 351
#     4  10  22  43  59  85 124 163 194 241 308 355
#
# _framework density 27.875724999999999
#
# number of rings (size 3 to 8) (size 9 to 14) (size 15 to 20)
#    0.000    1.846    3.077    3.692   10.769    0.615 
#    0.000    2.308    0.000    3.692    0.000    0.000 
#    0.000    0.000    0.000    0.000    0.000    0.000 
#
# Total GULP energy -72432.888624 kJ/mol
# GULP energy per Si atom -5571.760663 kJ/mol
# Density = 2.781228 g / cm^3
# Si number density = 27.875725 Si / 1000 Ang^3
#
#
#
# Elastic Constant Matrix: (Units=GPa)
#
#
# Indices 1 2 3 4 5 6 
#
# 1 177.6773 59.6802 52.4938 31.0958 32.4660 47.6399
# 2 59.6802 151.0670 36.0833 38.2191 36.1887 60.1065
# 3 52.4938 36.0833 101.4360 17.3791 49.1245 23.3431
# 4 31.0958 38.2191 17.3791 47.8434 9.4234 20.2316
# 5 32.4660 36.1887 49.1245 9.4234 53.1136 27.4724
# 6 47.6399 60.1065 23.3431 20.2316 27.4724 70.9171
#
#
#
# Elastic Compliance Matrix: (Units=1/GPa)
#
#
# Indices 1 2 3 4 5 6 
#
# 1 0.007916 -0.000632 -0.002922 -0.002249 0.000422 -0.003343
# 2 -0.000632 0.011664 0.000319 -0.005531 -0.003430 -0.006660
# 3 -0.002922 0.000319 0.019632 -0.003285 -0.017538 0.002961
# 4 -0.002249 -0.005531 -0.003285 0.028143 0.004472 -0.002481
# 5 0.000422 -0.003430 -0.017538 0.004472 0.040832 -0.008697
# 6 -0.003343 -0.006660 0.002961 -0.002481 -0.008697 0.025093
#
#
# Mechanical properties :
#
#
# Convention : Reuss Voigt Hill
#
# Bulk Modulus (GPa) = 30.54072 80.74387 55.64230
# Shear Modulus (GPa) = 33.18657 53.16968 43.17812
#
# Velocity S-wave (km/s) = 3.45413 4.37210 3.93994
# Velocity P-wave (km/s) = 5.18535 7.38346 6.37979
#
# Compressibility (1/GPa) = 0.03274317
#
# Stress axis : x y z
#
# Youngs Moduli (GPa) = 126.32095 85.73673 50.93831
#
# Poissons Ratio (x) = 0.05415 0.14883
# Poissons Ratio (y) = 0.07979 -0.01626
# Poissons Ratio (z) = 0.36908 -0.02737
#
# Static dielectric constant tensor:
#      x y z
#    x 2.160730 0.036940 -0.087500 
#    y 0.036940 2.219500 -0.010150 
#    z -0.087500 -0.010150 2.301450 
# 
# From -- ./inp_files/175052.got.cif
#   From: 2010.05.17/outbox.cif.g08.bks.cpg/sg2_88_cif.got.tgz:175052.got - 2010.06.03 11:33:40.
