data_PCOD9079660
_publ_section_title
;
Structure prediction by ZEFSAII (Michael W. Deem and Ramdas Pophale) SiO2 
 PCOD9079660
Probable space group: P -1
;
_chemical_formula_sum "Si O2"
_cell_formula_units_Z 14
_cell_length_a 11.678842
_cell_length_b 10.471767
_cell_length_c 8.908142
_cell_angle_alpha 53.001123
_cell_angle_beta 66.604349
_cell_angle_gamma 100.534378
_cell_volume 653.092424
_symmetry_space_group_name_H-M "P -1"
_symmetry_group_IT_number 2
_symmetry_cell_setting 'triclinic'
loop_
_space_group_symop_operation_xyz
x,y,z
-x,-y,-z
loop_
_atom_site_type_symbol
_atom_site_label
_atom_site_fract_x
_atom_site_fract_y
_atom_site_fract_z
Si Si1 0.885204 0.065853 0.516645
Si Si2 0.848212 0.017374 0.226589
Si Si3 0.674593 0.704857 0.066145
Si Si4 0.367678 0.883202 0.773380
Si Si5 0.819482 0.545785 0.892298
Si Si6 0.640744 0.391978 0.802537
Si Si7 0.829227 0.692519 0.277049
O O1 0.816495 0.014144 0.422256
O O2 0.766569 0.929942 0.802463
O O3 0.000000 0.000000 0.500000
O O4 0.999380 0.296966 0.320250
O O5 0.711195 0.008654 0.223127
O O6 0.859529 0.845029 0.284264
O O7 0.012277 0.213614 0.959482
O O8 0.502581 0.609214 0.172861
O O9 0.709751 0.689030 0.229922
O O10 0.746170 0.604935 0.013698
O O11 0.500000 0.000000 0.500000
O O12 0.236408 0.677081 0.908946
O O13 0.409540 0.812950 0.950708
O O14 0.735080 0.536923 0.789361
O O15 0.756695 0.482028 0.538730
#
# Coordination Sequence:
#
# PCOD9079660 Si02
#       7
#     2   2   2   2   2   2   2
#     4  10  18  37  62  95 118 153 216 258 291 357
#     4  11  23  40  63  92 131 161 206 256 305 375
#     4  11  20  38  65  98 121 157 214 261 300 360
#     4  10  24  42  64  91 123 167 207 255 317 355
#     4   9  21  37  64  89 122 159 213 251 308 353
#     4  10  23  39  61  92 124 164 203 255 311 365
#     4  11  23  37  65  91 127 167 204 249 313 369
#
# _framework density 21.436477
#
# number of rings (size 3 to 8) (size 9 to 14) (size 15 to 20)
#    0.857    0.857    2.857    3.429    4.000    1.143 
#    0.000    0.714    0.000    0.000    0.000    0.000 
#    0.000    0.000    0.000    0.000    0.000    0.000 
#
# Total GULP energy -78019.657341 kJ/mol
# GULP energy per Si atom -5572.832667 kJ/mol
# Density = 2.138769 g / cm^3
# Si number density = 21.436477 Si / 1000 Ang^3
#
#
#
# Elastic Constant Matrix: (Units=GPa)
#
#
# Indices 1 2 3 4 5 6 
#
# 1 66.4166 -0.3441 21.3111 16.3807 6.9497 7.0286
# 2 -0.3441 13.6180 23.4742 -23.3510 -16.0530 15.6122
# 3 21.3111 23.4742 102.8862 20.6853 47.9177 2.4982
# 4 16.3807 -23.3510 20.6853 -7.9148 -18.1352 8.3344
# 5 6.9497 -16.0530 47.9177 -18.1352 0.4286 5.2133
# 6 7.0286 15.6122 2.4982 8.3344 5.2133 33.5321
#
#
#
# Elastic Compliance Matrix: (Units=1/GPa)
#
#
# Indices 1 2 3 4 5 6 
#
# 1 0.020098 0.003713 -0.006822 -0.014361 0.010269 -0.003461
# 2 0.003713 0.027480 0.006379 -0.008929 -0.024538 -0.008013
# 3 -0.006822 0.006379 0.011581 0.020454 -0.012631 -0.005523
# 4 -0.014361 -0.008929 0.020454 0.055316 -0.057075 0.000769
# 5 0.010269 -0.024538 -0.012631 -0.057075 0.058413 0.015317
# 6 -0.003461 -0.008013 -0.005523 0.000769 0.015317 0.032118
#
#
# Mechanical properties :
#
#
# Convention : Reuss Voigt Hill
#
# Bulk Modulus (GPa) = 15.22034 30.20036 22.71035
# Shear Modulus (GPa) = 22.68969 14.44114 18.56541
#
# Velocity S-wave (km/s) = 3.25693 2.59833 2.94609
# Velocity P-wave (km/s) = 4.61076 4.80840 4.71061
#
# Compressibility (1/GPa) = 0.06570156
#
# Stress axis : x y z
#
# Youngs Moduli (GPa) = 49.75568 36.39057 86.34548
#
# Poissons Ratio (x) = -0.13513 0.58901
# Poissons Ratio (y) = -0.18476 -0.55082
# Poissons Ratio (z) = 0.33941 -0.23215
#
# Static dielectric constant tensor:
#      x y z
#    x 1.773650 0.036040 0.028740 
#    y 0.036040 1.815480 -0.045280 
#    z 0.028740 -0.045280 1.855180 
# 
# From -- ./inp_files/256824.got.cif
#   From: 2010.05.17/outbox.cif.g08.bks.cpg/sg2_129_cif.got.tgz:256824.got - 2010.06.03 11:33:40.
