data_PCOD9079270
_publ_section_title
;
Structure prediction by ZEFSAII (Michael W. Deem and Ramdas Pophale) SiO2 
 PCOD9079270
Probable space group: P -1
;
_chemical_formula_sum "Si O2"
_cell_formula_units_Z 14
_cell_length_a 11.662104
_cell_length_b 9.691339
_cell_length_c 9.809467
_cell_angle_alpha 129.417419
_cell_angle_beta 65.674816
_cell_angle_gamma 126.682975
_cell_volume 685.921683
_symmetry_space_group_name_H-M "P -1"
_symmetry_group_IT_number 2
_symmetry_cell_setting 'triclinic'
loop_
_space_group_symop_operation_xyz
x,y,z
-x,-y,-z
loop_
_atom_site_type_symbol
_atom_site_label
_atom_site_fract_x
_atom_site_fract_y
_atom_site_fract_z
Si Si1 0.162871 0.365346 0.993493
Si Si2 0.284352 0.043217 0.693084
Si Si3 0.468235 0.676652 0.079461
Si Si4 0.775956 0.957268 0.585484
Si Si5 0.083953 0.333259 0.702143
Si Si6 0.131990 0.738810 0.801115
Si Si7 0.619711 0.932780 0.921424
O O1 0.214677 0.192908 0.853771
O O2 0.116465 0.393213 0.882195
O O3 0.298050 0.579070 0.101790
O O4 0.026362 0.293604 0.111685
O O5 0.438872 0.137526 0.749373
O O6 0.291488 0.040346 0.525623
O O7 0.185236 0.830190 0.682497
O O8 0.500000 0.500000 0.000000
O O9 0.536442 0.736403 0.933564
O O10 0.830919 0.790137 0.450984
O O11 0.673537 0.909082 0.733700
O O12 0.916739 0.174423 0.670597
O O13 0.127557 0.526989 0.707097
O O14 0.244722 0.906071 0.956139
O O15 0.500000 0.000000 0.000000
#
# Coordination Sequence:
#
# PCOD9079270 Si02
#       7
#     2   2   2   2   2   2   2
#     4  10  18  36  65  91 121 162 208 251 293 363
#     4   9  21  39  60  90 129 159 197 253 317 350
#     4   9  20  39  59  90 122 159 206 241 300 364
#     4  10  22  42  61  88 131 157 196 256 311 361
#     4  10  21  37  63  93 122 157 204 252 309 349
#     4  11  21  37  65  94 117 160 215 248 294 364
#     4  11  23  40  66  91 118 163 208 249 300 362
#
# _framework density 20.410495000000001
#
# number of rings (size 3 to 8) (size 9 to 14) (size 15 to 20)
#    0.000    2.000    1.429    1.714    2.000    0.571 
#    0.000   15.714    0.000    0.000    0.000    0.000 
#    0.000    0.000    0.000    0.000    0.000    0.000 
#
# Total GULP energy -78216.411404 kJ/mol
# GULP energy per Si atom -5586.886529 kJ/mol
# Density = 2.036404 g / cm^3
# Si number density = 20.410495 Si / 1000 Ang^3
#
#
#
# Elastic Constant Matrix: (Units=GPa)
#
#
# Indices 1 2 3 4 5 6 
#
# 1 60.1495 37.4918 37.8768 -10.5806 11.1291 16.3424
# 2 37.4918 141.4738 23.6304 -18.0585 4.7213 -13.8876
# 3 37.8768 23.6304 43.1409 -23.2607 11.5553 1.1131
# 4 -10.5806 -18.0585 -23.2607 29.8576 -3.2496 3.9264
# 5 11.1291 4.7213 11.5553 -3.2496 22.3084 -0.1943
# 6 16.3424 -13.8876 1.1131 3.9264 -0.1943 46.4086
#
#
#
# Elastic Compliance Matrix: (Units=1/GPa)
#
#
# Indices 1 2 3 4 5 6 
#
# 1 0.075749 -0.014442 -0.080147 -0.040897 0.000601 -0.025611
# 2 -0.014442 0.010881 0.011612 0.009594 0.000348 0.007253
# 3 -0.080147 0.011612 0.134190 0.078076 -0.020419 0.021788
# 4 -0.040897 0.009594 0.078076 0.083466 -0.009839 0.008297
# 5 0.000601 0.000348 -0.020419 -0.009839 0.053609 0.001439
# 6 -0.025611 0.007253 0.021788 0.008297 0.001439 0.031518
#
#
# Mechanical properties :
#
#
# Convention : Reuss Voigt Hill
#
# Bulk Modulus (GPa) = 18.22560 49.19580 33.71070
# Shear Modulus (GPa) = 8.71603 29.43261 19.07432
#
# Velocity S-wave (km/s) = 2.06873 3.80153 3.06033
# Velocity P-wave (km/s) = 3.82820 6.58972 5.38885
#
# Compressibility (1/GPa) = 0.05486787
#
# Stress axis : x y z
#
# Youngs Moduli (GPa) = 13.20141 91.90281 7.45211
#
# Poissons Ratio (x) = 1.32724 0.59726
# Poissons Ratio (y) = 0.19065 -0.08653
# Poissons Ratio (z) = 1.05805 -1.06717
#
# Static dielectric constant tensor:
#      x y z
#    x 1.747380 0.014890 0.001760 
#    y 0.014890 1.717150 0.023470 
#    z 0.001760 0.023470 1.721960 
# 
# From -- ./inp_files/156678.got.cif
#   From: 2010.05.17/outbox.cif.g08.bks.cpg/sg2_79_cif.got.tgz:156678.got - 2010.06.03 11:33:40.
