data_PCOD9079429
_publ_section_title
;
Structure prediction by ZEFSAII (Michael W. Deem and Ramdas Pophale) SiO2 
 PCOD9079429
Probable space group: P -1
;
_chemical_formula_sum "Si O2"
_cell_formula_units_Z 14
_cell_length_a 17.937419
_cell_length_b 9.108411
_cell_length_c 10.171316
_cell_angle_alpha 138.359331
_cell_angle_beta 142.274034
_cell_angle_gamma 36.220988
_cell_volume 572.770656
_symmetry_space_group_name_H-M "P -1"
_symmetry_group_IT_number 2
_symmetry_cell_setting 'triclinic'
loop_
_space_group_symop_operation_xyz
x,y,z
-x,-y,-z
loop_
_atom_site_type_symbol
_atom_site_label
_atom_site_fract_x
_atom_site_fract_y
_atom_site_fract_z
Si Si1 0.306856 0.421767 0.063584
Si Si2 0.838727 0.199577 0.450051
Si Si3 0.223847 0.922639 0.444809
Si Si4 0.262799 0.220828 0.364814
Si Si5 0.565287 0.299215 0.207649
Si Si6 0.016365 0.248089 0.180412
Si Si7 0.545179 0.833021 0.634055
O O1 0.405455 0.357101 0.028216
O O2 0.288337 0.692778 0.274062
O O3 0.142491 0.500034 0.876706
O O4 0.000000 0.000000 0.000000
O O5 0.799413 0.473936 0.521579
O O6 0.695883 0.187922 0.210519
O O7 0.844053 0.167302 0.595490
O O8 0.000000 0.000000 0.500000
O O9 0.111366 0.196706 0.408431
O O10 0.354854 0.900149 0.692821
O O11 0.123042 0.205576 0.182068
O O12 0.354423 0.118481 0.290187
O O13 0.382086 0.066176 0.540094
O O14 0.552105 0.572433 0.414697
O O15 0.388042 0.226881 0.167945
#
# Coordination Sequence:
#
# PCOD9079429 Si02
#       7
#     2   2   2   2   2   2   2
#     4  10  15  27  47  77 102 124 151 188 254 303
#     4   9  19  34  53  71  91 129 173 205 232 268
#     4   8  16  30  47  73  97 125 159 197 236 286
#     4  10  18  30  49  73 103 124 160 201 240 282
#     4   8  15  27  52  69  96 123 156 203 240 279
#     4  10  19  28  46  74 107 132 147 186 251 311
#     4   9  16  27  46  75  99 122 153 207 243 283
#
# _framework density 24.442594
#
# number of rings (size 3 to 8) (size 9 to 14) (size 15 to 20)
#    0.857    2.000    1.429    4.286    0.000    0.571 
#    0.000    0.714    0.000    1.714    0.000    0.000 
#    0.000    0.000    0.000    0.000    0.000    0.000 
#
# Total GULP energy -77973.720096 kJ/mol
# GULP energy per Si atom -5569.551435 kJ/mol
# Density = 2.438696 g / cm^3
# Si number density = 24.442594 Si / 1000 Ang^3
#
#
#
# Elastic Constant Matrix: (Units=GPa)
#
#
# Indices 1 2 3 4 5 6 
#
# 1 122.0147 46.7446 75.7034 -15.4484 62.2990 -3.7273
# 2 46.7446 99.2873 40.2981 -38.0408 17.0137 -6.7838
# 3 75.7034 40.2981 92.4858 -19.4529 40.0859 -14.0382
# 4 -15.4484 -38.0408 -19.4529 51.1246 -9.8930 7.1957
# 5 62.2990 17.0137 40.0859 -9.8930 62.5742 -7.6802
# 6 -3.7273 -6.7838 -14.0382 7.1957 -7.6802 36.8351
#
#
#
# Elastic Compliance Matrix: (Units=1/GPa)
#
#
# Indices 1 2 3 4 5 6 
#
# 1 0.028366 -0.006511 -0.014117 -0.004354 -0.018952 -0.006810
# 2 -0.006511 0.017370 -0.001892 0.011074 0.004803 0.000657
# 3 -0.014117 -0.001892 0.024887 0.002778 -0.000056 0.007153
# 4 -0.004354 0.011074 0.002778 0.028577 0.003800 -0.002132
# 5 -0.018952 0.004803 -0.000056 0.003800 0.034851 0.005470
# 6 -0.006810 0.000657 0.007153 -0.002132 0.005470 0.030863
#
#
# Mechanical properties :
#
#
# Convention : Reuss Voigt Hill
#
# Bulk Modulus (GPa) = 39.08786 71.03110 55.05948
# Shear Modulus (GPa) = 22.88524 40.17621 31.53073
#
# Velocity S-wave (km/s) = 3.06320 4.05865 3.59554
# Velocity P-wave (km/s) = 5.34203 7.14752 6.30969
#
# Compressibility (1/GPa) = 0.02558339
#
# Stress axis : x y z
#
# Youngs Moduli (GPa) = 35.25318 57.57152 40.18221
#
# Poissons Ratio (x) = 0.37484 0.56726
# Poissons Ratio (y) = 0.22953 0.07601
# Poissons Ratio (z) = 0.49768 0.10890
#
# Static dielectric constant tensor:
#      x y z
#    x 2.016910 -0.050890 -0.006580 
#    y -0.050890 1.997000 0.004940 
#    z -0.006580 0.004940 2.099320 
# 
# From -- ./inp_files/537149.got.cif
#   From: 2010.05.17/outbox.cif.g08.bks.cpg/sg2_269_cif.got.tgz:537149.got - 2010.06.03 11:33:40.
