data_PCOD9079845
_publ_section_title
;
Structure prediction by ZEFSAII (Michael W. Deem and Ramdas Pophale) SiO2 
 PCOD9079845
Probable space group: P -1
;
_chemical_formula_sum "Si O2"
_cell_formula_units_Z 16
_cell_length_a 12.388795
_cell_length_b 16.276276
_cell_length_c 7.557617
_cell_angle_alpha 124.203064
_cell_angle_beta 70.178888
_cell_angle_gamma 147.489575
_cell_volume 645.419288
_symmetry_space_group_name_H-M "P -1"
_symmetry_group_IT_number 2
_symmetry_cell_setting 'triclinic'
loop_
_space_group_symop_operation_xyz
x,y,z
-x,-y,-z
loop_
_atom_site_type_symbol
_atom_site_label
_atom_site_fract_x
_atom_site_fract_y
_atom_site_fract_z
Si Si1 0.426176 0.635380 0.268543
Si Si2 0.419782 0.058268 0.636410
Si Si3 0.749197 0.901179 0.680244
Si Si4 0.507692 0.407360 0.264654
Si Si5 0.130466 0.526247 0.585952
Si Si6 0.815738 0.734458 0.963745
Si Si7 0.969631 0.737243 0.517415
Si Si8 0.520396 0.906639 0.951808
O O1 0.442453 0.743999 0.260976
O O2 0.651527 0.777916 0.412720
O O3 0.291348 0.582475 0.443004
O O4 0.293150 0.436556 0.079514
O O5 0.387881 0.038564 0.840100
O O6 0.500000 0.000000 0.500000
O O7 0.187743 0.919408 0.521864
O O8 0.619273 0.762925 0.752741
O O9 0.670493 0.957279 0.794873
O O10 0.994000 0.078303 0.806814
O O11 0.500000 0.500000 0.500000
O O12 0.370653 0.326008 0.067057
O O13 0.758313 0.573215 0.317924
O O14 0.987577 0.343279 0.538182
O O15 0.000000 0.500000 0.500000
O O16 0.281377 0.693931 0.836097
O O17 0.912621 0.763512 0.754690
O O18 0.500000 0.000000 0.000000
#
# Coordination Sequence:
#
# PCOD9079845 Si02
#       8
#     2   2   2   2   2   2   2   2
#     4  10  22  39  58  92 134 156 208 268 318 376
#     4  12  24  42  59  92 132 173 209 260 325 380
#     4  11  19  39  66  97 123 165 215 265 314 380
#     4  10  18  37  66  98 121 156 225 267 311 368
#     4  10  19  37  62  86 117 163 209 262 310 367
#     4  10  20  37  68  94 120 166 213 267 312 377
#     4  10  19  37  61  87 126 166 205 261 314 369
#     4  11  22  37  63  90 123 162 216 253 306 388
#
# _framework density 24.790087
#
# number of rings (size 3 to 8) (size 9 to 14) (size 15 to 20)
#    0.000    1.500    6.250    3.375    1.750    0.000 
#    2.250    1.875    0.000    1.500    0.000    0.000 
#    0.000    0.000    0.000    0.000    0.000    0.000 
#
# Total GULP energy -89295.665203 kJ/mol
# GULP energy per Si atom -5580.979075 kJ/mol
# Density = 2.473366 g / cm^3
# Si number density = 24.790087 Si / 1000 Ang^3
#
#
#
# Elastic Constant Matrix: (Units=GPa)
#
#
# Indices 1 2 3 4 5 6 
#
# 1 104.0368 28.2741 17.7850 17.2862 21.5276 8.9641
# 2 28.2741 115.8703 32.1698 13.7239 8.5396 0.7701
# 3 17.7850 32.1698 78.4077 13.2531 39.7437 12.9906
# 4 17.2862 13.7239 13.2531 35.9831 10.7306 9.8410
# 5 21.5276 8.5396 39.7437 10.7306 38.8877 10.3616
# 6 8.9641 0.7701 12.9906 9.8410 10.3616 44.0150
#
#
#
# Elastic Compliance Matrix: (Units=1/GPa)
#
#
# Indices 1 2 3 4 5 6 
#
# 1 0.012180 -0.002898 0.003399 -0.003274 -0.008490 -0.000702
# 2 -0.002898 0.011128 -0.007161 -0.002656 0.006813 0.001499
# 3 0.003399 -0.007161 0.031454 -0.000396 -0.031736 -0.002291
# 4 -0.003274 -0.002656 -0.000396 0.033510 -0.004983 -0.005489
# 5 -0.008490 0.006813 -0.031736 -0.004983 0.063489 -0.002855
# 6 -0.000702 0.001499 -0.002291 -0.005489 -0.002855 0.025412
#
#
# Mechanical properties :
#
#
# Convention : Reuss Voigt Hill
#
# Bulk Modulus (GPa) = 24.12979 50.53031 37.33005
# Shear Modulus (GPa) = 24.47312 38.44954 31.46133
#
# Velocity S-wave (km/s) = 3.14540 3.94255 3.56632
# Velocity P-wave (km/s) = 4.79022 6.41502 5.66121
#
# Compressibility (1/GPa) = 0.04144255
#
# Stress axis : x y z
#
# Youngs Moduli (GPa) = 82.10448 89.86208 31.79263
#
# Poissons Ratio (x) = 0.26039 -0.10807
# Poissons Ratio (y) = 0.23791 0.22767
# Poissons Ratio (z) = -0.27909 0.64351
#
# Static dielectric constant tensor:
#      x y z
#    x 2.083040 -0.015710 0.039250 
#    y -0.015710 2.025130 0.048800 
#    z 0.039250 0.048800 2.059500 
# 
# From -- ./inp_files/274079.got.cif
#   From: 2010.05.17/outbox.cif.g08.bks.cpg/sg2_138_cif.got.tgz:274079.got - 2010.06.03 11:33:40.
