data_PCOD9079740
_publ_section_title
;
Structure prediction by ZEFSAII (Michael W. Deem and Ramdas Pophale) SiO2 
 PCOD9079740
Probable space group: P -1
;
_chemical_formula_sum "Si O2"
_cell_formula_units_Z 16
_cell_length_a 15.104661
_cell_length_b 12.232353
_cell_length_c 9.309496
_cell_angle_alpha 143.314521
_cell_angle_beta 104.252622
_cell_angle_gamma 59.670567
_cell_volume 843.887618
_symmetry_space_group_name_H-M "P -1"
_symmetry_group_IT_number 2
_symmetry_cell_setting 'triclinic'
loop_
_space_group_symop_operation_xyz
x,y,z
-x,-y,-z
loop_
_atom_site_type_symbol
_atom_site_label
_atom_site_fract_x
_atom_site_fract_y
_atom_site_fract_z
Si Si1 0.929599 0.850227 0.943092
Si Si2 0.473723 0.592014 0.244372
Si Si3 0.888390 0.326470 0.405113
Si Si4 0.643025 0.524852 0.464270
Si Si5 0.469924 0.226418 0.033606
Si Si6 0.309951 0.953705 0.970090
Si Si7 0.321064 0.056666 0.750976
Si Si8 0.917767 0.604391 0.947231
O O1 0.944998 0.736460 0.982834
O O2 0.027957 0.712457 0.728860
O O3 0.911600 0.088390 0.200866
O O4 0.815697 0.894876 0.882038
O O5 0.572923 0.591940 0.362017
O O6 0.452536 0.435680 0.166714
O O7 0.370253 0.831357 0.454012
O O8 0.500000 0.500000 0.000000
O O9 0.763936 0.476397 0.461763
O O10 0.906910 0.435664 0.664973
O O11 0.572428 0.697251 0.740414
O O12 0.659937 0.293545 0.271048
O O13 0.597492 0.048899 0.902306
O O14 0.398884 0.144701 0.850360
O O15 0.322552 0.007216 0.869029
O O16 0.198215 0.232490 0.857093
O O17 0.000000 0.500000 0.000000
#
# Coordination Sequence:
#
# PCOD9079740 Si02
#       8
#     2   2   2   2   2   2   2   2
#     4   9  21  38  64  88 121 159 203 248 304 346
#     4  11  24  40  56  90 130 153 186 248 309 356
#     4  10  20  41  63  92 118 154 209 254 291 356
#     4  10  18  37  64  89 115 152 198 245 293 349
#     4  11  19  36  65  89 117 148 205 244 287 364
#     4   9  17  33  61  93 112 148 197 247 286 345
#     4  11  21  37  63  85 115 161 201 239 297 356
#     4  11  24  41  59  89 124 161 204 249 300 354
#
# _framework density 18.959869999999999
#
# number of rings (size 3 to 8) (size 9 to 14) (size 15 to 20)
#    0.000    1.750    3.750    1.500    0.000    1.000 
#   11.250    0.000    0.000    0.000    0.000    0.000 
#    0.000    0.000    0.000    0.000    0.000    0.000 
#
# Total GULP energy -89346.065131 kJ/mol
# GULP energy per Si atom -5584.129071 kJ/mol
# Density = 1.891672 g / cm^3
# Si number density = 18.959870 Si / 1000 Ang^3
#
#
#
# Elastic Constant Matrix: (Units=GPa)
#
#
# Indices 1 2 3 4 5 6 
#
# 1 138.6866 61.1417 59.0180 6.4900 -15.1320 -13.9763
# 2 61.1417 96.0691 55.5271 4.6695 -7.9846 -27.1951
# 3 59.0180 55.5271 96.3595 -3.1326 -9.5734 -7.8061
# 4 6.4900 4.6695 -3.1326 20.2478 -2.5064 -6.0620
# 5 -15.1320 -7.9846 -9.5734 -2.5064 23.5071 7.6330
# 6 -13.9763 -27.1951 -7.8061 -6.0620 7.6330 17.6491
#
#
#
# Elastic Compliance Matrix: (Units=1/GPa)
#
#
# Indices 1 2 3 4 5 6 
#
# 1 0.011744 -0.006465 -0.003535 -0.003921 0.005429 -0.005920
# 2 -0.006465 0.035456 -0.013494 0.005487 -0.013705 0.051357
# 3 -0.003535 -0.013494 0.019753 0.003136 0.006973 -0.016795
# 4 -0.003921 0.005487 0.003136 0.057842 -0.002157 0.027537
# 5 0.005429 -0.013705 0.006973 -0.002157 0.056645 -0.038975
# 6 -0.005920 0.051357 -0.016795 0.027537 -0.038975 0.149993
#
#
# Mechanical properties :
#
#
# Convention : Reuss Voigt Hill
#
# Bulk Modulus (GPa) = 50.09072 75.83209 62.96140
# Shear Modulus (GPa) = 12.98438 22.64270 17.81354
#
# Velocity S-wave (km/s) = 2.61977 3.45953 3.06852
# Velocity P-wave (km/s) = 5.96889 7.48604 6.77010
#
# Compressibility (1/GPa) = 0.01996378
#
# Stress axis : x y z
#
# Youngs Moduli (GPa) = 85.14682 28.20422 50.62403
#
# Poissons Ratio (x) = 0.18235 0.17897
# Poissons Ratio (y) = 0.55049 0.68314
# Poissons Ratio (z) = 0.30102 0.38060
#
# Static dielectric constant tensor:
#      x y z
#    x 1.684570 0.001890 0.016170 
#    y 0.001890 1.643280 0.038030 
#    z 0.016170 0.038030 1.646580 
# 
# From -- ./inp_files/270267.got.cif
#   From: 2010.05.17/outbox.cif.g08.bks.cpg/sg2_136_cif.got.tgz:270267.got - 2010.06.03 11:33:40.
