data_PCOD9079896
_publ_section_title
;
Structure prediction by ZEFSAII (Michael W. Deem and Ramdas Pophale) SiO2 
 PCOD9079896
Probable space group: P -1
;
_chemical_formula_sum "Si O2"
_cell_formula_units_Z 12
_cell_length_a 9.326330
_cell_length_b 11.113221
_cell_length_c 7.422363
_cell_angle_alpha 135.136669
_cell_angle_beta 77.444665
_cell_angle_gamma 111.351418
_cell_volume 504.458318
_symmetry_space_group_name_H-M "P -1"
_symmetry_group_IT_number 2
_symmetry_cell_setting 'triclinic'
loop_
_space_group_symop_operation_xyz
x,y,z
-x,-y,-z
loop_
_atom_site_type_symbol
_atom_site_label
_atom_site_fract_x
_atom_site_fract_y
_atom_site_fract_z
Si Si1 0.472863 0.770800 0.612464
Si Si2 0.635423 0.494388 0.135210
Si Si3 0.064245 0.410527 0.053002
Si Si4 0.575324 0.881853 0.110043
Si Si5 0.102768 0.133651 0.968125
Si Si6 0.826992 0.498132 0.451796
O O1 0.540833 0.632174 0.345008
O O2 0.291521 0.676150 0.607212
O O3 0.488023 0.949688 0.687199
O O4 0.559611 0.826681 0.841395
O O5 0.736905 0.507289 0.300517
O O6 0.754780 0.539282 0.985945
O O7 0.525794 0.292702 0.945451
O O8 0.019735 0.197015 0.887185
O O9 0.991505 0.488603 0.322373
O O10 0.000000 0.500000 0.000000
O O11 0.750510 0.930749 0.182140
O O12 0.168173 0.323153 0.254161
O O13 0.000000 0.000000 0.000000
#
# Coordination Sequence:
#
# PCOD9079896 Si02
#       6
#     2   2   2   2   2   2
#     4  10  18  37  69  90 126 163 211 256 312 378
#     4  10  19  41  63  92 129 160 201 267 322 368
#     4  10  24  41  62  91 130 169 205 259 331 367
#     4  10  20  35  64  98 118 167 216 251 305 388
#     4  12  23  40  64  94 127 167 223 259 296 385
#     4  10  19  41  65  88 123 174 211 250 313 378
#
# _framework density 23.787891999999999
#
# number of rings (size 3 to 8) (size 9 to 14) (size 15 to 20)
#    0.000    1.667    3.333    2.500    0.000    2.000 
#    3.000    2.500    0.000    0.000    0.000    0.000 
#    0.000    0.000    0.000    0.000    0.000    0.000 
#
# Total GULP energy -67027.780115 kJ/mol
# GULP energy per Si atom -5585.648343 kJ/mol
# Density = 2.373375 g / cm^3
# Si number density = 23.787892 Si / 1000 Ang^3
#
#
#
# Elastic Constant Matrix: (Units=GPa)
#
#
# Indices 1 2 3 4 5 6 
#
# 1 47.5099 36.5431 24.2441 9.0969 -33.3705 10.9766
# 2 36.5431 175.2320 57.6215 12.6637 -32.4370 -7.4745
# 3 24.2441 57.6215 86.9333 4.3321 -31.2725 4.5755
# 4 9.0969 12.6637 4.3321 41.8893 -4.9057 -6.9255
# 5 -33.3705 -32.4370 -31.2725 -4.9057 44.4180 -8.4665
# 6 10.9766 -7.4745 4.5755 -6.9255 -8.4665 35.0656
#
#
#
# Elastic Compliance Matrix: (Units=1/GPa)
#
#
# Indices 1 2 3 4 5 6 
#
# 1 0.051374 -0.005110 0.002017 -0.007717 0.033353 -0.010905
# 2 -0.005110 0.008374 -0.004341 -0.000344 -0.000082 0.003864
# 3 0.002017 -0.004341 0.017679 0.000066 0.010550 -0.001303
# 4 -0.007717 -0.000344 0.000066 0.026636 -0.001691 0.007186
# 5 0.033353 -0.000082 0.010550 -0.001691 0.054963 0.001102
# 6 -0.010905 0.003864 -0.001303 0.007186 0.001102 0.034611
#
#
# Mechanical properties :
#
#
# Convention : Reuss Voigt Hill
#
# Bulk Modulus (GPa) = 15.98525 60.72140 38.35333
# Shear Modulus (GPa) = 21.79994 37.02568 29.41281
#
# Velocity S-wave (km/s) = 3.03054 3.94952 3.52015
# Velocity P-wave (km/s) = 4.35661 6.81028 5.71664
#
# Compressibility (1/GPa) = 0.06255767
#
# Stress axis : x y z
#
# Youngs Moduli (GPa) = 19.46510 119.41049 56.56514
#
# Poissons Ratio (x) = 0.61020 -0.11407
# Poissons Ratio (y) = 0.09947 0.24556
# Poissons Ratio (z) = -0.03925 0.51839
#
# Static dielectric constant tensor:
#      x y z
#    x 2.078430 -0.148940 0.053890 
#    y -0.148940 2.026240 -0.041300 
#    z 0.053890 -0.041300 1.854700 
# 
# From -- ./inp_files/183509.got.cif
#   From: 2010.05.17/outbox.cif.g08.bks.cpg/sg2_92_cif.got.tgz:183509.got - 2010.06.03 11:33:40.
