data_PCOD9079450
_publ_section_title
;
Structure prediction by ZEFSAII (Michael W. Deem and Ramdas Pophale) SiO2 
 PCOD9079450
Probable space group: P -1
;
_chemical_formula_sum "Si O2"
_cell_formula_units_Z 16
_cell_length_a 8.258510
_cell_length_b 14.823977
_cell_length_c 11.848804
_cell_angle_alpha 47.763744
_cell_angle_beta 76.056136
_cell_angle_gamma 45.587408
_cell_volume 691.207908
_symmetry_space_group_name_H-M "P -1"
_symmetry_group_IT_number 2
_symmetry_cell_setting 'triclinic'
loop_
_space_group_symop_operation_xyz
x,y,z
-x,-y,-z
loop_
_atom_site_type_symbol
_atom_site_label
_atom_site_fract_x
_atom_site_fract_y
_atom_site_fract_z
Si Si1 0.060657 0.755425 0.350355
Si Si2 0.141323 0.324548 0.708557
Si Si3 0.322211 0.458201 0.961244
Si Si4 0.651986 0.139217 0.548420
Si Si5 0.695487 0.860958 0.487897
Si Si6 0.779709 0.220738 0.245158
Si Si7 0.032750 0.459721 0.857125
Si Si8 0.492114 0.679579 0.359866
O O1 0.225734 0.782204 0.270850
O O2 0.283356 0.535438 0.531062
O O3 0.911153 0.774824 0.256993
O O4 0.863492 0.870557 0.389707
O O5 0.042784 0.381662 0.804645
O O6 0.416802 0.233549 0.752112
O O7 0.000000 0.500000 0.500000
O O8 0.595763 0.317282 0.088716
O O9 0.125315 0.525547 0.035359
O O10 0.246893 0.638730 0.798279
O O11 0.286817 0.375694 0.940347
O O12 0.464278 0.127778 0.586678
O O13 0.686499 0.168477 0.391147
O O14 0.543707 0.300007 0.515317
O O15 0.932946 0.951054 0.694706
O O16 0.884117 0.663196 0.679259
O O17 0.500000 0.000000 0.500000
#
# Coordination Sequence:
#
# PCOD9079450 Si02
#       8
#     2   2   2   2   2   2   2   2
#     4  10  21  34  53  94 128 158 207 261 326 372
#     4  10  18  37  58  88 125 155 211 270 305 364
#     4  10  23  40  59  87 132 174 213 248 314 407
#     4  11  22  38  64  93 132 158 211 280 322 355
#     4  12  22  35  59  97 129 160 205 271 330 362
#     4  10  23  39  57  95 126 171 212 263 314 381
#     4  11  21  39  62  88 125 173 211 255 325 381
#     4  10  20  34  59  92 125 161 198 270 320 370
#
# _framework density 23.147884000000001
#
# number of rings (size 3 to 8) (size 9 to 14) (size 15 to 20)
#    0.000    1.500    5.000    1.500    5.250    0.000 
#    2.250    0.000    0.000    1.500    0.000    0.000 
#    0.000    0.000    0.000    0.000    0.000    0.000 
#
# Total GULP energy -89357.134570 kJ/mol
# GULP energy per Si atom -5584.820911 kJ/mol
# Density = 2.309520 g / cm^3
# Si number density = 23.147884 Si / 1000 Ang^3
#
#
#
# Elastic Constant Matrix: (Units=GPa)
#
#
# Indices 1 2 3 4 5 6 
#
# 1 158.3150 20.5390 15.6089 5.4012 15.8330 -14.7144
# 2 20.5390 91.9139 17.3163 12.4650 13.7242 -1.8322
# 3 15.6089 17.3163 13.5303 3.4986 7.3287 -5.0009
# 4 5.4012 12.4650 3.4986 21.2823 1.5660 8.6253
# 5 15.8330 13.7242 7.3287 1.5660 17.7822 5.1000
# 6 -14.7144 -1.8322 -5.0009 8.6253 5.1000 34.8209
#
#
#
# Elastic Compliance Matrix: (Units=1/GPa)
#
#
# Indices 1 2 3 4 5 6 
#
# 1 0.007820 0.000420 -0.003255 -0.003062 -0.007008 0.004644
# 2 0.000420 0.015403 -0.014573 -0.006890 -0.006077 0.001492
# 3 -0.003255 -0.014573 0.141499 -0.022832 -0.051145 0.031326
# 4 -0.003062 -0.006890 -0.022832 0.063682 0.018565 -0.023429
# 5 -0.007008 -0.006077 -0.051145 0.018565 0.094965 -0.029134
# 6 0.004644 0.001492 0.031326 -0.023429 -0.029134 0.045329
#
#
# Mechanical properties :
#
#
# Convention : Reuss Voigt Hill
#
# Bulk Modulus (GPa) = 7.69785 41.18752 24.44268
# Shear Modulus (GPa) = 11.19027 28.79674 19.99350
#
# Velocity S-wave (km/s) = 2.20108 3.53091 2.94212
# Velocity P-wave (km/s) = 3.12928 5.86983 4.70358
#
# Compressibility (1/GPa) = 0.12990636
#
# Stress axis : x y z
#
# Youngs Moduli (GPa) = 127.87941 64.92290 7.06717
#
# Poissons Ratio (x) = -0.02726 0.02300
# Poissons Ratio (y) = -0.05370 0.10299
# Poissons Ratio (z) = 0.41623 0.94612
#
# Static dielectric constant tensor:
#      x y z
#    x 1.941200 0.012110 0.012150 
#    y 0.012110 1.919500 0.004180 
#    z 0.012150 0.004180 1.850190 
# 
# From -- ./inp_files/398792.got.cif
#   From: 2010.05.17/outbox.cif.g08.bks.cpg/sg2_200_cif.got.tgz:398792.got - 2010.06.03 11:33:40.
