data_PCOD9079246
_publ_section_title
;
Structure prediction by ZEFSAII (Michael W. Deem and Ramdas Pophale) SiO2 
 PCOD9079246
Probable space group: P -1
;
_chemical_formula_sum "Si O2"
_cell_formula_units_Z 16
_cell_length_a 24.868183
_cell_length_b 8.118245
_cell_length_c 13.862958
_cell_angle_alpha 57.085546
_cell_angle_beta 161.320418
_cell_angle_gamma 129.354450
_cell_volume 674.278776
_symmetry_space_group_name_H-M "P -1"
_symmetry_group_IT_number 2
_symmetry_cell_setting 'triclinic'
loop_
_space_group_symop_operation_xyz
x,y,z
-x,-y,-z
loop_
_atom_site_type_symbol
_atom_site_label
_atom_site_fract_x
_atom_site_fract_y
_atom_site_fract_z
Si Si1 0.117517 0.907632 0.290933
Si Si2 0.716137 0.060432 0.811333
Si Si3 0.842550 0.430015 0.041983
Si Si4 0.544648 0.600150 0.698672
Si Si5 0.439710 0.408862 0.044954
Si Si6 0.678094 0.863911 0.248660
Si Si7 0.661245 0.225638 0.980751
Si Si8 0.678634 0.184540 0.510081
O O1 0.254172 0.881472 0.451993
O O2 0.198261 0.070806 0.466426
O O3 0.001260 0.665019 0.211490
O O4 0.000000 0.000000 0.000000
O O5 0.848947 0.224458 0.064469
O O6 0.783492 0.194940 0.783640
O O7 0.500000 0.000000 0.500000
O O8 0.703645 0.820906 0.851581
O O9 0.652375 0.434124 0.672976
O O10 0.831294 0.374611 0.153476
O O11 0.581021 0.646394 0.860115
O O12 0.563813 0.380228 0.787176
O O13 0.486344 0.660334 0.025532
O O14 0.633366 0.389085 0.358495
O O15 0.296605 0.241648 0.776706
O O16 0.684812 0.094152 0.152778
O O17 0.520588 0.024358 0.740326
#
# Coordination Sequence:
#
# PCOD9079246 Si02
#       8
#     2   2   2   2   2   2   2   2
#     4  12  28  43  62  94 136 167 207 261 327 390
#     4  10  18  36  64  97 127 157 214 265 304 368
#     4  11  22  41  63  96 134 169 203 264 319 379
#     4  11  20  37  70 103 122 159 220 270 312 361
#     4  10  20  40  69  93 127 163 216 271 307 369
#     4  10  24  43  62  93 129 171 213 262 319 373
#     4  11  22  38  71  95 126 168 216 268 311 367
#     4  11  21  39  67  96 124 167 212 262 319 366
#
# _framework density 23.72906
#
# number of rings (size 3 to 8) (size 9 to 14) (size 15 to 20)
#    0.000    1.250    5.000    3.375    1.750    6.500 
#    0.000    0.000    0.000    2.250    0.000    0.000 
#    0.000    0.000    0.000    0.000    0.000    0.000 
#
# Total GULP energy -89171.903637 kJ/mol
# GULP energy per Si atom -5573.243977 kJ/mol
# Density = 2.367505 g / cm^3
# Si number density = 23.729060 Si / 1000 Ang^3
#
#
#
# Elastic Constant Matrix: (Units=GPa)
#
#
# Indices 1 2 3 4 5 6 
#
# 1 99.3402 22.5753 41.5155 -8.6780 -27.4096 14.4378
# 2 22.5753 126.5816 18.1769 0.3570 4.0823 14.7383
# 3 41.5155 18.1769 34.1887 1.7118 -21.1160 0.3675
# 4 -8.6780 0.3570 1.7118 32.9484 10.6388 -12.6831
# 5 -27.4096 4.0823 -21.1160 10.6388 30.0655 7.4209
# 6 14.4378 14.7383 0.3675 -12.6831 7.4209 36.4329
#
#
#
# Elastic Compliance Matrix: (Units=1/GPa)
#
#
# Indices 1 2 3 4 5 6 
#
# 1 0.023851 0.000492 -0.026490 0.002594 0.004472 -0.009392
# 2 0.000492 0.010193 -0.013880 0.004720 -0.012349 -0.000020
# 3 -0.026490 -0.013880 0.127527 -0.050923 0.090591 -0.021353
# 4 0.002594 0.004720 -0.050923 0.068845 -0.067093 0.035209
# 5 0.004472 -0.012349 0.090591 -0.067093 0.138540 -0.049266
# 6 -0.009392 -0.000020 -0.021353 0.035209 -0.049266 0.053685
#
#
# Mechanical properties :
#
#
# Convention : Reuss Voigt Hill
#
# Bulk Modulus (GPa) = 12.22282 47.18288 29.70285
# Shear Modulus (GPa) = 9.43988 31.74556 20.59272
#
# Velocity S-wave (km/s) = 1.99670 3.66161 2.94909
# Velocity P-wave (km/s) = 3.23697 6.14847 4.91333
#
# Compressibility (1/GPa) = 0.08181417
#
# Stress axis : x y z
#
# Youngs Moduli (GPa) = 41.92756 98.11013 7.84148
#
# Poissons Ratio (x) = -0.04830 0.20772
# Poissons Ratio (y) = -0.02064 0.10884
# Poissons Ratio (z) = 1.11068 1.36176
#
# Static dielectric constant tensor:
#      x y z
#    x 1.931130 -0.004960 0.018370 
#    y -0.004960 1.929030 -0.047420 
#    z 0.018370 -0.047420 1.959970 
# 
# From -- ./inp_files/543834.got.cif
#   From: 2010.05.17/outbox.cif.g08.bks.cpg/sg2_272_cif.got.tgz:543834.got - 2010.06.03 11:33:40.
