data_PCOD9079822
_publ_section_title
;
Structure prediction by ZEFSAII (Michael W. Deem and Ramdas Pophale) SiO2 
 PCOD9079822
Probable space group: P -1
;
_chemical_formula_sum "Si O2"
_cell_formula_units_Z 14
_cell_length_a 28.096216
_cell_length_b 7.478955
_cell_length_c 9.247894
_cell_angle_alpha 50.491265
_cell_angle_beta 155.684480
_cell_angle_gamma 133.807609
_cell_volume 577.356285
_symmetry_space_group_name_H-M "P -1"
_symmetry_group_IT_number 2
_symmetry_cell_setting 'triclinic'
loop_
_space_group_symop_operation_xyz
x,y,z
-x,-y,-z
loop_
_atom_site_type_symbol
_atom_site_label
_atom_site_fract_x
_atom_site_fract_y
_atom_site_fract_z
Si Si1 0.021439 0.390200 0.400437
Si Si2 0.106133 0.859524 0.223770
Si Si3 0.761666 0.494375 0.846605
Si Si4 0.317753 0.042979 0.532247
Si Si5 0.107204 0.078869 0.566262
Si Si6 0.257354 0.299415 0.601945
Si Si7 0.576060 0.203613 0.288816
O O1 0.017929 0.608048 0.176577
O O2 0.083767 0.241531 0.545757
O O3 0.126403 0.518478 0.743963
O O4 0.905188 0.179690 0.260042
O O5 0.191905 0.831188 0.345391
O O6 0.206142 0.024938 0.530506
O O7 0.013486 0.984753 0.838681
O O8 0.716700 0.708790 0.681067
O O9 0.803960 0.578532 0.754940
O O10 0.639559 0.258203 0.593746
O O11 0.365271 0.962334 0.558046
O O12 0.429657 0.080070 0.935197
O O13 0.218759 0.239793 0.691079
O O14 0.389930 0.521754 0.836191
#
# Coordination Sequence:
#
# PCOD9079822 Si02
#       7
#     2   2   2   2   2   2   2
#     4  11  23  37  58  90 120 158 202 245 303 346
#     4  11  22  37  62  87 119 167 194 246 304 353
#     4   9  20  39  58  90 123 151 197 254 287 355
#     4  10  18  37  66  88 117 161 199 238 310 347
#     4  11  21  41  57  86 124 161 200 248 292 363
#     4   9  20  38  60  82 126 152 204 243 295 354
#     4   9  19  35  67  89 114 162 200 243 294 366
#
# _framework density 24.248457999999999
#
# number of rings (size 3 to 8) (size 9 to 14) (size 15 to 20)
#    0.857    1.143    2.857    2.143    0.000    0.571 
#    2.571    0.714    0.000    2.571    0.000    0.000 
#    0.000    0.000    0.000    0.000    0.000    0.000 
#
# Total GULP energy -77999.799310 kJ/mol
# GULP energy per Si atom -5571.414236 kJ/mol
# Density = 2.419327 g / cm^3
# Si number density = 24.248458 Si / 1000 Ang^3
#
#
#
# Elastic Constant Matrix: (Units=GPa)
#
#
# Indices 1 2 3 4 5 6 
#
# 1 71.5920 21.9846 -0.7152 -8.3198 3.1175 -11.8563
# 2 21.9846 90.7212 15.5145 -3.6014 -1.0686 5.7014
# 3 -0.7152 15.5145 62.6009 13.6610 1.7425 5.8900
# 4 -8.3198 -3.6014 13.6610 27.8878 -0.9209 -7.5217
# 5 3.1175 -1.0686 1.7425 -0.9209 37.6852 5.0285
# 6 -11.8563 5.7014 5.8900 -7.5217 5.0285 45.3047
#
#
#
# Elastic Compliance Matrix: (Units=1/GPa)
#
#
# Indices 1 2 3 4 5 6 
#
# 1 0.017190 -0.004206 -0.000755 0.006628 -0.002208 0.006472
# 2 -0.004206 0.012832 -0.003391 0.001521 0.001193 -0.002155
# 3 -0.000755 -0.003391 0.019719 -0.011468 -0.000670 -0.004164
# 4 0.006628 0.001521 -0.011468 0.046551 -0.000278 0.010793
# 5 -0.002208 0.001193 -0.000670 -0.000278 0.027272 -0.003714
# 6 0.006472 -0.002155 -0.004164 0.010793 -0.003714 0.026783
#
#
# Mechanical properties :
#
#
# Convention : Reuss Voigt Hill
#
# Bulk Modulus (GPa) = 30.26887 33.16466 31.71676
# Shear Modulus (GPa) = 28.07992 34.71757 31.39875
#
# Velocity S-wave (km/s) = 3.40664 3.78794 3.60234
# Velocity P-wave (km/s) = 5.28995 5.73045 5.51460
#
# Compressibility (1/GPa) = 0.03303725
#
# Stress axis : x y z
#
# Youngs Moduli (GPa) = 58.17237 77.93138 50.71285
#
# Poissons Ratio (x) = 0.32780 0.03828
# Poissons Ratio (y) = 0.24469 0.17195
# Poissons Ratio (z) = 0.04391 0.26424
#
# Static dielectric constant tensor:
#      x y z
#    x 2.004550 -0.035430 0.005800 
#    y -0.035430 1.996930 0.011950 
#    z 0.005800 0.011950 1.943020 
# 
# From -- ./inp_files/356381.got.cif
#   From: 2010.05.17/outbox.cif.g08.bks.cpg/sg2_179_cif.got.tgz:356381.got - 2010.06.03 11:33:40.
