data_PCOD9079975
_publ_section_title
;
Structure prediction by ZEFSAII (Michael W. Deem and Ramdas Pophale) SiO2 
 PCOD9079975
Probable space group: P -1
;
_chemical_formula_sum "Si O2"
_cell_formula_units_Z 16
_cell_length_a 9.115790
_cell_length_b 8.726104
_cell_length_c 17.035976
_cell_angle_alpha 53.451149
_cell_angle_beta 122.532978
_cell_angle_gamma 133.456219
_cell_volume 770.916430
_symmetry_space_group_name_H-M "P -1"
_symmetry_group_IT_number 2
_symmetry_cell_setting 'triclinic'
loop_
_space_group_symop_operation_xyz
x,y,z
-x,-y,-z
loop_
_atom_site_type_symbol
_atom_site_label
_atom_site_fract_x
_atom_site_fract_y
_atom_site_fract_z
Si Si1 0.207092 0.682827 0.702469
Si Si2 0.648195 0.221889 0.864817
Si Si3 0.987327 0.020765 0.621898
Si Si4 0.738395 0.987166 0.084592
Si Si5 0.589681 0.167739 0.682405
Si Si6 0.911869 0.318752 0.165979
Si Si7 0.002902 0.211375 0.729779
Si Si8 0.214192 0.331860 0.452186
O O1 0.195214 0.631452 0.808556
O O2 0.184934 0.475597 0.711074
O O3 0.000986 0.679756 0.622962
O O4 0.403410 0.931564 0.667345
O O5 0.565549 0.166654 0.769486
O O6 0.861875 0.463251 0.849935
O O7 0.472465 0.206318 0.875004
O O8 0.696915 0.041986 0.969512
O O9 0.798067 0.835316 0.568966
O O10 0.066481 0.879780 0.731481
O O11 0.945839 0.140700 0.644049
O O12 0.166025 0.207074 0.559512
O O13 0.798419 0.212368 0.084136
O O14 0.913779 0.932437 0.162010
O O15 0.616326 0.399839 0.586717
O O16 0.802501 0.180950 0.723033
#
# Coordination Sequence:
#
# PCOD9079975 Si02
#       8
#     2   2   2   2   2   2   2   2
#     4  10  20  37  56  81 120 157 185 226 288 343
#     4  11  20  38  61  84 110 152 194 233 287 338
#     4   9  18  36  62  85 113 148 189 241 281 329
#     4  10  23  36  61  86 112 143 200 243 273 337
#     4  11  21  38  60  81 121 158 186 226 294 341
#     4  10  18  38  60  81 115 152 187 237 287 335
#     4  10  22  39  56  86 118 149 185 243 283 334
#     4   9  19  39  60  84 114 152 190 235 282 335
#
# _framework density 20.754517
#
# number of rings (size 3 to 8) (size 9 to 14) (size 15 to 20)
#    0.000    2.000    5.000    0.375    0.000    4.500 
#    0.000   11.250    0.000    0.000    0.000    0.000 
#    0.000    0.000    0.000    0.000    0.000    0.000 
#
# Total GULP energy -89255.425351 kJ/mol
# GULP energy per Si atom -5578.464084 kJ/mol
# Density = 2.070728 g / cm^3
# Si number density = 20.754517 Si / 1000 Ang^3
#
#
#
# Elastic Constant Matrix: (Units=GPa)
#
#
# Indices 1 2 3 4 5 6 
#
# 1 58.2334 23.1429 29.2917 -16.1745 0.0453 2.2583
# 2 23.1429 121.8483 20.9731 -21.2697 -8.6153 5.6225
# 3 29.2917 20.9731 87.1559 -8.3873 -12.5896 -9.0260
# 4 -16.1745 -21.2697 -8.3873 18.8796 5.8077 -6.3065
# 5 0.0453 -8.6153 -12.5896 5.8077 21.2052 -3.5638
# 6 2.2583 5.6225 -9.0260 -6.3065 -3.5638 34.8101
#
#
#
# Elastic Compliance Matrix: (Units=1/GPa)
#
#
# Indices 1 2 3 4 5 6 
#
# 1 0.028420 -0.000637 -0.009073 0.022956 -0.012192 -0.001183
# 2 -0.000637 0.010402 -0.001186 0.010447 0.000664 0.000014
# 3 -0.009073 -0.001186 0.016716 -0.003265 0.011311 0.005681
# 4 0.022956 0.010447 -0.003265 0.093109 -0.021454 0.010649
# 5 -0.012192 0.000664 0.011311 -0.021454 0.061051 0.005980
# 6 -0.001183 0.000014 0.005681 0.010649 0.005980 0.032816
#
#
# Mechanical properties :
#
#
# Convention : Reuss Voigt Hill
#
# Bulk Modulus (GPa) = 29.63232 46.00587 37.81910
# Shear Modulus (GPa) = 18.14514 27.90100 23.02307
#
# Velocity S-wave (km/s) = 2.96002 3.67049 3.33424
# Velocity P-wave (km/s) = 5.09812 6.33862 5.75191
#
# Compressibility (1/GPa) = 0.03374693
#
# Stress axis : x y z
#
# Youngs Moduli (GPa) = 35.18593 96.13610 59.82117
#
# Poissons Ratio (x) = 0.06120 0.54276
# Poissons Ratio (y) = 0.02240 0.07097
# Poissons Ratio (z) = 0.31924 0.11406
#
# Static dielectric constant tensor:
#      x y z
#    x 1.768130 -0.005560 0.002760 
#    y -0.005560 1.808710 0.019320 
#    z 0.002760 0.019320 1.770900 
# 
# From -- ./inp_files/197057.got.cif
#   From: 2010.05.17/outbox.cif.g08.bks.cpg/sg2_99_cif.got.tgz:197057.got - 2010.06.03 11:33:40.
