data_PCOD9079638
_publ_section_title
;
Structure prediction by ZEFSAII (Michael W. Deem and Ramdas Pophale) SiO2 
 PCOD9079638
Probable space group: P -1
;
_chemical_formula_sum "Si O2"
_cell_formula_units_Z 16
_cell_length_a 11.091204
_cell_length_b 17.454261
_cell_length_c 11.421158
_cell_angle_alpha 37.111757
_cell_angle_beta 36.473480
_cell_angle_gamma 41.988953
_cell_volume 760.282534
_symmetry_space_group_name_H-M "P -1"
_symmetry_group_IT_number 2
_symmetry_cell_setting 'triclinic'
loop_
_space_group_symop_operation_xyz
x,y,z
-x,-y,-z
loop_
_atom_site_type_symbol
_atom_site_label
_atom_site_fract_x
_atom_site_fract_y
_atom_site_fract_z
Si Si1 0.440948 0.343009 0.756762
Si Si2 0.920516 0.414323 0.569123
Si Si3 0.418113 0.355898 0.483911
Si Si4 0.603037 0.058088 0.957208
Si Si5 0.881979 0.810150 0.151765
Si Si6 0.010777 0.139787 0.434754
Si Si7 0.183168 0.849990 0.673655
Si Si8 0.871036 0.400325 0.365670
O O1 0.482049 0.348904 0.577438
O O2 0.440771 0.193937 0.963123
O O3 0.654370 0.364103 0.617263
O O4 0.229633 0.463359 0.793584
O O5 0.670204 0.492947 0.673148
O O6 0.022048 0.263283 0.714245
O O7 0.975194 0.425874 0.375306
O O8 0.000000 0.500000 0.500000
O O9 0.600723 0.261983 0.379511
O O10 0.227748 0.288287 0.708958
O O11 0.803982 0.099267 0.695720
O O12 0.500000 0.000000 0.000000
O O13 0.703802 0.950747 0.108957
O O14 0.076356 0.825766 0.905357
O O15 0.965958 0.163042 0.303659
O O16 0.006163 0.273779 0.342853
O O17 0.193337 0.001573 0.476656
#
# Coordination Sequence:
#
# PCOD9079638 Si02
#       8
#     2   2   2   2   2   2   2   2
#     4   9  16  27  52  83  97 140 180 216 274 311
#     4   9  20  34  53  78 105 148 183 214 268 326
#     4  10  17  34  54  78 108 139 181 219 268 316
#     4  10  15  27  49  77 109 129 176 218 261 314
#     4  10  20  31  51  85 104 140 181 218 262 319
#     4   9  18  30  48  84 108 141 175 219 281 308
#     4  10  18  31  53  82 111 135 182 219 268 328
#     4   9  16  31  53  77 109 138 184 220 262 331
#
# _framework density 21.044806999999999
#
# number of rings (size 3 to 8) (size 9 to 14) (size 15 to 20)
#    0.000    2.500    3.750    0.000    0.000    0.500 
#    0.000    5.625    0.000    9.750    3.250    0.000 
#    0.000    0.000    0.000    0.000    0.000    0.000 
#
# Total GULP energy -89107.722414 kJ/mol
# GULP energy per Si atom -5569.232651 kJ/mol
# Density = 2.099691 g / cm^3
# Si number density = 21.044807 Si / 1000 Ang^3
#
#
#
# Elastic Constant Matrix: (Units=GPa)
#
#
# Indices 1 2 3 4 5 6 
#
# 1 58.1943 38.7554 9.5476 -13.3481 9.1437 -6.6726
# 2 38.7554 189.5667 16.8878 -23.8555 10.1044 -14.1823
# 3 9.5476 16.8878 32.2015 -12.9675 1.3115 -9.3228
# 4 -13.3481 -23.8555 -12.9675 30.1901 -5.0885 6.1884
# 5 9.1437 10.1044 1.3115 -5.0885 18.7647 -12.4543
# 6 -6.6726 -14.1823 -9.3228 6.1884 -12.4543 39.3256
#
#
#
# Elastic Compliance Matrix: (Units=1/GPa)
#
#
# Indices 1 2 3 4 5 6 
#
# 1 0.022146 -0.003324 -0.003031 0.004750 -0.008580 -0.001624
# 2 -0.003324 0.006508 -0.000913 0.003021 -0.000351 0.000980
# 3 -0.003031 -0.000913 0.040895 0.015165 0.009513 0.009478
# 4 0.004750 0.003021 0.015165 0.045271 0.007839 0.000849
# 5 -0.008580 -0.000351 0.009513 0.007839 0.074385 0.022997
# 6 -0.001624 0.000980 0.009478 0.000849 0.022997 0.034903
#
#
# Mechanical properties :
#
#
# Convention : Reuss Voigt Hill
#
# Bulk Modulus (GPa) = 18.17739 45.59377 31.88558
# Shear Modulus (GPa) = 19.45648 31.97420 25.71534
#
# Velocity S-wave (km/s) = 3.04390 3.90210 3.49941
# Velocity P-wave (km/s) = 4.58367 6.48182 5.61355
#
# Compressibility (1/GPa) = 0.05501341
#
# Stress axis : x y z
#
# Youngs Moduli (GPa) = 45.15465 153.65021 24.45261
#
# Poissons Ratio (x) = 0.51074 0.07412
# Poissons Ratio (y) = 0.15010 0.02233
# Poissons Ratio (z) = 0.13686 0.14031
#
# Static dielectric constant tensor:
#      x y z
#    x 1.778690 -0.040800 -0.045700 
#    y -0.040800 1.875530 -0.042370 
#    z -0.045700 -0.042370 1.805900 
# 
# From -- ./inp_files/436473.got.cif
#   From: 2010.05.17/outbox.cif.g08.bks.cpg/sg2_219_cif.got.tgz:436473.got - 2010.06.03 11:33:40.
