data_PCOD9079334
_publ_section_title
;
Structure prediction by ZEFSAII (Michael W. Deem and Ramdas Pophale) SiO2 
 PCOD9079334
Probable space group: P -1
;
_chemical_formula_sum "Si O2"
_cell_formula_units_Z 14
_cell_length_a 10.227649
_cell_length_b 6.269271
_cell_length_c 10.891186
_cell_angle_alpha 64.847577
_cell_angle_beta 113.393359
_cell_angle_gamma 98.563443
_cell_volume 579.999333
_symmetry_space_group_name_H-M "P -1"
_symmetry_group_IT_number 2
_symmetry_cell_setting 'triclinic'
loop_
_space_group_symop_operation_xyz
x,y,z
-x,-y,-z
loop_
_atom_site_type_symbol
_atom_site_label
_atom_site_fract_x
_atom_site_fract_y
_atom_site_fract_z
Si Si1 0.398707 0.660829 0.009423
Si Si2 0.852027 0.372364 0.470007
Si Si3 0.126324 0.384385 0.994235
Si Si4 0.141081 0.793797 0.740680
Si Si5 0.127964 0.018293 0.263272
Si Si6 0.567976 0.654514 0.303327
Si Si7 0.604605 0.787157 0.553009
O O1 0.279063 0.487418 0.060902
O O2 0.485641 0.764254 0.129426
O O3 0.500000 0.500000 0.000000
O O4 0.297380 0.829110 0.847382
O O5 0.863271 0.179856 0.412230
O O6 0.716959 0.535147 0.346307
O O7 0.000000 0.500000 0.500000
O O8 0.825193 0.247075 0.621531
O O9 0.128077 0.111076 0.100589
O O10 0.108356 0.513011 0.824438
O O11 0.000000 0.500000 0.000000
O O12 0.026085 0.938589 0.742098
O O13 0.241034 0.174913 0.340274
O O14 0.605040 0.795852 0.403968
O O15 0.466360 0.448631 0.366090
O O16 0.500000 0.000000 0.500000
#
# Coordination Sequence:
#
# PCOD9079334 Si02
#       7
#     2   2   2   2   2   2   2
#     4  10  18  36  67  94 134 177 216 264 342 400
#     4  12  24  39  60  94 134 174 222 275 335 402
#     4   8  17  34  61  92 123 174 218 258 335 389
#     4   9  20  37  65  90 131 177 210 273 343 391
#     4  11  20  39  66  94 128 175 224 276 333 399
#     4  11  22  38  66  97 129 172 218 274 335 399
#     4  11  22  39  64  97 131 165 219 284 333 388
#
# _framework density 24.137958999999999
#
# number of rings (size 3 to 8) (size 9 to 14) (size 15 to 20)
#    0.857    0.857    4.286    1.286    0.000    0.000 
#    0.000    0.714    6.286    2.571    0.000    0.000 
#    0.000    0.000    0.000    0.000    0.000    0.000 
#
# Total GULP energy -78148.173342 kJ/mol
# GULP energy per Si atom -5582.012382 kJ/mol
# Density = 2.408302 g / cm^3
# Si number density = 24.137959 Si / 1000 Ang^3
#
#
#
# Elastic Constant Matrix: (Units=GPa)
#
#
# Indices 1 2 3 4 5 6 
#
# 1 127.6302 12.2555 24.6124 9.4925 24.1387 5.0654
# 2 12.2555 21.9545 15.5821 7.5755 -0.5287 10.1725
# 3 24.6124 15.5821 111.9027 -4.9913 5.5054 16.1653
# 4 9.4925 7.5755 -4.9913 37.6893 11.3981 -2.7591
# 5 24.1387 -0.5287 5.5054 11.3981 51.3284 -5.7953
# 6 5.0654 10.1725 16.1653 -2.7591 -5.7953 40.4215
#
#
#
# Elastic Compliance Matrix: (Units=1/GPa)
#
#
# Indices 1 2 3 4 5 6 
#
# 1 0.009315 -0.004156 -0.001243 -0.000416 -0.004227 -0.000259
# 2 -0.004156 0.064458 -0.007112 -0.015423 0.005322 -0.013146
# 3 -0.001243 -0.007112 0.010782 0.003509 -0.001692 -0.002369
# 4 -0.000416 -0.015423 0.003509 0.032643 -0.007167 0.003731
# 5 -0.004227 0.005322 -0.001692 -0.007167 0.023610 0.002763
# 6 -0.000259 -0.013146 -0.002369 0.003731 0.002763 0.029678
#
#
# Mechanical properties :
#
#
# Convention : Reuss Voigt Hill
#
# Bulk Modulus (GPa) = 16.79763 40.70970 28.75366
# Shear Modulus (GPa) = 23.21788 39.82365 31.52077
#
# Velocity S-wave (km/s) = 3.10479 4.06622 3.61759
# Velocity P-wave (km/s) = 4.45276 6.24080 5.42101
#
# Compressibility (1/GPa) = 0.05953220
#
# Stress axis : x y z
#
# Youngs Moduli (GPa) = 107.35906 15.51409 92.74607
#
# Poissons Ratio (x) = 0.06447 0.11531
# Poissons Ratio (y) = 0.44614 0.65962
# Poissons Ratio (z) = 0.13348 0.11034
#
# Static dielectric constant tensor:
#      x y z
#    x 1.946250 0.007220 -0.032780 
#    y 0.007220 1.989050 -0.050940 
#    z -0.032780 -0.050940 1.938260 
# 
# From -- ./inp_files/410336.got.cif
#   From: 2010.05.17/outbox.cif.g08.bks.cpg/sg2_206_cif.got.tgz:410336.got - 2010.06.03 11:33:40.
