data_PCOD9079087
_publ_section_title
;
Structure prediction by ZEFSAII (Michael W. Deem and Ramdas Pophale) SiO2 
 PCOD9079087
Probable space group: P -1
;
_chemical_formula_sum "Si O2"
_cell_formula_units_Z 14
_cell_length_a 16.684969
_cell_length_b 19.796547
_cell_length_c 7.190896
_cell_angle_alpha 118.766870
_cell_angle_beta 131.400487
_cell_angle_gamma 23.407045
_cell_volume 641.779478
_symmetry_space_group_name_H-M "P -1"
_symmetry_group_IT_number 2
_symmetry_cell_setting 'triclinic'
loop_
_space_group_symop_operation_xyz
x,y,z
-x,-y,-z
loop_
_atom_site_type_symbol
_atom_site_label
_atom_site_fract_x
_atom_site_fract_y
_atom_site_fract_z
Si Si1 0.226356 0.608422 0.484992
Si Si2 0.435631 0.745134 0.304065
Si Si3 0.871942 0.508327 0.400495
Si Si4 0.965868 0.872418 0.736949
Si Si5 0.889020 0.192667 0.707670
Si Si6 0.634296 0.215309 0.162566
Si Si7 0.229453 0.156709 0.702501
O O1 0.446405 0.404061 0.606105
O O2 0.184807 0.701846 0.702497
O O3 0.227613 0.654118 0.359055
O O4 0.966279 0.729031 0.273708
O O5 0.668199 0.646935 0.447416
O O6 0.222569 0.932516 0.337510
O O7 0.315443 0.794808 0.990461
O O8 0.000000 0.500000 0.500000
O O9 0.096215 0.305220 0.555161
O O10 0.672394 0.602566 0.066572
O O11 0.780048 0.919098 0.517457
O O12 0.080950 0.812843 0.036156
O O13 0.726506 0.224666 0.441352
O O14 0.178442 0.982291 0.790858
O O15 0.500000 0.000000 0.000000
#
# Coordination Sequence:
#
# PCOD9079087 Si02
#       7
#     2   2   2   2   2   2   2
#     4   9  20  36  59  87 120 157 194 251 297 343
#     4   8  17  38  55  85 125 149 201 246 292 357
#     4   9  18  35  59  83 122 156 191 251 300 339
#     4   9  19  38  62  85 123 155 198 246 300 358
#     4  10  18  36  62  87 122 158 198 242 300 364
#     4   8  18  34  58  88 122 153 197 251 289 355
#     4   9  20  37  57  84 121 153 201 248 285 356
#
# _framework density 21.814347000000001
#
# number of rings (size 3 to 8) (size 9 to 14) (size 15 to 20)
#    1.714    1.429    0.000    0.000    2.000    0.571 
#    0.000   20.714    0.000    0.000    0.000    0.000 
#    0.000    0.000    0.000    0.000    0.000    0.000 
#
# Total GULP energy -78019.043867 kJ/mol
# GULP energy per Si atom -5572.788848 kJ/mol
# Density = 2.176470 g / cm^3
# Si number density = 21.814347 Si / 1000 Ang^3
#
#
#
# Elastic Constant Matrix: (Units=GPa)
#
#
# Indices 1 2 3 4 5 6 
#
# 1 67.5758 49.2276 32.3727 -33.1384 26.0972 9.1753
# 2 49.2276 137.0671 39.8126 -49.0544 9.0418 22.4778
# 3 32.3727 39.8126 139.0459 -28.3012 32.1530 4.0814
# 4 -33.1384 -49.0544 -28.3012 -4.4521 24.1178 -9.3973
# 5 26.0972 9.0418 32.1530 24.1178 15.6275 5.7281
# 6 9.1753 22.4778 4.0814 -9.3973 5.7281 31.1745
#
#
#
# Elastic Compliance Matrix: (Units=1/GPa)
#
#
# Indices 1 2 3 4 5 6 
#
# 1 0.018221 -0.009046 -0.003726 -0.010781 -0.000326 -0.001543
# 2 -0.009046 0.013403 -0.002867 0.004145 0.009461 -0.007116
# 3 -0.003726 -0.002867 0.008263 -0.004955 -0.001810 0.000921
# 4 -0.010781 0.004145 -0.004955 -0.000135 0.027575 -0.004274
# 5 -0.000326 0.009461 -0.001810 0.027575 0.020971 -0.002030
# 6 -0.001543 -0.007116 0.000921 -0.004274 -0.002030 0.036626
#
#
# Mechanical properties :
#
#
# Convention : Reuss Voigt Hill
#
# Bulk Modulus (GPa) = 116.13707 65.16828 90.65268
# Shear Modulus (GPa) = 38.02350 23.28837 30.65594
#
# Velocity S-wave (km/s) = 4.17951 3.27092 3.75281
# Velocity P-wave (km/s) = 8.75474 6.64862 7.77334
#
# Compressibility (1/GPa) = 0.00861051
#
# Stress axis : x y z
#
# Youngs Moduli (GPa) = 54.88101 74.60821 121.01795
#
# Poissons Ratio (x) = 0.67488 0.45091
# Poissons Ratio (y) = 0.49644 0.34696
# Poissons Ratio (z) = 0.20448 0.21390
#
# Static dielectric constant tensor:
#      x y z
#    x 1.814130 -0.042060 0.010440 
#    y -0.042060 1.827850 -0.025350 
#    z 0.010440 -0.025350 1.798060 
# 
# From -- ./inp_files/336322.got.cif
#   From: 2010.05.17/outbox.cif.g08.bks.cpg/sg2_169_cif.got.tgz:336322.got - 2010.06.03 11:33:40.
