data_PCOD9079811
_publ_section_title
;
Structure prediction by ZEFSAII (Michael W. Deem and Ramdas Pophale) SiO2 
 PCOD9079811
Probable space group: P -1
;
_chemical_formula_sum "Si O2"
_cell_formula_units_Z 16
_cell_length_a 8.132018
_cell_length_b 14.795163
_cell_length_c 8.108159
_cell_angle_alpha 84.308055
_cell_angle_beta 55.449399
_cell_angle_gamma 105.956544
_cell_volume 731.335964
_symmetry_space_group_name_H-M "P -1"
_symmetry_group_IT_number 2
_symmetry_cell_setting 'triclinic'
loop_
_space_group_symop_operation_xyz
x,y,z
-x,-y,-z
loop_
_atom_site_type_symbol
_atom_site_label
_atom_site_fract_x
_atom_site_fract_y
_atom_site_fract_z
Si Si1 0.038790 0.799874 0.668781
Si Si2 0.520374 0.612065 0.457091
Si Si3 0.918754 0.376398 0.172994
Si Si4 0.155255 0.567902 0.154916
Si Si5 0.765176 0.008117 0.646709
Si Si6 0.047408 0.308134 0.614846
Si Si7 0.558352 0.724111 0.073297
Si Si8 0.351343 0.861455 0.053239
O O1 0.998773 0.744392 0.525181
O O2 0.108387 0.734153 0.763355
O O3 0.209789 0.911839 0.524157
O O4 0.800701 0.787879 0.862274
O O5 0.500000 0.500000 0.500000
O O6 0.295177 0.613377 0.641701
O O7 0.714772 0.670309 0.460542
O O8 0.566517 0.663618 0.242397
O O9 0.115639 0.454995 0.157318
O O10 0.935554 0.405287 0.968045
O O11 0.401038 0.641213 0.048996
O O12 0.008465 0.594465 0.368518
O O13 0.540978 0.909418 0.800344
O O14 0.727376 0.060176 0.827475
O O15 0.000000 0.000000 0.500000
O O16 0.872196 0.228816 0.851822
O O17 0.450662 0.804592 0.135426
#
# Coordination Sequence:
#
# PCOD9079811 Si02
#       8
#     2   2   2   2   2   2   2   2
#     4  11  23  37  66  93 122 167 206 259 314 384
#     4  12  24  38  60  87 125 173 208 259 306 367
#     4  11  23  39  58  89 124 166 214 257 315 364
#     4  10  22  39  61  85 124 165 209 263 300 378
#     4  10  18  37  65  99 123 158 209 257 322 378
#     4  10  21  40  59  91 125 166 206 255 312 366
#     4  11  23  40  62  93 123 170 211 253 316 370
#     4   9  20  38  66  93 125 162 204 265 311 378
#
# _framework density 21.877772
#
# number of rings (size 3 to 8) (size 9 to 14) (size 15 to 20)
#    0.000    1.500    2.500    3.750    3.500    1.500 
#    0.000    0.000    0.000   20.250    0.000    0.000 
#    0.000    0.000    0.000    0.000    0.000    0.000 
#
# Total GULP energy -89241.120906 kJ/mol
# GULP energy per Si atom -5577.570057 kJ/mol
# Density = 2.182798 g / cm^3
# Si number density = 21.877772 Si / 1000 Ang^3
#
#
#
# Elastic Constant Matrix: (Units=GPa)
#
#
# Indices 1 2 3 4 5 6 
#
# 1 42.7734 4.6179 19.9128 -6.5331 -2.8221 -7.8272
# 2 4.6179 51.8706 18.0081 -4.8847 3.3378 -18.6874
# 3 19.9128 18.0081 101.7101 -7.4856 -11.4373 -4.9273
# 4 -6.5331 -4.8847 -7.4856 38.4448 -8.4256 1.1019
# 5 -2.8221 3.3378 -11.4373 -8.4256 40.0804 1.5783
# 6 -7.8272 -18.6874 -4.9273 1.1019 1.5783 30.1373
#
#
#
# Elastic Compliance Matrix: (Units=1/GPa)
#
#
# Indices 1 2 3 4 5 6 
#
# 1 0.027527 0.002361 -0.005054 0.003958 0.000832 0.007598
# 2 0.002361 0.027181 -0.004766 0.001616 -0.003780 0.016827
# 3 -0.005054 -0.004766 0.012125 0.001844 0.003990 -0.002562
# 4 0.003958 0.001616 0.001844 0.028682 0.006663 0.000934
# 5 0.000832 -0.003780 0.003990 0.006663 0.027988 -0.003185
# 6 0.007598 0.016827 -0.002562 0.000934 -0.003185 0.045303
#
#
# Mechanical properties :
#
#
# Convention : Reuss Voigt Hill
#
# Bulk Modulus (GPa) = 19.26225 31.27020 25.26623
# Shear Modulus (GPa) = 24.87204 31.98684 28.42944
#
# Velocity S-wave (km/s) = 3.37540 3.82785 3.60872
# Velocity P-wave (km/s) = 4.90048 5.81900 5.37938
#
# Compressibility (1/GPa) = 0.05191501
#
# Stress axis : x y z
#
# Youngs Moduli (GPa) = 36.32792 36.79078 82.47138
#
# Poissons Ratio (x) = -0.08685 0.41683
# Poissons Ratio (y) = -0.08576 0.39302
# Poissons Ratio (z) = 0.18361 0.17533
#
# Static dielectric constant tensor:
#      x y z
#    x 1.778420 -0.021560 0.008630 
#    y -0.021560 1.899550 -0.025860 
#    z 0.008630 -0.025860 1.869980 
# 
# From -- ./inp_files/206696.got.cif
#   From: 2010.05.17/outbox.cif.g08.bks.cpg/sg2_104_cif.got.tgz:206696.got - 2010.06.03 11:33:40.
