data_PCOD9079181
_publ_section_title
;
Structure prediction by ZEFSAII (Michael W. Deem and Ramdas Pophale) SiO2 
 PCOD9079181
Probable space group: P -1
;
_chemical_formula_sum "Si O2"
_cell_formula_units_Z 16
_cell_length_a 14.642169
_cell_length_b 11.579769
_cell_length_c 7.210164
_cell_angle_alpha 122.790627
_cell_angle_beta 74.270506
_cell_angle_gamma 61.180276
_cell_volume 622.496573
_symmetry_space_group_name_H-M "P -1"
_symmetry_group_IT_number 2
_symmetry_cell_setting 'triclinic'
loop_
_space_group_symop_operation_xyz
x,y,z
-x,-y,-z
loop_
_atom_site_type_symbol
_atom_site_label
_atom_site_fract_x
_atom_site_fract_y
_atom_site_fract_z
Si Si1 0.346201 0.248428 0.741368
Si Si2 0.977802 0.409347 0.664331
Si Si3 0.696636 0.501116 0.572978
Si Si4 0.752308 0.160861 0.347288
Si Si5 0.580730 0.021237 0.843188
Si Si6 0.212977 0.951795 0.188622
Si Si7 0.001754 0.680988 0.847598
Si Si8 0.405090 0.482206 0.755759
O O1 0.362183 0.386232 0.786684
O O2 0.500000 0.000000 0.500000
O O3 0.315795 0.184594 0.525521
O O4 0.201599 0.398700 0.079607
O O5 0.012415 0.524571 0.807995
O O6 0.035965 0.322141 0.346548
O O7 0.054024 0.197952 0.550049
O O8 0.757338 0.316835 0.518143
O O9 0.610021 0.530169 0.468678
O O10 0.839112 0.420698 0.341344
O O11 0.565923 0.735920 0.946691
O O12 0.576939 0.316780 0.578858
O O13 0.806785 0.091143 0.041692
O O14 0.864105 0.935723 0.199597
O O15 0.682621 0.029395 0.872879
O O16 0.500000 0.000000 0.000000
O O17 0.300196 0.734884 0.066527
#
# Coordination Sequence:
#
# PCOD9079181 Si02
#       8
#     2   2   2   2   2   2   2   2
#     4  12  26  42  63  92 131 168 212 264 325 374
#     4  10  23  41  61  89 131 170 207 264 323 376
#     4  11  19  35  63  98 121 162 221 260 304 381
#     4  10  18  36  63  94 129 162 209 262 317 373
#     4  12  21  38  66  97 122 164 215 261 302 379
#     4  10  20  38  63  89 124 167 212 258 316 371
#     4  10  21  38  65  92 127 169 212 258 322 380
#     4  11  21  40  65  92 127 168 211 265 316 375
#
# _framework density 25.702953999999998
#
# number of rings (size 3 to 8) (size 9 to 14) (size 15 to 20)
#    0.000    1.250    3.750    3.375    0.000    3.000 
#    0.000    0.625    2.750    0.000    0.000    0.000 
#    0.000    0.000    0.000    0.000    0.000    0.000 
#
# Total GULP energy -89467.143993 kJ/mol
# GULP energy per Si atom -5591.696500 kJ/mol
# Density = 2.564445 g / cm^3
# Si number density = 25.702954 Si / 1000 Ang^3
#
#
#
# Elastic Constant Matrix: (Units=GPa)
#
#
# Indices 1 2 3 4 5 6 
#
# 1 82.1106 17.0353 34.9047 22.1269 -8.2105 10.6048
# 2 17.0353 107.7744 52.5636 35.7745 13.8376 6.5315
# 3 34.9047 52.5636 148.0321 58.1832 1.9493 7.6808
# 4 22.1269 35.7745 58.1832 43.2282 -4.0999 3.0047
# 5 -8.2105 13.8376 1.9493 -4.0999 36.7848 17.1192
# 6 10.6048 6.5315 7.6808 3.0047 17.1192 35.5348
#
#
#
# Elastic Compliance Matrix: (Units=1/GPa)
#
#
# Indices 1 2 3 4 5 6 
#
# 1 0.015704 -0.000769 -0.001452 -0.004320 0.006689 -0.007089
# 2 -0.000769 0.014458 -0.000117 -0.012371 -0.008187 0.002588
# 3 -0.001452 -0.000117 0.014802 -0.019457 -0.003508 0.000591
# 4 -0.004320 -0.012371 -0.019457 0.063366 0.013742 -0.004210
# 5 0.006689 -0.008187 -0.003508 0.013742 0.043687 -0.021942
# 6 -0.007089 0.002588 0.000591 -0.004210 -0.021942 0.040580
#
#
# Mechanical properties :
#
#
# Convention : Reuss Voigt Hill
#
# Bulk Modulus (GPa) = 24.82107 60.76935 42.79521
# Shear Modulus (GPa) = 23.73022 38.67047 31.20035
#
# Velocity S-wave (km/s) = 3.04180 3.88302 3.48786
# Velocity P-wave (km/s) = 4.69197 6.61801 5.73640
#
# Compressibility (1/GPa) = 0.04028835
#
# Stress axis : x y z
#
# Youngs Moduli (GPa) = 63.67776 69.16720 67.55826
#
# Poissons Ratio (x) = 0.05321 0.09809
# Poissons Ratio (y) = 0.04898 0.00788
# Poissons Ratio (z) = 0.09245 0.00806
#
# Static dielectric constant tensor:
#      x y z
#    x 2.134190 -0.045650 0.009220 
#    y -0.045650 2.097720 0.011430 
#    z 0.009220 0.011430 2.054000 
# 
# From -- ./inp_files/308517.got.cif
#   From: 2010.05.17/outbox.cif.g08.bks.cpg/sg2_155_cif.got.tgz:308517.got - 2010.06.03 11:33:40.
