data_PCOD9079340
_publ_section_title
;
Structure prediction by ZEFSAII (Michael W. Deem and Ramdas Pophale) SiO2 
 PCOD9079340
Probable space group: P -1
;
_chemical_formula_sum "Si O2"
_cell_formula_units_Z 16
_cell_length_a 8.040974
_cell_length_b 9.434009
_cell_length_c 27.683466
_cell_angle_alpha 151.073051
_cell_angle_beta 51.788255
_cell_angle_gamma 117.071868
_cell_volume 777.279970
_symmetry_space_group_name_H-M "P -1"
_symmetry_group_IT_number 2
_symmetry_cell_setting 'triclinic'
loop_
_space_group_symop_operation_xyz
x,y,z
-x,-y,-z
loop_
_atom_site_type_symbol
_atom_site_label
_atom_site_fract_x
_atom_site_fract_y
_atom_site_fract_z
Si Si1 0.437638 0.668316 0.208286
Si Si2 0.550222 0.144055 0.386383
Si Si3 0.579482 0.813973 0.782220
Si Si4 0.357726 0.381084 0.947960
Si Si5 0.955489 0.160378 0.807672
Si Si6 0.040404 0.479045 0.184744
Si Si7 0.370892 0.895515 0.947442
Si Si8 0.455395 0.206021 0.616820
O O1 0.541862 0.597450 0.115848
O O2 0.204600 0.584326 0.224027
O O3 0.606213 0.455477 0.150920
O O4 0.411534 0.005674 0.331092
O O5 0.500000 0.500000 0.500000
O O6 0.515658 0.005362 0.403797
O O7 0.798673 0.018490 0.288058
O O8 0.500772 0.906533 0.878310
O O9 0.596197 0.460673 0.668049
O O10 0.392722 0.027227 0.846848
O O11 0.798455 0.925561 0.765190
O O12 0.500000 0.500000 0.000000
O O13 0.124708 0.601473 0.063759
O O14 0.928941 0.358191 0.822608
O O15 0.792206 0.594440 0.278168
O O16 0.136742 0.121451 0.055053
O O17 0.500000 0.000000 0.000000
O O18 0.500000 0.000000 0.500000
#
# Coordination Sequence:
#
# PCOD9079340 Si02
#       8
#     2   2   2   2   2   2   2   2
#     4  11  21  40  64  98 129 159 194 258 318 359
#     4  11  27  46  61  87 126 165 214 260 301 354
#     4  11  20  39  66  95 123 159 202 253 304 371
#     4  10  18  36  67  98 127 155 200 245 307 389
#     4  10  20  40  67  92 124 165 202 243 310 379
#     4  10  20  40  68  90 125 166 200 244 314 376
#     4  10  19  35  64  99 129 153 193 255 318 369
#     4  11  27  46  62  88 120 167 224 254 288 367
#
# _framework density 20.584603999999999
#
# number of rings (size 3 to 8) (size 9 to 14) (size 15 to 20)
#    0.000    1.500    5.000    2.250    1.750    3.000 
#    6.750    3.750    0.000    0.000    0.000    0.000 
#    0.000    0.000    0.000    0.000    0.000    0.000 
#
# Total GULP energy -89333.552272 kJ/mol
# GULP energy per Si atom -5583.347017 kJ/mol
# Density = 2.053775 g / cm^3
# Si number density = 20.584604 Si / 1000 Ang^3
#
#
#
# Elastic Constant Matrix: (Units=GPa)
#
#
# Indices 1 2 3 4 5 6 
#
# 1 41.6920 10.0983 7.1064 4.3285 1.6016 0.9284
# 2 10.0983 88.2316 11.8282 8.6714 4.4899 -5.1799
# 3 7.1064 11.8282 40.6140 15.6888 16.9301 -3.5501
# 4 4.3285 8.6714 15.6888 46.0227 -1.6687 2.2500
# 5 1.6016 4.4899 16.9301 -1.6687 30.3249 4.8353
# 6 0.9284 -5.1799 -3.5501 2.2500 4.8353 24.6162
#
#
#
# Elastic Compliance Matrix: (Units=1/GPa)
#
#
# Indices 1 2 3 4 5 6 
#
# 1 0.025395 -0.002516 -0.004786 -0.000080 0.002111 -0.002585
# 2 -0.002516 0.012245 -0.001700 -0.001676 -0.001274 0.002830
# 3 -0.004786 -0.001700 0.044802 -0.016142 -0.027495 0.013160
# 4 -0.000080 -0.001676 -0.016142 0.028364 0.012043 -0.007636
# 5 0.002111 -0.001274 -0.027495 0.012043 0.051544 -0.015538
# 6 -0.002585 0.002830 0.013160 -0.007636 -0.015538 0.046965
#
#
# Mechanical properties :
#
#
# Convention : Reuss Voigt Hill
#
# Bulk Modulus (GPa) = 15.51872 25.40039 20.45955
# Shear Modulus (GPa) = 20.09657 29.62642 24.86149
#
# Velocity S-wave (km/s) = 3.12796 3.79786 3.47907
# Velocity P-wave (km/s) = 4.53881 5.62121 5.10876
#
# Compressibility (1/GPa) = 0.06443831
#
# Stress axis : x y z
#
# Youngs Moduli (GPa) = 39.37724 81.66341 22.32058
#
# Poissons Ratio (x) = 0.20549 0.10682
# Poissons Ratio (y) = 0.09908 0.03795
# Poissons Ratio (z) = 0.18845 0.13884
#
# Static dielectric constant tensor:
#      x y z
#    x 1.791660 0.018230 -0.009280 
#    y 0.018230 1.783710 0.036020 
#    z -0.009280 0.036020 1.756910 
# 
# From -- ./inp_files/357337.got.cif
#   From: 2010.05.17/outbox.cif.g08.bks.cpg/sg2_179_cif.got.tgz:357337.got - 2010.06.03 11:33:40.
