data_PCOD9079437
_publ_section_title
;
Structure prediction by ZEFSAII (Michael W. Deem and Ramdas Pophale) SiO2 
 PCOD9079437
Probable space group: P -1
;
_chemical_formula_sum "Si O2"
_cell_formula_units_Z 16
_cell_length_a 9.520256
_cell_length_b 9.225915
_cell_length_c 16.264978
_cell_angle_alpha 129.961614
_cell_angle_beta 82.005641
_cell_angle_gamma 65.734105
_cell_volume 815.460961
_symmetry_space_group_name_H-M "P -1"
_symmetry_group_IT_number 2
_symmetry_cell_setting 'triclinic'
loop_
_space_group_symop_operation_xyz
x,y,z
-x,-y,-z
loop_
_atom_site_type_symbol
_atom_site_label
_atom_site_fract_x
_atom_site_fract_y
_atom_site_fract_z
Si Si1 0.378949 0.940025 0.949593
Si Si2 0.071909 0.105895 0.804879
Si Si3 0.768357 0.532313 0.315405
Si Si4 0.861075 0.190909 0.462232
Si Si5 0.999129 0.487400 0.152065
Si Si6 0.093106 0.966728 0.069082
Si Si7 0.902726 0.796213 0.425873
Si Si8 0.458228 0.630144 0.677286
O O1 0.482487 0.731028 0.794831
O O2 0.186020 0.199832 0.022357
O O3 0.298869 0.864690 0.996658
O O4 0.500000 0.000000 0.000000
O O5 0.039296 0.989730 0.689759
O O6 0.285705 0.877426 0.732997
O O7 0.935456 0.176620 0.917251
O O8 0.043732 0.337750 0.855250
O O9 0.758428 0.748983 0.435301
O O10 0.610790 0.519702 0.345603
O O11 0.812470 0.539323 0.218034
O O12 0.962875 0.250860 0.219751
O O13 0.655710 0.448071 0.548520
O O14 0.985295 0.236600 0.515484
O O15 0.826096 0.052031 0.480908
O O16 0.033272 0.587343 0.267788
O O17 0.000000 0.000000 0.000000
#
# Coordination Sequence:
#
# PCOD9079437 Si02
#       8
#     2   2   2   2   2   2   2   2
#     4  11  21  36  60  83 108 142 187 228 277 330
#     4  10  20  36  57  82 112 145 185 229 272 318
#     4   8  17  33  55  81 105 145 188 214 268 323
#     4  10  19  34  56  82 116 142 185 223 274 322
#     4   8  18  35  57  82 110 145 188 220 268 330
#     4  10  18  37  58  80 107 145 187 225 272 335
#     4   8  17  34  56  77 106 151 186 212 269 330
#     4  11  21  33  55  85 112 143 179 235 272 320
#
# _framework density 19.620802999999999
#
# number of rings (size 3 to 8) (size 9 to 14) (size 15 to 20)
#    0.750    1.750    2.500    1.125    0.000    1.000 
#    0.000    3.125    2.750    1.500    0.000    0.000 
#    0.000    0.000    0.000    0.000    0.000    0.000 
#
# Total GULP energy -89076.683969 kJ/mol
# GULP energy per Si atom -5567.292748 kJ/mol
# Density = 1.957614 g / cm^3
# Si number density = 19.620803 Si / 1000 Ang^3
#
#
#
# Elastic Constant Matrix: (Units=GPa)
#
#
# Indices 1 2 3 4 5 6 
#
# 1 90.8107 28.5031 12.2485 -2.9031 21.6518 3.4169
# 2 28.5031 95.5529 -1.4974 -3.6785 -1.4733 20.6437
# 3 12.2485 -1.4974 45.4230 -4.6935 8.2891 -4.7322
# 4 -2.9031 -3.6785 -4.6935 23.2181 -0.0740 6.1309
# 5 21.6518 -1.4733 8.2891 -0.0740 28.9717 -2.4605
# 6 3.4169 20.6437 -4.7322 6.1309 -2.4605 21.7957
#
#
#
# Elastic Compliance Matrix: (Units=1/GPa)
#
#
# Indices 1 2 3 4 5 6 
#
# 1 0.015515 -0.004868 -0.002212 0.000617 -0.011186 0.000262
# 2 -0.004868 0.015467 0.000296 0.005909 0.003070 -0.015138
# 3 -0.002212 0.000296 0.024296 0.003676 -0.004956 0.003748
# 4 0.000617 0.005909 0.003676 0.049897 -0.002718 -0.019237
# 5 -0.011186 0.003070 -0.004956 -0.002718 0.044748 0.003586
# 6 0.000262 -0.015138 0.003748 -0.019237 0.003586 0.066807
#
#
# Mechanical properties :
#
#
# Convention : Reuss Voigt Hill
#
# Bulk Modulus (GPa) = 23.97475 34.47722 29.22598
# Shear Modulus (GPa) = 20.47477 27.63260 24.05368
#
# Velocity S-wave (km/s) = 3.23387 3.75685 3.50512
# Velocity P-wave (km/s) = 5.11756 6.03560 5.59544
#
# Compressibility (1/GPa) = 0.04171056
#
# Stress axis : x y z
#
# Youngs Moduli (GPa) = 64.45308 64.65173 41.15877
#
# Poissons Ratio (x) = 0.31473 0.09104
# Poissons Ratio (y) = 0.31377 -0.01218
# Poissons Ratio (z) = 0.14256 -0.01913
#
# Static dielectric constant tensor:
#      x y z
#    x 1.717370 0.030580 0.028660 
#    y 0.030580 1.720800 0.004110 
#    z 0.028660 0.004110 1.710570 
# 
# From -- ./inp_files/557583.got.cif
#   From: 2010.05.17/outbox.cif.g08.bks.cpg/sg2_279_cif.got.tgz:557583.got - 2010.06.03 11:33:40.
