data_PCOD9079257
_publ_section_title
;
Structure prediction by ZEFSAII (Michael W. Deem and Ramdas Pophale) SiO2 
 PCOD9079257
Probable space group: P -1
;
_chemical_formula_sum "Si O2"
_cell_formula_units_Z 14
_cell_length_a 9.111635
_cell_length_b 8.562982
_cell_length_c 11.157362
_cell_angle_alpha 74.367007
_cell_angle_beta 127.050796
_cell_angle_gamma 94.477163
_cell_volume 665.031775
_symmetry_space_group_name_H-M "P -1"
_symmetry_group_IT_number 2
_symmetry_cell_setting 'triclinic'
loop_
_space_group_symop_operation_xyz
x,y,z
-x,-y,-z
loop_
_atom_site_type_symbol
_atom_site_label
_atom_site_fract_x
_atom_site_fract_y
_atom_site_fract_z
Si Si1 0.309007 0.703843 0.670046
Si Si2 0.305237 0.472237 0.348369
Si Si3 0.014126 0.249421 0.855126
Si Si4 0.901352 0.779442 0.547686
Si Si5 0.173120 0.386838 0.670948
Si Si6 0.791117 0.052702 0.630924
Si Si7 0.330806 0.203928 0.210096
O O1 0.331225 0.507265 0.719507
O O2 0.277168 0.777749 0.504364
O O3 0.488533 0.783192 0.784059
O O4 0.122659 0.753513 0.643624
O O5 0.500000 0.500000 0.500000
O O6 0.186496 0.367319 0.399172
O O7 0.326252 0.359525 0.264024
O O8 0.175950 0.640342 0.227090
O O9 0.121586 0.343822 0.788062
O O10 0.956281 0.091983 0.790374
O O11 0.146981 0.214471 0.039538
O O12 0.811796 0.772740 0.372529
O O13 0.850034 0.934694 0.573266
O O14 0.000000 0.500000 0.500000
O O15 0.658162 0.958767 0.669469
#
# Coordination Sequence:
#
# PCOD9079257 Si02
#       7
#     2   2   2   2   2   2   2
#     4  11  20  40  63  91 118 157 210 248 291 362
#     4  11  22  41  66  91 116 158 209 248 295 365
#     4  12  22  41  62  88 129 156 196 259 304 355
#     4  10  20  37  64  93 112 154 210 252 288 347
#     4  10  18  36  65  86 115 153 208 246 298 340
#     4  11  22  39  64  84 123 167 204 244 294 363
#     4  11  26  38  60  94 125 160 197 249 314 352
#
# _framework density 21.051627
#
# number of rings (size 3 to 8) (size 9 to 14) (size 15 to 20)
#    0.000    1.143    5.714    3.429    0.000    1.714 
#    0.000    0.714    0.000    0.000    0.000    0.000 
#    0.000    0.000    0.000    0.000    0.000    0.000 
#
# Total GULP energy -78126.614818 kJ/mol
# GULP energy per Si atom -5580.472487 kJ/mol
# Density = 2.100371 g / cm^3
# Si number density = 21.051627 Si / 1000 Ang^3
#
#
#
# Elastic Constant Matrix: (Units=GPa)
#
#
# Indices 1 2 3 4 5 6 
#
# 1 97.9022 43.8366 24.4309 0.5881 10.6930 20.8834
# 2 43.8366 101.3169 35.2833 18.6667 -0.0597 18.7730
# 3 24.4309 35.2833 110.7484 7.4990 11.4641 3.6333
# 4 0.5881 18.6667 7.4990 24.8015 3.4883 -3.9565
# 5 10.6930 -0.0597 11.4641 3.4883 28.2520 9.3393
# 6 20.8834 18.7730 3.6333 -3.9565 9.3393 32.0721
#
#
#
# Elastic Compliance Matrix: (Units=1/GPa)
#
#
# Indices 1 2 3 4 5 6 
#
# 1 0.014433 -0.005973 -0.001005 0.004424 -0.004294 -0.003992
# 2 -0.005973 0.019117 -0.004319 -0.016203 0.009922 -0.011700
# 3 -0.001005 -0.004319 0.010983 0.001312 -0.005468 0.003693
# 4 0.004424 -0.016203 0.001312 0.057010 -0.015202 0.017914
# 5 -0.004294 0.009922 -0.005468 -0.015202 0.047081 -0.017977
# 6 -0.003992 -0.011700 0.003693 0.017914 -0.017977 0.047654
#
#
# Mechanical properties :
#
#
# Convention : Reuss Voigt Hill
#
# Bulk Modulus (GPa) = 45.57920 57.45213 51.51567
# Shear Modulus (GPa) = 22.10574 30.78623 26.44598
#
# Velocity S-wave (km/s) = 3.24400 3.82830 3.54820
# Velocity P-wave (km/s) = 5.97742 6.84774 6.42733
#
# Compressibility (1/GPa) = 0.02193983
#
# Stress axis : x y z
#
# Youngs Moduli (GPa) = 69.28348 52.30871 91.04730
#
# Poissons Ratio (x) = 0.31243 0.09152
# Poissons Ratio (y) = 0.41382 0.39324
# Poissons Ratio (z) = 0.06964 0.22592
#
# Static dielectric constant tensor:
#      x y z
#    x 1.834710 -0.018960 0.019110 
#    y -0.018960 1.853510 0.011510 
#    z 0.019110 0.011510 1.761010 
# 
# From -- ./inp_files/237514.got.cif
#   From: 2010.05.17/outbox.cif.g08.bks.cpg/sg2_119_cif.got.tgz:237514.got - 2010.06.03 11:33:40.
