data_PCOD9079887
_publ_section_title
;
Structure prediction by ZEFSAII (Michael W. Deem and Ramdas Pophale) SiO2 
 PCOD9079887
Probable space group: P -1
;
_chemical_formula_sum "Si O2"
_cell_formula_units_Z 16
_cell_length_a 18.679335
_cell_length_b 8.834697
_cell_length_c 17.573818
_cell_angle_alpha 28.845317
_cell_angle_beta 149.315155
_cell_angle_gamma 135.353720
_cell_volume 703.635603
_symmetry_space_group_name_H-M "P -1"
_symmetry_group_IT_number 2
_symmetry_cell_setting 'triclinic'
loop_
_space_group_symop_operation_xyz
x,y,z
-x,-y,-z
loop_
_atom_site_type_symbol
_atom_site_label
_atom_site_fract_x
_atom_site_fract_y
_atom_site_fract_z
Si Si1 0.727939 0.669066 0.335892
Si Si2 0.015787 0.232367 0.842502
Si Si3 0.207848 0.202379 0.826982
Si Si4 0.214017 0.735038 0.793732
Si Si5 0.071771 0.885269 0.450502
Si Si6 0.097961 0.185518 0.194113
Si Si7 0.396096 0.931038 0.504428
Si Si8 0.559901 0.718414 0.895594
O O1 0.725216 0.661520 0.245925
O O2 0.624949 0.432619 0.372508
O O3 0.878830 0.491787 0.583037
O O4 0.721558 0.031598 0.194423
O O5 0.135766 0.446192 0.875881
O O6 0.015232 0.000106 0.870903
O O7 0.000000 0.000000 0.000000
O O8 0.114357 0.503003 0.652089
O O9 0.093218 0.013325 0.767670
O O10 0.336271 0.075218 0.056281
O O11 0.110558 0.952412 0.542213
O O12 0.343341 0.554331 0.943691
O O13 0.154826 0.015708 0.400276
O O14 0.236316 0.143100 0.281921
O O15 0.000000 0.500000 0.000000
O O16 0.468061 0.923568 0.656892
O O17 0.500000 0.000000 0.500000
O O18 0.500000 0.500000 0.000000
#
# Coordination Sequence:
#
# PCOD9079887 Si02
#       8
#     2   2   2   2   2   2   2   2
#     4  11  22  43  66 103 143 186 243 302 356 437
#     4  11  24  41  64 102 149 186 229 308 381 421
#     4  10  18  37  68  95 132 176 233 298 355 411
#     4  11  24  38  71 103 134 185 244 293 358 434
#     4  10  18  39  63  99 136 171 235 304 345 409
#     4  11  24  44  72 102 138 192 246 295 358 440
#     4  11  25  48  70 103 155 193 231 306 379 428
#     4  11  22  42  69  94 135 192 245 293 359 431
#
# _framework density 22.739042999999999
#
# number of rings (size 3 to 8) (size 9 to 14) (size 15 to 20)
#    0.000    1.250    5.000    2.625    5.250    0.500 
#    0.000    1.250    0.000    4.500    0.000    0.000 
#    0.000    0.000    0.000    0.000    0.000    0.000 
#
# Total GULP energy -89082.362251 kJ/mol
# GULP energy per Si atom -5567.647641 kJ/mol
# Density = 2.268729 g / cm^3
# Si number density = 22.739043 Si / 1000 Ang^3
#
#
#
# Elastic Constant Matrix: (Units=GPa)
#
#
# Indices 1 2 3 4 5 6 
#
# 1 137.2164 63.8496 40.4209 -11.2152 -10.9656 21.7131
# 2 63.8496 122.6595 34.8124 -3.6486 3.2013 -0.7743
# 3 40.4209 34.8124 75.0899 9.6433 -1.9332 -8.0195
# 4 -11.2152 -3.6486 9.6433 34.7300 -2.5150 -1.1465
# 5 -10.9656 3.2013 -1.9332 -2.5150 30.2415 3.0674
# 6 21.7131 -0.7743 -8.0195 -1.1465 3.0674 37.7575
#
#
#
# Elastic Compliance Matrix: (Units=1/GPa)
#
#
# Indices 1 2 3 4 5 6 
#
# 1 0.014787 -0.005766 -0.007033 0.006290 0.007111 -0.010502
# 2 -0.005766 0.011868 -0.002107 -0.000196 -0.003845 0.003418
# 3 -0.007033 -0.002107 0.019909 -0.007934 -0.002545 0.008196
# 4 0.006290 -0.000196 -0.007934 0.033217 0.005034 -0.004707
# 5 0.007111 -0.003845 -0.002545 0.005034 0.037076 -0.007568
# 6 -0.010502 0.003418 0.008196 -0.004707 -0.007568 0.034807
#
#
# Mechanical properties :
#
#
# Convention : Reuss Voigt Hill
#
# Bulk Modulus (GPa) = 59.69575 68.12573 63.91074
# Shear Modulus (GPa) = 26.72950 33.60465 30.16708
#
# Velocity S-wave (km/s) = 3.43226 3.84844 3.64629
# Velocity P-wave (km/s) = 6.48203 7.05494 6.77454
#
# Compressibility (1/GPa) = 0.01675161
#
# Stress axis : x y z
#
# Youngs Moduli (GPa) = 67.62840 84.25880 50.22887
#
# Poissons Ratio (x) = 0.48582 0.35326
# Poissons Ratio (y) = 0.38993 0.10585
# Poissons Ratio (z) = 0.47563 0.17756
#
# Static dielectric constant tensor:
#      x y z
#    x 1.864690 -0.003840 0.035810 
#    y -0.003840 1.925050 0.076130 
#    z 0.035810 0.076130 1.936400 
# 
# From -- ./inp_files/577523.got.cif
#   From: 2010.05.17/outbox.cif.g08.bks.cpg/sg2_289_cif.got.tgz:577523.got - 2010.06.03 11:33:40.
