data_PCOD9079633
_publ_section_title
;
Structure prediction by ZEFSAII (Michael W. Deem and Ramdas Pophale) SiO2 
 PCOD9079633
Probable space group: P -1
;
_chemical_formula_sum "Si O2"
_cell_formula_units_Z 16
_cell_length_a 11.843347
_cell_length_b 23.478780
_cell_length_c 8.140260
_cell_angle_alpha 39.341596
_cell_angle_beta 54.550176
_cell_angle_gamma 28.822983
_cell_volume 655.591736
_symmetry_space_group_name_H-M "P -1"
_symmetry_group_IT_number 2
_symmetry_cell_setting 'triclinic'
loop_
_space_group_symop_operation_xyz
x,y,z
-x,-y,-z
loop_
_atom_site_type_symbol
_atom_site_label
_atom_site_fract_x
_atom_site_fract_y
_atom_site_fract_z
Si Si1 0.894793 0.267551 0.443378
Si Si2 0.206591 0.906840 0.781357
Si Si3 0.762719 0.030429 0.016432
Si Si4 0.475114 0.411013 0.661251
Si Si5 0.065770 0.151843 0.184627
Si Si6 0.474251 0.592667 0.955172
Si Si7 0.014423 0.365712 0.618215
Si Si8 0.333989 0.338674 0.498943
O O1 0.686704 0.301560 0.580323
O O2 0.010668 0.201088 0.313529
O O3 0.723509 0.446958 0.176321
O O4 0.102426 0.138906 0.693300
O O5 0.243261 0.933064 0.871382
O O6 0.201416 0.983572 0.469837
O O7 0.424870 0.717564 0.013556
O O8 0.952596 0.987645 0.842895
O O9 0.490974 0.188710 0.820050
O O10 0.500000 0.500000 0.500000
O O11 0.206328 0.533918 0.545913
O O12 0.801577 0.277291 0.040407
O O13 0.149154 0.200251 0.923998
O O14 0.479998 0.687240 0.665379
O O15 0.500000 0.500000 0.000000
O O16 0.867045 0.490031 0.620046
O O17 0.204445 0.342978 0.467798
#
# Coordination Sequence:
#
# PCOD9079633 Si02
#       8
#     2   2   2   2   2   2   2   2
#     4   9  17  29  52  77  97 130 177 212 252 295
#     4   9  17  28  51  76 100 132 178 213 253 299
#     4   9  16  27  48  77 103 125 162 223 258 300
#     4  11  21  35  52  75 109 143 175 208 250 316
#     4  10  16  30  54  80 103 125 174 227 256 299
#     4  10  15  27  49  76 102 129 171 205 252 308
#     4  11  21  32  49  81 112 137 162 212 280 309
#     4  11  19  30  50  82 114 130 159 220 279 311
#
# _framework density 24.405432999999999
#
# number of rings (size 3 to 8) (size 9 to 14) (size 15 to 20)
#    0.000    2.000    6.250    1.500    1.750    0.000 
#    0.000    4.375    0.000    3.750    0.000    0.000 
#    0.000    0.000    0.000    0.000    0.000    0.000 
#
# Total GULP energy -89208.142878 kJ/mol
# GULP energy per Si atom -5575.508930 kJ/mol
# Density = 2.434989 g / cm^3
# Si number density = 24.405433 Si / 1000 Ang^3
#
#
#
# Elastic Constant Matrix: (Units=GPa)
#
#
# Indices 1 2 3 4 5 6 
#
# 1 98.3016 16.2537 43.9900 3.9322 -10.6017 -10.0267
# 2 16.2537 23.3950 9.1066 -4.9847 -11.3889 4.1693
# 3 43.9900 9.1066 209.4408 -31.6520 -13.6010 -5.5065
# 4 3.9322 -4.9847 -31.6520 28.3662 2.0751 -5.8601
# 5 -10.6017 -11.3889 -13.6010 2.0751 30.0388 -0.0150
# 6 -10.0267 4.1693 -5.5065 -5.8601 -0.0150 29.5033
#
#
#
# Elastic Compliance Matrix: (Units=1/GPa)
#
#
# Indices 1 2 3 4 5 6 
#
# 1 0.014200 -0.010843 -0.003434 -0.006790 -0.000183 0.004368
# 2 -0.010843 0.063633 0.002365 0.011779 0.020551 -0.009886
# 3 -0.003434 0.002365 0.006897 0.008741 0.002205 0.001523
# 4 -0.006790 0.011779 0.008741 0.049369 0.002621 0.007467
# 5 -0.000183 0.020551 0.002205 0.002621 0.041834 -0.002013
# 6 0.004368 -0.009886 0.001523 0.007467 -0.002013 0.038543
#
#
# Mechanical properties :
#
#
# Convention : Reuss Voigt Hill
#
# Bulk Modulus (GPa) = 16.41866 52.20421 34.31143
# Shear Modulus (GPa) = 19.33482 35.03414 27.18448
#
# Velocity S-wave (km/s) = 2.81772 3.79292 3.34109
# Velocity P-wave (km/s) = 4.16271 6.37326 5.38268
#
# Compressibility (1/GPa) = 0.06090632
#
# Stress axis : x y z
#
# Youngs Moduli (GPa) = 70.42335 15.71519 144.98319
#
# Poissons Ratio (x) = 0.17040 0.49790
# Poissons Ratio (y) = 0.76360 -0.34294
# Poissons Ratio (z) = 0.24185 -0.03717
#
# Static dielectric constant tensor:
#      x y z
#    x 2.120920 0.186900 -0.026600 
#    y 0.186900 2.086010 -0.053820 
#    z -0.026600 -0.053820 2.055420 
# 
# From -- ./inp_files/439662.got.cif
#   From: 2010.05.17/outbox.cif.g08.bks.cpg/sg2_220_cif.got.tgz:439662.got - 2010.06.03 11:33:40.
