data_PCOD9079967
_publ_section_title
;
Structure prediction by ZEFSAII (Michael W. Deem and Ramdas Pophale) SiO2 
 PCOD9079967
Probable space group: P -1
;
_chemical_formula_sum "Si O2"
_cell_formula_units_Z 15
_cell_length_a 5.263563
_cell_length_b 7.110117
_cell_length_c 17.503519
_cell_angle_alpha 107.537051
_cell_angle_beta 95.038014
_cell_angle_gamma 72.649144
_cell_volume 596.191840
_symmetry_space_group_name_H-M "P -1"
_symmetry_group_IT_number 2
_symmetry_cell_setting 'triclinic'
loop_
_space_group_symop_operation_xyz
x,y,z
-x,-y,-z
loop_
_atom_site_type_symbol
_atom_site_label
_atom_site_fract_x
_atom_site_fract_y
_atom_site_fract_z
Si Si1 0.430416 0.782283 0.197793
Si Si2 0.970736 0.243529 0.033629
Si Si3 0.500000 0.500000 0.500000
Si Si4 0.961534 0.484139 0.798877
Si Si5 0.850467 0.783348 0.478934
Si Si6 0.690000 0.474981 0.638939
Si Si7 0.427108 0.932848 0.367257
Si Si8 0.529642 0.799896 0.029463
O O1 0.215633 0.655188 0.188253
O O2 0.387821 0.967389 0.280699
O O3 0.431490 0.850399 0.118744
O O4 0.730271 0.642506 0.205528
O O5 0.652760 0.330606 0.027829
O O6 0.153572 0.294423 0.978275
O O7 0.066776 0.320279 0.123813
O O8 0.000000 0.000000 0.000000
O O9 0.681845 0.629273 0.477335
O O10 0.491866 0.638097 0.600476
O O11 0.870761 0.535223 0.714588
O O12 0.702618 0.910979 0.417244
O O13 0.150679 0.654305 0.448418
O O14 0.805419 0.932330 0.568280
O O15 0.588391 0.303573 0.657155
O O16 0.500000 0.000000 0.000000
#
# Coordination Sequence:
#
# PCOD9079967 Si02
#       8
#     2   2   1   2   2   2   2   2
#     4  11  22  40  63  99 124 165 217 266 319 381
#     4  10  22  42  62  91 126 170 205 262 329 382
#     4  10  22  36  56  90 124 170 210 258 314 390
#     4  11  23  39  67  94 127 164 220 271 312 381
#     4  10  18  38  59  86 123 166 208 252 317 369
#     4  10  20  38  61  87 127 166 213 260 317 370
#     4   9  20  35  61  89 121 159 211 262 306 367
#     4  10  22  41  64  88 130 163 204 261 328 389
#
# _framework density 25.159686000000001
#
# number of rings (size 3 to 8) (size 9 to 14) (size 15 to 20)
#    0.000    1.867    1.333    2.400    0.000    3.200 
#    4.800    1.333    0.000    0.000    0.000    0.000 
#    0.000    0.000    0.000    0.000    0.000    0.000 
#
# Total GULP energy -83548.836033 kJ/mol
# GULP energy per Si atom -5569.922402 kJ/mol
# Density = 2.510242 g / cm^3
# Si number density = 25.159686 Si / 1000 Ang^3
#
#
#
# Elastic Constant Matrix: (Units=GPa)
#
#
# Indices 1 2 3 4 5 6 
#
# 1 153.9168 28.9283 28.1218 4.5150 -10.1103 29.8999
# 2 28.9283 69.7191 33.7834 -3.3028 -2.3051 -3.4620
# 3 28.1218 33.7834 228.9193 1.5717 23.3548 12.5207
# 4 4.5150 -3.3028 1.5717 41.1281 -0.0307 1.1373
# 5 -10.1103 -2.3051 23.3548 -0.0307 39.7441 -3.1329
# 6 29.8999 -3.4620 12.5207 1.1373 -3.1329 30.3155
#
#
#
# Elastic Compliance Matrix: (Units=1/GPa)
#
#
# Indices 1 2 3 4 5 6 
#
# 1 0.009271 -0.004248 -0.000140 -0.001093 0.001454 -0.009380
# 2 -0.004248 0.017987 -0.002782 0.001810 0.002194 0.007552
# 3 -0.000140 -0.002782 0.005308 -0.000338 -0.003531 -0.002724
# 4 -0.001093 0.001810 -0.000338 0.024578 0.000085 0.000511
# 5 0.001454 0.002194 -0.003531 0.000085 0.027982 0.003164
# 6 -0.009380 0.007552 -0.002724 0.000511 0.003164 0.044533
#
#
# Mechanical properties :
#
#
# Convention : Reuss Voigt Hill
#
# Bulk Modulus (GPa) = 54.86808 70.46912 62.66860
# Shear Modulus (GPa) = 33.31668 46.35231 39.83450
#
# Velocity S-wave (km/s) = 3.64292 4.29689 3.98335
# Velocity P-wave (km/s) = 6.28886 7.25860 6.79106
#
# Compressibility (1/GPa) = 0.01822553
#
# Stress axis : x y z
#
# Youngs Moduli (GPa) = 107.86645 55.59452 188.40886
#
# Poissons Ratio (x) = 0.23619 0.02632
# Poissons Ratio (y) = 0.45827 0.52414
# Poissons Ratio (z) = 0.01507 0.15466
#
# Static dielectric constant tensor:
#      x y z
#    x 1.957970 0.048900 -0.216460 
#    y 0.048900 1.917470 0.287270 
#    z -0.216460 0.287270 1.923630 
# 
# From -- ./inp_files/54359.got.cif
#   From: 2010.05.17/outbox.cif.g08.bks.cpg/sg2_28_cif.got.tgz:54359.got - 2010.06.03 11:33:40.
