data_PCOD9079725
_publ_section_title
;
Structure prediction by ZEFSAII (Michael W. Deem and Ramdas Pophale) SiO2 
 PCOD9079725
Probable space group: P -1
;
_chemical_formula_sum "Si O2"
_cell_formula_units_Z 15
_cell_length_a 7.234893
_cell_length_b 18.209499
_cell_length_c 5.541651
_cell_angle_alpha 73.831609
_cell_angle_beta 84.480356
_cell_angle_gamma 121.983596
_cell_volume 567.527624
_symmetry_space_group_name_H-M "P -1"
_symmetry_group_IT_number 2
_symmetry_cell_setting 'triclinic'
loop_
_space_group_symop_operation_xyz
x,y,z
-x,-y,-z
loop_
_atom_site_type_symbol
_atom_site_label
_atom_site_fract_x
_atom_site_fract_y
_atom_site_fract_z
Si Si1 0.638671 0.533348 0.202332
Si Si2 0.280942 0.151855 0.366940
Si Si3 0.679143 0.080015 0.147051
Si Si4 0.668535 0.216666 0.635724
Si Si5 0.191301 0.988772 0.212810
Si Si6 0.000000 0.500000 0.000000
Si Si7 0.646361 0.326927 0.922082
Si Si8 0.972881 0.272161 0.151192
O O1 0.500000 0.500000 0.500000
O O2 0.789708 0.646910 0.063222
O O3 0.500000 0.500000 0.000000
O O4 0.817941 0.506220 0.182032
O O5 0.474978 0.160711 0.506691
O O6 0.217900 0.082183 0.212071
O O7 0.406086 0.256594 0.153170
O O8 0.051730 0.101187 0.594378
O O9 0.657101 0.142985 0.887176
O O10 0.869627 0.164740 0.209540
O O11 0.775817 0.028612 0.050458
O O12 0.411101 0.004995 0.306195
O O13 0.624326 0.290267 0.686854
O O14 0.923155 0.276387 0.435174
O O15 0.792068 0.433938 0.884291
O O16 0.802381 0.294794 0.038147
#
# Coordination Sequence:
#
# PCOD9079725 Si02
#       8
#     2   2   2   2   2   1   2   2
#     4  11  27  48  75 113 147 190 246 302 369 443
#     4  10  20  38  54  86 123 158 208 275 323 397
#     4  10  20  37  57  84 117 168 209 261 336 400
#     4  10  18  37  64  84 121 168 211 265 342 399
#     4  10  20  37  55  82 125 159 211 266 323 403
#     4  10  24  48  76 102 146 190 238 298 370 438
#     4   9  19  40  62  91 122 174 213 270 351 413
#     4   9  20  40  62  88 133 168 212 283 340 409
#
# _framework density 26.430432
#
# number of rings (size 3 to 8) (size 9 to 14) (size 15 to 20)
#    0.000    2.133    4.000    0.000    5.600    2.667 
#    7.200    0.000    0.000    0.000    0.000    0.000 
#    0.000    0.000    0.000    0.000    0.000    0.000 
#
# Total GULP energy -83515.017469 kJ/mol
# GULP energy per Si atom -5567.667831 kJ/mol
# Density = 2.637028 g / cm^3
# Si number density = 26.430432 Si / 1000 Ang^3
#
#
#
# Elastic Constant Matrix: (Units=GPa)
#
#
# Indices 1 2 3 4 5 6 
#
# 1 88.7043 16.1209 38.0075 -15.5718 -2.7450 7.9337
# 2 16.1209 132.2226 71.4933 -7.5497 -21.6730 29.4050
# 3 38.0075 71.4933 111.1857 -24.4309 -45.4362 20.4014
# 4 -15.5718 -7.5497 -24.4309 46.2445 7.1738 -17.1209
# 5 -2.7450 -21.6730 -45.4362 7.1738 45.4842 -3.1742
# 6 7.9337 29.4050 20.4014 -17.1209 -3.1742 39.9416
#
#
#
# Elastic Compliance Matrix: (Units=1/GPa)
#
#
# Indices 1 2 3 4 5 6 
#
# 1 0.014841 0.001803 -0.008957 0.001912 -0.007457 0.000526
# 2 0.001803 0.014019 -0.010936 -0.005089 -0.003862 -0.007581
# 3 -0.008957 -0.010936 0.030395 0.007377 0.023401 -0.000673
# 4 0.001912 -0.005089 0.007377 0.029752 0.001236 0.012450
# 5 -0.007457 -0.003862 0.023401 0.001236 0.042617 -0.003711
# 6 0.000526 -0.007581 -0.000673 0.012450 -0.003711 0.035899
#
#
# Mechanical properties :
#
#
# Convention : Reuss Voigt Hill
#
# Bulk Modulus (GPa) = 43.33532 64.81734 54.07633
# Shear Modulus (GPa) = 23.65255 40.10011 31.87633
#
# Velocity S-wave (km/s) = 2.99473 3.89934 3.47659
# Velocity P-wave (km/s) = 5.32818 6.69703 6.05143
#
# Compressibility (1/GPa) = 0.02307587
#
# Stress axis : x y z
#
# Youngs Moduli (GPa) = 67.38044 71.33368 32.90037
#
# Poissons Ratio (x) = -0.12863 0.29467
# Poissons Ratio (y) = -0.12150 0.35980
# Poissons Ratio (z) = 0.60350 0.78010
#
# Static dielectric constant tensor:
#      x y z
#    x 2.152340 -0.063930 -0.009100 
#    y -0.063930 2.222760 0.061020 
#    z -0.009100 0.061020 2.279280 
# 
# From -- ./inp_files/53219.got.cif
#   From: 2010.05.17/outbox.cif.g08.bks.cpg/sg2_27_cif.got.tgz:53219.got - 2010.06.03 11:33:40.
