data_PCOD9079141
_publ_section_title
;
Structure prediction by ZEFSAII (Michael W. Deem and Ramdas Pophale) SiO2 
 PCOD9079141
Probable space group: P -1
;
_chemical_formula_sum "Si O2"
_cell_formula_units_Z 16
_cell_length_a 7.176468
_cell_length_b 16.701399
_cell_length_c 9.168577
_cell_angle_alpha 127.602610
_cell_angle_beta 47.493459
_cell_angle_gamma 110.817266
_cell_volume 638.777009
_symmetry_space_group_name_H-M "P -1"
_symmetry_group_IT_number 2
_symmetry_cell_setting 'triclinic'
loop_
_space_group_symop_operation_xyz
x,y,z
-x,-y,-z
loop_
_atom_site_type_symbol
_atom_site_label
_atom_site_fract_x
_atom_site_fract_y
_atom_site_fract_z
Si Si1 0.426383 0.237550 0.566620
Si Si2 0.491082 0.113791 0.684273
Si Si3 0.300296 0.704729 0.107740
Si Si4 0.312090 0.099201 0.050347
Si Si5 0.936334 0.556547 0.250947
Si Si6 0.693135 0.583211 0.957582
Si Si7 0.543503 0.296644 0.279749
Si Si8 0.819101 0.941912 0.631347
O O1 0.512075 0.172830 0.588618
O O2 0.320568 0.341773 0.813342
O O3 0.622317 0.258702 0.358114
O O4 0.220821 0.170146 0.530055
O O5 0.687908 0.175422 0.740720
O O6 0.257246 0.120618 0.932998
O O7 0.500000 0.000000 0.500000
O O8 0.101631 0.653383 0.255932
O O9 0.575927 0.648349 0.954351
O O10 0.270033 0.683780 0.928849
O O11 0.545498 0.009547 0.831242
O O12 0.402222 0.202949 0.184542
O O13 0.122029 0.062623 0.231784
O O14 0.651765 0.604741 0.479161
O O15 0.036421 0.483019 0.249227
O O16 0.000000 0.500000 0.000000
O O17 0.500000 0.500000 0.000000
O O18 0.000000 0.000000 0.500000
#
# Coordination Sequence:
#
# PCOD9079141 Si02
#       8
#     2   2   2   2   2   2   2   2
#     4  10  19  35  59  87 118 154 200 247 295 359
#     4  10  18  36  63  83 117 166 194 240 306 363
#     4   9  22  39  64  87 121 159 203 245 312 361
#     4   9  20  37  57  87 119 154 203 243 302 364
#     4  11  21  39  64  91 119 156 205 255 302 360
#     4   9  19  39  61  87 118 160 197 245 307 356
#     4  10  21  37  62  87 122 154 204 254 302 356
#     4  10  20  36  62  86 118 158 197 250 306 358
#
# _framework density 25.047861999999999
#
# number of rings (size 3 to 8) (size 9 to 14) (size 15 to 20)
#    0.000    2.250    2.500    0.000    0.000    5.000 
#    0.000    0.625    8.250    0.000    0.000    0.000 
#    0.000    0.000    0.000    0.000    0.000    0.000 
#
# Total GULP energy -89221.569540 kJ/mol
# GULP energy per Si atom -5576.348096 kJ/mol
# Density = 2.499085 g / cm^3
# Si number density = 25.047862 Si / 1000 Ang^3
#
#
#
# Elastic Constant Matrix: (Units=GPa)
#
#
# Indices 1 2 3 4 5 6 
#
# 1 52.8233 26.8499 27.2286 -2.8215 7.6877 -10.9259
# 2 26.8499 128.4414 46.8255 2.3561 7.5322 -12.5003
# 3 27.2286 46.8255 125.1708 -7.4824 15.4940 -4.4066
# 4 -2.8215 2.3561 -7.4824 67.9456 -10.9231 16.0426
# 5 7.6877 7.5322 15.4940 -10.9231 28.8910 -1.3185
# 6 -10.9259 -12.5003 -4.4066 16.0426 -1.3185 46.2560
#
#
#
# Elastic Compliance Matrix: (Units=1/GPa)
#
#
# Indices 1 2 3 4 5 6 
#
# 1 0.023714 -0.002994 -0.003458 -0.001022 -0.003847 0.004708
# 2 -0.002994 0.009745 -0.002928 -0.001379 -0.000598 0.002108
# 3 -0.003458 -0.002928 0.010292 0.000746 -0.003599 -0.000989
# 4 -0.001022 -0.001379 0.000746 0.017356 0.006502 -0.006377
# 5 -0.003847 -0.000598 -0.003599 0.006502 0.040066 -0.002526
# 6 0.004708 0.002108 -0.000989 -0.006377 -0.002526 0.025346
#
#
# Mechanical properties :
#
#
# Convention : Reuss Voigt Hill
#
# Bulk Modulus (GPa) = 40.01489 56.47150 48.24320
# Shear Modulus (GPa) = 32.55009 42.32063 37.43536
#
# Velocity S-wave (km/s) = 3.60879 4.11492 3.87014
# Velocity P-wave (km/s) = 5.77707 6.72095 6.26681
#
# Compressibility (1/GPa) = 0.02499070
#
# Stress axis : x y z
#
# Youngs Moduli (GPa) = 42.16855 102.62005 97.16344
#
# Poissons Ratio (x) = 0.30727 0.33596
# Poissons Ratio (y) = 0.12626 0.28451
# Poissons Ratio (z) = 0.14581 0.30049
#
# Static dielectric constant tensor:
#      x y z
#    x 2.167110 -0.043630 -0.048410 
#    y -0.043630 2.000220 -0.013640 
#    z -0.048410 -0.013640 2.007450 
# 
# From -- ./inp_files/215697.got.cif
#   From: 2010.05.17/outbox.cif.g08.bks.cpg/sg2_108_cif.got.tgz:215697.got - 2010.06.03 11:33:40.
