data_PCOD9079597
_publ_section_title
;
Structure prediction by ZEFSAII (Michael W. Deem and Ramdas Pophale) SiO2 
 PCOD9079597
Probable space group: P -1
;
_chemical_formula_sum "Si O2"
_cell_formula_units_Z 16
_cell_length_a 21.077221
_cell_length_b 9.152320
_cell_length_c 18.566754
_cell_angle_alpha 46.428689
_cell_angle_beta 160.485090
_cell_angle_gamma 132.435067
_cell_volume 862.177727
_symmetry_space_group_name_H-M "P -1"
_symmetry_group_IT_number 2
_symmetry_cell_setting 'triclinic'
loop_
_space_group_symop_operation_xyz
x,y,z
-x,-y,-z
loop_
_atom_site_type_symbol
_atom_site_label
_atom_site_fract_x
_atom_site_fract_y
_atom_site_fract_z
Si Si1 0.415756 0.237594 0.740183
Si Si2 0.806980 0.948831 0.857857
Si Si3 0.652170 0.837559 0.880493
Si Si4 0.707945 0.103497 0.985913
Si Si5 0.953904 0.049629 0.516472
Si Si6 0.129603 0.477488 0.937194
Si Si7 0.684701 0.324182 0.528006
Si Si8 0.738782 0.402257 0.123690
O O1 0.395026 0.463136 0.611173
O O2 0.212926 0.117625 0.578969
O O3 0.535012 0.121265 0.850215
O O4 0.536064 0.274720 0.930679
O O5 0.798989 0.920282 0.945653
O O6 0.687569 0.136855 0.649561
O O7 0.752411 0.714630 0.855527
O O8 0.000000 0.000000 0.000000
O O9 0.448376 0.771378 0.646751
O O10 0.713959 0.625730 0.049386
O O11 0.643545 0.003014 0.876205
O O12 0.813302 0.332510 0.014886
O O13 0.860439 0.970984 0.230708
O O14 0.870158 0.265880 0.354694
O O15 0.000000 0.000000 0.500000
O O16 0.176247 0.559657 0.878890
O O17 0.906982 0.395229 0.725962
#
# Coordination Sequence:
#
# PCOD9079597 Si02
#       8
#     2   2   2   2   2   2   2   2
#     4  10  20  36  59  87 114 148 203 232 280 343
#     4   9  19  37  64  83 108 156 201 226 275 361
#     4  10  22  38  55  87 124 141 188 248 293 326
#     4  11  23  38  56  88 125 147 183 252 290 326
#     4  12  20  36  64  84 111 159 201 229 280 347
#     4   9  17  37  59  87 112 151 199 229 280 346
#     4  10  18  37  62  82 109 158 194 230 279 352
#     4   9  19  35  60  82 111 157 195 234 271 351
#
# _framework density 18.557659000000001
#
# number of rings (size 3 to 8) (size 9 to 14) (size 15 to 20)
#    0.000    2.000    3.750    1.500    0.000    0.500 
#    6.750    5.625    0.000    0.000    0.000    0.000 
#    0.000    0.000    0.000    0.000    0.000    0.000 
#
# Total GULP energy -89091.398076 kJ/mol
# GULP energy per Si atom -5568.212380 kJ/mol
# Density = 1.851542 g / cm^3
# Si number density = 18.557659 Si / 1000 Ang^3
#
#
#
# Elastic Constant Matrix: (Units=GPa)
#
#
# Indices 1 2 3 4 5 6 
#
# 1 64.6393 46.4257 27.9083 14.6405 10.5038 -5.9745
# 2 46.4257 124.9007 44.1781 -16.5055 -6.1437 -5.3797
# 3 27.9083 44.1781 77.5028 -18.4060 9.3352 1.1095
# 4 14.6405 -16.5055 -18.4060 45.8810 9.9096 1.9471
# 5 10.5038 -6.1437 9.3352 9.9096 21.8865 4.5859
# 6 -5.9745 -5.3797 1.1095 1.9471 4.5859 31.3458
#
#
#
# Elastic Compliance Matrix: (Units=1/GPa)
#
#
# Indices 1 2 3 4 5 6 
#
# 1 0.033545 -0.011988 -0.008007 -0.016340 -0.010142 0.007118
# 2 -0.011988 0.015042 -0.004033 0.005641 0.009412 -0.001288
# 3 -0.008007 -0.004033 0.022691 0.012975 -0.012422 -0.002010
# 4 -0.016340 0.005641 0.012975 0.037015 -0.012215 -0.003118
# 5 -0.010142 0.009412 -0.012422 -0.012215 0.065862 -0.008755
# 6 0.007118 -0.001288 -0.002010 -0.003118 -0.008755 0.034584
#
#
# Mechanical properties :
#
#
# Convention : Reuss Voigt Hill
#
# Bulk Modulus (GPa) = 43.06244 56.00745 49.53494
# Shear Modulus (GPa) = 18.90117 29.72472 24.31294
#
# Velocity S-wave (km/s) = 3.19487 4.00653 3.62350
# Velocity P-wave (km/s) = 6.07163 7.18671 6.65257
#
# Compressibility (1/GPa) = 0.02322209
#
# Stress axis : x y z
#
# Youngs Moduli (GPa) = 29.81108 66.48200 44.07013
#
# Poissons Ratio (x) = 0.79700 0.35285
# Poissons Ratio (y) = 0.35738 0.17773
# Poissons Ratio (z) = 0.23869 0.26811
#
# Static dielectric constant tensor:
#      x y z
#    x 1.621850 0.018350 0.036290 
#    y 0.018350 1.675070 -0.019110 
#    z 0.036290 -0.019110 1.704610 
# 
# From -- ./inp_files/348877.got.cif
#   From: 2010.05.17/outbox.cif.g08.bks.cpg/sg2_175_cif.got.tgz:348877.got - 2010.06.03 11:33:40.
