data_PCOD9079451
_publ_section_title
;
Structure prediction by ZEFSAII (Michael W. Deem and Ramdas Pophale) SiO2 
 PCOD9079451
Probable space group: P -1
;
_chemical_formula_sum "Si O2"
_cell_formula_units_Z 10
_cell_length_a 12.199137
_cell_length_b 5.565851
_cell_length_c 8.654278
_cell_angle_alpha 114.810749
_cell_angle_beta 51.204616
_cell_angle_gamma 123.627560
_cell_volume 378.941420
_symmetry_space_group_name_H-M "P -1"
_symmetry_group_IT_number 2
_symmetry_cell_setting 'triclinic'
loop_
_space_group_symop_operation_xyz
x,y,z
-x,-y,-z
loop_
_atom_site_type_symbol
_atom_site_label
_atom_site_fract_x
_atom_site_fract_y
_atom_site_fract_z
Si Si1 0.735169 0.768873 0.070610
Si Si2 0.866236 0.752504 0.642768
Si Si3 0.411384 0.756014 0.702405
Si Si4 0.436036 0.219111 0.033749
Si Si5 0.261488 0.829356 0.566245
O O1 0.672977 0.516375 0.191225
O O2 0.809036 0.037842 0.205180
O O3 0.870504 0.793611 0.835499
O O4 0.591142 0.522722 0.006640
O O5 0.839547 0.429169 0.525747
O O6 0.713235 0.802338 0.746155
O O7 0.000000 0.000000 0.500000
O O8 0.356889 0.698570 0.558739
O O9 0.596324 0.912567 0.574430
O O10 0.366404 0.020630 0.875452
O O11 0.500000 0.000000 0.000000
#
# Coordination Sequence:
#
# PCOD9079451 Si02
#       5
#     2   2   2   2   2
#     4   9  21  36  57  86 113 144 188 232 282 330
#     4  10  22  40  57  80 118 155 184 225 281 334
#     4  10  18  37  58  89 113 139 187 242 279 326
#     4   9  18  35  58  82 112 145 184 233 274 321
#     4  10  20  35  60  83 115 146 182 235 284 326
#
# _framework density 26.389301
#
# number of rings (size 3 to 8) (size 9 to 14) (size 15 to 20)
#    1.200    1.200    2.000    0.600    0.000    4.000 
#    3.600    2.000    0.000    0.000    0.000    0.000 
#    0.000    0.000    0.000    0.000    0.000    0.000 
#
# Total GULP energy -55700.750490 kJ/mol
# GULP energy per Si atom -5570.075049 kJ/mol
# Density = 2.632924 g / cm^3
# Si number density = 26.389301 Si / 1000 Ang^3
#
#
#
# Elastic Constant Matrix: (Units=GPa)
#
#
# Indices 1 2 3 4 5 6 
#
# 1 89.3098 30.4249 35.6426 -7.5262 17.8541 -7.9479
# 2 30.4249 191.7213 113.3645 16.4116 -4.6500 -5.7639
# 3 35.6426 113.3645 226.3291 9.8694 14.1100 17.6520
# 4 -7.5262 16.4116 9.8694 72.2132 4.3702 14.1410
# 5 17.8541 -4.6500 14.1100 4.3702 38.5058 -8.0554
# 6 -7.9479 -5.7639 17.6520 14.1410 -8.0554 36.9908
#
#
#
# Elastic Compliance Matrix: (Units=1/GPa)
#
#
# Indices 1 2 3 4 5 6 
#
# 1 0.013773 -0.001922 -0.000979 0.002211 -0.006321 0.000905
# 2 -0.001922 0.008891 -0.004776 -0.002964 0.005206 0.005518
# 3 -0.000979 -0.004776 0.007651 0.001394 -0.004358 -0.006087
# 4 0.002211 -0.002964 0.001394 0.016488 -0.005469 -0.008146
# 5 -0.006321 0.005206 -0.004358 -0.005469 0.034057 0.011040
# 6 0.000905 0.005518 -0.006087 -0.008146 0.011040 0.036511
#
#
# Mechanical properties :
#
#
# Convention : Reuss Voigt Hill
#
# Bulk Modulus (GPa) = 66.84744 96.24713 81.54728
# Shear Modulus (GPa) = 36.30751 51.40383 43.85567
#
# Velocity S-wave (km/s) = 3.71326 4.41829 4.08103
# Velocity P-wave (km/s) = 6.61594 7.91073 7.29213
#
# Compressibility (1/GPa) = 0.01495944
#
# Stress axis : x y z
#
# Youngs Moduli (GPa) = 72.60504 112.47176 130.70752
#
# Poissons Ratio (x) = 0.21618 0.12799
# Poissons Ratio (y) = 0.13955 0.62432
# Poissons Ratio (z) = 0.07110 0.53721
#
# Static dielectric constant tensor:
#      x y z
#    x 2.283990 -0.070940 0.035490 
#    y -0.070940 2.270320 0.098500 
#    z 0.035490 0.098500 2.038430 
# 
# From -- ./inp_files/286518.got.cif
#   From: 2010.05.17/outbox.cif.g08.bks.cpg/sg2_144_cif.got.tgz:286518.got - 2010.06.03 11:33:40.
