data_PCOD9079621
_publ_section_title
;
Structure prediction by ZEFSAII (Michael W. Deem and Ramdas Pophale) SiO2 
 PCOD9079621
Probable space group: P -1
;
_chemical_formula_sum "Si O2"
_cell_formula_units_Z 16
_cell_length_a 8.638221
_cell_length_b 5.476885
_cell_length_c 15.726575
_cell_angle_alpha 91.026663
_cell_angle_beta 109.234249
_cell_angle_gamma 61.923319
_cell_volume 611.374169
_symmetry_space_group_name_H-M "P -1"
_symmetry_group_IT_number 2
_symmetry_cell_setting 'triclinic'
loop_
_space_group_symop_operation_xyz
x,y,z
-x,-y,-z
loop_
_atom_site_type_symbol
_atom_site_label
_atom_site_fract_x
_atom_site_fract_y
_atom_site_fract_z
Si Si1 0.274875 0.633318 0.473935
Si Si2 0.432047 0.977037 0.805044
Si Si3 0.410542 0.291421 0.647507
Si Si4 0.307347 0.692052 0.914372
Si Si5 0.241667 0.146295 0.376980
Si Si6 0.721316 0.403776 0.785813
Si Si7 0.233958 0.003224 0.062893
Si Si8 0.987332 0.586150 0.826658
O O1 0.500000 0.500000 0.500000
O O2 0.262430 0.559094 0.569686
O O3 0.197468 0.950471 0.430158
O O4 0.206374 0.443437 0.409246
O O5 0.334310 0.828854 0.835066
O O6 0.595503 0.735818 0.775659
O O7 0.333082 0.219797 0.718364
O O8 0.561378 0.021780 0.897111
O O9 0.531735 0.025440 0.605550
O O10 0.584923 0.335753 0.706614
O O11 0.199205 0.522171 0.871278
O O12 0.500000 0.500000 0.000000
O O13 0.189467 0.946716 0.960830
O O14 0.116035 0.202316 0.269065
O O15 0.744445 0.254468 0.878357
O O16 0.923283 0.357038 0.795224
O O17 0.094555 0.274461 0.094310
#
# Coordination Sequence:
#
# PCOD9079621 Si02
#       8
#     2   2   2   2   2   2   2   2
#     4  10  21  31  59  99 133 160 210 277 319 382
#     4  10  21  38  62  83 130 164 206 262 321 392
#     4  10  19  34  62  93 126 165 206 260 325 375
#     4  12  25  43  60  92 125 164 220 266 324 389
#     4  11  20  35  57  96 132 166 214 269 328 382
#     4  10  18  37  62  87 123 165 209 254 326 380
#     4  10  21  42  62  87 118 169 209 269 320 387
#     4  11  23  39  64  88 126 171 207 271 326 384
#
# _framework density 26.170555
#
# number of rings (size 3 to 8) (size 9 to 14) (size 15 to 20)
#    0.000    1.500    5.000    3.750    1.750    0.500 
#    4.500    0.000    0.000    1.500    0.000    0.000 
#    0.000    0.000    0.000    0.000    0.000    0.125 
#
# Total GULP energy -89412.373319 kJ/mol
# GULP energy per Si atom -5588.273332 kJ/mol
# Density = 2.611099 g / cm^3
# Si number density = 26.170555 Si / 1000 Ang^3
#
#
#
# Elastic Constant Matrix: (Units=GPa)
#
#
# Indices 1 2 3 4 5 6 
#
# 1 93.5894 33.8096 44.4666 2.9267 8.4445 25.9138
# 2 33.8096 86.1930 39.5555 -0.1499 2.4423 28.6044
# 3 44.4666 39.5555 135.3625 -11.2438 -9.8525 13.9638
# 4 2.9267 -0.1499 -11.2438 38.5127 12.2944 3.0462
# 5 8.4445 2.4423 -9.8525 12.2944 29.6995 -5.6201
# 6 25.9138 28.6044 13.9638 3.0462 -5.6201 46.1961
#
#
#
# Elastic Compliance Matrix: (Units=1/GPa)
#
#
# Indices 1 2 3 4 5 6 
#
# 1 0.016244 -0.001442 -0.004632 0.000485 -0.007712 -0.007790
# 2 -0.001442 0.017120 -0.003798 0.001247 -0.004530 -0.009277
# 3 -0.004632 -0.003798 0.010263 0.001616 0.004806 0.002326
# 4 0.000485 0.001247 0.001616 0.031160 -0.013595 -0.005241
# 5 -0.007712 -0.004530 0.004806 -0.013595 0.045756 0.012141
# 6 -0.007790 -0.009277 0.002326 -0.005241 0.012141 0.032880
#
#
# Mechanical properties :
#
#
# Convention : Reuss Voigt Hill
#
# Bulk Modulus (GPa) = 41.87131 61.20093 51.53612
# Shear Modulus (GPa) = 27.60484 36.03587 31.82035
#
# Velocity S-wave (km/s) = 3.25130 3.71477 3.49074
# Velocity P-wave (km/s) = 5.48896 6.46804 5.99851
#
# Compressibility (1/GPa) = 0.02388270
#
# Stress axis : x y z
#
# Youngs Moduli (GPa) = 61.56036 58.41259 97.43509
#
# Poissons Ratio (x) = 0.08420 0.45136
# Poissons Ratio (y) = 0.08874 0.37008
# Poissons Ratio (z) = 0.28517 0.22187
#
# Static dielectric constant tensor:
#      x y z
#    x 2.086210 -0.060850 -0.011090 
#    y -0.060850 2.206680 0.044270 
#    z -0.011090 0.044270 2.082890 
# 
# From -- ./inp_files/552717.got.cif
#   From: 2010.05.17/outbox.cif.g08.bks.cpg/sg2_277_cif.got.tgz:552717.got - 2010.06.03 11:33:40.
