data_PCOD9079510
_publ_section_title
;
Structure prediction by ZEFSAII (Michael W. Deem and Ramdas Pophale) SiO2 
 PCOD9079510
Probable space group: P -1
;
_chemical_formula_sum "Si O2"
_cell_formula_units_Z 14
_cell_length_a 8.295004
_cell_length_b 10.742421
_cell_length_c 17.113646
_cell_angle_alpha 43.586008
_cell_angle_beta 76.518536
_cell_angle_gamma 42.563511
_cell_volume 544.003693
_symmetry_space_group_name_H-M "P -1"
_symmetry_group_IT_number 2
_symmetry_cell_setting 'triclinic'
loop_
_space_group_symop_operation_xyz
x,y,z
-x,-y,-z
loop_
_atom_site_type_symbol
_atom_site_label
_atom_site_fract_x
_atom_site_fract_y
_atom_site_fract_z
Si Si1 0.171092 0.515287 0.401896
Si Si2 0.638745 0.309165 0.989408
Si Si3 0.239826 0.515011 0.673185
Si Si4 0.819635 0.810686 0.723959
Si Si5 0.489688 0.960274 0.821368
Si Si6 0.637058 0.419996 0.772928
Si Si7 0.124317 0.841247 0.389266
O O1 0.312927 0.434664 0.338347
O O2 0.055947 0.795863 0.338021
O O3 0.851834 0.708900 0.332084
O O4 0.467408 0.164676 0.572219
O O5 0.525927 0.518033 0.830074
O O6 0.500000 0.500000 0.000000
O O7 0.544295 0.184420 0.055402
O O8 0.012763 0.983804 0.090150
O O9 0.501865 0.136664 0.785191
O O10 0.409043 0.517883 0.699452
O O11 0.058276 0.778688 0.502016
O O12 0.030892 0.596322 0.721228
O O13 0.769303 0.703153 0.843794
O O14 0.939503 0.887355 0.714889
O O15 0.500000 0.500000 0.500000
#
# Coordination Sequence:
#
# PCOD9079510 Si02
#       7
#     2   2   2   2   2   2   2
#     4  10  20  40  63  91 133 171 198 253 302 364
#     4  10  25  48  69  87 114 164 218 262 315 365
#     4  12  23  38  62  98 131 164 201 251 308 373
#     4  11  22  37  61  97 131 165 205 237 311 381
#     4  11  24  41  60  91 132 163 205 264 308 352
#     4  10  22  43  68  91 121 160 214 259 304 361
#     4  10  18  37  60  87 135 167 201 238 296 371
#
# _framework density 25.735116999999999
#
# number of rings (size 3 to 8) (size 9 to 14) (size 15 to 20)
#    0.000    1.429    5.714    0.857    0.000    8.000 
#    0.000    1.429    0.000    0.000    0.000    0.000 
#    0.000    0.000    0.000    0.000    0.000    0.000 
#
# Total GULP energy -78277.316931 kJ/mol
# GULP energy per Si atom -5591.236924 kJ/mol
# Density = 2.567654 g / cm^3
# Si number density = 25.735117 Si / 1000 Ang^3
#
#
#
# Elastic Constant Matrix: (Units=GPa)
#
#
# Indices 1 2 3 4 5 6 
#
# 1 38.5830 25.1550 3.3001 14.9816 -12.9104 -12.4210
# 2 25.1550 165.7749 28.5547 45.3436 -10.1215 -28.2220
# 3 3.3001 28.5547 68.6842 19.6835 0.1134 -3.6487
# 4 14.9816 45.3436 19.6835 38.1582 -5.8718 -8.8253
# 5 -12.9104 -10.1215 0.1134 -5.8718 21.3044 2.7378
# 6 -12.4210 -28.2220 -3.6487 -8.8253 2.7378 48.0474
#
#
#
# Elastic Compliance Matrix: (Units=1/GPa)
#
#
# Indices 1 2 3 4 5 6 
#
# 1 0.039202 -0.001071 0.001913 -0.010583 0.019472 0.006597
# 2 -0.001071 0.009634 -0.001031 -0.009555 0.000850 0.003500
# 3 0.001913 -0.001031 0.017424 -0.008867 -0.001827 -0.000312
# 4 -0.010583 -0.009555 -0.008867 0.046455 0.001976 -0.000601
# 5 0.019472 0.000850 -0.001827 0.001976 0.059392 0.002373
# 6 0.006597 0.003500 -0.000312 -0.000601 0.002373 0.024305
#
#
# Mechanical properties :
#
#
# Convention : Reuss Voigt Hill
#
# Bulk Modulus (GPa) = 15.17896 43.00685 29.09290
# Shear Modulus (GPa) = 22.85719 35.90414 29.38067
#
# Velocity S-wave (km/s) = 2.98345 3.73921 3.38251
# Velocity P-wave (km/s) = 4.21651 5.94894 5.15601
#
# Compressibility (1/GPa) = 0.06588069
#
# Stress axis : x y z
#
# Youngs Moduli (GPa) = 25.50906 103.80224 57.39321
#
# Poissons Ratio (x) = 0.11122 -0.10979
# Poissons Ratio (y) = 0.02733 0.05916
# Poissons Ratio (z) = -0.04880 0.10700
#
# Static dielectric constant tensor:
#      x y z
#    x 2.000830 0.012590 0.007540 
#    y 0.012590 2.087840 -0.008090 
#    z 0.007540 -0.008090 2.105180 
# 
# From -- ./inp_files/259792.got.cif
#   From: 2010.05.17/outbox.cif.g08.bks.cpg/sg2_130_cif.got.tgz:259792.got - 2010.06.03 11:33:40.
