data_PCOD9079133
_publ_section_title
;
Structure prediction by ZEFSAII (Michael W. Deem and Ramdas Pophale) SiO2 
 PCOD9079133
Probable space group: P -1
;
_chemical_formula_sum "Si O2"
_cell_formula_units_Z 16
_cell_length_a 5.179594
_cell_length_b 23.893875
_cell_length_c 14.525722
_cell_angle_alpha 160.432305
_cell_angle_beta 85.098287
_cell_angle_gamma 91.900093
_cell_volume 593.817015
_symmetry_space_group_name_H-M "P -1"
_symmetry_group_IT_number 2
_symmetry_cell_setting 'triclinic'
loop_
_space_group_symop_operation_xyz
x,y,z
-x,-y,-z
loop_
_atom_site_type_symbol
_atom_site_label
_atom_site_fract_x
_atom_site_fract_y
_atom_site_fract_z
Si Si1 0.850503 0.169071 0.218602
Si Si2 0.118769 0.739409 0.451062
Si Si3 0.401429 0.813264 0.015439
Si Si4 0.421885 0.052719 0.232313
Si Si5 0.844414 0.419297 0.459796
Si Si6 0.134142 0.089709 0.738240
Si Si7 0.767988 0.305699 0.825962
Si Si8 0.773665 0.654382 0.002410
O O1 0.802098 0.302326 0.509925
O O2 0.977269 0.257483 0.266309
O O3 0.597330 0.098057 0.073682
O O4 0.000000 0.000000 0.000000
O O5 0.300611 0.890229 0.669962
O O6 0.183578 0.648930 0.211568
O O7 0.806127 0.795634 0.550430
O O8 0.683160 0.829303 0.069662
O O9 0.165994 0.819843 0.105286
O O10 0.323080 0.981424 0.218999
O O11 0.383835 0.658626 0.707866
O O12 0.000000 0.500000 0.500000
O O13 0.757138 0.549527 0.746302
O O14 0.234923 0.150456 0.731571
O O15 0.167746 0.894402 0.461936
O O16 0.468606 0.352697 0.934837
O O17 0.958747 0.389694 0.017586
#
# Coordination Sequence:
#
# PCOD9079133 Si02
#       8
#     2   2   2   2   2   2   2   2
#     4   9  22  41  73 112 139 185 249 302 357 434
#     4  11  20  39  67  96 136 177 231 299 353 403
#     4  11  21  38  69 102 133 187 234 296 371 424
#     4  10  18  36  63 103 138 165 226 305 361 403
#     4  11  25  48  74 106 156 190 234 304 386 440
#     4  12  22  41  67  99 141 184 251 297 354 424
#     4  12  24  43  66 100 144 193 246 298 351 427
#     4  12  27  43  64 101 144 196 244 289 362 449
#
# _framework density 26.944327999999999
#
# number of rings (size 3 to 8) (size 9 to 14) (size 15 to 20)
#    0.000    1.000    3.750    3.375    0.000    1.500 
#    0.000    6.250    0.000    0.000    0.000    0.000 
#    0.000    0.000    0.000    0.000    0.000    0.000 
#
# Total GULP energy -89443.102414 kJ/mol
# GULP energy per Si atom -5590.193901 kJ/mol
# Density = 2.688300 g / cm^3
# Si number density = 26.944328 Si / 1000 Ang^3
#
#
#
# Elastic Constant Matrix: (Units=GPa)
#
#
# Indices 1 2 3 4 5 6 
#
# 1 68.1189 19.3121 29.0461 4.2437 8.8371 17.7053
# 2 19.3121 152.9958 39.5005 -13.3437 -2.5272 18.3263
# 3 29.0461 39.5005 102.5875 -9.2350 21.9491 -0.8718
# 4 4.2437 -13.3437 -9.2350 46.9601 -6.7536 -4.8401
# 5 8.8371 -2.5272 21.9491 -6.7536 49.5221 -2.9582
# 6 17.7053 18.3263 -0.8718 -4.8401 -2.9582 39.1656
#
#
#
# Elastic Compliance Matrix: (Units=1/GPa)
#
#
# Indices 1 2 3 4 5 6 
#
# 1 0.020304 -0.000363 -0.005585 -0.004390 -0.002354 -0.009854
# 2 -0.000363 0.007995 -0.003276 0.001599 0.001945 -0.003306
# 3 -0.005585 -0.003276 0.013831 0.002047 -0.004767 0.004258
# 4 -0.004390 0.001599 0.002047 0.023500 0.003428 0.004445
# 5 -0.002354 0.001945 -0.004767 0.003428 0.023427 0.002241
# 6 -0.009854 -0.003306 0.004258 0.004445 0.002241 0.032347
#
#
# Mechanical properties :
#
#
# Convention : Reuss Voigt Hill
#
# Bulk Modulus (GPa) = 42.22304 55.49106 48.85705
# Shear Modulus (GPa) = 33.84205 42.85248 38.34726
#
# Velocity S-wave (km/s) = 3.54785 3.99232 3.77663
# Velocity P-wave (km/s) = 5.69978 6.47232 6.09829
#
# Compressibility (1/GPa) = 0.02368375
#
# Stress axis : x y z
#
# Youngs Moduli (GPa) = 49.25057 125.07293 72.30203
#
# Poissons Ratio (x) = 0.04535 0.40378
# Poissons Ratio (y) = 0.01786 0.23688
# Poissons Ratio (z) = 0.27504 0.40977
#
# Static dielectric constant tensor:
#      x y z
#    x 2.032550 -0.008100 -0.029780 
#    y -0.008100 2.138350 0.016880 
#    z -0.029780 0.016880 2.239030 
# 
# From -- ./inp_files/486171.got.cif
#   From: 2010.05.17/outbox.cif.g08.bks.cpg/sg2_244_cif.got.tgz:486171.got - 2010.06.03 11:33:40.
