data_PCOD9079443
_publ_section_title
;
Structure prediction by ZEFSAII (Michael W. Deem and Ramdas Pophale) SiO2 
 PCOD9079443
Probable space group: P -1
;
_chemical_formula_sum "Si O2"
_cell_formula_units_Z 16
_cell_length_a 12.940938
_cell_length_b 7.629670
_cell_length_c 13.978562
_cell_angle_alpha 68.009021
_cell_angle_beta 66.016284
_cell_angle_gamma 36.500458
_cell_volume 747.190276
_symmetry_space_group_name_H-M "P -1"
_symmetry_group_IT_number 2
_symmetry_cell_setting 'triclinic'
loop_
_space_group_symop_operation_xyz
x,y,z
-x,-y,-z
loop_
_atom_site_type_symbol
_atom_site_label
_atom_site_fract_x
_atom_site_fract_y
_atom_site_fract_z
Si Si1 0.523464 0.833207 0.671288
Si Si2 0.020087 0.186996 0.216605
Si Si3 0.384656 0.716648 0.259292
Si Si4 0.747105 0.842433 0.123762
Si Si5 0.160545 0.860252 0.029024
Si Si6 0.316433 0.612620 0.621042
Si Si7 0.387143 0.931940 0.499898
Si Si8 0.499077 0.294956 0.984928
O O1 0.609923 0.517009 0.708860
O O2 0.397402 0.985251 0.594211
O O3 0.399320 0.022104 0.770188
O O4 0.654806 0.838256 0.599828
O O5 0.919486 0.498720 0.147850
O O6 0.859783 0.263067 0.301357
O O7 0.174664 0.033731 0.267016
O O8 0.115422 0.970013 0.132839
O O9 0.521825 0.586352 0.320531
O O10 0.469320 0.704222 0.136802
O O11 0.642108 0.965466 0.037908
O O12 0.788578 0.011522 0.073027
O O13 0.298945 0.509482 0.041554
O O14 0.000000 0.000000 0.000000
O O15 0.279311 0.876340 0.549818
O O16 0.413251 0.384696 0.543205
O O17 0.500000 0.500000 0.000000
#
# Coordination Sequence:
#
# PCOD9079443 Si02
#       8
#     2   2   2   2   2   2   2   2
#     4  10  18  38  69  87 113 172 200 249 313 362
#     4  12  23  39  62  93 127 163 198 255 308 358
#     4  11  21  39  65  87 126 164 202 245 310 363
#     4  11  21  38  62  89 128 158 205 243 304 370
#     4  11  22  37  59  91 125 163 203 248 294 367
#     4  10  22  41  63  93 121 157 206 262 304 359
#     4   9  20  39  66  86 118 160 212 251 310 362
#     4  10  18  37  58  84 123 167 197 232 295 375
#
# _framework density 21.413554000000001
#
# number of rings (size 3 to 8) (size 9 to 14) (size 15 to 20)
#    0.000    1.500    6.250    1.125    1.750    0.000 
#    2.250    7.500    0.000    0.000    0.000    0.000 
#    0.000    0.000    0.000    0.000    0.000    0.000 
#
# Total GULP energy -89130.823204 kJ/mol
# GULP energy per Si atom -5570.676450 kJ/mol
# Density = 2.136482 g / cm^3
# Si number density = 21.413554 Si / 1000 Ang^3
#
#
#
# Elastic Constant Matrix: (Units=GPa)
#
#
# Indices 1 2 3 4 5 6 
#
# 1 46.2465 18.2815 13.4868 -0.7749 -4.8362 -9.3649
# 2 18.2815 94.6631 12.1031 -13.8499 -8.1270 -16.2201
# 3 13.4868 12.1031 107.9334 4.3135 -10.2011 0.6834
# 4 -0.7749 -13.8499 4.3135 16.4113 1.9115 -3.6984
# 5 -4.8362 -8.1270 -10.2011 1.9115 29.2201 -2.9918
# 6 -9.3649 -16.2201 0.6834 -3.6984 -2.9918 33.3666
#
#
#
# Elastic Compliance Matrix: (Units=1/GPa)
#
#
# Indices 1 2 3 4 5 6 
#
# 1 0.025139 -0.003280 -0.002533 0.000043 0.002953 0.005783
# 2 -0.003280 0.015268 -0.001658 0.014714 0.003026 0.008437
# 3 -0.002533 -0.001658 0.010246 -0.004997 0.002816 -0.002028
# 4 0.000043 0.014714 -0.004997 0.078373 -0.001149 0.015851
# 5 0.002953 0.003026 0.002816 -0.001149 0.037170 0.005448
# 6 0.005783 0.008437 -0.002028 0.015851 0.005448 0.037982
#
#
# Mechanical properties :
#
#
# Convention : Reuss Voigt Hill
#
# Bulk Modulus (GPa) = 28.00219 37.39841 32.70030
# Shear Modulus (GPa) = 21.64297 29.46437 25.55367
#
# Velocity S-wave (km/s) = 3.18262 3.71343 3.45822
# Velocity P-wave (km/s) = 5.15855 5.99073 5.59015
#
# Compressibility (1/GPa) = 0.03571150
#
# Stress axis : x y z
#
# Youngs Moduli (GPa) = 39.77858 65.49844 97.59915
#
# Poissons Ratio (x) = 0.21486 0.24718
# Poissons Ratio (y) = 0.13049 0.16178
# Poissons Ratio (z) = 0.10074 0.10857
#
# Static dielectric constant tensor:
#      x y z
#    x 1.889380 -0.012870 -0.020910 
#    y -0.012870 1.831990 -0.010890 
#    z -0.020910 -0.010890 1.813720 
# 
# From -- ./inp_files/200146.got.cif
#   From: 2010.05.17/outbox.cif.g08.bks.cpg/sg2_101_cif.got.tgz:200146.got - 2010.06.03 11:33:40.
