data_PCOD9079679
_publ_section_title
;
Structure prediction by ZEFSAII (Michael W. Deem and Ramdas Pophale) SiO2 
 PCOD9079679
Probable space group: P -1
;
_chemical_formula_sum "Si O2"
_cell_formula_units_Z 12
_cell_length_a 12.557110
_cell_length_b 7.842932
_cell_length_c 8.968034
_cell_angle_alpha 117.081997
_cell_angle_beta 64.735233
_cell_angle_gamma 142.883925
_cell_volume 471.168858
_symmetry_space_group_name_H-M "P -1"
_symmetry_group_IT_number 2
_symmetry_cell_setting 'triclinic'
loop_
_space_group_symop_operation_xyz
x,y,z
-x,-y,-z
loop_
_atom_site_type_symbol
_atom_site_label
_atom_site_fract_x
_atom_site_fract_y
_atom_site_fract_z
Si Si1 0.622254 0.949376 0.135521
Si Si2 0.843423 0.252140 0.848435
Si Si3 0.255089 0.351111 0.063812
Si Si4 0.114505 0.723294 0.655836
Si Si5 0.706611 0.797159 0.496869
Si Si6 0.922063 0.800505 0.203579
O O1 0.410590 0.677816 0.160044
O O2 0.725837 0.174045 0.299607
O O3 0.682153 0.796535 0.037098
O O4 0.693093 0.120310 0.005591
O O5 0.957594 0.544351 0.802220
O O6 0.989102 0.296045 0.860727
O O7 0.753703 0.994433 0.682331
O O8 0.205771 0.344290 0.921225
O O9 0.086712 0.137679 0.189759
O O10 0.000000 0.500000 0.500000
O O11 0.227728 0.021268 0.621378
O O12 0.500000 0.500000 0.500000
O O13 0.824700 0.749758 0.392112
#
# Coordination Sequence:
#
# PCOD9079679 Si02
#       6
#     2   2   2   2   2   2
#     4  10  18  37  63  87 116 153 207 230 287 354
#     4  10  22  36  60  89 118 156 190 242 302 342
#     4   9  19  32  62  92 113 152 197 253 276 339
#     4  10  22  39  59  87 121 158 190 240 298 350
#     4  11  22  38  63  85 115 157 204 240 282 354
#     4  10  19  36  57  90 121 149 196 243 300 332
#
# _framework density 25.468575000000001
#
# number of rings (size 3 to 8) (size 9 to 14) (size 15 to 20)
#    0.000    2.000    1.667    2.000    4.667    0.000 
#    0.000    1.667    7.333    0.000    0.000    0.000 
#    0.000    0.000    0.000    0.000    0.000    0.000 
#
# Total GULP energy -67042.491546 kJ/mol
# GULP energy per Si atom -5586.874295 kJ/mol
# Density = 2.541061 g / cm^3
# Si number density = 25.468575 Si / 1000 Ang^3
#
#
#
# Elastic Constant Matrix: (Units=GPa)
#
#
# Indices 1 2 3 4 5 6 
#
# 1 56.6459 53.5886 25.2394 -10.0703 7.1977 0.1419
# 2 53.5886 207.0212 55.2457 0.2495 13.0420 22.7591
# 3 25.2394 55.2457 124.8656 5.8827 22.7922 16.0827
# 4 -10.0703 0.2495 5.8827 31.6698 5.7343 14.9313
# 5 7.1977 13.0420 22.7922 5.7343 30.4543 0.1296
# 6 0.1419 22.7591 16.0827 14.9313 0.1296 56.7918
#
#
#
# Elastic Compliance Matrix: (Units=1/GPa)
#
#
# Indices 1 2 3 4 5 6 
#
# 1 0.026653 -0.006071 -0.002581 0.009334 -0.003528 0.000651
# 2 -0.006071 0.007077 -0.001528 -0.000590 -0.000332 -0.002232
# 3 -0.002581 -0.001528 0.010740 -0.000527 -0.006665 -0.002269
# 4 0.009334 -0.000590 -0.000527 0.041261 -0.009283 -0.010464
# 5 -0.003528 -0.000332 -0.006665 -0.009283 0.040529 0.004377
# 6 0.000651 -0.002232 -0.002269 -0.010464 0.004377 0.021885
#
#
# Mechanical properties :
#
#
# Convention : Reuss Voigt Hill
#
# Bulk Modulus (GPa) = 41.47756 72.96445 57.22100
# Shear Modulus (GPa) = 28.32198 40.74712 34.53455
#
# Velocity S-wave (km/s) = 3.33834 4.00421 3.68634
# Velocity P-wave (km/s) = 5.58395 7.07738 6.37455
#
# Compressibility (1/GPa) = 0.02410942
#
# Stress axis : x y z
#
# Youngs Moduli (GPa) = 37.51922 141.30792 93.11037
#
# Poissons Ratio (x) = 0.85790 0.24032
# Poissons Ratio (y) = 0.22778 0.14228
# Poissons Ratio (z) = 0.09684 0.21593
#
# Static dielectric constant tensor:
#      x y z
#    x 2.198390 -0.100850 -0.071910 
#    y -0.100850 2.043300 0.106100 
#    z -0.071910 0.106100 2.047450 
# 
# From -- ./inp_files/147305.got.cif
#   From: 2010.05.17/outbox.cif.g08.bks.cpg/sg2_74_cif.got.tgz:147305.got - 2010.06.03 11:33:40.
