data_PCOD9079537
_publ_section_title
;
Structure prediction by ZEFSAII (Michael W. Deem and Ramdas Pophale) SiO2 
 PCOD9079537
Probable space group: P -1
;
_chemical_formula_sum "Si O2"
_cell_formula_units_Z 16
_cell_length_a 11.401963
_cell_length_b 9.154578
_cell_length_c 16.046492
_cell_angle_alpha 149.779091
_cell_angle_beta 102.891954
_cell_angle_gamma 86.643897
_cell_volume 790.442254
_symmetry_space_group_name_H-M "P -1"
_symmetry_group_IT_number 2
_symmetry_cell_setting 'triclinic'
loop_
_space_group_symop_operation_xyz
x,y,z
-x,-y,-z
loop_
_atom_site_type_symbol
_atom_site_label
_atom_site_fract_x
_atom_site_fract_y
_atom_site_fract_z
Si Si1 0.182262 0.241579 0.244476
Si Si2 0.670134 0.364890 0.233922
Si Si3 0.801095 0.773041 0.320280
Si Si4 0.588543 0.844064 0.827283
Si Si5 0.122300 0.396782 0.488746
Si Si6 0.945422 0.413239 0.705761
Si Si7 0.110644 0.712520 0.177333
Si Si8 0.272707 0.724559 0.062638
O O1 0.312134 0.346094 0.266230
O O2 0.192580 0.392981 0.410754
O O3 0.068124 0.301003 0.206121
O O4 0.173366 0.890665 0.087957
O O5 0.701727 0.650222 0.317245
O O6 0.549495 0.335735 0.257925
O O7 0.788584 0.397639 0.328231
O O8 0.641347 0.078466 0.026428
O O9 0.920474 0.651577 0.303947
O O10 0.852202 0.129544 0.503239
O O11 0.750443 0.603416 0.142846
O O12 0.602379 0.051139 0.847162
O O13 0.000000 0.500000 0.500000
O O14 0.092191 0.049194 0.343707
O O15 0.897570 0.406434 0.789131
O O16 0.239103 0.724346 0.153965
O O17 0.000000 0.500000 0.000000
#
# Coordination Sequence:
#
# PCOD9079537 Si02
#       8
#     2   2   2   2   2   2   2   2
#     4   9  21  36  52  83 114 140 189 237 272 328
#     4  10  18  37  61  83 110 151 192 237 276 339
#     4  10  19  32  55  78 109 150 183 222 286 341
#     4   8  19  37  60  83 109 148 199 234 278 320
#     4  11  23  37  56  89 117 145 190 234 284 335
#     4  11  21  33  54  81 116 146 184 225 294 337
#     4  11  21  36  52  83 115 152 180 227 286 343
#     4   8  18  37  52  78 109 141 194 228 273 334
#
# _framework density 20.241833
#
# number of rings (size 3 to 8) (size 9 to 14) (size 15 to 20)
#    0.750    1.500    2.500    0.750    1.750    2.000 
#    0.000    0.625    0.000    0.000    0.000    6.125 
#    0.000    0.000    0.000    0.000    0.000    0.000 
#
# Total GULP energy -89153.884910 kJ/mol
# GULP energy per Si atom -5572.117807 kJ/mol
# Density = 2.019576 g / cm^3
# Si number density = 20.241833 Si / 1000 Ang^3
#
#
#
# Elastic Constant Matrix: (Units=GPa)
#
#
# Indices 1 2 3 4 5 6 
#
# 1 68.3606 2.3297 12.3391 -1.3993 -4.0913 28.1890
# 2 2.3297 47.7798 8.4223 -10.7646 -4.1014 15.6849
# 3 12.3391 8.4223 49.7551 -0.0984 -0.6017 5.8527
# 4 -1.3993 -10.7646 -0.0984 18.1174 8.4984 0.4700
# 5 -4.0913 -4.1014 -0.6017 8.4984 21.5704 -4.6732
# 6 28.1890 15.6849 5.8527 0.4700 -4.6732 33.3074
#
#
#
# Elastic Compliance Matrix: (Units=1/GPa)
#
#
# Indices 1 2 3 4 5 6 
#
# 1 0.026333 0.010547 -0.005165 0.010416 -0.003081 -0.026925
# 2 0.010547 0.035026 -0.005544 0.025637 -0.007188 -0.025817
# 3 -0.005165 -0.005544 0.021931 -0.004084 0.000905 0.003313
# 4 0.010416 0.025637 -0.004084 0.087562 -0.033415 -0.026095
# 5 -0.003081 -0.007188 0.000905 -0.033415 0.060814 0.014838
# 6 -0.026925 -0.025817 0.003313 -0.026095 0.014838 0.066836
#
#
# Mechanical properties :
#
#
# Convention : Reuss Voigt Hill
#
# Bulk Modulus (GPa) = 12.05316 23.56420 17.80868
# Shear Modulus (GPa) = 15.31486 24.11933 19.71709
#
# Velocity S-wave (km/s) = 2.75361 3.45564 3.12441
# Velocity P-wave (km/s) = 4.00965 5.25248 4.67257
#
# Compressibility (1/GPa) = 0.08296582
#
# Stress axis : x y z
#
# Youngs Moduli (GPa) = 37.97586 28.54992 45.59748
#
# Poissons Ratio (x) = -0.30113 0.23553
# Poissons Ratio (y) = -0.40055 0.25280
# Poissons Ratio (z) = 0.19616 0.15829
#
# Static dielectric constant tensor:
#      x y z
#    x 1.752390 0.040890 -0.005330 
#    y 0.040890 1.735730 0.006970 
#    z -0.005330 0.006970 1.738050 
# 
# From -- ./inp_files/516410.got.cif
#   From: 2010.05.17/outbox.cif.g08.bks.cpg/sg2_259_cif.got.tgz:516410.got - 2010.06.03 11:33:40.
