data_PCOD9079675
_publ_section_title
;
Structure prediction by ZEFSAII (Michael W. Deem and Ramdas Pophale) SiO2 
 PCOD9079675
Probable space group: P -1
;
_chemical_formula_sum "Si O2"
_cell_formula_units_Z 16
_cell_length_a 5.961352
_cell_length_b 21.506866
_cell_length_c 6.584787
_cell_angle_alpha 65.934910
_cell_angle_beta 72.275377
_cell_angle_gamma 54.821408
_cell_volume 627.328854
_symmetry_space_group_name_H-M "P -1"
_symmetry_group_IT_number 2
_symmetry_cell_setting 'triclinic'
loop_
_space_group_symop_operation_xyz
x,y,z
-x,-y,-z
loop_
_atom_site_type_symbol
_atom_site_label
_atom_site_fract_x
_atom_site_fract_y
_atom_site_fract_z
Si Si1 0.248595 0.149017 0.025985
Si Si2 0.117630 0.722164 0.358184
Si Si3 0.215429 0.587400 0.189184
Si Si4 0.654354 0.716659 0.652422
Si Si5 0.163363 0.877949 0.551951
Si Si6 0.617684 0.716170 0.096601
Si Si7 0.248065 0.450005 0.162361
Si Si8 0.700453 0.022145 0.300331
O O1 0.537440 0.064657 0.081798
O O2 0.046775 0.142245 0.251237
O O3 0.332279 0.212461 0.980387
O O4 0.070358 0.191883 0.816577
O O5 0.180897 0.644636 0.309700
O O6 0.412932 0.711131 0.313791
O O7 0.929919 0.721360 0.590651
O O8 0.253252 0.499876 0.289696
O O9 0.915481 0.638218 0.105466
O O10 0.468059 0.576639 0.999469
O O11 0.432072 0.799458 0.500907
O O12 0.751892 0.628519 0.668634
O O13 0.499431 0.724662 0.894405
O O14 0.257495 0.918571 0.643245
O O15 0.995759 0.940833 0.335013
O O16 0.000000 0.500000 0.000000
O O17 0.500000 0.000000 0.500000
#
# Coordination Sequence:
#
# PCOD9079675 Si02
#       8
#     2   2   2   2   2   2   2   2
#     4  10  18  37  63  86 122 164 200 250 305 350
#     4  11  23  38  59  92 125 159 202 253 300 359
#     4  10  21  40  65  86 121 163 202 248 310 355
#     4  12  22  39  63  88 122 161 202 250 306 362
#     4  10  19  37  62  91 122 157 209 248 299 364
#     4  11  20  42  60  85 125 162 201 251 297 358
#     4  11  21  40  68  89 118 161 205 251 306 359
#     4   9  18  32  63  94 118 162 202 247 304 361
#
# _framework density 25.504964000000001
#
# number of rings (size 3 to 8) (size 9 to 14) (size 15 to 20)
#    0.000    1.500    5.000    0.750    0.000    0.500 
#    9.000    3.125    0.000   10.500    0.000    0.000 
#    0.000    0.000    0.000    0.000    0.000    0.000 
#
# Total GULP energy -89305.299105 kJ/mol
# GULP energy per Si atom -5581.581194 kJ/mol
# Density = 2.544691 g / cm^3
# Si number density = 25.504964 Si / 1000 Ang^3
#
#
#
# Elastic Constant Matrix: (Units=GPa)
#
#
# Indices 1 2 3 4 5 6 
#
# 1 116.1174 61.4937 45.8197 -16.0451 -26.6721 -19.4809
# 2 61.4937 96.3577 46.4190 -25.5242 -5.4086 -17.9966
# 3 45.8197 46.4190 84.1640 -10.3269 -32.3680 -14.0603
# 4 -16.0451 -25.5242 -10.3269 37.2349 -3.6651 0.8151
# 5 -26.6721 -5.4086 -32.3680 -3.6651 54.2332 -4.6604
# 6 -19.4809 -17.9966 -14.0603 0.8151 -4.6604 60.9939
#
#
#
# Elastic Compliance Matrix: (Units=1/GPa)
#
#
# Indices 1 2 3 4 5 6 
#
# 1 0.015470 -0.008300 -0.000590 0.001417 0.006769 0.002854
# 2 -0.008300 0.022057 -0.008937 0.008395 -0.006547 0.001185
# 3 -0.000590 -0.008937 0.022736 0.001107 0.012753 0.003375
# 4 0.001417 0.008395 0.001107 0.033929 0.004753 0.003094
# 5 0.006769 -0.006547 0.012753 0.004753 0.029508 0.005361
# 6 0.002854 0.001185 0.003375 0.003094 0.005361 0.018803
#
#
# Mechanical properties :
#
#
# Convention : Reuss Voigt Hill
#
# Bulk Modulus (GPa) = 40.63454 67.12266 53.87860
# Shear Modulus (GPa) = 26.82987 40.01949 33.42468
#
# Velocity S-wave (km/s) = 3.24689 3.96547 3.62403
# Velocity P-wave (km/s) = 5.47933 6.88049 6.21949
#
# Compressibility (1/GPa) = 0.02460961
#
# Stress axis : x y z
#
# Youngs Moduli (GPa) = 64.64184 45.33642 43.98322
#
# Poissons Ratio (x) = 0.37628 0.02597
# Poissons Ratio (y) = 0.53651 0.39306
# Poissons Ratio (z) = 0.03817 0.40515
#
# Static dielectric constant tensor:
#      x y z
#    x 2.108240 -0.025520 0.080400 
#    y -0.025520 2.019260 -0.057360 
#    z 0.080400 -0.057360 1.979570 
# 
# From -- ./inp_files/52054.got.cif
#   From: 2010.05.17/outbox.cif.g08.bks.cpg/sg2_27_cif.got.tgz:52054.got - 2010.06.03 11:33:40.
