data_PCOD9079860
_publ_section_title
;
Structure prediction by ZEFSAII (Michael W. Deem and Ramdas Pophale) SiO2 
 PCOD9079860
Probable space group: P -1
;
_chemical_formula_sum "Si O2"
_cell_formula_units_Z 16
_cell_length_a 5.249730
_cell_length_b 7.827711
_cell_length_c 24.789201
_cell_angle_alpha 47.939697
_cell_angle_beta 84.160400
_cell_angle_gamma 112.190641
_cell_volume 599.832437
_symmetry_space_group_name_H-M "P -1"
_symmetry_group_IT_number 2
_symmetry_cell_setting 'triclinic'
loop_
_space_group_symop_operation_xyz
x,y,z
-x,-y,-z
loop_
_atom_site_type_symbol
_atom_site_label
_atom_site_fract_x
_atom_site_fract_y
_atom_site_fract_z
Si Si1 0.377985 0.354904 0.648294
Si Si2 0.172943 0.255455 0.525623
Si Si3 0.837570 0.654381 0.989214
Si Si4 0.798802 0.894016 0.697145
Si Si5 0.202138 0.572715 0.850830
Si Si6 0.222313 0.759365 0.597225
Si Si7 0.698643 0.961714 0.179835
Si Si8 0.894790 0.432534 0.775512
O O1 0.734986 0.575012 0.568710
O O2 0.185576 0.491319 0.624613
O O3 0.404156 0.282788 0.723210
O O4 0.155419 0.068904 0.678396
O O5 0.500000 0.500000 0.500000
O O6 0.106307 0.954983 0.574467
O O7 0.868823 0.122153 0.600029
O O8 0.500000 0.500000 0.000000
O O9 0.798058 0.620511 0.061801
O O10 0.082074 0.969930 0.890817
O O11 0.000000 0.500000 0.000000
O O12 0.546224 0.817353 0.764722
O O13 0.719539 0.587765 0.748832
O O14 0.979267 0.411753 0.838442
O O15 0.113555 0.754889 0.846871
O O16 0.192297 0.638080 0.685242
O O17 0.500000 0.000000 0.500000
O O18 0.361842 0.873057 0.182646
#
# Coordination Sequence:
#
# PCOD9079860 Si02
#       8
#     2   2   2   2   2   2   2   2
#     4  10  18  37  67  90 134 182 228 291 356 422
#     4   8  17  34  61  96 133 178 229 292 346 425
#     4  10  24  47  77 108 142 190 242 299 369 438
#     4  10  20  40  64  93 137 176 231 291 351 424
#     4  11  24  44  71  95 139 183 232 294 361 428
#     4   9  19  37  61  94 137 182 236 286 345 423
#     4  11  24  44  68 101 137 184 237 294 361 435
#     4  11  24  41  63 103 138 178 239 288 359 424
#
# _framework density 26.674113999999999
#
# number of rings (size 3 to 8) (size 9 to 14) (size 15 to 20)
#    0.000    2.000    1.250    1.500    3.500    1.500 
#    2.250    3.125    0.000    0.000    0.000    0.000 
#    0.000    0.000    0.000    0.000    0.000    0.000 
#
# Total GULP energy -89128.575972 kJ/mol
# GULP energy per Si atom -5570.535998 kJ/mol
# Density = 2.661340 g / cm^3
# Si number density = 26.674114 Si / 1000 Ang^3
#
#
#
# Elastic Constant Matrix: (Units=GPa)
#
#
# Indices 1 2 3 4 5 6 
#
# 1 70.8590 14.3252 36.6773 6.1798 -0.5190 4.1060
# 2 14.3252 105.8773 27.5187 8.7984 6.2269 5.2315
# 3 36.6773 27.5187 258.9031 50.2564 -17.3656 22.5914
# 4 6.1798 8.7984 50.2564 30.3722 3.6123 -0.6149
# 5 -0.5190 6.2269 -17.3656 3.6123 38.7412 -1.0513
# 6 4.1060 5.2315 22.5914 -0.6149 -1.0513 43.3756
#
#
#
# Elastic Compliance Matrix: (Units=1/GPa)
#
#
# Indices 1 2 3 4 5 6 
#
# 1 0.015514 -0.001555 -0.002300 0.001180 -0.000686 -0.000083
# 2 -0.001555 0.010081 -0.000645 -0.001335 -0.001827 -0.000796
# 3 -0.002300 -0.000645 0.007116 -0.011697 0.004259 -0.003473
# 4 0.001180 -0.001335 -0.011697 0.053732 -0.009842 0.006665
# 5 -0.000686 -0.001827 0.004259 -0.009842 0.028886 -0.001372
# 6 -0.000083 -0.000796 -0.003473 0.006665 -0.001372 0.025029
#
#
# Mechanical properties :
#
#
# Convention : Reuss Voigt Hill
#
# Bulk Modulus (GPa) = 42.17547 65.85357 54.01452
# Shear Modulus (GPa) = 31.79403 46.30569 39.04986
#
# Velocity S-wave (km/s) = 3.45620 4.17103 3.83033
# Velocity P-wave (km/s) = 5.63674 6.92376 6.31313
#
# Compressibility (1/GPa) = 0.02371047
#
# Stress axis : x y z
#
# Youngs Moduli (GPa) = 64.45609 99.19948 140.52469
#
# Poissons Ratio (x) = 0.15424 0.32326
# Poissons Ratio (y) = 0.10022 0.09067
# Poissons Ratio (z) = 0.14827 0.06400
#
# Static dielectric constant tensor:
#      x y z
#    x 2.173440 -0.043170 0.061810 
#    y -0.043170 2.152690 0.010650 
#    z 0.061810 0.010650 2.179590 
# 
# From -- ./inp_files/603986.got.cif
#   From: 2010.05.17/outbox.cif.g08.bks.cpg/sg2_302_cif.got.tgz:603986.got - 2010.06.03 11:33:40.
