data_PCOD9079899
_publ_section_title
;
Structure prediction by ZEFSAII (Michael W. Deem and Ramdas Pophale) SiO2 
 PCOD9079899
Probable space group: P -1
;
_chemical_formula_sum "Si O2"
_cell_formula_units_Z 12
_cell_length_a 12.106495
_cell_length_b 9.169873
_cell_length_c 7.103537
_cell_angle_alpha 108.971813
_cell_angle_beta 75.048127
_cell_angle_gamma 51.490654
_cell_volume 456.845770
_symmetry_space_group_name_H-M "P -1"
_symmetry_group_IT_number 2
_symmetry_cell_setting 'triclinic'
loop_
_space_group_symop_operation_xyz
x,y,z
-x,-y,-z
loop_
_atom_site_type_symbol
_atom_site_label
_atom_site_fract_x
_atom_site_fract_y
_atom_site_fract_z
Si Si1 0.791443 0.169575 0.662939
Si Si2 0.269564 0.359408 0.909343
Si Si3 0.697218 0.953761 0.501455
Si Si4 0.054001 0.764048 0.890178
Si Si5 0.328487 0.402233 0.285016
Si Si6 0.733533 0.976639 0.901314
O O1 0.674324 0.436177 0.766030
O O2 0.736724 0.144974 0.871503
O O3 0.758955 0.063872 0.485391
O O4 0.000000 0.000000 0.500000
O O5 0.235812 0.242415 0.753828
O O6 0.480235 0.177816 0.703579
O O7 0.140681 0.623232 0.989869
O O8 0.249292 0.369407 0.147451
O O9 0.763525 0.848314 0.641704
O O10 0.208203 0.562928 0.584128
O O11 0.888280 0.831460 0.923430
O O12 0.000000 0.000000 0.000000
O O13 0.534333 0.149795 0.138723
#
# Coordination Sequence:
#
# PCOD9079899 Si02
#       6
#     2   2   2   2   2   2
#     4  10  18  37  69  93 131 178 223 270 326 398
#     4  10  22  43  69  99 138 176 226 279 334 414
#     4   8  20  42  69  94 139 182 219 277 343 396
#     4  12  26  40  66 107 135 170 233 283 334 404
#     4  11  22  43  71  94 136 180 221 281 342 394
#     4   9  21  40  63  98 136 174 220 279 339 393
#
# _framework density 26.26707
#
# number of rings (size 3 to 8) (size 9 to 14) (size 15 to 20)
#    1.000    1.000    1.667    1.500    2.333    1.333 
#    0.000   12.500    0.000    0.000    0.000    0.000 
#    0.000    0.000    0.000    0.000    0.000    0.000 
#
# Total GULP energy -67257.358671 kJ/mol
# GULP energy per Si atom -5604.779889 kJ/mol
# Density = 2.620728 g / cm^3
# Si number density = 26.267070 Si / 1000 Ang^3
#
#
#
# Elastic Constant Matrix: (Units=GPa)
#
#
# Indices 1 2 3 4 5 6 
#
# 1 159.0748 32.7121 53.7497 5.9416 17.1936 -17.4311
# 2 32.7121 119.0213 28.1447 -3.0134 -10.2211 -9.4239
# 3 53.7497 28.1447 138.2059 1.8333 10.0261 -12.5653
# 4 5.9416 -3.0134 1.8333 28.5599 0.3896 7.3262
# 5 17.1936 -10.2211 10.0261 0.3896 40.7302 11.6872
# 6 -17.4311 -9.4239 -12.5653 7.3262 11.6872 41.9328
#
#
#
# Elastic Compliance Matrix: (Units=1/GPa)
#
#
# Indices 1 2 3 4 5 6 
#
# 1 0.008504 -0.001976 -0.002132 -0.002874 -0.004762 0.004282
# 2 -0.001976 0.009632 -0.001524 0.001585 0.003735 -0.000431
# 3 -0.002132 -0.001524 0.008745 -0.000801 -0.002247 0.002158
# 4 -0.002874 0.001585 -0.000801 0.038043 0.003979 -0.008834
# 5 -0.004762 0.003735 -0.002247 0.003979 0.031232 -0.011213
# 6 0.004282 -0.000431 0.002158 -0.008834 -0.011213 0.030846
#
#
# Mechanical properties :
#
#
# Convention : Reuss Voigt Hill
#
# Bulk Modulus (GPa) = 64.03371 71.72389 67.87880
# Shear Modulus (GPa) = 34.84997 42.35761 38.60379
#
# Velocity S-wave (km/s) = 3.64642 4.02004 3.83778
# Velocity P-wave (km/s) = 6.49302 6.99375 6.74803
#
# Compressibility (1/GPa) = 0.01561677
#
# Stress axis : x y z
#
# Youngs Moduli (GPa) = 117.58698 103.81978 114.35095
#
# Poissons Ratio (x) = 0.20513 0.24382
# Poissons Ratio (y) = 0.23234 0.17430
# Poissons Ratio (z) = 0.25072 0.15825
#
# Static dielectric constant tensor:
#      x y z
#    x 2.125660 0.054730 0.041980 
#    y 0.054730 2.057270 -0.050820 
#    z 0.041980 -0.050820 2.040880 
# 
# From -- ./inp_files/305511.got.cif
#   From: 2010.05.17/outbox.cif.g08.bks.cpg/sg2_153_cif.got.tgz:305511.got - 2010.06.03 11:33:40.
