data_PCOD9079664
_publ_section_title
;
Structure prediction by ZEFSAII (Michael W. Deem and Ramdas Pophale) SiO2 
 PCOD9079664
Probable space group: P -1
;
_chemical_formula_sum "Si O2"
_cell_formula_units_Z 12
_cell_length_a 16.901575
_cell_length_b 8.027572
_cell_length_c 5.669635
_cell_angle_alpha 120.054284
_cell_angle_beta 62.560074
_cell_angle_gamma 134.002702
_cell_volume 470.991179
_symmetry_space_group_name_H-M "P -1"
_symmetry_group_IT_number 2
_symmetry_cell_setting 'triclinic'
loop_
_space_group_symop_operation_xyz
x,y,z
-x,-y,-z
loop_
_atom_site_type_symbol
_atom_site_label
_atom_site_fract_x
_atom_site_fract_y
_atom_site_fract_z
Si Si1 0.397833 0.211691 0.416244
Si Si2 0.097228 0.617534 0.646158
Si Si3 0.715648 0.436110 0.668071
Si Si4 0.806619 0.859221 0.182736
Si Si5 0.471909 0.234354 0.833575
Si Si6 0.085540 0.247217 0.697074
O O1 0.500000 0.500000 0.500000
O O2 0.275982 0.148579 0.521849
O O3 0.401977 0.124255 0.610606
O O4 0.418123 0.118316 0.081595
O O5 0.207096 0.643930 0.413920
O O6 0.062212 0.433985 0.781370
O O7 0.000000 0.500000 0.500000
O O8 0.132755 0.881874 0.842191
O O9 0.585592 0.262948 0.669726
O O10 0.786537 0.597099 0.461067
O O11 0.727246 0.626156 0.968493
O O12 0.897429 0.826050 0.127230
O O13 0.500000 0.500000 0.000000
O O14 0.000000 0.000000 0.500000
#
# Coordination Sequence:
#
# PCOD9079664 Si02
#       6
#     2   2   2   2   2   2
#     4  10  20  34  70  98 136 187 225 281 357 413
#     4  10  24  44  63 101 132 168 243 285 338 430
#     4  10  23  39  68  95 134 179 226 279 354 414
#     4  12  21  43  69  94 136 184 219 290 351 410
#     4  10  18  37  63 101 139 180 230 285 345 423
#     4  10  22  41  67  90 128 176 221 284 349 398
#
# _framework density 25.478185
#
# number of rings (size 3 to 8) (size 9 to 14) (size 15 to 20)
#    1.000    0.667    5.000    2.000    0.000    2.667 
#    3.000    3.333    0.000    0.000    0.000    0.000 
#    0.000    0.000    0.000    0.000    0.000    0.000 
#
# Total GULP energy -66941.665495 kJ/mol
# GULP energy per Si atom -5578.472125 kJ/mol
# Density = 2.542020 g / cm^3
# Si number density = 25.478185 Si / 1000 Ang^3
#
#
#
# Elastic Constant Matrix: (Units=GPa)
#
#
# Indices 1 2 3 4 5 6 
#
# 1 209.0260 62.0317 50.9940 0.2709 1.5983 -15.3247
# 2 62.0317 94.0280 23.5847 8.1745 -4.1902 -9.1973
# 3 50.9940 23.5847 68.8753 -26.7848 0.9434 5.1788
# 4 0.2709 8.1745 -26.7848 47.6916 2.3152 -14.3144
# 5 1.5983 -4.1902 0.9434 2.3152 44.9944 1.0192
# 6 -15.3247 -9.1973 5.1788 -14.3144 1.0192 45.7408
#
#
#
# Elastic Compliance Matrix: (Units=1/GPa)
#
#
# Indices 1 2 3 4 5 6 
#
# 1 0.007049 -0.003097 -0.004967 -0.001751 -0.000385 0.001762
# 2 -0.003097 0.014428 -0.004640 -0.004903 0.001785 0.000814
# 3 -0.004967 -0.004640 0.025749 0.015138 -0.001558 -0.000740
# 4 -0.001751 -0.004903 0.015138 0.032530 -0.002543 0.006950
# 5 -0.000385 0.001785 -0.001558 -0.002543 0.022589 -0.000893
# 6 0.001762 0.000814 -0.000740 0.006950 -0.000893 0.024895
#
#
# Mechanical properties :
#
#
# Convention : Reuss Voigt Hill
#
# Bulk Modulus (GPa) = 45.83273 71.68336 58.75805
# Shear Modulus (GPa) = 31.26546 43.37329 37.31938
#
# Velocity S-wave (km/s) = 3.50687 4.13045 3.83137
# Velocity P-wave (km/s) = 5.86733 7.13749 6.53335
#
# Compressibility (1/GPa) = 0.02181847
#
# Stress axis : x y z
#
# Youngs Moduli (GPa) = 141.85688 69.31089 38.83603
#
# Poissons Ratio (x) = 0.21468 0.19289
# Poissons Ratio (y) = 0.43937 0.18019
# Poissons Ratio (z) = 0.70458 0.32159
#
# Static dielectric constant tensor:
#      x y z
#    x 2.066890 -0.023660 -0.024620 
#    y -0.023660 2.053250 -0.069950 
#    z -0.024620 -0.069950 2.032060 
# 
# From -- ./inp_files/39647.got.cif
#   From: 2010.05.17/outbox.cif.g08.bks.cpg/sg2_20_cif.got.tgz:39647.got - 2010.06.03 11:33:40.
