data_PCOD9079216
_publ_section_title
;
Structure prediction by ZEFSAII (Michael W. Deem and Ramdas Pophale) SiO2 
 PCOD9079216
Probable space group: P -1
;
_chemical_formula_sum "Si O2"
_cell_formula_units_Z 16
_cell_length_a 9.531726
_cell_length_b 7.701165
_cell_length_c 17.851520
_cell_angle_alpha 114.621089
_cell_angle_beta 39.927974
_cell_angle_gamma 94.758743
_cell_volume 698.942265
_symmetry_space_group_name_H-M "P -1"
_symmetry_group_IT_number 2
_symmetry_cell_setting 'triclinic'
loop_
_space_group_symop_operation_xyz
x,y,z
-x,-y,-z
loop_
_atom_site_type_symbol
_atom_site_label
_atom_site_fract_x
_atom_site_fract_y
_atom_site_fract_z
Si Si1 0.202154 0.236375 0.556889
Si Si2 0.445327 0.403414 0.602174
Si Si3 0.926067 0.212999 0.114356
Si Si4 0.133319 0.936596 0.105455
Si Si5 0.898494 0.358907 0.561262
Si Si6 0.041592 0.926274 0.645242
Si Si7 0.343881 0.147890 0.736179
Si Si8 0.651359 0.474551 0.143462
O O1 0.312256 0.378787 0.578312
O O2 0.992121 0.341029 0.603603
O O3 0.116872 0.116992 0.633318
O O4 0.417163 0.058428 0.392968
O O5 0.325467 0.647699 0.716227
O O6 0.728983 0.278241 0.458047
O O7 0.378188 0.267039 0.668916
O O8 0.869953 0.368503 0.093959
O O9 0.114207 0.123843 0.089774
O O10 0.000000 0.000000 0.000000
O O11 0.879273 0.913084 0.194733
O O12 0.146957 0.002538 0.197225
O O13 0.314686 0.704670 0.963686
O O14 0.000588 0.143692 0.433058
O O15 0.611042 0.459900 0.700727
O O16 0.000000 0.500000 0.500000
O O17 0.338471 0.301923 0.834484
#
# Coordination Sequence:
#
# PCOD9079216 Si02
#       8
#     2   2   2   2   2   2   2   2
#     4  11  21  38  65  93 123 154 210 253 306 359
#     4  10  18  36  64  90 124 150 205 263 294 349
#     4   9  20  35  58  87 127 160 194 246 309 349
#     4  11  21  35  67  95 121 156 205 253 311 361
#     4  12  27  41  62  84 126 172 204 245 305 373
#     4  11  21  40  64  92 119 158 206 263 301 352
#     4  10  18  36  65  96 117 154 199 257 306 356
#     4  10  22  42  57  89 135 161 196 250 307 366
#
# _framework density 22.891734
#
# number of rings (size 3 to 8) (size 9 to 14) (size 15 to 20)
#    0.000    1.500    6.250    1.500    3.500    0.500 
#    0.000    1.250    0.000    0.000    0.000    0.000 
#    0.000    0.000    0.000    0.000    0.000    0.000 
#
# Total GULP energy -89072.119166 kJ/mol
# GULP energy per Si atom -5567.007448 kJ/mol
# Density = 2.283963 g / cm^3
# Si number density = 22.891734 Si / 1000 Ang^3
#
#
#
# Elastic Constant Matrix: (Units=GPa)
#
#
# Indices 1 2 3 4 5 6 
#
# 1 82.6819 3.5973 25.7242 0.5411 9.2099 -7.0434
# 2 3.5973 43.3141 16.3304 4.1709 -10.2194 -3.0710
# 3 25.7242 16.3304 114.2696 9.5195 22.7866 -4.6068
# 4 0.5411 4.1709 9.5195 29.1409 4.7570 -1.9332
# 5 9.2099 -10.2194 22.7866 4.7570 32.2059 -4.7237
# 6 -7.0434 -3.0710 -4.6068 -1.9332 -4.7237 20.3790
#
#
#
# Elastic Compliance Matrix: (Units=1/GPa)
#
#
# Indices 1 2 3 4 5 6 
#
# 1 0.013414 -0.000431 -0.002548 0.001184 -0.001804 0.003689
# 2 -0.000431 0.030380 -0.006857 -0.004327 0.016165 0.006216
# 3 -0.002548 -0.006857 0.012404 -0.001458 -0.010246 -0.001623
# 4 0.001184 -0.004327 -0.001458 0.036444 -0.005838 0.001532
# 5 -0.001804 0.016165 -0.010246 -0.005838 0.046224 0.009657
# 6 0.003689 0.006216 -0.001623 0.001532 0.009657 0.053299
#
#
# Mechanical properties :
#
#
# Convention : Reuss Voigt Hill
#
# Bulk Modulus (GPa) = 27.37919 36.84103 32.11011
# Shear Modulus (GPa) = 22.32027 29.31942 25.81984
#
# Velocity S-wave (km/s) = 3.12594 3.58269 3.36208
# Velocity P-wave (km/s) = 5.00150 5.76565 5.39712
#
# Compressibility (1/GPa) = 0.03652410
#
# Stress axis : x y z
#
# Youngs Moduli (GPa) = 74.55148 32.91682 80.61869
#
# Poissons Ratio (x) = 0.01419 0.20544
# Poissons Ratio (y) = 0.03215 0.55281
# Poissons Ratio (z) = 0.18998 0.22571
#
# Static dielectric constant tensor:
#      x y z
#    x 1.890470 -0.005170 0.083670 
#    y -0.005170 1.957590 -0.017700 
#    z 0.083670 -0.017700 1.910490 
# 
# From -- ./inp_files/215860.got.cif
#   From: 2010.05.17/outbox.cif.g08.bks.cpg/sg2_108_cif.got.tgz:215860.got - 2010.06.03 11:33:40.
