data_PCOD9079622
_publ_section_title
;
Structure prediction by ZEFSAII (Michael W. Deem and Ramdas Pophale) SiO2 
 PCOD9079622
Probable space group: P -1
;
_chemical_formula_sum "Si O2"
_cell_formula_units_Z 14
_cell_length_a 7.619639
_cell_length_b 11.345963
_cell_length_c 15.598868
_cell_angle_alpha 141.867052
_cell_angle_beta 106.147609
_cell_angle_gamma 101.819664
_cell_volume 559.888652
_symmetry_space_group_name_H-M "P -1"
_symmetry_group_IT_number 2
_symmetry_cell_setting 'triclinic'
loop_
_space_group_symop_operation_xyz
x,y,z
-x,-y,-z
loop_
_atom_site_type_symbol
_atom_site_label
_atom_site_fract_x
_atom_site_fract_y
_atom_site_fract_z
Si Si1 0.946561 0.249187 0.568680
Si Si2 0.249260 0.420121 0.097892
Si Si3 0.207064 0.127862 0.341317
Si Si4 0.626200 0.105117 0.670770
Si Si5 0.728380 0.689117 0.213643
Si Si6 0.990742 0.287266 0.173511
Si Si7 0.395415 0.278693 0.272712
O O1 0.059685 0.530627 0.706984
O O2 0.083204 0.332656 0.730655
O O3 0.637941 0.063095 0.408489
O O4 0.920962 0.008522 0.398915
O O5 0.203948 0.576672 0.125287
O O6 0.551011 0.605846 0.226295
O O7 0.143100 0.389985 0.160438
O O8 0.088299 0.118647 0.870262
O O9 0.375982 0.187799 0.314489
O O10 0.333255 0.425502 0.549467
O O11 0.250944 0.998234 0.342517
O O12 0.500000 0.000000 0.500000
O O13 0.500000 0.500000 0.000000
O O14 0.185930 0.298356 0.259414
O O15 0.724843 0.969750 0.946788
#
# Coordination Sequence:
#
# PCOD9079622 Si02
#       7
#     2   2   2   2   2   2   2
#     4  10  21  39  59  85 119 162 193 240 303 356
#     4  10  21  34  59  89 120 147 197 246 305 357
#     4  10  19  32  51  89 121 147 186 252 293 349
#     4  11  19  31  55  90 116 145 188 242 304 352
#     4  10  24  40  55  86 129 164 193 234 306 375
#     4  10  18  37  62  88 113 152 198 253 293 344
#     4   9  19  33  55  89 117 148 194 247 302 341
#
# _framework density 25.00497
#
# number of rings (size 3 to 8) (size 9 to 14) (size 15 to 20)
#    0.000    2.000    2.857    0.429    2.000    4.571 
#    2.571    0.000    0.000    8.571    0.000    0.000 
#    0.000    0.000    0.000    0.000    0.000    0.000 
#
# Total GULP energy -77966.018316 kJ/mol
# GULP energy per Si atom -5569.001308 kJ/mol
# Density = 2.494806 g / cm^3
# Si number density = 25.004970 Si / 1000 Ang^3
#
#
#
# Elastic Constant Matrix: (Units=GPa)
#
#
# Indices 1 2 3 4 5 6 
#
# 1 76.8313 19.4387 14.1192 5.6798 -3.2952 -7.5318
# 2 19.4387 92.6744 34.4919 10.6616 2.8200 -21.1728
# 3 14.1192 34.4919 171.4676 31.7427 -7.9079 -2.6556
# 4 5.6798 10.6616 31.7427 47.6470 -6.7965 1.4796
# 5 -3.2952 2.8200 -7.9079 -6.7965 24.2900 11.9555
# 6 -7.5318 -21.1728 -2.6556 1.4796 11.9555 25.2998
#
#
#
# Elastic Compliance Matrix: (Units=1/GPa)
#
#
# Indices 1 2 3 4 5 6 
#
# 1 0.013952 -0.002267 -0.000482 -0.000766 0.000882 0.001834
# 2 -0.002267 0.018484 -0.003028 -0.004775 -0.015686 0.022168
# 3 -0.000482 -0.003028 0.007232 -0.003517 0.003257 -0.003252
# 4 -0.000766 -0.004775 -0.003517 0.026691 0.012774 -0.012190
# 5 0.000882 -0.015686 0.003257 0.012774 0.070726 -0.046692
# 6 0.001834 0.022168 -0.003252 -0.012190 -0.046692 0.081060
#
#
# Mechanical properties :
#
#
# Convention : Reuss Voigt Hill
#
# Bulk Modulus (GPa) = 35.56877 53.00812 44.28845
# Shear Modulus (GPa) = 20.91444 37.64226 29.27835
#
# Velocity S-wave (km/s) = 2.89522 3.88415 3.42556
# Velocity P-wave (km/s) = 5.04301 6.43121 5.77895
#
# Compressibility (1/GPa) = 0.02811455
#
# Stress axis : x y z
#
# Youngs Moduli (GPa) = 71.67513 54.10069 138.27956
#
# Poissons Ratio (x) = 0.12264 0.06665
# Poissons Ratio (y) = 0.16247 0.41867
# Poissons Ratio (z) = 0.03455 0.16380
#
# Static dielectric constant tensor:
#      x y z
#    x 2.052600 0.044710 -0.036540 
#    y 0.044710 2.066680 -0.053340 
#    z -0.036540 -0.053340 2.094260 
# 
# From -- ./inp_files/402361.got.cif
#   From: 2010.05.17/outbox.cif.g08.bks.cpg/sg2_202_cif.got.tgz:402361.got - 2010.06.03 11:33:40.
