data_PCOD9079558
_publ_section_title
;
Structure prediction by ZEFSAII (Michael W. Deem and Ramdas Pophale) SiO2 
 PCOD9079558
Probable space group: P -1
;
_chemical_formula_sum "Si O2"
_cell_formula_units_Z 16
_cell_length_a 11.959830
_cell_length_b 7.868004
_cell_length_c 15.540109
_cell_angle_alpha 61.872146
_cell_angle_beta 150.413744
_cell_angle_gamma 119.526581
_cell_volume 625.094246
_symmetry_space_group_name_H-M "P -1"
_symmetry_group_IT_number 2
_symmetry_cell_setting 'triclinic'
loop_
_space_group_symop_operation_xyz
x,y,z
-x,-y,-z
loop_
_atom_site_type_symbol
_atom_site_label
_atom_site_fract_x
_atom_site_fract_y
_atom_site_fract_z
Si Si1 0.046851 0.134843 0.582654
Si Si2 0.279173 0.278872 0.951920
Si Si3 0.971291 0.759873 0.737353
Si Si4 0.784719 0.408784 0.586455
Si Si5 0.678325 0.112002 0.731871
Si Si6 0.627900 0.266724 0.330347
Si Si7 0.485581 0.766439 0.055581
Si Si8 0.995592 0.141032 0.081260
O O1 0.865440 0.278293 0.434422
O O2 0.309274 0.248622 0.737767
O O3 0.000000 0.000000 0.500000
O O4 0.009950 0.982671 0.674713
O O5 0.434316 0.338166 0.126295
O O6 0.440692 0.304693 0.970515
O O7 0.046252 0.364137 0.765568
O O8 0.185091 0.045684 0.957972
O O9 0.897929 0.744243 0.791320
O O10 0.810677 0.621970 0.595446
O O11 0.220940 0.694791 0.919614
O O12 0.649872 0.255423 0.601827
O O13 0.672605 0.364771 0.429351
O O14 0.458599 0.969206 0.657184
O O15 0.844499 0.228844 0.888503
O O16 0.817353 0.953026 0.822286
O O17 0.500000 0.000000 0.000000
#
# Coordination Sequence:
#
# PCOD9079558 Si02
#       8
#     2   2   2   2   2   2   2   2
#     4  11  22  39  64  94 119 158 214 251 293 369
#     4  10  19  39  64  87 119 161 208 246 297 361
#     4  11  23  38  62  88 129 158 198 255 314 356
#     4  11  23  41  56  93 130 161 198 253 308 364
#     4   9  20  36  65  87 117 161 210 249 297 355
#     4  11  21  40  66  88 120 165 208 248 295 366
#     4  10  18  37  61  88 115 157 200 248 299 356
#     4   9  17  37  63  90 112 159 213 246 292 366
#
# _framework density 25.596140999999999
#
# number of rings (size 3 to 8) (size 9 to 14) (size 15 to 20)
#    0.000    1.750    3.750    3.375    1.750    1.000 
#    2.250    3.750    0.000    0.000    0.000    0.000 
#    0.000    0.000    0.000    0.000    0.000    0.000 
#
# Total GULP energy -89609.570072 kJ/mol
# GULP energy per Si atom -5600.598129 kJ/mol
# Density = 2.553788 g / cm^3
# Si number density = 25.596141 Si / 1000 Ang^3
#
#
#
# Elastic Constant Matrix: (Units=GPa)
#
#
# Indices 1 2 3 4 5 6 
#
# 1 74.4639 -1.1931 37.2106 3.0072 -19.7334 -9.3057
# 2 -1.1931 69.0764 20.4332 5.3209 -15.7508 -5.1160
# 3 37.2106 20.4332 145.8047 22.2386 -24.6390 -4.4727
# 4 3.0072 5.3209 22.2386 38.8114 -11.7955 -17.4001
# 5 -19.7334 -15.7508 -24.6390 -11.7955 53.4910 15.7859
# 6 -9.3057 -5.1160 -4.4727 -17.4001 15.7859 31.5168
#
#
#
# Elastic Compliance Matrix: (Units=1/GPa)
#
#
# Indices 1 2 3 4 5 6 
#
# 1 0.017463 0.002745 -0.004610 0.004647 0.004617 0.005201
# 2 0.002745 0.016273 -0.002302 0.000847 0.004542 0.001318
# 3 -0.004610 -0.002302 0.009526 -0.006371 0.002060 -0.004932
# 4 0.004647 0.000847 -0.006371 0.038955 0.001283 0.021469
# 5 0.004617 0.004542 0.002060 0.001283 0.025877 -0.009860
# 6 0.005201 0.001318 -0.004932 0.021469 -0.009860 0.049570
#
#
# Mechanical properties :
#
#
# Convention : Reuss Voigt Hill
#
# Bulk Modulus (GPa) = 28.63075 44.69407 36.66241
# Shear Modulus (GPa) = 28.14649 40.29011 34.21830
#
# Velocity S-wave (km/s) = 3.31968 3.97176 3.66027
# Velocity P-wave (km/s) = 5.08955 6.20744 5.67608
#
# Compressibility (1/GPa) = 0.03492748
#
# Stress axis : x y z
#
# Youngs Moduli (GPa) = 57.26393 61.45062 104.97298
#
# Poissons Ratio (x) = -0.16871 0.48398
# Poissons Ratio (y) = -0.15721 0.24169
# Poissons Ratio (z) = 0.26401 0.14149
#
# Static dielectric constant tensor:
#      x y z
#    x 1.989700 0.017560 0.017310 
#    y 0.017560 2.070210 0.020670 
#    z 0.017310 0.020670 2.009880 
# 
# From -- ./inp_files/397700.got.cif
#   From: 2010.05.17/outbox.cif.g08.bks.cpg/sg2_199_cif.got.tgz:397700.got - 2010.06.03 11:33:40.
