data_PCOD9079692
_publ_section_title
;
Structure prediction by ZEFSAII (Michael W. Deem and Ramdas Pophale) SiO2 
 PCOD9079692
Probable space group: P -1
;
_chemical_formula_sum "Si O2"
_cell_formula_units_Z 14
_cell_length_a 9.535958
_cell_length_b 11.219650
_cell_length_c 8.115206
_cell_angle_alpha 119.217868
_cell_angle_beta 69.920089
_cell_angle_gamma 126.314481
_cell_volume 608.783154
_symmetry_space_group_name_H-M "P -1"
_symmetry_group_IT_number 2
_symmetry_cell_setting 'triclinic'
loop_
_space_group_symop_operation_xyz
x,y,z
-x,-y,-z
loop_
_atom_site_type_symbol
_atom_site_label
_atom_site_fract_x
_atom_site_fract_y
_atom_site_fract_z
Si Si1 0.870018 0.369887 0.339174
Si Si2 0.658431 0.008891 0.295885
Si Si3 0.927484 0.975070 0.328453
Si Si4 0.360386 0.627839 0.813748
Si Si5 0.276312 0.133260 0.154430
Si Si6 0.299893 0.873863 0.194007
Si Si7 0.062835 0.332173 0.919311
O O1 0.753627 0.196258 0.349315
O O2 0.735814 0.416968 0.351168
O O3 0.000000 0.500000 0.500000
O O4 0.980457 0.360088 0.134235
O O5 0.753345 0.980316 0.390341
O O6 0.449187 0.924547 0.306221
O O7 0.714453 0.935731 0.072000
O O8 0.896673 0.807105 0.164990
O O9 0.000000 0.000000 0.500000
O O10 0.087946 0.109052 0.246876
O O11 0.562747 0.687348 0.771168
O O12 0.235435 0.488978 0.894774
O O13 0.359670 0.787041 0.978114
O O14 0.300502 0.021493 0.203725
O O15 0.094011 0.738918 0.203490
#
# Coordination Sequence:
#
# PCOD9079692 Si02
#       7
#     2   2   2   2   2   2   2
#     4  11  21  34  63  99 122 155 204 255 313 360
#     4  11  19  38  66  91 120 161 213 248 300 375
#     4  11  25  41  60  90 126 167 208 249 305 370
#     4  10  18  37  63  90 123 156 201 256 310 354
#     4  10  18  39  68  87 118 167 209 250 305 364
#     4   9  16  35  65  92 112 156 207 254 298 354
#     4  10  22  40  63  90 130 160 198 256 310 359
#
# _framework density 22.996694000000002
#
# number of rings (size 3 to 8) (size 9 to 14) (size 15 to 20)
#    0.000    1.714    5.714    3.000    2.000    0.000 
#    0.000   10.714    3.143    0.000    0.000    0.000 
#    0.000    0.000    0.000    0.000    0.000    0.000 
#
# Total GULP energy -78238.126403 kJ/mol
# GULP energy per Si atom -5588.437600 kJ/mol
# Density = 2.294435 g / cm^3
# Si number density = 22.996694 Si / 1000 Ang^3
#
#
#
# Elastic Constant Matrix: (Units=GPa)
#
#
# Indices 1 2 3 4 5 6 
#
# 1 131.7705 37.2343 44.3451 0.4496 5.6211 24.8808
# 2 37.2343 122.0162 30.2281 3.9891 5.1298 31.1774
# 3 44.3451 30.2281 72.6995 8.3559 10.2004 15.8775
# 4 0.4496 3.9891 8.3559 20.1803 10.6484 8.4002
# 5 5.6211 5.1298 10.2004 10.6484 39.3425 -3.4476
# 6 24.8808 31.1774 15.8775 8.4002 -3.4476 34.0282
#
#
#
# Elastic Compliance Matrix: (Units=1/GPa)
#
#
# Indices 1 2 3 4 5 6 
#
# 1 0.010873 -0.000321 -0.005360 0.006193 -0.002405 -0.006927
# 2 -0.000321 0.011620 -0.002397 0.004836 -0.003103 -0.010801
# 3 -0.005360 -0.002397 0.019425 -0.005209 -0.002718 -0.001938
# 4 0.006193 0.004836 -0.005209 0.073723 -0.022485 -0.027006
# 5 -0.002405 -0.003103 -0.002718 -0.022485 0.034262 0.014892
# 6 -0.006927 -0.010801 -0.001938 -0.027006 0.014892 0.053429
#
#
# Mechanical properties :
#
#
# Convention : Reuss Voigt Hill
#
# Bulk Modulus (GPa) = 38.81890 61.12235 49.97063
# Shear Modulus (GPa) = 21.92269 33.02208 27.47239
#
# Velocity S-wave (km/s) = 3.09090 3.79350 3.46008
# Velocity P-wave (km/s) = 5.44565 6.76934 6.14325
#
# Compressibility (1/GPa) = 0.02576065
#
# Stress axis : x y z
#
# Youngs Moduli (GPa) = 91.96981 86.06026 51.48082
#
# Poissons Ratio (x) = 0.02766 0.27595
# Poissons Ratio (y) = 0.02956 0.12339
# Poissons Ratio (z) = 0.49298 0.20627
#
# Static dielectric constant tensor:
#      x y z
#    x 1.934320 0.023570 0.018200 
#    y 0.023570 1.851500 -0.024110 
#    z 0.018200 -0.024110 1.938710 
# 
# From -- ./inp_files/189940.got.cif
#   From: 2010.05.17/outbox.cif.g08.bks.cpg/sg2_95_cif.got.tgz:189940.got - 2010.06.03 11:33:40.
