data_PCOD9079952
_publ_section_title
;
Structure prediction by ZEFSAII (Michael W. Deem and Ramdas Pophale) SiO2 
 PCOD9079952
Probable space group: P -1
;
_chemical_formula_sum "Si O2"
_cell_formula_units_Z 16
_cell_length_a 16.867266
_cell_length_b 8.414638
_cell_length_c 8.788973
_cell_angle_alpha 46.593534
_cell_angle_beta 115.314924
_cell_angle_gamma 123.480803
_cell_volume 753.457559
_symmetry_space_group_name_H-M "P -1"
_symmetry_group_IT_number 2
_symmetry_cell_setting 'triclinic'
loop_
_space_group_symop_operation_xyz
x,y,z
-x,-y,-z
loop_
_atom_site_type_symbol
_atom_site_label
_atom_site_fract_x
_atom_site_fract_y
_atom_site_fract_z
Si Si1 0.449497 0.660430 0.916490
Si Si2 0.043363 0.391756 0.238158
Si Si3 0.722273 0.424862 0.383640
Si Si4 0.523168 0.270341 0.782390
Si Si5 0.896697 0.341298 0.581724
Si Si6 0.310323 0.166442 0.720480
Si Si7 0.636744 0.116002 0.786919
Si Si8 0.869623 0.979454 0.544111
O O1 0.355514 0.638154 0.769389
O O2 0.533151 0.917633 0.792636
O O3 0.500000 0.500000 0.000000
O O4 0.431855 0.583648 0.127312
O O5 0.956196 0.186525 0.390084
O O6 0.096184 0.599224 0.269827
O O7 0.108106 0.258541 0.306792
O O8 0.000000 0.500000 0.000000
O O9 0.824403 0.456376 0.386072
O O10 0.715467 0.643548 0.327573
O O11 0.695696 0.207232 0.624078
O O12 0.418067 0.263148 0.673967
O O13 0.604422 0.317730 0.694631
O O14 0.500000 0.000000 0.000000
O O15 0.869517 0.083439 0.647026
O O16 0.000000 0.500000 0.500000
O O17 0.229225 0.060519 0.596900
O O18 0.315183 0.980629 0.977421
#
# Coordination Sequence:
#
# PCOD9079952 Si02
#       8
#     2   2   2   2   2   2   2   2
#     4  10  18  38  58  88 123 168 199 254 307 363
#     4  10  22  43  67  89 123 158 204 267 317 375
#     4  12  22  38  65  85 127 163 214 260 309 375
#     4   8  18  36  56  81 126 158 205 238 307 362
#     4  10  24  43  63  97 124 163 215 260 323 380
#     4  10  20  38  61  87 123 166 202 250 314 371
#     4  10  23  37  58  91 123 165 211 250 308 368
#     4  10  22  40  65  90 123 163 204 256 321 374
#
# _framework density 21.235437000000001
#
# number of rings (size 3 to 8) (size 9 to 14) (size 15 to 20)
#    0.000    2.250    3.750    0.375    7.000    1.000 
#    0.000    2.500    0.000    0.000    0.000    0.000 
#    0.000    0.000    0.000    0.000    0.000    0.000 
#
# Total GULP energy -89121.914014 kJ/mol
# GULP energy per Si atom -5570.119626 kJ/mol
# Density = 2.118710 g / cm^3
# Si number density = 21.235437 Si / 1000 Ang^3
#
#
#
# Elastic Constant Matrix: (Units=GPa)
#
#
# Indices 1 2 3 4 5 6 
#
# 1 105.7899 38.0369 38.9507 14.5188 34.5069 -10.1296
# 2 38.0369 106.6516 52.5144 37.6574 15.3988 -26.1271
# 3 38.9507 52.5144 107.8465 20.0503 38.9097 -2.4921
# 4 14.5188 37.6574 20.0503 40.2179 5.8333 10.1548
# 5 34.5069 15.3988 38.9097 5.8333 28.8391 2.4121
# 6 -10.1296 -26.1271 -2.4921 10.1548 2.4121 38.6313
#
#
#
# Elastic Compliance Matrix: (Units=1/GPa)
#
#
# Indices 1 2 3 4 5 6 
#
# 1 0.018834 -0.000938 0.005406 -0.006513 -0.028693 0.008156
# 2 -0.000938 0.034597 -0.008809 -0.035608 -0.000940 0.032003
# 3 0.005406 -0.008809 0.023898 -0.000520 -0.033840 -0.000749
# 4 -0.006513 -0.035608 -0.000520 0.069745 0.017184 -0.045230
# 5 -0.028693 -0.000940 -0.033840 0.017184 0.113526 -0.021948
# 6 0.008156 0.032003 -0.000749 -0.045230 -0.021948 0.062880
#
#
# Mechanical properties :
#
#
# Convention : Reuss Voigt Hill
#
# Bulk Modulus (GPa) = 14.56738 64.36578 39.46658
# Shear Modulus (GPa) = 14.08279 34.25672 24.16976
#
# Velocity S-wave (km/s) = 2.57801 4.02081 3.37735
# Velocity P-wave (km/s) = 3.96691 7.20640 5.81672
#
# Compressibility (1/GPa) = 0.06864655
#
# Stress axis : x y z
#
# Youngs Moduli (GPa) = 53.09683 28.90424 41.84473
#
# Poissons Ratio (x) = 0.02712 -0.22622
# Poissons Ratio (y) = 0.04981 0.36861
# Poissons Ratio (z) = -0.28705 0.25462
#
# Static dielectric constant tensor:
#      x y z
#    x 1.820500 -0.017830 -0.051840 
#    y -0.017830 1.828370 -0.010630 
#    z -0.051840 -0.010630 1.794010 
# 
# From -- ./inp_files/327225.got.cif
#   From: 2010.05.17/outbox.cif.g08.bks.cpg/sg2_164_cif.got.tgz:327225.got - 2010.06.03 11:33:40.
