data_PCOD9079021
_publ_section_title
;
Structure prediction by ZEFSAII (Michael W. Deem and Ramdas Pophale) SiO2 
 PCOD9079021
Probable space group: P -1
;
_chemical_formula_sum "Si O2"
_cell_formula_units_Z 14
_cell_length_a 8.430470
_cell_length_b 9.478863
_cell_length_c 9.900738
_cell_angle_alpha 100.693158
_cell_angle_beta 94.264991
_cell_angle_gamma 60.664413
_cell_volume 677.620267
_symmetry_space_group_name_H-M "P -1"
_symmetry_group_IT_number 2
_symmetry_cell_setting 'triclinic'
loop_
_space_group_symop_operation_xyz
x,y,z
-x,-y,-z
loop_
_atom_site_type_symbol
_atom_site_label
_atom_site_fract_x
_atom_site_fract_y
_atom_site_fract_z
Si Si1 0.943932 0.138078 0.347449
Si Si2 0.517908 0.082284 0.701936
Si Si3 0.336705 0.479742 0.054551
Si Si4 0.235927 0.034127 0.562499
Si Si5 0.643445 0.842789 0.895589
Si Si6 0.068639 0.712351 0.895282
Si Si7 0.230674 0.809203 0.153761
O O1 0.049653 0.144032 0.488813
O O2 0.899615 0.277349 0.259229
O O3 0.786409 0.099982 0.376011
O O4 0.086325 0.969941 0.249946
O O5 0.309423 0.133724 0.673345
O O6 0.580579 0.187798 0.816555
O O7 0.614904 0.060968 0.560866
O O8 0.603697 0.905891 0.750314
O O9 0.381506 0.312673 0.098905
O O10 0.253004 0.637335 0.178564
O O11 0.500000 0.500000 0.000000
O O12 0.182065 0.533429 0.938425
O O13 0.854333 0.792466 0.925482
O O14 0.500000 0.000000 0.000000
O O15 0.843774 0.189860 0.001180
#
# Coordination Sequence:
#
# PCOD9079021 Si02
#       7
#     2   2   2   2   2   2   2
#     4  10  18  36  61  90 118 165 199 248 299 351
#     4  10  20  36  57  90 122 153 209 249 282 365
#     4  10  24  38  56  93 127 157 190 245 323 363
#     4   9  20  33  57  91 117 159 214 243 283 345
#     4  12  24  38  64  94 119 160 199 248 313 364
#     4  10  22  38  59  91 128 152 197 256 299 371
#     4   9  20  35  58  85 128 148 196 246 309 349
#
# _framework density 20.660537999999999
#
# number of rings (size 3 to 8) (size 9 to 14) (size 15 to 20)
#    0.857    1.143    2.857    1.714    4.000    0.000 
#    0.000    0.000    0.000    8.571    7.429    0.000 
#    0.000    0.000    0.000    0.000    0.000    0.000 
#
# Total GULP energy -77950.505330 kJ/mol
# GULP energy per Si atom -5567.893238 kJ/mol
# Density = 2.061351 g / cm^3
# Si number density = 20.660538 Si / 1000 Ang^3
#
#
#
# Elastic Constant Matrix: (Units=GPa)
#
#
# Indices 1 2 3 4 5 6 
#
# 1 122.5508 12.4439 33.1642 -11.9474 11.2739 14.1336
# 2 12.4439 96.0931 15.9716 -22.4810 -4.9544 20.9707
# 3 33.1642 15.9716 43.3714 -16.8079 2.8166 9.7650
# 4 -11.9474 -22.4810 -16.8079 16.0375 6.2228 -4.4739
# 5 11.2739 -4.9544 2.8166 6.2228 37.5524 -0.2410
# 6 14.1336 20.9707 9.7650 -4.4739 -0.2410 32.8060
#
#
#
# Elastic Compliance Matrix: (Units=1/GPa)
#
#
# Indices 1 2 3 4 5 6 
#
# 1 0.010741 0.000735 -0.006743 0.002364 -0.003031 -0.002790
# 2 0.000735 0.019154 0.008634 0.035202 -0.004241 -0.010362
# 3 -0.006743 0.008634 0.052853 0.064239 -0.011508 -0.009670
# 4 0.002364 0.035202 0.064239 0.188501 -0.032230 -0.017173
# 5 -0.003031 -0.004241 -0.011508 -0.032230 0.033205 0.003291
# 6 -0.002790 -0.010362 -0.009670 -0.017173 0.003291 0.038869
#
#
# Mechanical properties :
#
#
# Convention : Reuss Voigt Hill
#
# Bulk Modulus (GPa) = 11.36339 42.79720 27.08030
# Shear Modulus (GPa) = 13.60903 30.64153 22.12528
#
# Velocity S-wave (km/s) = 2.56929 3.85527 3.27600
# Velocity P-wave (km/s) = 3.78334 6.37000 5.23883
#
# Compressibility (1/GPa) = 0.08800190
#
# Stress axis : x y z
#
# Youngs Moduli (GPa) = 93.10056 52.20736 18.92057
#
# Poissons Ratio (x) = -0.03840 0.12758
# Poissons Ratio (y) = -0.06847 -0.16337
# Poissons Ratio (z) = 0.62777 -0.45078
#
# Static dielectric constant tensor:
#      x y z
#    x 1.821080 -0.026810 0.002320 
#    y -0.026810 1.771710 0.011780 
#    z 0.002320 0.011780 1.792530 
# 
# From -- ./inp_files/376363.got.cif
#   From: 2010.05.17/outbox.cif.g08.bks.cpg/sg2_189_cif.got.tgz:376363.got - 2010.06.03 11:33:40.
