data_PCOD9079670
_publ_section_title
;
Structure prediction by ZEFSAII (Michael W. Deem and Ramdas Pophale) SiO2 
 PCOD9079670
Probable space group: P -1
;
_chemical_formula_sum "Si O2"
_cell_formula_units_Z 16
_cell_length_a 9.125630
_cell_length_b 21.332789
_cell_length_c 12.241996
_cell_angle_alpha 138.150026
_cell_angle_beta 137.940399
_cell_angle_gamma 74.082629
_cell_volume 832.542045
_symmetry_space_group_name_H-M "P -1"
_symmetry_group_IT_number 2
_symmetry_cell_setting 'triclinic'
loop_
_space_group_symop_operation_xyz
x,y,z
-x,-y,-z
loop_
_atom_site_type_symbol
_atom_site_label
_atom_site_fract_x
_atom_site_fract_y
_atom_site_fract_z
Si Si1 0.282365 0.833015 0.489320
Si Si2 0.753984 0.860129 0.889724
Si Si3 0.465653 0.591496 0.371830
Si Si4 0.034962 0.571142 0.945898
Si Si5 0.923640 0.561010 0.621002
Si Si6 0.960237 0.932904 0.502287
Si Si7 0.582882 0.171122 0.821541
Si Si8 0.724492 0.014365 0.789925
O O1 0.451430 0.825642 0.667537
O O2 0.104701 0.871313 0.486238
O O3 0.529223 0.938880 0.686131
O O4 0.111955 0.702972 0.169276
O O5 0.688678 0.733422 0.709171
O O6 0.946770 0.918535 0.962402
O O7 0.908289 0.961260 0.198296
O O8 0.638644 0.540321 0.403922
O O9 0.225182 0.520259 0.237621
O O10 0.300348 0.582603 0.158167
O O11 0.943835 0.530176 0.717205
O O12 0.000000 0.500000 0.500000
O O13 0.173825 0.701776 0.926829
O O14 0.642460 0.834026 0.237261
O O15 0.000000 0.000000 0.500000
O O16 0.700014 0.118663 0.891911
O O17 0.426063 0.079966 0.515352
#
# Coordination Sequence:
#
# PCOD9079670 Si02
#       8
#     2   2   2   2   2   2   2   2
#     4  11  21  38  63  88 120 160 200 246 304 366
#     4  10  22  38  61  89 120 157 200 248 301 368
#     4  10  23  45  67  90 125 161 212 261 305 366
#     4  10  24  44  66  92 122 166 209 259 309 363
#     4  12  25  41  66  92 124 165 212 255 311 373
#     4  11  23  35  58  89 125 158 191 250 304 358
#     4  10  21  37  56  91 121 154 199 248 304 357
#     4  10  18  37  63  84 120 154 198 249 294 368
#
# _framework density 19.218249
#
# number of rings (size 3 to 8) (size 9 to 14) (size 15 to 20)
#    0.000    1.500    3.750    1.125    3.500    1.500 
#    0.000    0.000    0.000    0.000    0.000    0.000 
#    0.000    0.000    0.000    0.000    0.000    0.000 
#
# Total GULP energy -89166.534064 kJ/mol
# GULP energy per Si atom -5572.908379 kJ/mol
# Density = 1.917451 g / cm^3
# Si number density = 19.218249 Si / 1000 Ang^3
#
#
#
# Elastic Constant Matrix: (Units=GPa)
#
#
# Indices 1 2 3 4 5 6 
#
# 1 117.6753 54.6268 35.6151 -12.9611 16.8502 -22.4524
# 2 54.6268 91.0672 20.7883 -4.5885 1.7428 -17.0546
# 3 35.6151 20.7883 44.9221 -1.5721 -0.7112 -8.7448
# 4 -12.9611 -4.5885 -1.5721 25.7571 -1.1765 14.4265
# 5 16.8502 1.7428 -0.7112 -1.1765 24.8121 3.0008
# 6 -22.4524 -17.0546 -8.7448 14.4265 3.0008 35.1612
#
#
#
# Elastic Compliance Matrix: (Units=1/GPa)
#
#
# Indices 1 2 3 4 5 6 
#
# 1 0.018023 -0.007138 -0.010067 0.003784 -0.012459 0.005054
# 2 -0.007138 0.016022 -0.001057 -0.002811 0.003094 0.003840
# 3 -0.010067 -0.001057 0.031059 -0.004033 0.007392 0.001807
# 4 0.003784 -0.002811 -0.004033 0.052190 0.002598 -0.021586
# 5 -0.012459 0.003094 0.007392 0.002598 0.050086 -0.009957
# 6 0.005054 0.003840 0.001807 -0.021586 -0.009957 0.043686
#
#
# Mechanical properties :
#
#
# Convention : Reuss Voigt Hill
#
# Bulk Modulus (GPa) = 34.98943 52.85832 43.92388
# Shear Modulus (GPa) = 19.44635 26.65506 23.05070
#
# Velocity S-wave (km/s) = 3.18444 3.72824 3.46702
# Velocity P-wave (km/s) = 5.63620 6.78947 6.23954
#
# Compressibility (1/GPa) = 0.02858006
#
# Stress axis : x y z
#
# Youngs Moduli (GPa) = 55.48363 62.41375 32.19655
#
# Poissons Ratio (x) = 0.44549 0.32413
# Poissons Ratio (y) = 0.39602 0.03405
# Poissons Ratio (z) = 0.55856 0.06600
#
# Static dielectric constant tensor:
#      x y z
#    x 1.681640 -0.055310 -0.024570 
#    y -0.055310 1.780340 0.031950 
#    z -0.024570 0.031950 1.741340 
# 
# From -- ./inp_files/180352.got.cif
#   From: 2010.05.17/outbox.cif.g08.bks.cpg/sg2_91_cif.got.tgz:180352.got - 2010.06.03 11:33:40.
