data_PCOD9079603
_publ_section_title
;
Structure prediction by ZEFSAII (Michael W. Deem and Ramdas Pophale) SiO2 
 PCOD9079603
Probable space group: P -1
;
_chemical_formula_sum "Si O2"
_cell_formula_units_Z 14
_cell_length_a 11.471040
_cell_length_b 8.385829
_cell_length_c 15.835835
_cell_angle_alpha 42.170768
_cell_angle_beta 140.588933
_cell_angle_gamma 136.392290
_cell_volume 606.892859
_symmetry_space_group_name_H-M "P -1"
_symmetry_group_IT_number 2
_symmetry_cell_setting 'triclinic'
loop_
_space_group_symop_operation_xyz
x,y,z
-x,-y,-z
loop_
_atom_site_type_symbol
_atom_site_label
_atom_site_fract_x
_atom_site_fract_y
_atom_site_fract_z
Si Si1 0.196026 0.839258 0.229705
Si Si2 0.529491 0.351362 0.425143
Si Si3 0.468154 0.738092 0.844458
Si Si4 0.110210 0.995605 0.289331
Si Si5 0.618803 0.001017 0.983713
Si Si6 0.777403 0.572216 0.309648
Si Si7 0.187719 0.518678 0.199609
O O1 0.327779 0.716127 0.405155
O O2 0.072149 0.926465 0.195726
O O3 0.103590 0.632225 0.185832
O O4 0.338080 0.092477 0.164285
O O5 0.651917 0.490529 0.356786
O O6 0.406367 0.505314 0.341986
O O7 0.346995 0.105113 0.388192
O O8 0.293297 0.647673 0.714448
O O9 0.500000 0.500000 0.000000
O O10 0.465569 0.908269 0.856474
O O11 0.008369 0.733905 0.384809
O O12 0.068837 0.232159 0.215938
O O13 0.720481 0.798126 0.143114
O O14 0.766443 0.275223 0.930047
O O15 0.500000 0.000000 0.000000
#
# Coordination Sequence:
#
# PCOD9079603 Si02
#       7
#     2   2   2   2   2   2   2
#     4  11  20  41  63  85 123 163 195 243 307 342
#     4  10  21  40  62  86 123 160 196 247 293 355
#     4   9  20  36  60  85 113 151 201 237 288 363
#     4  10  23  38  60  91 122 156 197 252 289 357
#     4  10  18  37  62  84 116 159 196 243 303 349
#     4  11  21  39  61  91 118 156 202 244 298 349
#     4   9  21  38  61  87 118 156 204 242 291 360
#
# _framework density 23.068322999999999
#
# number of rings (size 3 to 8) (size 9 to 14) (size 15 to 20)
#    0.857    1.143    2.857    0.857    2.000    1.143 
#    2.571    7.143    0.000    0.000    0.000    0.000 
#    0.000    0.000    0.000    0.000    0.000    0.000 
#
# Total GULP energy -78042.902697 kJ/mol
# GULP energy per Si atom -5574.493050 kJ/mol
# Density = 2.301582 g / cm^3
# Si number density = 23.068323 Si / 1000 Ang^3
#
#
#
# Elastic Constant Matrix: (Units=GPa)
#
#
# Indices 1 2 3 4 5 6 
#
# 1 101.0055 59.9691 16.6921 8.7628 -37.8094 -8.6694
# 2 59.9691 153.0572 19.3677 -14.5436 -32.8173 -4.2526
# 3 16.6921 19.3677 76.4224 -17.1037 -22.1302 3.6031
# 4 8.7628 -14.5436 -17.1037 28.0839 1.0952 -2.1975
# 5 -37.8094 -32.8173 -22.1302 1.0952 35.8976 -1.4761
# 6 -8.6694 -4.2526 3.6031 -2.1975 -1.4761 34.4879
#
#
#
# Elastic Compliance Matrix: (Units=1/GPa)
#
#
# Indices 1 2 3 4 5 6 
#
# 1 0.020820 -0.005173 -0.000668 -0.009882 0.017286 0.004776
# 2 -0.005173 0.010068 0.001575 0.007647 0.004512 0.000457
# 3 -0.000668 0.001575 0.019081 0.012119 0.012101 -0.000677
# 4 -0.009882 0.007647 0.012119 0.049971 0.002549 0.000486
# 5 0.017286 0.004512 0.012101 0.002549 0.057829 0.006275
# 6 0.004776 0.000457 -0.000677 0.000486 0.006275 0.030623
#
#
# Mechanical properties :
#
#
# Convention : Reuss Voigt Hill
#
# Bulk Modulus (GPa) = 24.13350 58.06031 41.09690
# Shear Modulus (GPa) = 23.72654 35.32428 29.52541
#
# Velocity S-wave (km/s) = 3.21055 3.91741 3.58147
# Velocity P-wave (km/s) = 4.92220 6.75907 5.91240
#
# Compressibility (1/GPa) = 0.04143617
#
# Stress axis : x y z
#
# Youngs Moduli (GPa) = 48.03062 99.32787 52.40937
#
# Poissons Ratio (x) = 0.51382 0.03500
# Poissons Ratio (y) = 0.24846 -0.08253
# Poissons Ratio (z) = 0.03207 -0.15641
#
# Static dielectric constant tensor:
#      x y z
#    x 1.907520 0.021830 0.071590 
#    y 0.021830 1.977950 0.056390 
#    z 0.071590 0.056390 1.941940 
# 
# From -- ./inp_files/251687.got.cif
#   From: 2010.05.17/outbox.cif.g08.bks.cpg/sg2_126_cif.got.tgz:251687.got - 2010.06.03 11:33:40.
