data_PCOD9079424
_publ_section_title
;
Structure prediction by ZEFSAII (Michael W. Deem and Ramdas Pophale) SiO2 
 PCOD9079424
Probable space group: P -1
;
_chemical_formula_sum "Si O2"
_cell_formula_units_Z 15
_cell_length_a 13.966746
_cell_length_b 8.755875
_cell_length_c 14.311214
_cell_angle_alpha 141.049455
_cell_angle_beta 38.342548
_cell_angle_gamma 125.134193
_cell_volume 679.864815
_symmetry_space_group_name_H-M "P -1"
_symmetry_group_IT_number 2
_symmetry_cell_setting 'triclinic'
loop_
_space_group_symop_operation_xyz
x,y,z
-x,-y,-z
loop_
_atom_site_type_symbol
_atom_site_label
_atom_site_fract_x
_atom_site_fract_y
_atom_site_fract_z
Si Si1 0.647578 0.639444 0.053753
Si Si2 0.010384 0.965779 0.586386
Si Si3 0.078853 0.111953 0.099785
Si Si4 0.137164 0.676089 0.979191
Si Si5 0.683767 0.220054 0.671745
Si Si6 0.000000 0.500000 0.500000
Si Si7 0.595486 0.652873 0.306864
Si Si8 0.731232 0.170489 0.408174
O O1 0.495072 0.816699 0.227414
O O2 0.613812 0.542352 0.135613
O O3 0.795631 0.788821 0.015950
O O4 0.671761 0.426715 0.858426
O O5 0.189740 0.990683 0.492788
O O6 0.989120 0.691143 0.505665
O O7 0.000000 0.000000 0.500000
O O8 0.898180 0.155844 0.821622
O O9 0.083742 0.281317 0.268294
O O10 0.899833 0.148370 0.224146
O O11 0.120253 0.843587 0.980454
O O12 0.302993 0.523737 0.787245
O O13 0.000000 0.500000 0.000000
O O14 0.749940 0.306698 0.560955
O O15 0.410711 0.705972 0.484016
O O16 0.673740 0.910731 0.361637
#
# Coordination Sequence:
#
# PCOD9079424 Si02
#       8
#     2   2   2   2   2   1   2   2
#     4  10  21  33  61  84 115 144 203 248 290 351
#     4  11  21  36  63  88 121 163 206 251 306 368
#     4  11  19  36  60  86 115 159 189 248 303 353
#     4  11  21  37  59  85 120 158 195 245 309 358
#     4  10  18  37  57  84 113 158 191 243 303 359
#     4  10  20  36  58  90 122 156 210 246 304 368
#     4  10  21  37  56  87 110 152 204 236 288 372
#     4  10  19  36  61  79 114 158 196 235 301 362
#
# _framework density 22.063209000000001
#
# number of rings (size 3 to 8) (size 9 to 14) (size 15 to 20)
#    0.000    1.600    5.333    0.800    0.000    0.533 
#    0.000    1.333    0.000   15.200    0.000    0.000 
#    0.000    0.000    0.000    0.000    0.000    0.000 
#
# Total GULP energy -83523.848215 kJ/mol
# GULP energy per Si atom -5568.256548 kJ/mol
# Density = 2.201299 g / cm^3
# Si number density = 22.063209 Si / 1000 Ang^3
#
#
#
# Elastic Constant Matrix: (Units=GPa)
#
#
# Indices 1 2 3 4 5 6 
#
# 1 105.8124 25.4635 40.0021 -2.4116 -26.9125 -7.4484
# 2 25.4635 66.3456 21.7527 -0.0154 -14.6755 -8.6741
# 3 40.0021 21.7527 89.1580 -2.3385 -35.0623 1.1658
# 4 -2.4116 -0.0154 -2.3385 38.0471 6.3071 -9.3534
# 5 -26.9125 -14.6755 -35.0623 6.3071 64.7707 0.2853
# 6 -7.4484 -8.6741 1.1658 -9.3534 0.2853 26.7563
#
#
#
# Elastic Compliance Matrix: (Units=1/GPa)
#
#
# Indices 1 2 3 4 5 6 
#
# 1 0.012418 -0.002517 -0.004078 0.000924 0.002278 0.003117
# 2 -0.002517 0.017977 -0.002741 0.000795 0.001442 0.005509
# 3 -0.004078 -0.002741 0.016345 -0.001147 0.006658 -0.003208
# 4 0.000924 0.000795 -0.001147 0.029441 -0.002972 0.010888
# 5 0.002278 0.001442 0.006658 -0.002972 0.020608 -0.000447
# 6 0.003117 0.005509 -0.003208 0.010888 -0.000447 0.043979
#
#
# Mechanical properties :
#
#
# Convention : Reuss Voigt Hill
#
# Bulk Modulus (GPa) = 35.62842 48.41694 42.02268
# Shear Modulus (GPa) = 29.62169 37.52134 33.57152
#
# Velocity S-wave (km/s) = 3.66810 4.12834 3.90501
# Velocity P-wave (km/s) = 5.84152 6.68705 6.27853
#
# Compressibility (1/GPa) = 0.02806748
#
# Stress axis : x y z
#
# Youngs Moduli (GPa) = 80.52779 55.62761 61.18201
#
# Poissons Ratio (x) = 0.14003 0.24950
# Poissons Ratio (y) = 0.20271 0.16768
# Poissons Ratio (z) = 0.32839 0.15246
#
# Static dielectric constant tensor:
#      x y z
#    x 1.948290 0.083540 0.024500 
#    y 0.083540 1.805580 -0.002350 
#    z 0.024500 -0.002350 1.855950 
# 
# From -- ./inp_files/529104.got.cif
#   From: 2010.05.17/outbox.cif.g08.bks.cpg/sg2_265_cif.got.tgz:529104.got - 2010.06.03 11:33:40.
