data_PCOD9079017
_publ_section_title
;
Structure prediction by ZEFSAII (Michael W. Deem and Ramdas Pophale) SiO2 
 PCOD9079017
Probable space group: P -1
;
_chemical_formula_sum "Si O2"
_cell_formula_units_Z 14
_cell_length_a 19.673737
_cell_length_b 5.369612
_cell_length_c 9.390848
_cell_angle_alpha 133.827458
_cell_angle_beta 127.929395
_cell_angle_gamma 74.232619
_cell_volume 543.470196
_symmetry_space_group_name_H-M "P -1"
_symmetry_group_IT_number 2
_symmetry_cell_setting 'triclinic'
loop_
_space_group_symop_operation_xyz
x,y,z
-x,-y,-z
loop_
_atom_site_type_symbol
_atom_site_label
_atom_site_fract_x
_atom_site_fract_y
_atom_site_fract_z
Si Si1 0.760550 0.667164 0.310754
Si Si2 0.958999 0.729664 0.654674
Si Si3 0.662406 0.930630 0.802257
Si Si4 0.532215 0.610031 0.301943
Si Si5 0.035992 0.318036 0.790976
Si Si6 0.239722 0.527728 0.078294
Si Si7 0.390140 0.029644 0.750618
O O1 0.852201 0.639672 0.485483
O O2 0.711551 0.964953 0.407426
O O3 0.779015 0.719130 0.186325
O O4 0.689800 0.273993 0.076811
O O5 0.000000 0.500000 0.500000
O O6 0.999555 0.633827 0.811719
O O7 0.993339 0.128389 0.801953
O O8 0.561718 0.834747 0.574348
O O9 0.692109 0.612410 0.791140
O O10 0.720675 0.088027 0.796826
O O11 0.560136 0.835043 0.281739
O O12 0.590428 0.319393 0.292374
O O13 0.433674 0.349283 0.046964
O O14 0.142742 0.452570 0.991957
O O15 0.000000 0.000000 0.500000
#
# Coordination Sequence:
#
# PCOD9079017 Si02
#       7
#     2   2   2   2   2   2   2
#     4  10  22  32  57  89 111 134 187 236 267 307
#     4  10  17  27  47  76 115 137 170 218 278 309
#     4  10  20  34  56  80 113 140 182 222 276 327
#     4  10  22  43  57  78 108 155 179 215 281 333
#     4  10  15  27  43  72 114 141 165 211 272 319
#     4  10  19  30  51  86 113 136 178 225 272 311
#     4  10  23  39  61  79 110 141 189 227 263 328
#
# _framework density 25.760383000000001
#
# number of rings (size 3 to 8) (size 9 to 14) (size 15 to 20)
#    0.857    1.143    2.857    3.429    2.000    0.571 
#    0.000    0.714    0.000    0.000    0.000   34.000 
#    0.000    0.000    0.000    0.000    0.000    0.000 
#
# Total GULP energy -78214.648238 kJ/mol
# GULP energy per Si atom -5586.760588 kJ/mol
# Density = 2.570175 g / cm^3
# Si number density = 25.760383 Si / 1000 Ang^3
#
#
#
# Elastic Constant Matrix: (Units=GPa)
#
#
# Indices 1 2 3 4 5 6 
#
# 1 52.8088 21.5144 33.8882 -9.5664 4.0446 -9.3258
# 2 21.5144 181.0204 22.3530 -8.4232 4.3432 15.4202
# 3 33.8882 22.3530 49.5924 -9.7049 10.0039 4.3741
# 4 -9.5664 -8.4232 -9.7049 51.5124 -6.6819 1.7196
# 5 4.0446 4.3432 10.0039 -6.6819 32.2938 -13.4358
# 6 -9.3258 15.4202 4.3741 1.7196 -13.4358 40.7524
#
#
#
# Elastic Compliance Matrix: (Units=1/GPa)
#
#
# Indices 1 2 3 4 5 6 
#
# 1 0.043736 -0.003010 -0.032382 0.002633 0.013375 0.018922
# 2 -0.003010 0.006258 0.000023 0.000340 -0.001947 -0.003716
# 3 -0.032382 0.000023 0.047855 0.001259 -0.018262 -0.018629
# 4 0.002633 0.000340 0.001259 0.020665 0.003811 0.000723
# 5 0.013375 -0.001947 -0.018262 0.003811 0.044420 0.020242
# 6 0.018922 -0.003716 -0.018629 0.000723 0.020242 0.038917
#
#
# Mechanical properties :
#
#
# Convention : Reuss Voigt Hill
#
# Bulk Modulus (GPa) = 36.88340 48.77032 42.82686
# Shear Modulus (GPa) = 17.75410 38.62280 28.18845
#
# Velocity S-wave (km/s) = 2.62811 3.87629 3.31154
# Velocity P-wave (km/s) = 4.85369 6.24561 5.59311
#
# Compressibility (1/GPa) = 0.02711246
#
# Stress axis : x y z
#
# Youngs Moduli (GPa) = 22.86434 159.79108 20.89647
#
# Poissons Ratio (x) = 0.48093 0.67666
# Poissons Ratio (y) = 0.06882 -0.00048
# Poissons Ratio (z) = 0.74039 -0.00367
#
# Static dielectric constant tensor:
#      x y z
#    x 2.005520 -0.043010 -0.072270 
#    y -0.043010 1.975230 0.079230 
#    z -0.072270 0.079230 2.117610 
# 
# From -- ./inp_files/50226.got.cif
#   From: 2010.05.17/outbox.cif.g08.bks.cpg/sg2_26_cif.got.tgz:50226.got - 2010.06.03 11:33:40.
