data_PCOD9079460
_publ_section_title
;
Structure prediction by ZEFSAII (Michael W. Deem and Ramdas Pophale) SiO2 
 PCOD9079460
Probable space group: P -1
;
_chemical_formula_sum "Si O2"
_cell_formula_units_Z 16
_cell_length_a 8.829806
_cell_length_b 15.931513
_cell_length_c 9.251205
_cell_angle_alpha 75.504058
_cell_angle_beta 131.419825
_cell_angle_gamma 72.232641
_cell_volume 719.283733
_symmetry_space_group_name_H-M "P -1"
_symmetry_group_IT_number 2
_symmetry_cell_setting 'triclinic'
loop_
_space_group_symop_operation_xyz
x,y,z
-x,-y,-z
loop_
_atom_site_type_symbol
_atom_site_label
_atom_site_fract_x
_atom_site_fract_y
_atom_site_fract_z
Si Si1 0.507950 0.147544 0.657635
Si Si2 0.410888 0.728078 0.902752
Si Si3 0.251700 0.526323 0.141340
Si Si4 0.820860 0.057561 0.164173
Si Si5 0.173645 0.081606 0.542933
Si Si6 0.665883 0.691758 0.771139
Si Si7 0.024606 0.393663 0.371019
Si Si8 0.275280 0.491886 0.603625
O O1 0.400100 0.079547 0.625843
O O2 0.504449 0.192684 0.479457
O O3 0.279597 0.267985 0.541170
O O4 0.766470 0.078800 0.951487
O O5 0.394079 0.821096 0.943998
O O6 0.536794 0.711998 0.835316
O O7 0.101062 0.788253 0.672157
O O8 0.566492 0.614109 0.140056
O O9 0.316458 0.406874 0.254792
O O10 0.507706 0.512532 0.338902
O O11 0.977344 0.632004 0.998187
O O12 0.182712 0.554320 0.913804
O O13 0.093032 0.025693 0.406939
O O14 0.785535 0.974226 0.251666
O O15 0.109937 0.470853 0.412260
O O16 0.907342 0.401262 0.450152
#
# Coordination Sequence:
#
# PCOD9079460 Si02
#       8
#     2   2   2   2   2   2   2   2
#     4  11  20  36  59  80 114 146 178 229 284 330
#     4  10  18  37  59  80 113 143 183 236 269 319
#     4  10  21  37  52  73 123 159 176 220 277 321
#     4   9  20  38  63  82 104 136 197 238 263 333
#     4   9  20  37  65  81 101 144 193 229 283 319
#     4  10  22  34  53  85 118 150 182 223 278 335
#     4  10  20  32  56  87 103 141 199 227 251 332
#     4  11  20  33  60  81 110 148 195 225 264 320
#
# _framework density 22.244351000000002
#
# number of rings (size 3 to 8) (size 9 to 14) (size 15 to 20)
#    0.750    1.250    2.500    2.250    1.750    0.000 
#    0.000    8.125    8.250    0.000    0.000    0.000 
#    0.000    0.000    0.000    0.000    0.000    0.000 
#
# Total GULP energy -89327.573392 kJ/mol
# GULP energy per Si atom -5582.973337 kJ/mol
# Density = 2.219372 g / cm^3
# Si number density = 22.244351 Si / 1000 Ang^3
#
#
#
# Elastic Constant Matrix: (Units=GPa)
#
#
# Indices 1 2 3 4 5 6 
#
# 1 76.8465 6.9978 28.7053 20.1322 -10.7356 3.3763
# 2 6.9978 32.1325 8.6103 -0.4014 -7.2554 4.6742
# 3 28.7053 8.6103 69.7851 3.3507 -17.8785 11.6216
# 4 20.1322 -0.4014 3.3507 21.4649 7.4205 -2.7156
# 5 -10.7356 -7.2554 -17.8785 7.4205 36.7828 0.5293
# 6 3.3763 4.6742 11.6216 -2.7156 0.5293 34.5905
#
#
#
# Elastic Compliance Matrix: (Units=1/GPa)
#
#
# Indices 1 2 3 4 5 6 
#
# 1 0.022660 -0.001544 -0.005476 -0.023618 0.008443 -0.002147
# 2 -0.001544 0.033682 -0.001410 -0.000145 0.005595 -0.004024
# 3 -0.005476 -0.001410 0.019995 -0.001660 0.008267 -0.006249
# 4 -0.023618 -0.000145 -0.001660 0.078368 -0.023674 0.009397
# 5 0.008443 0.005595 0.008267 -0.023674 0.039647 -0.006823
# 6 -0.002147 -0.004024 -0.006249 0.009397 -0.006823 0.032605
#
#
# Mechanical properties :
#
#
# Convention : Reuss Voigt Hill
#
# Bulk Modulus (GPa) = 16.81337 29.71011 23.26174
# Shear Modulus (GPa) = 18.96508 27.53102 23.24805
#
# Velocity S-wave (km/s) = 2.92306 3.52186 3.23634
# Velocity P-wave (km/s) = 4.35515 5.47021 4.94422
#
# Compressibility (1/GPa) = 0.05947647
#
# Stress axis : x y z
#
# Youngs Moduli (GPa) = 44.13022 29.68935 50.01360
#
# Poissons Ratio (x) = 0.04584 0.27387
# Poissons Ratio (y) = 0.06814 0.07053
# Poissons Ratio (z) = 0.24166 0.04187
#
# Static dielectric constant tensor:
#      x y z
#    x 1.842110 -0.003730 0.001740 
#    y -0.003730 1.832390 0.010680 
#    z 0.001740 0.010680 1.855730 
# 
# From -- ./inp_files/217363.got.cif
#   From: 2010.05.17/outbox.cif.g08.bks.cpg/sg2_109_cif.got.tgz:217363.got - 2010.06.03 11:33:40.
