data_PCOD9079199
_publ_section_title
;
Structure prediction by ZEFSAII (Michael W. Deem and Ramdas Pophale) SiO2 
 PCOD9079199
Probable space group: P -1
;
_chemical_formula_sum "Si O2"
_cell_formula_units_Z 16
_cell_length_a 14.425285
_cell_length_b 8.945469
_cell_length_c 11.189702
_cell_angle_alpha 88.881025
_cell_angle_beta 153.667475
_cell_angle_gamma 97.073311
_cell_volume 621.944965
_symmetry_space_group_name_H-M "P -1"
_symmetry_group_IT_number 2
_symmetry_cell_setting 'triclinic'
loop_
_space_group_symop_operation_xyz
x,y,z
-x,-y,-z
loop_
_atom_site_type_symbol
_atom_site_label
_atom_site_fract_x
_atom_site_fract_y
_atom_site_fract_z
Si Si1 0.277197 0.791334 0.452538
Si Si2 0.427222 0.110894 0.666785
Si Si3 0.067439 0.206377 0.115492
Si Si4 0.767600 0.298071 0.328314
Si Si5 0.124548 0.701462 0.887608
Si Si6 0.275150 0.534714 0.265222
Si Si7 0.787029 0.627528 0.288129
Si Si8 0.763222 0.951902 0.291692
O O1 0.243592 0.708639 0.541416
O O2 0.318870 0.681870 0.398680
O O3 0.463567 0.943942 0.681209
O O4 0.067398 0.847444 0.159295
O O5 0.287427 0.160992 0.399138
O O6 0.657092 0.228693 0.932283
O O7 0.278619 0.082753 0.614324
O O8 0.134368 0.390114 0.173537
O O9 0.917968 0.181117 0.060918
O O10 0.681424 0.443123 0.173157
O O11 0.021711 0.346287 0.588073
O O12 0.691274 0.116778 0.199490
O O13 0.172014 0.561455 0.019736
O O14 0.920894 0.659162 0.566959
O O15 0.500000 0.500000 0.500000
O O16 0.678482 0.774434 0.146256
O O17 0.000000 0.000000 0.500000
#
# Coordination Sequence:
#
# PCOD9079199 Si02
#       8
#     2   2   2   2   2   2   2   2
#     4  10  22  38  58  88 124 157 207 254 303 375
#     4  11  22  39  60  92 124 158 206 260 305 366
#     4  11  21  39  63  87 120 166 201 249 317 366
#     4   9  19  35  62  91 117 162 211 249 312 364
#     4  11  22  37  63  93 120 164 211 244 313 375
#     4  11  22  39  60  89 124 161 201 257 308 366
#     4  10  18  36  64  87 120 164 202 259 308 366
#     4   9  19  37  61  89 121 162 204 252 307 361
#
# _framework density 25.725749
#
# number of rings (size 3 to 8) (size 9 to 14) (size 15 to 20)
#    0.000    1.750    2.500    3.375    0.000    2.000 
#    2.250    6.875    0.000   12.000    0.000    0.000 
#    0.000    0.000    0.000    0.000    0.000    0.000 
#
# Total GULP energy -89318.950659 kJ/mol
# GULP energy per Si atom -5582.434416 kJ/mol
# Density = 2.566720 g / cm^3
# Si number density = 25.725749 Si / 1000 Ang^3
#
#
#
# Elastic Constant Matrix: (Units=GPa)
#
#
# Indices 1 2 3 4 5 6 
#
# 1 114.3092 50.9048 31.8590 1.3884 -9.9249 11.7878
# 2 50.9048 197.7594 47.7075 10.7529 6.6333 -3.1600
# 3 31.8590 47.7075 70.8551 -6.5372 -5.2549 5.8001
# 4 1.3884 10.7529 -6.5372 57.5014 6.6776 1.9356
# 5 -9.9249 6.6333 -5.2549 6.6776 26.6290 0.8654
# 6 11.7878 -3.1600 5.8001 1.9356 0.8654 54.1614
#
#
#
# Elastic Compliance Matrix: (Units=1/GPa)
#
#
# Indices 1 2 3 4 5 6 
#
# 1 0.011254 -0.002313 -0.003045 -0.000619 0.004400 -0.002307
# 2 -0.002313 0.006823 -0.004024 -0.001370 -0.003059 0.001430
# 3 -0.003045 -0.004024 0.018800 0.002678 0.002962 -0.001728
# 4 -0.000619 -0.001370 0.002678 0.018454 -0.003962 -0.000828
# 5 0.004400 -0.003059 0.002962 -0.003962 0.041597 -0.001976
# 6 -0.002307 0.001430 -0.001728 -0.000828 -0.001976 0.019295
#
#
# Mechanical properties :
#
#
# Convention : Reuss Voigt Hill
#
# Bulk Modulus (GPa) = 55.20915 71.54071 63.37493
# Shear Modulus (GPa) = 35.45446 44.48851 39.97148
#
# Velocity S-wave (km/s) = 3.71640 4.16304 3.94604
# Velocity P-wave (km/s) = 6.31844 7.13984 6.74166
#
# Compressibility (1/GPa) = 0.01811294
#
# Stress axis : x y z
#
# Youngs Moduli (GPa) = 88.85442 146.56631 53.19131
#
# Poissons Ratio (x) = 0.33904 0.16196
# Poissons Ratio (y) = 0.20554 0.21405
# Poissons Ratio (z) = 0.27054 0.58980
#
# Static dielectric constant tensor:
#      x y z
#    x 2.032420 -0.059770 0.027520 
#    y -0.059770 2.118570 -0.024470 
#    z 0.027520 -0.024470 2.083700 
# 
# From -- ./inp_files/312746.got.cif
#   From: 2010.05.17/outbox.cif.g08.bks.cpg/sg2_157_cif.got.tgz:312746.got - 2010.06.03 11:33:40.
