data_PCOD9079719
_publ_section_title
;
Structure prediction by ZEFSAII (Michael W. Deem and Ramdas Pophale) SiO2 
 PCOD9079719
Probable space group: P -1
;
_chemical_formula_sum "Si O2"
_cell_formula_units_Z 16
_cell_length_a 8.566534
_cell_length_b 12.822231
_cell_length_c 8.831479
_cell_angle_alpha 77.653719
_cell_angle_beta 125.772188
_cell_angle_gamma 75.150485
_cell_volume 674.054474
_symmetry_space_group_name_H-M "P -1"
_symmetry_group_IT_number 2
_symmetry_cell_setting 'triclinic'
loop_
_space_group_symop_operation_xyz
x,y,z
-x,-y,-z
loop_
_atom_site_type_symbol
_atom_site_label
_atom_site_fract_x
_atom_site_fract_y
_atom_site_fract_z
Si Si1 0.807057 0.237583 0.119931
Si Si2 0.300977 0.489428 0.470857
Si Si3 0.348922 0.950261 0.849416
Si Si4 0.992032 0.723776 0.054069
Si Si5 0.761208 0.615293 0.806574
Si Si6 0.072999 0.859013 0.296396
Si Si7 0.708659 0.998090 0.544845
Si Si8 0.644625 0.386220 0.282511
O O1 0.815408 0.297057 0.947446
O O2 0.729209 0.337570 0.178181
O O3 0.063634 0.129969 0.311463
O O4 0.655532 0.171418 0.055968
O O5 0.500000 0.500000 0.500000
O O6 0.298113 0.380854 0.406507
O O7 0.322692 0.505231 0.657539
O O8 0.081195 0.610026 0.254609
O O9 0.366578 0.941801 0.681903
O O10 0.104802 0.055896 0.711900
O O11 0.500000 0.000000 0.000000
O O12 0.791749 0.726303 0.849130
O O13 0.952629 0.840821 0.089967
O O14 0.598222 0.592101 0.827718
O O15 0.000000 0.500000 0.000000
O O16 0.216942 0.729863 0.495154
O O17 0.222376 0.921173 0.334319
O O18 0.500000 0.000000 0.500000
#
# Coordination Sequence:
#
# PCOD9079719 Si02
#       8
#     2   2   2   2   2   2   2   2
#     4  11  23  39  56  91 127 156 201 256 292 346
#     4   8  17  38  62  81 112 156 192 242 311 362
#     4  11  24  40  59  83 126 160 205 244 304 348
#     4  10  22  34  60  93 117 149 211 246 289 361
#     4   9  19  37  60  88 112 149 197 248 307 364
#     4  10  21  39  58  85 119 165 201 241 297 355
#     4  11  24  40  60  83 126 164 201 244 300 354
#     4  10  18  37  64  80 117 161 196 247 304 359
#
# _framework density 23.736951999999999
#
# number of rings (size 3 to 8) (size 9 to 14) (size 15 to 20)
#    0.000    2.000    2.500    0.750    7.000    1.000 
#    0.000    6.250    0.000    0.000    0.000    0.000 
#    0.000    0.000    0.000    0.000    0.000    0.000 
#
# Total GULP energy -89301.571198 kJ/mol
# GULP energy per Si atom -5581.348200 kJ/mol
# Density = 2.368293 g / cm^3
# Si number density = 23.736952 Si / 1000 Ang^3
#
#
#
# Elastic Constant Matrix: (Units=GPa)
#
#
# Indices 1 2 3 4 5 6 
#
# 1 94.0934 42.1251 25.2243 22.4993 4.2022 -3.3727
# 2 42.1251 111.0745 49.6024 51.6670 1.3662 -13.6852
# 3 25.2243 49.6024 66.6881 28.9877 9.3605 11.9492
# 4 22.4993 51.6670 28.9877 58.5839 1.5797 5.5896
# 5 4.2022 1.3662 9.3605 1.5797 32.3948 7.6865
# 6 -3.3727 -13.6852 11.9492 5.5896 7.6865 38.0298
#
#
#
# Elastic Compliance Matrix: (Units=1/GPa)
#
#
# Indices 1 2 3 4 5 6 
#
# 1 0.013027 -0.003502 -0.001861 -0.001045 -0.001159 0.000868
# 2 -0.003502 0.025978 -0.013806 -0.016241 0.000420 0.015678
# 3 -0.001861 -0.013806 0.029006 -0.000070 -0.004387 -0.013350
# 4 -0.001045 -0.016241 -0.000070 0.032840 0.001878 -0.011122
# 5 -0.001159 0.000420 -0.004387 0.001878 0.033512 -0.005623
# 6 0.000868 0.015678 -0.013350 -0.011122 -0.005623 0.038980
#
#
# Mechanical properties :
#
#
# Convention : Reuss Voigt Hill
#
# Bulk Modulus (GPa) = 33.70062 56.19550 44.94806
# Shear Modulus (GPa) = 22.56611 36.12864 29.34737
#
# Velocity S-wave (km/s) = 3.08665 3.90557 3.52000
# Velocity P-wave (km/s) = 5.18956 6.63804 5.95798
#
# Compressibility (1/GPa) = 0.02967304
#
# Stress axis : x y z
#
# Youngs Moduli (GPa) = 76.76162 38.49462 34.47578
#
# Poissons Ratio (x) = 0.13482 0.06416
# Poissons Ratio (y) = 0.26884 0.47596
# Poissons Ratio (z) = 0.14285 0.53145
#
# Static dielectric constant tensor:
#      x y z
#    x 1.864200 0.024390 0.012610 
#    y 0.024390 2.036790 0.008260 
#    z 0.012610 0.008260 1.973160 
# 
# From -- ./inp_files/196316.got.cif
#   From: 2010.05.17/outbox.cif.g08.bks.cpg/sg2_99_cif.got.tgz:196316.got - 2010.06.03 11:33:40.
