data_PCOD9079315
_publ_section_title
;
Structure prediction by ZEFSAII (Michael W. Deem and Ramdas Pophale) SiO2 
 PCOD9079315
Probable space group: P -1
;
_chemical_formula_sum "Si O2"
_cell_formula_units_Z 14
_cell_length_a 19.101445
_cell_length_b 11.376732
_cell_length_c 8.979951
_cell_angle_alpha 115.591838
_cell_angle_beta 134.963402
_cell_angle_gamma 28.076743
_cell_volume 531.613866
_symmetry_space_group_name_H-M "P -1"
_symmetry_group_IT_number 2
_symmetry_cell_setting 'triclinic'
loop_
_space_group_symop_operation_xyz
x,y,z
-x,-y,-z
loop_
_atom_site_type_symbol
_atom_site_label
_atom_site_fract_x
_atom_site_fract_y
_atom_site_fract_z
Si Si1 0.928285 0.879002 0.396835
Si Si2 0.912388 0.356089 0.958747
Si Si3 0.364215 0.387283 0.580572
Si Si4 0.773939 0.406149 0.068088
Si Si5 0.500000 0.000000 0.000000
Si Si6 0.500000 0.000000 0.500000
Si Si7 0.340150 0.732347 0.071913
Si Si8 0.875184 0.633946 0.604811
O O1 0.155295 0.656350 0.523328
O O2 0.976907 0.882828 0.631870
O O3 0.953630 0.693510 0.335350
O O4 0.721417 0.173950 0.143858
O O5 0.986544 0.395603 0.181253
O O6 0.818826 0.361849 0.936303
O O7 0.121369 0.050989 0.009346
O O8 0.708427 0.623226 0.675510
O O9 0.548258 0.064936 0.737324
O O10 0.454891 0.412257 0.668165
O O11 0.640791 0.695457 0.069403
O O12 0.640291 0.437979 0.938915
O O13 0.697213 0.843274 0.314596
O O14 0.280522 0.201798 0.392588
#
# Coordination Sequence:
#
# PCOD9079315 Si02
#       8
#     2   2   2   2   1   1   2   2
#     4   9  23  42  64 100 132 175 226 273 331 393
#     4  11  24  42  67 103 135 173 222 276 333 398
#     4  10  22  38  64  99 135 174 226 266 334 387
#     4  11  24  46  67  97 140 174 228 271 334 400
#     4  10  24  46  64  96 130 186 220 264 336 400
#     4  10  18  36  66  94 128 170 218 270 314 396
#     4  11  23  44  69 101 134 179 217 281 332 393
#     4  10  21  42  66 100 132 171 226 273 328 393
#
# _framework density 26.334903000000001
#
# number of rings (size 3 to 8) (size 9 to 14) (size 15 to 20)
#    0.000    1.714    1.429    1.714    2.000    5.143 
#   12.857    0.000    0.000    0.000    0.000    0.000 
#    0.000    0.000    0.000    0.000    0.000    0.000 
#
# Total GULP energy -78057.674510 kJ/mol
# GULP energy per Si atom -5575.548179 kJ/mol
# Density = 2.627496 g / cm^3
# Si number density = 26.334903 Si / 1000 Ang^3
#
#
#
# Elastic Constant Matrix: (Units=GPa)
#
#
# Indices 1 2 3 4 5 6 
#
# 1 133.6663 30.7486 53.3640 0.5545 2.8551 20.7812
# 2 30.7486 108.3368 25.6419 -6.6422 6.4300 22.5285
# 3 53.3640 25.6419 154.1051 5.3975 -4.6564 22.8211
# 4 0.5545 -6.6422 5.3975 32.4851 14.8623 2.5307
# 5 2.8551 6.4300 -4.6564 14.8623 33.8895 15.7755
# 6 20.7812 22.5285 22.8211 2.5307 15.7755 42.3407
#
#
#
# Elastic Compliance Matrix: (Units=1/GPa)
#
#
# Indices 1 2 3 4 5 6 
#
# 1 0.009232 -0.001519 -0.002575 0.000019 0.000285 -0.002443
# 2 -0.001519 0.011067 -0.000854 0.003513 -0.001636 -0.004283
# 3 -0.002575 -0.000854 0.008489 -0.003590 0.005263 -0.004604
# 4 0.000019 0.003513 -0.003590 0.041805 -0.022210 0.005833
# 5 0.000285 -0.001636 0.005263 -0.022210 0.049143 -0.019089
# 6 -0.002443 -0.004283 -0.004604 0.005833 -0.019089 0.036341
#
#
# Mechanical properties :
#
#
# Convention : Reuss Voigt Hill
#
# Bulk Modulus (GPa) = 52.92577 68.40190 60.66383
# Shear Modulus (GPa) = 29.02434 40.83333 34.92884
#
# Velocity S-wave (km/s) = 3.32343 3.94196 3.64584
# Velocity P-wave (km/s) = 5.90489 6.83732 6.38814
#
# Compressibility (1/GPa) = 0.01889439
#
# Stress axis : x y z
#
# Youngs Moduli (GPa) = 108.31719 90.36106 117.79644
#
# Poissons Ratio (x) = 0.13723 0.30327
# Poissons Ratio (y) = 0.16450 0.10056
# Poissons Ratio (z) = 0.27886 0.07714
#
# Static dielectric constant tensor:
#      x y z
#    x 2.093930 0.004480 0.001710 
#    y 0.004480 2.139980 -0.004500 
#    z 0.001710 -0.004500 2.111860 
# 
# From -- ./inp_files/68037.got.cif
#   From: 2010.05.17/outbox.cif.g08.bks.cpg/sg2_35_cif.got.tgz:68037.got - 2010.06.03 11:33:40.
