data_PCOD9079954
_publ_section_title
;
Structure prediction by ZEFSAII (Michael W. Deem and Ramdas Pophale) SiO2 
 PCOD9079954
Probable space group: P -1
;
_chemical_formula_sum "Si O2"
_cell_formula_units_Z 16
_cell_length_a 12.984799
_cell_length_b 8.515226
_cell_length_c 13.679286
_cell_angle_alpha 83.918529
_cell_angle_beta 53.608452
_cell_angle_gamma 126.889592
_cell_volume 678.064387
_symmetry_space_group_name_H-M "P -1"
_symmetry_group_IT_number 2
_symmetry_cell_setting 'triclinic'
loop_
_space_group_symop_operation_xyz
x,y,z
-x,-y,-z
loop_
_atom_site_type_symbol
_atom_site_label
_atom_site_fract_x
_atom_site_fract_y
_atom_site_fract_z
Si Si1 0.151244 0.441498 0.485412
Si Si2 0.400012 0.973960 0.859415
Si Si3 0.024303 0.289294 0.944660
Si Si4 0.429844 0.692494 0.067651
Si Si5 0.173190 0.220786 0.015735
Si Si6 0.010967 0.615459 0.636331
Si Si7 0.792315 0.840334 0.776201
Si Si8 0.502413 0.772010 0.699481
O O1 0.423798 0.729737 0.316475
O O2 0.062459 0.481914 0.610837
O O3 0.070550 0.421635 0.425540
O O4 0.030946 0.152185 0.587331
O O5 0.446016 0.072879 0.937894
O O6 0.484411 0.887698 0.786438
O O7 0.145305 0.743875 0.982156
O O8 0.292563 0.596813 0.755675
O O9 0.025171 0.218053 0.059208
O O10 0.931578 0.046590 0.950410
O O11 0.322267 0.423947 0.195726
O O12 0.204949 0.553580 0.166234
O O13 0.619932 0.812699 0.882146
O O14 0.185129 0.205575 0.124214
O O15 0.416526 0.518967 0.810272
O O16 0.243514 0.949738 0.502561
#
# Coordination Sequence:
#
# PCOD9079954 Si02
#       8
#     2   2   2   2   2   2   2   2
#     4   9  21  35  59  78 117 142 182 234 269 335
#     4  10  18  38  58  90 101 148 191 224 275 326
#     4   9  18  35  61  83 105 149 191 228 263 330
#     4  10  23  35  57  83 116 142 185 222 284 337
#     4   9  20  36  54  82 112 146 185 228 270 323
#     4   9  19  39  54  85 105 151 188 218 278 328
#     4  11  22  39  50  86 117 147 178 231 285 324
#     4   9  19  33  63  81 112 136 191 237 257 326
#
# _framework density 23.596579999999999
#
# number of rings (size 3 to 8) (size 9 to 14) (size 15 to 20)
#    0.750    1.750    1.250    1.125    3.500    3.500 
#    2.250    0.625    0.000    1.500    0.000    0.000 
#    0.000    0.000    0.000    0.000    0.000    0.000 
#
# Total GULP energy -89259.247821 kJ/mol
# GULP energy per Si atom -5578.702989 kJ/mol
# Density = 2.354287 g / cm^3
# Si number density = 23.596580 Si / 1000 Ang^3
#
#
#
# Elastic Constant Matrix: (Units=GPa)
#
#
# Indices 1 2 3 4 5 6 
#
# 1 81.2615 7.1692 23.5605 -6.5441 -17.3531 12.6632
# 2 7.1692 117.2517 38.6130 -25.5765 -5.7303 -3.1216
# 3 23.5605 38.6130 84.8572 -29.1449 -17.7961 2.0262
# 4 -6.5441 -25.5765 -29.1449 45.6871 -4.9520 -5.0373
# 5 -17.3531 -5.7303 -17.7961 -4.9520 32.0526 -8.1828
# 6 12.6632 -3.1216 2.0262 -5.0373 -8.1828 27.5387
#
#
#
# Elastic Compliance Matrix: (Units=1/GPa)
#
#
# Indices 1 2 3 4 5 6 
#
# 1 0.015095 0.000270 -0.002880 0.000513 0.005426 -0.004993
# 2 0.000270 0.010667 -0.003077 0.004527 0.001721 0.002651
# 3 -0.002880 -0.003077 0.021272 0.013517 0.013277 0.005828
# 4 0.000513 0.004527 0.013517 0.036164 0.016972 0.010941
# 5 0.005426 0.001721 0.013277 0.016972 0.048038 0.014102
# 6 -0.004993 0.002651 0.005828 0.010941 0.014102 0.044671
#
#
# Mechanical properties :
#
#
# Convention : Reuss Voigt Hill
#
# Bulk Modulus (GPa) = 28.04233 46.89508 37.46870
# Shear Modulus (GPa) = 25.10427 35.32420 30.21423
#
# Velocity S-wave (km/s) = 3.26528 3.87331 3.58222
# Velocity P-wave (km/s) = 5.11135 6.31824 5.74657
#
# Compressibility (1/GPa) = 0.03566038
#
# Stress axis : x y z
#
# Youngs Moduli (GPa) = 66.24538 93.74310 47.01041
#
# Poissons Ratio (x) = -0.02530 0.13541
# Poissons Ratio (y) = -0.01788 0.14463
# Poissons Ratio (z) = 0.19082 0.28841
#
# Static dielectric constant tensor:
#      x y z
#    x 1.933910 -0.008010 -0.021090 
#    y -0.008010 1.915340 0.002050 
#    z -0.021090 0.002050 1.928080 
# 
# From -- ./inp_files/529784.got.cif
#   From: 2010.05.17/outbox.cif.g08.bks.cpg/sg2_265_cif.got.tgz:529784.got - 2010.06.03 11:33:40.
