data_PCOD9079654
_publ_section_title
;
Structure prediction by ZEFSAII (Michael W. Deem and Ramdas Pophale) SiO2 
 PCOD9079654
Probable space group: P -1
;
_chemical_formula_sum "Si O2"
_cell_formula_units_Z 16
_cell_length_a 14.563546
_cell_length_b 4.911402
_cell_length_c 24.634997
_cell_angle_alpha 125.104410
_cell_angle_beta 155.126137
_cell_angle_gamma 66.165677
_cell_volume 569.827852
_symmetry_space_group_name_H-M "P -1"
_symmetry_group_IT_number 2
_symmetry_cell_setting 'triclinic'
loop_
_space_group_symop_operation_xyz
x,y,z
-x,-y,-z
loop_
_atom_site_type_symbol
_atom_site_label
_atom_site_fract_x
_atom_site_fract_y
_atom_site_fract_z
Si Si1 0.773750 0.440411 0.748804
Si Si2 0.284734 0.095279 0.557808
Si Si3 0.466099 0.307842 0.866142
Si Si4 0.169474 0.763917 0.568438
Si Si5 0.706676 0.285585 0.109578
Si Si6 0.153274 0.118147 0.935822
Si Si7 0.804944 0.673794 0.901312
Si Si8 0.342736 0.749659 0.444029
O O1 0.812312 0.756474 0.848889
O O2 0.841109 0.461699 0.724184
O O3 0.932030 0.236167 0.833958
O O4 0.512685 0.159830 0.571997
O O5 0.123179 0.345066 0.501478
O O6 0.549938 0.368962 0.729641
O O7 0.285564 0.861531 0.583578
O O8 0.232220 0.828268 0.448590
O O9 0.252301 0.405795 0.789888
O O10 0.345246 0.936400 0.730895
O O11 0.613166 0.324768 0.002615
O O12 0.616751 0.567689 0.929587
O O13 0.000000 0.000000 0.500000
O O14 0.895294 0.125323 0.172822
O O15 0.500000 0.000000 0.000000
O O16 0.198239 0.075076 0.019769
O O17 0.000000 0.500000 0.000000
O O18 0.500000 0.500000 0.500000
#
# Coordination Sequence:
#
# PCOD9079654 Si02
#       8
#     2   2   2   2   2   2   2   2
#     4   9  21  37  61  93 129 171 221 269 340 411
#     4  11  25  46  73 101 142 188 234 292 357 411
#     4  10  21  39  62  90 130 172 219 287 340 406
#     4  12  27  47  71 103 140 187 243 294 348 419
#     4   9  20  37  60  89 124 168 216 272 347 399
#     4  10  18  37  62  93 127 166 217 279 337 414
#     4   9  18  38  67  99 133 177 221 282 344 422
#     4  10  23  43  65  92 138 177 227 281 339 420
#
# _framework density 28.078654
#
# number of rings (size 3 to 8) (size 9 to 14) (size 15 to 20)
#    0.000    2.000    1.250    1.125    7.000    2.000 
#    6.750    1.875    0.000    0.000    0.000    0.000 
#    0.000    0.000    0.000    0.000    0.000    0.000 
#
# Total GULP energy -89171.810228 kJ/mol
# GULP energy per Si atom -5573.238139 kJ/mol
# Density = 2.801475 g / cm^3
# Si number density = 28.078654 Si / 1000 Ang^3
#
#
#
# Elastic Constant Matrix: (Units=GPa)
#
#
# Indices 1 2 3 4 5 6 
#
# 1 161.2190 21.0987 56.0769 23.1371 -46.2070 7.1209
# 2 21.0987 115.5418 45.3253 13.3869 -15.5129 -1.2986
# 3 56.0769 45.3253 139.4576 30.0737 -48.7101 -30.5668
# 4 23.1371 13.3869 30.0737 61.6846 -19.5787 -9.0525
# 5 -46.2070 -15.5129 -48.7101 -19.5787 68.8184 1.7848
# 6 7.1209 -1.2986 -30.5668 -9.0525 1.7848 20.8582
#
#
#
# Elastic Compliance Matrix: (Units=1/GPa)
#
#
# Indices 1 2 3 4 5 6 
#
# 1 0.009577 0.000870 -0.005584 -0.002139 0.002390 -0.012531
# 2 0.000870 0.010713 -0.005942 -0.001501 -0.001404 -0.008870
# 3 -0.005584 -0.005942 0.021810 0.000660 0.009682 0.032956
# 4 -0.002139 -0.001501 0.000660 0.019747 0.004056 0.009827
# 5 0.002390 -0.001404 0.009682 0.004056 0.023488 0.013035
# 6 -0.012531 -0.008870 0.032956 0.009827 0.013035 0.103114
#
#
# Mechanical properties :
#
#
# Convention : Reuss Voigt Hill
#
# Bulk Modulus (GPa) = 48.10891 73.46893 60.78892
# Shear Modulus (GPa) = 23.07435 49.85341 36.46388
#
# Velocity S-wave (km/s) = 2.86977 4.21823 3.60757
# Velocity P-wave (km/s) = 5.30581 7.06731 6.24894
#
# Compressibility (1/GPa) = 0.02078617
#
# Stress axis : x y z
#
# Youngs Moduli (GPa) = 104.41946 93.34576 45.85060
#
# Poissons Ratio (x) = -0.08118 0.25603
# Poissons Ratio (y) = -0.09081 0.27246
# Poissons Ratio (z) = 0.58309 0.55469
#
# Static dielectric constant tensor:
#      x y z
#    x 2.333210 -0.060320 0.109550 
#    y -0.060320 2.527890 -0.050130 
#    z 0.109550 -0.050130 2.129720 
# 
# From -- ./inp_files/611214.got.cif
#   From: 2010.05.17/outbox.cif.g08.bks.cpg/sg2_306_cif.got.tgz:611214.got - 2010.06.03 11:33:40.
