data_PCOD9079396
_publ_section_title
;
Structure prediction by ZEFSAII (Michael W. Deem and Ramdas Pophale) SiO2 
 PCOD9079396
Probable space group: P -1
;
_chemical_formula_sum "Si O2"
_cell_formula_units_Z 16
_cell_length_a 11.661101
_cell_length_b 11.324610
_cell_length_c 13.056519
_cell_angle_alpha 54.902363
_cell_angle_beta 73.015495
_cell_angle_gamma 31.014406
_cell_volume 639.248306
_symmetry_space_group_name_H-M "P -1"
_symmetry_group_IT_number 2
_symmetry_cell_setting 'triclinic'
loop_
_space_group_symop_operation_xyz
x,y,z
-x,-y,-z
loop_
_atom_site_type_symbol
_atom_site_label
_atom_site_fract_x
_atom_site_fract_y
_atom_site_fract_z
Si Si1 0.229873 0.979024 0.171215
Si Si2 0.892409 0.714507 0.759475
Si Si3 0.354184 0.267601 0.517883
Si Si4 0.046722 0.398883 0.690947
Si Si5 0.157521 0.742266 0.396514
Si Si6 0.161124 0.733286 0.014588
Si Si7 0.786862 0.350615 0.356580
Si Si8 0.298465 0.862086 0.782485
O O1 0.172264 0.893745 0.293909
O O2 0.516820 0.644788 0.221557
O O3 0.182949 0.170657 0.159104
O O4 0.017156 0.190797 0.033777
O O5 0.051066 0.425374 0.797751
O O6 0.053152 0.684638 0.703423
O O7 0.632145 0.976008 0.635438
O O8 0.188416 0.373603 0.601782
O O9 0.286084 0.507747 0.394033
O O10 0.234403 0.312308 0.429968
O O11 0.181991 0.107665 0.764621
O O12 0.314194 0.534311 0.558660
O O13 0.871851 0.979692 0.353495
O O14 0.261677 0.742636 0.900486
O O15 0.408663 0.410184 0.166747
O O16 0.000000 0.000000 0.000000
O O17 0.000000 0.000000 0.500000
#
# Coordination Sequence:
#
# PCOD9079396 Si02
#       8
#     2   2   2   2   2   2   2   2
#     4  11  23  37  57  88 121 153 200 241 286 351
#     4  12  21  35  55  86 125 161 188 229 289 351
#     4  10  20  36  54  86 127 157 194 228 278 355
#     4  10  21  37  59  84 121 161 189 233 285 347
#     4  10  18  37  55  88 123 152 185 242 284 342
#     4  10  23  43  65  84 109 150 197 253 297 333
#     4  12  22  32  56  88 126 160 185 230 296 351
#     4   9  22  41  62  87 115 144 201 247 281 344
#
# _framework density 25.029398
#
# number of rings (size 3 to 8) (size 9 to 14) (size 15 to 20)
#    0.000    1.500    3.750    1.500    1.750    2.000 
#    0.000    0.625    0.000    3.750    0.000    0.000 
#    0.000    0.000    0.000    0.000    0.000    0.000 
#
# Total GULP energy -89118.227136 kJ/mol
# GULP energy per Si atom -5569.889196 kJ/mol
# Density = 2.497243 g / cm^3
# Si number density = 25.029398 Si / 1000 Ang^3
#
#
#
# Elastic Constant Matrix: (Units=GPa)
#
#
# Indices 1 2 3 4 5 6 
#
# 1 122.9110 48.9928 40.6758 -14.3355 25.1418 4.9970
# 2 48.9928 83.0138 22.8799 -18.5052 25.8417 10.7331
# 3 40.6758 22.8799 47.4463 -14.9044 23.0425 -18.6345
# 4 -14.3355 -18.5052 -14.9044 36.3029 -13.5912 13.7560
# 5 25.1418 25.8417 23.0425 -13.5912 53.8710 -2.7337
# 6 4.9970 10.7331 -18.6345 13.7560 -2.7337 47.3787
#
#
#
# Elastic Compliance Matrix: (Units=1/GPa)
#
#
# Indices 1 2 3 4 5 6 
#
# 1 0.014061 -0.004253 -0.012247 0.000665 0.000605 -0.005495
# 2 -0.004253 0.020133 -0.004974 0.008401 -0.003869 -0.008731
# 3 -0.012247 -0.004974 0.047435 0.000231 -0.011096 0.020368
# 4 0.000665 0.008401 0.000231 0.038829 0.004703 -0.012885
# 5 0.000605 -0.003869 -0.011096 0.004703 0.025896 -0.003423
# 6 -0.005495 -0.008731 0.020368 -0.012885 -0.003423 0.035218
#
#
# Mechanical properties :
#
#
# Convention : Reuss Voigt Hill
#
# Bulk Modulus (GPa) = 25.85142 53.16313 39.50727
# Shear Modulus (GPa) = 21.06030 36.89867 28.97949
#
# Velocity S-wave (km/s) = 2.90388 3.84371 3.40636
# Velocity P-wave (km/s) = 4.64695 6.40197 5.59372
#
# Compressibility (1/GPa) = 0.03868260
#
# Stress axis : x y z
#
# Youngs Moduli (GPa) = 71.11700 49.66970 21.08145
#
# Poissons Ratio (x) = 0.21124 0.25818
# Poissons Ratio (y) = 0.30245 0.10485
# Poissons Ratio (z) = 0.87096 0.24704
#
# Static dielectric constant tensor:
#      x y z
#    x 2.018620 0.094250 -0.002010 
#    y 0.094250 2.157630 -0.046590 
#    z -0.002010 -0.046590 2.004930 
# 
# From -- ./inp_files/76497.got.cif
#   From: 2010.05.17/outbox.cif.g08.bks.cpg/sg2_39_cif.got.tgz:76497.got - 2010.06.03 11:33:40.
