data_PCOD9079593
_publ_section_title
;
Structure prediction by ZEFSAII (Michael W. Deem and Ramdas Pophale) SiO2 
 PCOD9079593
Probable space group: P -1
;
_chemical_formula_sum "Si O2"
_cell_formula_units_Z 14
_cell_length_a 11.753314
_cell_length_b 12.094302
_cell_length_c 8.928568
_cell_angle_alpha 129.769550
_cell_angle_beta 37.459396
_cell_angle_gamma 124.539150
_cell_volume 588.536864
_symmetry_space_group_name_H-M "P -1"
_symmetry_group_IT_number 2
_symmetry_cell_setting 'triclinic'
loop_
_space_group_symop_operation_xyz
x,y,z
-x,-y,-z
loop_
_atom_site_type_symbol
_atom_site_label
_atom_site_fract_x
_atom_site_fract_y
_atom_site_fract_z
Si Si1 0.477241 0.758379 0.686675
Si Si2 0.635801 0.031924 0.241694
Si Si3 0.519858 0.667216 0.884211
Si Si4 0.081753 0.151925 0.127289
Si Si5 0.816253 0.471709 0.387961
Si Si6 0.220582 0.379904 0.918320
Si Si7 0.253329 0.719195 0.444873
O O1 0.458168 0.909515 0.755136
O O2 0.317068 0.634598 0.677692
O O3 0.677671 0.709892 0.387747
O O4 0.464664 0.754454 0.873640
O O5 0.752505 0.178258 0.314948
O O6 0.500000 0.000000 0.500000
O O7 0.772392 0.911009 0.968872
O O8 0.447596 0.736775 0.170030
O O9 0.727424 0.622082 0.604533
O O10 0.378377 0.514633 0.905954
O O11 0.176011 0.268370 0.007529
O O12 0.912243 0.230835 0.439235
O O13 0.000000 0.000000 0.000000
O O14 0.784263 0.433120 0.565484
O O15 0.032896 0.445386 0.116985
#
# Coordination Sequence:
#
# PCOD9079593 Si02
#       7
#     2   2   2   2   2   2   2
#     4  10  21  35  57  85 112 147 186 230 275 336
#     4  10  18  37  62  77 101 147 198 227 263 329
#     4  11  22  36  52  87 124 142 173 233 299 330
#     4   9  18  34  59  82 101 142 200 233 259 318
#     4   9  19  35  56  80 110 151 190 216 264 339
#     4  10  19  35  60  82 110 151 189 228 274 332
#     4   9  20  36  55  83 113 140 183 243 272 324
#
# _framework density 23.787804000000001
#
# number of rings (size 3 to 8) (size 9 to 14) (size 15 to 20)
#    0.000    2.286    1.429    3.000    0.000    4.571 
#    2.571    1.429    0.000    0.000    0.000    0.000 
#    0.000    0.000    0.000    0.000    0.000    0.000 
#
# Total GULP energy -78067.084440 kJ/mol
# GULP energy per Si atom -5576.220317 kJ/mol
# Density = 2.373366 g / cm^3
# Si number density = 23.787804 Si / 1000 Ang^3
#
#
#
# Elastic Constant Matrix: (Units=GPa)
#
#
# Indices 1 2 3 4 5 6 
#
# 1 82.0392 31.2900 52.4485 18.5928 -33.7085 -21.7132
# 2 31.2900 78.6538 15.2563 8.3913 -2.2423 -18.2419
# 3 52.4485 15.2563 66.4999 11.1320 -27.8262 -7.5865
# 4 18.5928 8.3913 11.1320 26.0283 -0.6158 -10.1627
# 5 -33.7085 -2.2423 -27.8262 -0.6158 37.3518 0.3957
# 6 -21.7132 -18.2419 -7.5865 -10.1627 0.3957 38.9425
#
#
#
# Elastic Compliance Matrix: (Units=1/GPa)
#
#
# Indices 1 2 3 4 5 6 
#
# 1 0.045148 -0.008922 -0.018575 -0.015738 0.025973 0.013004
# 2 -0.008922 0.016568 0.000494 0.002020 -0.006693 0.003478
# 3 -0.018575 0.000494 0.032647 -0.002421 0.007596 -0.004474
# 4 -0.015738 0.002020 -0.002421 0.051784 -0.015088 0.005367
# 5 0.025973 -0.006693 0.007596 -0.015088 0.055132 0.008329
# 6 0.013004 0.003478 -0.004474 0.005367 0.008329 0.035003
#
#
# Mechanical properties :
#
#
# Convention : Reuss Voigt Hill
#
# Bulk Modulus (GPa) = 24.77897 47.24249 36.01073
# Shear Modulus (GPa) = 16.46140 29.01107 22.73623
#
# Velocity S-wave (km/s) = 2.63346 3.49603 3.09495
# Velocity P-wave (km/s) = 4.43690 6.01659 5.28609
#
# Compressibility (1/GPa) = 0.04035680
#
# Stress axis : x y z
#
# Youngs Moduli (GPa) = 22.14949 60.35818 30.63025
#
# Poissons Ratio (x) = 0.53853 0.56895
# Poissons Ratio (y) = 0.19762 -0.01513
# Poissons Ratio (z) = 0.41142 -0.02982
#
# Static dielectric constant tensor:
#      x y z
#    x 2.056660 0.095870 -0.017360 
#    y 0.095870 2.074810 0.097260 
#    z -0.017360 0.097260 1.915050 
# 
# From -- ./inp_files/263270.got.cif
#   From: 2010.05.17/outbox.cif.g08.bks.cpg/sg2_132_cif.got.tgz:263270.got - 2010.06.03 11:33:40.
