data_PCOD9079946
_publ_section_title
;
Structure prediction by ZEFSAII (Michael W. Deem and Ramdas Pophale) SiO2 
 PCOD9079946
Probable space group: P -1
;
_chemical_formula_sum "Si O2"
_cell_formula_units_Z 12
_cell_length_a 9.316394
_cell_length_b 12.154108
_cell_length_c 6.630369
_cell_angle_alpha 73.591955
_cell_angle_beta 66.021668
_cell_angle_gamma 118.565175
_cell_volume 484.604736
_symmetry_space_group_name_H-M "P -1"
_symmetry_group_IT_number 2
_symmetry_cell_setting 'triclinic'
loop_
_space_group_symop_operation_xyz
x,y,z
-x,-y,-z
loop_
_atom_site_type_symbol
_atom_site_label
_atom_site_fract_x
_atom_site_fract_y
_atom_site_fract_z
Si Si1 0.128884 0.358269 0.219248
Si Si2 0.439748 0.586499 0.597473
Si Si3 0.247258 0.758544 0.262094
Si Si4 0.008481 0.612832 0.082369
Si Si5 0.713173 0.948406 0.859534
Si Si6 0.179138 0.143907 0.540165
O O1 0.982851 0.370864 0.430668
O O2 0.176889 0.266244 0.359139
O O3 0.995093 0.280273 0.125358
O O4 0.342052 0.516187 0.915996
O O5 0.500000 0.500000 0.500000
O O6 0.649297 0.762942 0.428352
O O7 0.229075 0.513522 0.627438
O O8 0.195152 0.715880 0.078973
O O9 0.275252 0.907726 0.218356
O O10 0.473007 0.808683 0.148601
O O11 0.000000 0.500000 0.000000
O O12 0.743996 0.911672 0.637154
O O13 0.929615 0.008853 0.809996
#
# Coordination Sequence:
#
# PCOD9079946 Si02
#       6
#     2   2   2   2   2   2
#     4   9  22  36  58  89 110 148 187 234 289 327
#     4  10  20  36  60  84 116 147 178 246 288 322
#     4  10  19  42  59  81 118 148 190 231 278 336
#     4  10  22  37  57  88 114 145 185 238 287 330
#     4   9  20  34  64  80 110 162 182 227 279 328
#     4  10  18  38  58  85 115 146 195 224 278 346
#
# _framework density 24.762447000000002
#
# number of rings (size 3 to 8) (size 9 to 14) (size 15 to 20)
#    1.000    1.333    0.000    3.500    0.000    0.667 
#    3.000    8.333    3.667    0.000    0.000    0.000 
#    0.000    0.000    0.000    0.000    0.000    0.000 
#
# Total GULP energy -66816.296063 kJ/mol
# GULP energy per Si atom -5568.024672 kJ/mol
# Density = 2.470609 g / cm^3
# Si number density = 24.762447 Si / 1000 Ang^3
#
#
#
# Elastic Constant Matrix: (Units=GPa)
#
#
# Indices 1 2 3 4 5 6 
#
# 1 92.7351 53.4973 44.5269 -1.6881 -17.0343 20.9792
# 2 53.4973 122.4351 37.8744 6.1427 -28.8886 28.6721
# 3 44.5269 37.8744 151.7926 -11.9832 -40.7357 3.4523
# 4 -1.6881 6.1427 -11.9832 26.0651 -7.2668 -14.2739
# 5 -17.0343 -28.8886 -40.7357 -7.2668 58.4724 0.1230
# 6 20.9792 28.6721 3.4523 -14.2739 0.1230 43.0608
#
#
#
# Elastic Compliance Matrix: (Units=1/GPa)
#
#
# Indices 1 2 3 4 5 6 
#
# 1 0.016452 -0.004685 -0.003910 -0.002809 -0.000583 -0.005512
# 2 -0.004685 0.014435 -0.001814 -0.009207 0.003380 -0.010245
# 3 -0.003910 -0.001814 0.010609 0.009913 0.006576 0.005530
# 4 -0.002809 -0.009207 0.009913 0.062490 0.009247 0.027392
# 5 -0.000583 0.003380 0.006576 0.009247 0.024332 0.000502
# 6 -0.005512 -0.010245 0.005530 0.027392 0.000502 0.041365
#
#
# Mechanical properties :
#
#
# Convention : Reuss Voigt Hill
#
# Bulk Modulus (GPa) = 48.36150 70.97332 59.66741
# Shear Modulus (GPa) = 25.33011 40.92394 33.12703
#
# Velocity S-wave (km/s) = 3.20179 4.06970 3.66155
# Velocity P-wave (km/s) = 5.76552 7.12792 6.48261
#
# Compressibility (1/GPa) = 0.02067761
#
# Stress axis : x y z
#
# Youngs Moduli (GPa) = 60.78205 69.27838 94.25818
#
# Poissons Ratio (x) = 0.32457 0.36855
# Poissons Ratio (y) = 0.28477 0.17099
# Poissons Ratio (z) = 0.23766 0.12567
#
# Static dielectric constant tensor:
#      x y z
#    x 1.831450 0.069320 0.124620 
#    y 0.069320 1.929570 -0.134040 
#    z 0.124620 -0.134040 2.020640 
# 
# From -- ./inp_files/132049.got.cif
#   From: 2010.05.17/outbox.cif.g08.bks.cpg/sg2_67_cif.got.tgz:132049.got - 2010.06.03 11:33:40.
