data_PCOD9079879
_publ_section_title
;
Structure prediction by ZEFSAII (Michael W. Deem and Ramdas Pophale) SiO2 
 PCOD9079879
Probable space group: P -1
;
_chemical_formula_sum "Si O2"
_cell_formula_units_Z 14
_cell_length_a 6.992073
_cell_length_b 22.784023
_cell_length_c 9.044641
_cell_angle_alpha 149.030186
_cell_angle_beta 49.306497
_cell_angle_gamma 137.413544
_cell_volume 500.856668
_symmetry_space_group_name_H-M "P -1"
_symmetry_group_IT_number 2
_symmetry_cell_setting 'triclinic'
loop_
_space_group_symop_operation_xyz
x,y,z
-x,-y,-z
loop_
_atom_site_type_symbol
_atom_site_label
_atom_site_fract_x
_atom_site_fract_y
_atom_site_fract_z
Si Si1 0.310983 0.172199 0.101877
Si Si2 0.807192 0.105120 0.433465
Si Si3 0.866213 0.244875 0.178368
Si Si4 0.638597 0.403812 0.215517
Si Si5 0.901497 0.642449 0.989349
Si Si6 0.326066 0.026615 0.276109
Si Si7 0.427924 0.692338 0.291306
O O1 0.561064 0.201090 0.157496
O O2 0.428744 0.283969 0.164300
O O3 0.045317 0.160524 0.305732
O O4 0.212069 0.027373 0.782747
O O5 0.513762 0.066657 0.415587
O O6 0.885341 0.217244 0.751629
O O7 0.078673 0.342144 0.164016
O O8 0.824114 0.299436 0.473162
O O9 0.914050 0.117930 0.892017
O O10 0.500000 0.500000 0.500000
O O11 0.951735 0.441367 0.206819
O O12 0.658401 0.363350 0.949223
O O13 0.585647 0.619706 0.134723
O O14 0.328512 0.158782 0.515846
O O15 0.500000 0.000000 0.000000
#
# Coordination Sequence:
#
# PCOD9079879 Si02
#       7
#     2   2   2   2   2   2   2
#     4   9  20  37  66  96 130 168 214 257 326 386
#     4  10  18  37  67  96 132 169 200 268 330 390
#     4   9  20  37  60  95 137 163 206 264 322 392
#     4  11  26  46  65  91 129 173 225 268 310 379
#     4  11  23  40  67  94 127 170 215 262 335 380
#     4   9  19  32  56  95 134 164 200 256 320 392
#     4  11  22  41  64  93 131 167 215 268 319 384
#
# _framework density 27.952110999999999
#
# number of rings (size 3 to 8) (size 9 to 14) (size 15 to 20)
#    0.000    2.000    2.857    0.000    4.000    5.143 
#    0.000    3.571    0.000    0.000    0.000    0.000 
#    0.000    0.000    0.000    0.000    0.000    0.000 
#
# Total GULP energy -78474.555883 kJ/mol
# GULP energy per Si atom -5605.325420 kJ/mol
# Density = 2.788849 g / cm^3
# Si number density = 27.952111 Si / 1000 Ang^3
#
#
#
# Elastic Constant Matrix: (Units=GPa)
#
#
# Indices 1 2 3 4 5 6 
#
# 1 104.9227 35.0549 24.5457 7.3402 -16.5804 -18.4200
# 2 35.0549 105.9210 59.6133 10.4661 -13.2416 -24.6044
# 3 24.5457 59.6133 156.6289 -0.5245 -4.7135 -35.3422
# 4 7.3402 10.4661 -0.5245 49.3349 -12.9279 -18.8704
# 5 -16.5804 -13.2416 -4.7135 -12.9279 52.0187 -2.7041
# 6 -18.4200 -24.6044 -35.3422 -18.8704 -2.7041 40.8062
#
#
#
# Elastic Compliance Matrix: (Units=1/GPa)
#
#
# Indices 1 2 3 4 5 6 
#
# 1 0.011686 -0.002623 0.000455 0.001801 0.003815 0.005173
# 2 -0.002623 0.013697 -0.003932 -0.000587 0.002333 0.003552
# 3 0.000455 -0.003932 0.009800 0.004557 0.001608 0.008536
# 4 0.001801 -0.000587 0.004557 0.029774 0.009214 0.018785
# 5 0.003815 0.002333 0.001608 0.009214 0.024008 0.010373
# 6 0.005173 0.003552 0.008536 0.018785 0.010373 0.045750
#
#
# Mechanical properties :
#
#
# Convention : Reuss Voigt Hill
#
# Bulk Modulus (GPa) = 43.51248 67.32226 55.41737
# Shear Modulus (GPa) = 32.34657 44.98255 38.66456
#
# Velocity S-wave (km/s) = 3.40548 4.01593 3.72323
# Velocity P-wave (km/s) = 5.57347 6.75579 6.19291
#
# Compressibility (1/GPa) = 0.02298191
#
# Stress axis : x y z
#
# Youngs Moduli (GPa) = 85.57444 73.00877 102.04561
#
# Poissons Ratio (x) = 0.19150 -0.04645
# Poissons Ratio (y) = 0.22446 0.40128
# Poissons Ratio (z) = -0.03895 0.28710
#
# Static dielectric constant tensor:
#      x y z
#    x 2.208100 0.019190 -0.029170 
#    y 0.019190 2.213840 0.014230 
#    z -0.029170 0.014230 2.161060 
# 
# From -- ./inp_files/225708.got.cif
#   From: 2010.05.17/outbox.cif.g08.bks.cpg/sg2_113_cif.got.tgz:225708.got - 2010.06.03 11:33:40.
