data_PCOD9079503
_publ_section_title
;
Structure prediction by ZEFSAII (Michael W. Deem and Ramdas Pophale) SiO2 
 PCOD9079503
Probable space group: P -1
;
_chemical_formula_sum "Si O2"
_cell_formula_units_Z 16
_cell_length_a 13.124994
_cell_length_b 16.221764
_cell_length_c 9.313734
_cell_angle_alpha 112.588255
_cell_angle_beta 138.036916
_cell_angle_gamma 39.956606
_cell_volume 767.621939
_symmetry_space_group_name_H-M "P -1"
_symmetry_group_IT_number 2
_symmetry_cell_setting 'triclinic'
loop_
_space_group_symop_operation_xyz
x,y,z
-x,-y,-z
loop_
_atom_site_type_symbol
_atom_site_label
_atom_site_fract_x
_atom_site_fract_y
_atom_site_fract_z
Si Si1 0.788735 0.467756 0.728966
Si Si2 0.769137 0.646645 0.039569
Si Si3 0.297515 0.623244 0.166570
Si Si4 0.135626 0.846041 0.497427
Si Si5 0.215862 0.922267 0.372971
Si Si6 0.646674 0.021182 0.194525
Si Si7 0.715415 0.203394 0.901345
Si Si8 0.416765 0.396609 0.981061
O O1 0.745201 0.580591 0.846943
O O2 0.558675 0.538150 0.443735
O O3 0.824599 0.374903 0.827334
O O4 0.013395 0.389006 0.807918
O O5 0.529810 0.816538 0.927038
O O6 0.783480 0.581648 0.155588
O O7 0.179795 0.761910 0.058648
O O8 0.331281 0.534918 0.017098
O O9 0.229858 0.829333 0.429118
O O10 0.347807 0.722004 0.744564
O O11 0.000000 0.000000 0.500000
O O12 0.903327 0.889267 0.294916
O O13 0.294064 0.973936 0.577650
O O14 0.362782 0.833555 0.323684
O O15 0.935434 0.062746 0.129618
O O16 0.500000 0.000000 0.000000
O O17 0.507768 0.332572 0.875541
#
# Coordination Sequence:
#
# PCOD9079503 Si02
#       8
#     2   2   2   2   2   2   2   2
#     4   9  21  37  57  88 112 156 206 249 285 345
#     4  10  19  36  59  83 119 149 202 247 293 340
#     4  10  22  35  60  87 119 155 199 249 293 349
#     4  10  18  37  60  86 113 153 213 237 281 353
#     4  10  21  37  61  87 117 163 198 240 290 362
#     4  11  21  33  59  92 116 147 197 257 291 334
#     4  11  21  36  60  90 127 155 199 237 303 357
#     4  11  20  37  61  89 117 156 200 245 291 353
#
# _framework density 20.843594
#
# number of rings (size 3 to 8) (size 9 to 14) (size 15 to 20)
#    0.000    1.750    5.000    1.125    5.250    0.000 
#    0.000    0.625    0.000   22.500    0.000    0.000 
#    0.000    0.000    0.000    0.000    0.000    0.000 
#
# Total GULP energy -89178.562598 kJ/mol
# GULP energy per Si atom -5573.660162 kJ/mol
# Density = 2.079615 g / cm^3
# Si number density = 20.843594 Si / 1000 Ang^3
#
#
#
# Elastic Constant Matrix: (Units=GPa)
#
#
# Indices 1 2 3 4 5 6 
#
# 1 116.7681 22.7156 43.6492 16.0823 16.5822 -3.4427
# 2 22.7156 65.2281 9.7463 16.7539 -6.6126 -4.4188
# 3 43.6492 9.7463 54.8683 21.9180 -0.2244 2.5344
# 4 16.0823 16.7539 21.9180 38.6275 -2.9765 -7.9235
# 5 16.5822 -6.6126 -0.2244 -2.9765 35.0528 6.9872
# 6 -3.4427 -4.4188 2.5344 -7.9235 6.9872 34.8628
#
#
#
# Elastic Compliance Matrix: (Units=1/GPa)
#
#
# Indices 1 2 3 4 5 6 
#
# 1 0.015194 -0.004805 -0.012745 0.003197 -0.008761 0.004300
# 2 -0.004805 0.019019 0.003832 -0.008273 0.005445 -0.001314
# 3 -0.012745 0.003832 0.035117 -0.017521 0.007235 -0.008758
# 4 0.003197 -0.008273 -0.017521 0.039999 -0.001780 0.009988
# 5 -0.008761 0.005445 0.007235 -0.001780 0.035223 -0.008165
# 6 0.004300 -0.001314 -0.008758 0.009988 -0.008165 0.033485
#
#
# Mechanical properties :
#
#
# Convention : Reuss Voigt Hill
#
# Bulk Modulus (GPa) = 23.87000 43.23186 33.55093
# Shear Modulus (GPa) = 22.78551 32.42552 27.60552
#
# Velocity S-wave (km/s) = 3.30989 3.94846 3.64320
# Velocity P-wave (km/s) = 5.10725 6.44773 5.81624
#
# Compressibility (1/GPa) = 0.04189359
#
# Stress axis : x y z
#
# Youngs Moduli (GPa) = 65.81724 52.57766 28.47634
#
# Poissons Ratio (x) = 0.25263 0.36293
# Poissons Ratio (y) = 0.31624 -0.10911
# Poissons Ratio (z) = 0.83884 -0.20146
#
# Static dielectric constant tensor:
#      x y z
#    x 1.853170 -0.019820 -0.002320 
#    y -0.019820 1.816850 0.010160 
#    z -0.002320 0.010160 1.770840 
# 
# From -- ./inp_files/273499.got.cif
#   From: 2010.05.17/outbox.cif.g08.bks.cpg/sg2_137_cif.got.tgz:273499.got - 2010.06.03 11:33:40.
