data_PCOD9079844
_publ_section_title
;
Structure prediction by ZEFSAII (Michael W. Deem and Ramdas Pophale) SiO2 
 PCOD9079844
Probable space group: P -1
;
_chemical_formula_sum "Si O2"
_cell_formula_units_Z 15
_cell_length_a 9.590089
_cell_length_b 11.979063
_cell_length_c 12.589235
_cell_angle_alpha 142.679835
_cell_angle_beta 137.808172
_cell_angle_gamma 45.187695
_cell_volume 564.662681
_symmetry_space_group_name_H-M "P -1"
_symmetry_group_IT_number 2
_symmetry_cell_setting 'triclinic'
loop_
_space_group_symop_operation_xyz
x,y,z
-x,-y,-z
loop_
_atom_site_type_symbol
_atom_site_label
_atom_site_fract_x
_atom_site_fract_y
_atom_site_fract_z
Si Si1 0.499040 0.991007 0.684996
Si Si2 0.235893 0.545790 0.276618
Si Si3 0.723460 0.588860 0.576448
Si Si4 0.000000 0.000000 0.500000
Si Si5 0.127049 0.947371 0.301172
Si Si6 0.141283 0.732331 0.753068
Si Si7 0.578752 0.845564 0.023867
Si Si8 0.704523 0.314768 0.970687
O O1 0.359120 0.931359 0.470949
O O2 0.590428 0.150142 0.807396
O O3 0.677085 0.812464 0.697792
O O4 0.342277 0.067073 0.757411
O O5 0.483354 0.558202 0.425406
O O6 0.170260 0.482834 0.306327
O O7 0.257341 0.357644 0.072060
O O8 0.105016 0.765976 0.353272
O O9 0.832461 0.459078 0.442894
O O10 0.969874 0.035567 0.377105
O O11 0.050144 0.101570 0.280089
O O12 0.164890 0.742758 0.108714
O O13 0.358924 0.799469 0.904209
O O14 0.141747 0.691014 0.846593
O O15 0.500000 0.000000 0.000000
O O16 0.500000 0.500000 0.000000
#
# Coordination Sequence:
#
# PCOD9079844 Si02
#       8
#     2   2   2   1   2   2   2   2
#     4  11  23  41  70  98 133 179 237 288 330 422
#     4  10  20  36  63  95 140 185 219 275 339 414
#     4  10  18  37  66  97 128 182 233 266 339 414
#     4  12  24  38  68 104 144 172 222 290 352 398
#     4  12  25  43  68 104 138 177 226 288 350 401
#     4  10  23  42  70  97 134 180 226 288 344 400
#     4  10  21  38  66 101 139 186 231 270 340 424
#     4  11  26  49  71  96 131 189 236 281 343 419
#
# _framework density 26.564530999999999
#
# number of rings (size 3 to 8) (size 9 to 14) (size 15 to 20)
#    0.000    1.333    4.000    1.600    5.600    0.000 
#    0.000    7.333    0.000    0.000    0.000    0.000 
#    0.000    0.000    0.000    0.000    0.000    0.000 
#
# Total GULP energy -83825.884100 kJ/mol
# GULP energy per Si atom -5588.392273 kJ/mol
# Density = 2.650407 g / cm^3
# Si number density = 26.564531 Si / 1000 Ang^3
#
#
#
# Elastic Constant Matrix: (Units=GPa)
#
#
# Indices 1 2 3 4 5 6 
#
# 1 106.2774 20.5746 43.6850 8.3882 -26.8730 4.7264
# 2 20.5746 158.4513 70.9962 20.9012 -21.9598 -10.7210
# 3 43.6850 70.9962 177.8335 10.9972 -53.6938 3.6893
# 4 8.3882 20.9012 10.9972 52.2123 0.4746 -11.3714
# 5 -26.8730 -21.9598 -53.6938 0.4746 51.7596 9.5973
# 6 4.7264 -10.7210 3.6893 -11.3714 9.5973 33.8763
#
#
#
# Elastic Compliance Matrix: (Units=1/GPa)
#
#
# Indices 1 2 3 4 5 6 
#
# 1 0.011664 -0.000326 -0.000665 -0.002580 0.006036 -0.004234
# 2 -0.000326 0.008176 -0.003275 -0.001987 -0.000539 0.002475
# 3 -0.000665 -0.003275 0.010394 -0.002092 0.010113 -0.005643
# 4 -0.002580 -0.001987 -0.002092 0.022916 -0.006314 0.009440
# 5 0.006036 -0.000539 0.010113 -0.006314 0.035420 -0.014268
# 6 -0.004234 0.002475 -0.005643 0.009440 -0.014268 0.038719
#
#
# Mechanical properties :
#
#
# Convention : Reuss Voigt Hill
#
# Bulk Modulus (GPa) = 46.07994 79.23042 62.65518
# Shear Modulus (GPa) = 34.95136 48.05675 41.50406
#
# Velocity S-wave (km/s) = 3.63121 4.25792 3.95699
# Velocity P-wave (km/s) = 5.91312 7.35279 6.67190
#
# Compressibility (1/GPa) = 0.02170142
#
# Stress axis : x y z
#
# Youngs Moduli (GPa) = 85.73245 122.31320 96.20844
#
# Poissons Ratio (x) = 0.03989 0.06399
# Poissons Ratio (y) = 0.02796 0.31509
# Poissons Ratio (z) = 0.05702 0.40059
#
# Static dielectric constant tensor:
#      x y z
#    x 2.114440 -0.000080 -0.058540 
#    y -0.000080 1.988110 -0.025320 
#    z -0.058540 -0.025320 2.085590 
# 
# From -- ./inp_files/427054.got.cif
#   From: 2010.05.17/outbox.cif.g08.bks.cpg/sg2_214_cif.got.tgz:427054.got - 2010.06.03 11:33:40.
