data_PCOD9079080
_publ_section_title
;
Structure prediction by ZEFSAII (Michael W. Deem and Ramdas Pophale) SiO2 
 PCOD9079080
Probable space group: P -1
;
_chemical_formula_sum "Si O2"
_cell_formula_units_Z 14
_cell_length_a 12.067400
_cell_length_b 10.525619
_cell_length_c 9.672384
_cell_angle_alpha 57.942728
_cell_angle_beta 84.753962
_cell_angle_gamma 129.806251
_cell_volume 599.281573
_symmetry_space_group_name_H-M "P -1"
_symmetry_group_IT_number 2
_symmetry_cell_setting 'triclinic'
loop_
_space_group_symop_operation_xyz
x,y,z
-x,-y,-z
loop_
_atom_site_type_symbol
_atom_site_label
_atom_site_fract_x
_atom_site_fract_y
_atom_site_fract_z
Si Si1 0.610637 0.461431 0.626235
Si Si2 0.234627 0.123487 0.014815
Si Si3 0.774293 0.373344 0.826825
Si Si4 0.475245 0.054230 0.674248
Si Si5 0.884021 0.252241 0.247076
Si Si6 0.938463 0.043300 0.153863
Si Si7 0.787707 0.207983 0.662687
O O1 0.448240 0.368524 0.786274
O O2 0.723207 0.475658 0.708618
O O3 0.511347 0.244611 0.649144
O O4 0.765327 0.735905 0.375961
O O5 0.101952 0.929789 0.008642
O O6 0.137091 0.169303 0.050964
O O7 0.230242 0.990214 0.209266
O O8 0.701398 0.169147 0.844070
O O9 0.001748 0.622222 0.694294
O O10 0.658847 0.208806 0.073280
O O11 0.676533 0.186693 0.575438
O O12 0.342701 0.958756 0.616469
O O13 0.923549 0.142565 0.222866
O O14 0.000000 0.500000 0.000000
O O15 0.000000 0.500000 0.500000
#
# Coordination Sequence:
#
# PCOD9079080 Si02
#       7
#     2   2   2   2   2   2   2
#     4  11  19  37  62  91 119 156 205 247 296 355
#     4  11  20  37  59  91 125 146 197 261 295 340
#     4  10  19  36  62  84 119 162 193 240 300 351
#     4  10  18  36  62  87 114 158 200 240 295 351
#     4  10  21  39  62  82 118 161 199 239 300 367
#     4  11  24  36  61  92 119 159 200 248 304 356
#     4  11  20  36  63  93 117 151 205 253 293 347
#
# _framework density 23.361305999999999
#
# number of rings (size 3 to 8) (size 9 to 14) (size 15 to 20)
#    0.000    1.429    4.286    3.857    0.000    0.571 
#    0.000    1.429    6.286    0.000    0.000    0.000 
#    0.000    0.000    0.000    0.000    0.000    0.000 
#
# Total GULP energy -78202.696088 kJ/mol
# GULP energy per Si atom -5585.906863 kJ/mol
# Density = 2.330813 g / cm^3
# Si number density = 23.361306 Si / 1000 Ang^3
#
#
#
# Elastic Constant Matrix: (Units=GPa)
#
#
# Indices 1 2 3 4 5 6 
#
# 1 156.8151 50.0419 22.4277 -12.8148 -19.4408 27.6331
# 2 50.0419 120.4663 1.1559 -7.2004 -4.3505 19.5815
# 3 22.4277 1.1559 70.9470 -14.0395 -3.9480 3.3762
# 4 -12.8148 -7.2004 -14.0395 23.0838 5.9866 -11.0796
# 5 -19.4408 -4.3505 -3.9480 5.9866 40.2135 -13.4198
# 6 27.6331 19.5815 3.3762 -11.0796 -13.4198 30.6830
#
#
#
# Elastic Compliance Matrix: (Units=1/GPa)
#
#
# Indices 1 2 3 4 5 6 
#
# 1 0.008710 -0.002717 -0.002449 -0.000491 0.002039 -0.005126
# 2 -0.002717 0.010155 0.000896 0.000373 -0.001776 -0.004775
# 3 -0.002449 0.000896 0.016851 0.010950 0.000215 0.003828
# 4 -0.000491 0.000373 0.010950 0.059770 -0.001348 0.019992
# 5 0.002039 -0.001776 0.000215 -0.001348 0.029832 0.011834
# 6 -0.005126 -0.004775 0.003828 0.019992 0.011834 0.052229
#
#
# Mechanical properties :
#
#
# Convention : Reuss Voigt Hill
#
# Bulk Modulus (GPa) = 36.79689 55.05326 45.92508
# Shear Modulus (GPa) = 25.62167 37.10291 31.36229
#
# Velocity S-wave (km/s) = 3.31532 3.98957 3.66797
# Velocity P-wave (km/s) = 5.51730 6.69622 6.13514
#
# Compressibility (1/GPa) = 0.02717621
#
# Stress axis : x y z
#
# Youngs Moduli (GPa) = 114.80684 98.46915 59.34250
#
# Poissons Ratio (x) = 0.26756 0.14533
# Poissons Ratio (y) = 0.31195 -0.05315
# Poissons Ratio (z) = 0.28116 -0.08820
#
# Static dielectric constant tensor:
#      x y z
#    x 1.958170 0.008450 -0.081920 
#    y 0.008450 1.987980 0.001730 
#    z -0.081920 0.001730 1.951400 
# 
# From -- ./inp_files/255114.got.cif
#   From: 2010.05.17/outbox.cif.g08.bks.cpg/sg2_128_cif.got.tgz:255114.got - 2010.06.03 11:33:40.
