data_PCOD9079921
_publ_section_title
;
Structure prediction by ZEFSAII (Michael W. Deem and Ramdas Pophale) SiO2 
 PCOD9079921
Probable space group: P -1
;
_chemical_formula_sum "Si O2"
_cell_formula_units_Z 16
_cell_length_a 8.019731
_cell_length_b 13.738873
_cell_length_c 13.880542
_cell_angle_alpha 144.572171
_cell_angle_beta 45.719798
_cell_angle_gamma 117.824023
_cell_volume 615.187551
_symmetry_space_group_name_H-M "P -1"
_symmetry_group_IT_number 2
_symmetry_cell_setting 'triclinic'
loop_
_space_group_symop_operation_xyz
x,y,z
-x,-y,-z
loop_
_atom_site_type_symbol
_atom_site_label
_atom_site_fract_x
_atom_site_fract_y
_atom_site_fract_z
Si Si1 0.518969 0.264963 0.394243
Si Si2 0.339701 0.087488 0.045711
Si Si3 0.195778 0.862652 0.371047
Si Si4 0.060150 0.242489 0.943582
Si Si5 0.639834 0.681915 0.945368
Si Si6 0.624477 0.805405 0.399282
Si Si7 0.842374 0.492670 0.382822
Si Si8 0.923485 0.146987 0.390363
O O1 0.664307 0.070217 0.152484
O O2 0.362999 0.259242 0.548256
O O3 0.709099 0.384004 0.418423
O O4 0.347034 0.331539 0.425685
O O5 0.422325 0.225757 0.057051
O O6 0.500000 0.000000 0.000000
O O7 0.083787 0.184195 0.269714
O O8 0.345016 0.998135 0.458780
O O9 0.378028 0.701822 0.115400
O O10 0.062985 0.797163 0.459774
O O11 0.000000 0.000000 0.500000
O O12 0.237237 0.213540 0.941935
O O13 0.188739 0.289373 0.833828
O O14 0.990031 0.064226 0.809915
O O15 0.856136 0.394510 0.193433
O O16 0.878539 0.521604 0.711853
O O17 0.357088 0.800270 0.475573
#
# Coordination Sequence:
#
# PCOD9079921 Si02
#       8
#     2   2   2   2   2   2   2   2
#     4  11  21  35  56  86 114 142 189 237 275 323
#     4  12  23  34  54  86 114 145 192 235 277 329
#     4  11  20  32  53  83 116 143 183 237 286 326
#     4   9  17  33  54  80 104 141 181 222 274 332
#     4  10  18  38  54  79 110 147 184 226 288 326
#     4  11  19  33  57  85 109 144 190 233 278 333
#     4   9  20  37  58  80 114 147 181 233 285 329
#     4  11  18  32  54  80 112 145 182 230 280 336
#
# _framework density 26.008330000000001
#
# number of rings (size 3 to 8) (size 9 to 14) (size 15 to 20)
#    0.750    0.750    5.000    2.250    0.000    2.000 
#    0.000    0.625    0.000    0.750    0.000    0.000 
#    0.000    0.000    0.000    0.000    0.000    0.000 
#
# Total GULP energy -89299.142625 kJ/mol
# GULP energy per Si atom -5581.196414 kJ/mol
# Density = 2.594913 g / cm^3
# Si number density = 26.008330 Si / 1000 Ang^3
#
#
#
# Elastic Constant Matrix: (Units=GPa)
#
#
# Indices 1 2 3 4 5 6 
#
# 1 74.4559 21.0597 5.4043 -5.9579 -10.2973 -17.6393
# 2 21.0597 79.1381 26.7252 -18.5367 18.3458 -17.4948
# 3 5.4043 26.7252 128.0045 -14.7412 5.0313 -1.1928
# 4 -5.9579 -18.5367 -14.7412 41.8225 -14.3163 -2.5850
# 5 -10.2973 18.3458 5.0313 -14.3163 31.1527 -5.1829
# 6 -17.6393 -17.4948 -1.1928 -2.5850 -5.1829 40.3708
#
#
#
# Elastic Compliance Matrix: (Units=1/GPa)
#
#
# Indices 1 2 3 4 5 6 
#
# 1 0.019072 -0.005182 0.000480 0.005618 0.013217 0.008158
# 2 -0.005182 0.019296 -0.002950 0.003618 -0.010115 0.004944
# 3 0.000480 -0.002950 0.008607 0.002267 0.001468 -0.000481
# 4 0.005618 0.003618 0.002267 0.033078 0.015935 0.008253
# 5 0.013217 -0.010115 0.001468 0.015935 0.051009 0.009004
# 6 0.008158 0.004944 -0.000481 0.008253 0.009004 0.032148
#
#
# Mechanical properties :
#
#
# Convention : Reuss Voigt Hill
#
# Bulk Modulus (GPa) = 31.57356 43.10853 37.34104
# Shear Modulus (GPa) = 26.44508 37.89648 32.17078
#
# Velocity S-wave (km/s) = 3.19218 3.82133 3.52083
# Velocity P-wave (km/s) = 5.07472 6.00674 5.56029
#
# Compressibility (1/GPa) = 0.03167207
#
# Stress axis : x y z
#
# Youngs Moduli (GPa) = 52.43302 51.82290 116.18789
#
# Poissons Ratio (x) = 0.26855 -0.05579
# Poissons Ratio (y) = 0.27171 0.34272
# Poissons Ratio (z) = -0.02518 0.15286
#
# Static dielectric constant tensor:
#      x y z
#    x 2.178940 -0.024180 0.003410 
#    y -0.024180 2.092910 0.034520 
#    z 0.003410 0.034520 2.099800 
# 
# From -- ./inp_files/504229.got.cif
#   From: 2010.05.17/outbox.cif.g08.bks.cpg/sg2_253_cif.got.tgz:504229.got - 2010.06.03 11:33:40.
