data_PCOD9079775
_publ_section_title
;
Structure prediction by ZEFSAII (Michael W. Deem and Ramdas Pophale) SiO2 
 PCOD9079775
Probable space group: P -1
;
_chemical_formula_sum "Si O2"
_cell_formula_units_Z 16
_cell_length_a 17.733625
_cell_length_b 8.614279
_cell_length_c 7.402856
_cell_angle_alpha 114.913486
_cell_angle_beta 54.732033
_cell_angle_gamma 128.770321
_cell_volume 716.704988
_symmetry_space_group_name_H-M "P -1"
_symmetry_group_IT_number 2
_symmetry_cell_setting 'triclinic'
loop_
_space_group_symop_operation_xyz
x,y,z
-x,-y,-z
loop_
_atom_site_type_symbol
_atom_site_label
_atom_site_fract_x
_atom_site_fract_y
_atom_site_fract_z
Si Si1 0.717295 0.742279 0.501474
Si Si2 0.673382 0.339656 0.815894
Si Si3 0.548445 0.728443 0.987957
Si Si4 0.969054 0.792292 0.842816
Si Si5 0.164242 0.204703 0.272233
Si Si6 0.230196 0.911777 0.037729
Si Si7 0.184160 0.839412 0.499890
Si Si8 0.749890 0.431273 0.138876
O O1 0.613350 0.738540 0.722521
O O2 0.810139 0.793598 0.550330
O O3 0.691041 0.529622 0.366330
O O4 0.765670 0.930535 0.394300
O O5 0.734287 0.579354 0.820328
O O6 0.746531 0.259325 0.592207
O O7 0.551543 0.239855 0.871868
O O8 0.675626 0.310400 0.012722
O O9 0.646262 0.903486 0.051408
O O10 0.500000 0.500000 0.000000
O O11 0.937408 0.802725 0.682284
O O12 0.061787 0.737939 0.683246
O O13 0.861721 0.616197 0.999148
O O14 0.000000 0.000000 0.000000
O O15 0.164688 0.010637 0.103619
O O16 0.193233 0.853054 0.272280
O O17 0.223230 0.717786 0.868452
#
# Coordination Sequence:
#
# PCOD9079775 Si02
#       8
#     2   2   2   2   2   2   2   2
#     4  10  20  38  58  89 121 147 194 247 283 347
#     4  10  19  37  63  85 113 156 195 234 288 348
#     4  10  18  37  65  84 112 160 196 227 295 350
#     4  11  21  40  62  83 118 158 196 237 294 341
#     4   9  20  37  61  82 114 160 191 237 287 344
#     4   9  20  37  60  88 122 147 195 243 281 349
#     4   9  20  36  59  85 112 154 194 238 278 349
#     4  10  22  37  57  89 128 143 191 253 285 333
#
# _framework density 22.324387999999999
#
# number of rings (size 3 to 8) (size 9 to 14) (size 15 to 20)
#    0.000    2.500    3.750    0.000    0.000   11.500 
#    2.250    1.250    0.000    0.000    0.000    0.000 
#    0.000    0.000    0.000    0.000    0.000    0.000 
#
# Total GULP energy -89136.707648 kJ/mol
# GULP energy per Si atom -5571.044228 kJ/mol
# Density = 2.227358 g / cm^3
# Si number density = 22.324388 Si / 1000 Ang^3
#
#
#
# Elastic Constant Matrix: (Units=GPa)
#
#
# Indices 1 2 3 4 5 6 
#
# 1 67.9498 12.4287 40.3651 3.7516 -32.0118 0.0792
# 2 12.4287 63.9391 0.9487 10.2044 -14.0874 -17.4269
# 3 40.3651 0.9487 56.3801 13.5888 -27.3645 -3.8704
# 4 3.7516 10.2044 13.5888 39.0673 -3.4881 -16.0945
# 5 -32.0118 -14.0874 -27.3645 -3.4881 43.3478 3.2614
# 6 0.0792 -17.4269 -3.8704 -16.0945 3.2614 31.2059
#
#
#
# Elastic Compliance Matrix: (Units=1/GPa)
#
#
# Indices 1 2 3 4 5 6 
#
# 1 0.031456 -0.005406 -0.018677 0.003980 0.010337 -0.004443
# 2 -0.005406 0.021618 0.008547 -0.002976 0.007374 0.010841
# 3 -0.018677 0.008547 0.040688 -0.012574 0.013510 0.001970
# 4 0.003980 -0.002976 -0.012574 0.036619 -0.004229 0.016097
# 5 0.010337 0.007374 0.013510 -0.004229 0.041343 -0.000735
# 6 -0.004443 0.010841 0.001970 0.016097 -0.000735 0.046734
#
#
# Mechanical properties :
#
#
# Convention : Reuss Voigt Hill
#
# Bulk Modulus (GPa) = 15.95150 32.86155 24.40652
# Shear Modulus (GPa) = 18.48937 31.69264 25.09100
#
# Velocity S-wave (km/s) = 2.88099 3.77190 3.35614
# Velocity P-wave (km/s) = 4.26939 5.80703 5.09653
#
# Compressibility (1/GPa) = 0.06269004
#
# Stress axis : x y z
#
# Youngs Moduli (GPa) = 31.79074 46.25726 24.57755
#
# Poissons Ratio (x) = 0.25007 0.45903
# Poissons Ratio (y) = 0.17186 -0.21007
# Poissons Ratio (z) = 0.59375 -0.39536
#
# Static dielectric constant tensor:
#      x y z
#    x 1.926140 -0.018360 0.009460 
#    y -0.018360 1.886520 0.028490 
#    z 0.009460 0.028490 1.907480 
# 
# From -- ./inp_files/327787.got.cif
#   From: 2010.05.17/outbox.cif.g08.bks.cpg/sg2_164_cif.got.tgz:327787.got - 2010.06.03 11:33:40.
