data_PCOD9079823
_publ_section_title
;
Structure prediction by ZEFSAII (Michael W. Deem and Ramdas Pophale) SiO2 
 PCOD9079823
Probable space group: P -1
;
_chemical_formula_sum "Si O2"
_cell_formula_units_Z 14
_cell_length_a 11.559981
_cell_length_b 16.864984
_cell_length_c 10.560964
_cell_angle_alpha 34.829750
_cell_angle_beta 49.020684
_cell_angle_gamma 31.969531
_cell_volume 617.000475
_symmetry_space_group_name_H-M "P -1"
_symmetry_group_IT_number 2
_symmetry_cell_setting 'triclinic'
loop_
_space_group_symop_operation_xyz
x,y,z
-x,-y,-z
loop_
_atom_site_type_symbol
_atom_site_label
_atom_site_fract_x
_atom_site_fract_y
_atom_site_fract_z
Si Si1 0.748648 0.808519 0.108275
Si Si2 0.632846 0.805980 0.463813
Si Si3 0.538521 0.179313 0.083898
Si Si4 0.776517 0.238357 0.342494
Si Si5 0.740414 0.122276 0.274791
Si Si6 0.768955 0.110280 0.759388
Si Si7 0.872489 0.495503 0.922621
O O1 0.731824 0.733013 0.348431
O O2 0.874195 0.658209 0.097831
O O3 0.500000 0.000000 0.000000
O O4 0.840262 0.903959 0.947602
O O5 0.375549 0.933334 0.499841
O O6 0.760680 0.620078 0.708527
O O7 0.648907 0.955210 0.299603
O O8 0.633251 0.199627 0.111490
O O9 0.275976 0.331888 0.092475
O O10 0.611441 0.204166 0.870080
O O11 0.682806 0.275388 0.221225
O O12 0.652842 0.254744 0.531031
O O13 0.829863 0.363014 0.158384
O O14 0.000000 0.000000 0.500000
O O15 0.004648 0.953588 0.291411
#
# Coordination Sequence:
#
# PCOD9079823 Si02
#       7
#     2   2   2   2   2   2   2
#     4  11  22  40  66  91 126 169 214 263 318 371
#     4  10  23  39  65  95 130 166 210 260 317 376
#     4  10  23  40  64  94 131 165 207 258 321 377
#     4  10  20  36  64  89 125 162 213 258 312 358
#     4  10  18  37  66  88 122 165 206 253 312 368
#     4  10  21  40  62  91 127 165 205 260 316 372
#     4  11  21  40  65  92 127 165 216 260 313 378
#
# _framework density 22.69042
#
# number of rings (size 3 to 8) (size 9 to 14) (size 15 to 20)
#    0.000    1.714    2.857    3.429    2.000    2.857 
#    0.000    2.857   25.143    0.000    0.000    0.000 
#    0.000    0.000    0.000    0.000    0.000    0.000 
#
# Total GULP energy -78060.914242 kJ/mol
# GULP energy per Si atom -5575.779589 kJ/mol
# Density = 2.263878 g / cm^3
# Si number density = 22.690420 Si / 1000 Ang^3
#
#
#
# Elastic Constant Matrix: (Units=GPa)
#
#
# Indices 1 2 3 4 5 6 
#
# 1 52.1850 29.9896 3.8042 13.3320 9.0273 4.6663
# 2 29.9896 114.4997 22.2095 33.0655 23.8340 -2.7617
# 3 3.8042 22.2095 111.9752 21.7171 14.4120 4.6820
# 4 13.3320 33.0655 21.7171 48.3257 7.9136 8.8985
# 5 9.0273 23.8340 14.4120 7.9136 22.8122 15.9240
# 6 4.6663 -2.7617 4.6820 8.8985 15.9240 28.4780
#
#
#
# Elastic Compliance Matrix: (Units=1/GPa)
#
#
# Indices 1 2 3 4 5 6 
#
# 1 0.023311 -0.005430 0.001039 -0.002416 -0.001221 -0.003080
# 2 -0.005430 0.021814 0.001973 -0.013381 -0.036146 0.027073
# 3 0.001039 0.001973 0.010903 -0.005809 -0.012099 0.006809
# 4 -0.002416 -0.013381 -0.005809 0.033631 0.023353 -0.023513
# 5 -0.001221 -0.036146 -0.012099 0.023353 0.143746 -0.088991
# 6 -0.003080 0.027073 0.006809 -0.023513 -0.088991 0.094234
#
#
# Mechanical properties :
#
#
# Convention : Reuss Voigt Hill
#
# Bulk Modulus (GPa) = 19.53362 43.40740 31.47051
# Shear Modulus (GPa) = 14.30461 34.76696 24.53579
#
# Velocity S-wave (km/s) = 2.51355 3.91862 3.29192
# Velocity P-wave (km/s) = 4.12933 6.29650 5.32434
#
# Compressibility (1/GPa) = 0.05119380
#
# Stress axis : x y z
#
# Youngs Moduli (GPa) = 42.89833 45.84177 91.71779
#
# Poissons Ratio (x) = 0.24891 -0.09533
# Poissons Ratio (y) = 0.23292 -0.18097
# Poissons Ratio (z) = -0.04459 -0.09045
#
# Static dielectric constant tensor:
#      x y z
#    x 1.935850 -0.009970 -0.007010 
#    y -0.009970 1.909900 0.025740 
#    z -0.007010 0.025740 1.854930 
# 
# From -- ./inp_files/437191.got.cif
#   From: 2010.05.17/outbox.cif.g08.bks.cpg/sg2_219_cif.got.tgz:437191.got - 2010.06.03 11:33:40.
