data_PCOD9079290
_publ_section_title
;
Structure prediction by ZEFSAII (Michael W. Deem and Ramdas Pophale) SiO2 
 PCOD9079290
Probable space group: P -1
;
_chemical_formula_sum "Si O2"
_cell_formula_units_Z 14
_cell_length_a 8.268613
_cell_length_b 14.751685
_cell_length_c 8.391541
_cell_angle_alpha 113.608083
_cell_angle_beta 81.984315
_cell_angle_gamma 136.634768
_cell_volume 625.006609
_symmetry_space_group_name_H-M "P -1"
_symmetry_group_IT_number 2
_symmetry_cell_setting 'triclinic'
loop_
_space_group_symop_operation_xyz
x,y,z
-x,-y,-z
loop_
_atom_site_type_symbol
_atom_site_label
_atom_site_fract_x
_atom_site_fract_y
_atom_site_fract_z
Si Si1 0.509997 0.442228 0.749098
Si Si2 0.989885 0.622489 0.706517
Si Si3 0.136513 0.650780 0.375515
Si Si4 0.704397 0.105669 0.910939
Si Si5 0.503964 0.811542 0.189157
Si Si6 0.724431 0.481367 0.088210
Si Si7 0.932037 0.887263 0.299546
O O1 0.461678 0.536039 0.800437
O O2 0.257072 0.273935 0.701607
O O3 0.699916 0.499317 0.628436
O O4 0.664915 0.489936 0.923006
O O5 0.125332 0.703146 0.578628
O O6 0.001907 0.513780 0.682452
O O7 0.094992 0.741645 0.910013
O O8 0.405905 0.758468 0.347137
O O9 0.983052 0.621975 0.226572
O O10 0.557161 0.106906 0.804315
O O11 0.850655 0.079067 0.789372
O O12 0.500000 0.000000 0.000000
O O13 0.767885 0.879141 0.193468
O O14 0.334836 0.660036 0.007343
O O15 0.000000 0.000000 0.500000
#
# Coordination Sequence:
#
# PCOD9079290 Si02
#       7
#     2   2   2   2   2   2   2
#     4  10  20  39  69  96 136 172 225 287 336 409
#     4  11  22  39  64 105 137 166 227 285 342 392
#     4  11  21  34  69 102 134 172 216 288 341 409
#     4  12  28  47  72  99 142 187 231 287 343 416
#     4  11  22  44  73  96 136 188 232 276 351 415
#     4  10  18  36  65  98 126 172 224 274 346 402
#     4  11  26  45  70 102 139 187 234 281 340 414
#
# _framework density 22.399763
#
# number of rings (size 3 to 8) (size 9 to 14) (size 15 to 20)
#    0.000    1.143    4.286    4.714    2.000    1.714 
#    2.571    0.000    0.000    0.000    0.000    0.000 
#    0.000    0.000    0.000    0.000    0.000    0.000 
#
# Total GULP energy -77964.109819 kJ/mol
# GULP energy per Si atom -5568.864987 kJ/mol
# Density = 2.234878 g / cm^3
# Si number density = 22.399763 Si / 1000 Ang^3
#
#
#
# Elastic Constant Matrix: (Units=GPa)
#
#
# Indices 1 2 3 4 5 6 
#
# 1 161.1486 35.6198 45.8644 -16.5480 -28.6761 11.5683
# 2 35.6198 89.6941 26.3951 -12.0620 -14.2320 15.1380
# 3 45.8644 26.3951 92.7067 4.1618 -25.0515 -1.5960
# 4 -16.5480 -12.0620 4.1618 21.4622 6.4407 -3.4243
# 5 -28.6761 -14.2320 -25.0515 6.4407 29.8671 -4.1165
# 6 11.5683 15.1380 -1.5960 -3.4243 -4.1165 20.4914
#
#
#
# Elastic Compliance Matrix: (Units=1/GPa)
#
#
# Indices 1 2 3 4 5 6 
#
# 1 0.008763 -0.000615 -0.003499 0.005521 0.003564 -0.003127
# 2 -0.000615 0.015480 -0.004661 0.007547 -0.000160 -0.010223
# 3 -0.003499 -0.004661 0.018020 -0.011530 0.013057 0.007518
# 4 0.005521 0.007547 -0.011530 0.061261 -0.014292 -0.002224
# 5 0.003564 -0.000160 0.013057 -0.014292 0.051847 0.007150
# 6 -0.003127 -0.010223 0.007518 -0.002224 0.007150 0.059768
#
#
# Mechanical properties :
#
#
# Convention : Reuss Voigt Hill
#
# Bulk Modulus (GPa) = 40.46382 62.14532 51.30457
# Shear Modulus (GPa) = 20.75326 30.07549 25.41438
#
# Velocity S-wave (km/s) = 3.04714 3.66822 3.37201
# Velocity P-wave (km/s) = 5.52120 6.76351 6.17369
#
# Compressibility (1/GPa) = 0.02471343
#
# Stress axis : x y z
#
# Youngs Moduli (GPa) = 114.11999 64.60126 55.49356
#
# Poissons Ratio (x) = 0.03970 0.19415
# Poissons Ratio (y) = 0.07014 0.25867
# Poissons Ratio (z) = 0.39927 0.30112
#
# Static dielectric constant tensor:
#      x y z
#    x 1.950360 0.026950 -0.015990 
#    y 0.026950 1.902120 -0.027780 
#    z -0.015990 -0.027780 1.897680 
# 
# From -- ./inp_files/203062.got.cif
#   From: 2010.05.17/outbox.cif.g08.bks.cpg/sg2_102_cif.got.tgz:203062.got - 2010.06.03 11:33:40.
