data_PCOD9079963
_publ_section_title
;
Structure prediction by ZEFSAII (Michael W. Deem and Ramdas Pophale) SiO2 
 PCOD9079963
Probable space group: P -1
;
_chemical_formula_sum "Si O2"
_cell_formula_units_Z 16
_cell_length_a 9.238982
_cell_length_b 15.405410
_cell_length_c 9.377135
_cell_angle_alpha 129.523226
_cell_angle_beta 117.234561
_cell_angle_gamma 94.702326
_cell_volume 767.982776
_symmetry_space_group_name_H-M "P -1"
_symmetry_group_IT_number 2
_symmetry_cell_setting 'triclinic'
loop_
_space_group_symop_operation_xyz
x,y,z
-x,-y,-z
loop_
_atom_site_type_symbol
_atom_site_label
_atom_site_fract_x
_atom_site_fract_y
_atom_site_fract_z
Si Si1 0.196466 0.755305 0.386122
Si Si2 0.994974 0.591828 0.396885
Si Si3 0.649774 0.317278 0.863035
Si Si4 0.082394 0.247191 0.950697
Si Si5 0.429879 0.269875 0.982318
Si Si6 0.211188 0.452291 0.466915
Si Si7 0.506861 0.955718 0.115573
Si Si8 0.292793 0.900668 0.224568
O O1 0.344163 0.725105 0.340715
O O2 0.132437 0.701137 0.458469
O O3 0.008959 0.694544 0.137154
O O4 0.298682 0.914501 0.598796
O O5 0.917295 0.629774 0.538722
O O6 0.108193 0.525078 0.434404
O O7 0.799831 0.475069 0.109028
O O8 0.737894 0.244455 0.915715
O O9 0.460120 0.269434 0.823677
O O10 0.897372 0.118954 0.810503
O O11 0.217659 0.220356 0.888558
O O12 0.204456 0.354562 0.241966
O O13 0.579380 0.424567 0.258679
O O14 0.487371 0.174987 0.988616
O O15 0.332027 0.936875 0.115081
O O16 0.500000 0.000000 0.000000
O O17 0.500000 0.000000 0.500000
#
# Coordination Sequence:
#
# PCOD9079963 Si02
#       8
#     2   2   2   2   2   2   2   2
#     4  11  21  36  61  91 114 151 200 254 291 334
#     4  10  19  34  62  92 114 149 207 247 280 345
#     4   9  18  35  57  85 115 149 199 242 280 343
#     4  11  22  38  62  89 120 157 194 242 301 352
#     4  10  23  39  59  88 123 159 193 236 303 357
#     4  10  20  37  62  89 119 158 195 242 294 348
#     4  11  23  39  61  86 118 152 202 247 287 350
#     4  10  18  38  59  84 113 149 199 236 284 347
#
# _framework density 20.833803
#
# number of rings (size 3 to 8) (size 9 to 14) (size 15 to 20)
#    0.000    1.750    5.000    1.500    3.500    0.500 
#    0.000    3.125    5.500    0.000    0.000    0.000 
#    0.000    0.000    0.000    0.000    0.000    0.000 
#
# Total GULP energy -89156.977364 kJ/mol
# GULP energy per Si atom -5572.311085 kJ/mol
# Density = 2.078638 g / cm^3
# Si number density = 20.833803 Si / 1000 Ang^3
#
#
#
# Elastic Constant Matrix: (Units=GPa)
#
#
# Indices 1 2 3 4 5 6 
#
# 1 131.6662 39.8418 12.9086 -5.5298 -2.0988 49.4204
# 2 39.8418 107.9983 16.2354 -5.8730 -3.4874 51.6797
# 3 12.9086 16.2354 64.7090 7.7405 -3.3639 12.1861
# 4 -5.5298 -5.8730 7.7405 27.6798 9.5316 -4.7196
# 5 -2.0988 -3.4874 -3.3639 9.5316 17.3029 1.3351
# 6 49.4204 51.6797 12.1861 -4.7196 1.3351 35.8152
#
#
#
# Elastic Compliance Matrix: (Units=1/GPa)
#
#
# Indices 1 2 3 4 5 6 
#
# 1 0.041966 0.046458 0.009120 -0.019642 0.037234 -0.132024
# 2 0.046458 0.084125 0.012943 -0.029290 0.056354 -0.195858
# 3 0.009120 0.012943 0.020887 -0.014856 0.019126 -0.041039
# 4 -0.019642 -0.029290 -0.014856 0.062525 -0.052145 0.084605
# 5 0.037234 0.056354 0.019126 -0.052145 0.117721 -0.150462
# 6 -0.132024 -0.195858 -0.041039 0.084605 -0.150462 0.523434
#
#
# Mechanical properties :
#
#
# Convention : Reuss Voigt Hill
#
# Bulk Modulus (GPa) = 3.52087 49.14947 26.33517
# Shear Modulus (GPa) = 6.18591 31.85210 19.01901
#
# Velocity S-wave (km/s) = 1.72500 3.91431 3.02469
# Velocity P-wave (km/s) = 2.37932 6.63864 4.98662
#
# Compressibility (1/GPa) = 0.28402035
#
# Stress axis : x y z
#
# Youngs Moduli (GPa) = 23.82879 11.88713 47.87712
#
# Poissons Ratio (x) = -0.55225 -0.43665
# Poissons Ratio (y) = -1.10704 -0.61968
# Poissons Ratio (z) = -0.21733 -0.15386
#
# Static dielectric constant tensor:
#      x y z
#    x 1.793170 0.043660 -0.007540 
#    y 0.043660 1.740760 -0.000390 
#    z -0.007540 -0.000390 1.837450 
# 
# From -- ./inp_files/217311.got.cif
#   From: 2010.05.17/outbox.cif.g08.bks.cpg/sg2_109_cif.got.tgz:217311.got - 2010.06.03 11:33:40.
