data_PCOD9079662
_publ_section_title
;
Structure prediction by ZEFSAII (Michael W. Deem and Ramdas Pophale) SiO2 
 PCOD9079662
Probable space group: P -1
;
_chemical_formula_sum "Si O2"
_cell_formula_units_Z 16
_cell_length_a 10.729225
_cell_length_b 19.882709
_cell_length_c 15.011989
_cell_angle_alpha 156.888695
_cell_angle_beta 138.064251
_cell_angle_gamma 31.343706
_cell_volume 640.133838
_symmetry_space_group_name_H-M "P -1"
_symmetry_group_IT_number 2
_symmetry_cell_setting 'triclinic'
loop_
_space_group_symop_operation_xyz
x,y,z
-x,-y,-z
loop_
_atom_site_type_symbol
_atom_site_label
_atom_site_fract_x
_atom_site_fract_y
_atom_site_fract_z
Si Si1 0.116470 0.273512 0.067008
Si Si2 0.306051 0.633152 0.952189
Si Si3 0.388321 0.892154 0.894139
Si Si4 0.953559 0.984433 0.855339
Si Si5 0.560619 0.028503 0.792328
Si Si6 0.839508 0.459635 0.810249
Si Si7 0.146662 0.741028 0.252080
Si Si8 0.691476 0.981374 0.514122
O O1 0.023799 0.279085 0.925463
O O2 0.267385 0.039109 0.918176
O O3 0.320586 0.300141 0.202207
O O4 0.863821 0.418715 0.164658
O O5 0.585730 0.415622 0.838666
O O6 0.200853 0.765432 0.963919
O O7 0.288040 0.828427 0.230091
O O8 0.213824 0.839577 0.766679
O O9 0.369291 0.038710 0.148001
O O10 0.778128 0.927791 0.713470
O O11 0.000000 0.000000 0.000000
O O12 0.381217 0.014090 0.621800
O O13 0.406708 0.297829 0.050297
O O14 0.787113 0.352837 0.727333
O O15 0.043735 0.255110 0.607381
O O16 0.000000 0.500000 0.000000
O O17 0.000000 0.000000 0.500000
O O18 0.500000 0.000000 0.500000
#
# Coordination Sequence:
#
# PCOD9079662 Si02
#       8
#     2   2   2   2   2   2   2   2
#     4  10  21  38  60  90 127 172 216 256 315 384
#     4  11  21  39  62  96 127 167 214 266 331 382
#     4   9  20  36  63  89 125 180 213 258 310 385
#     4   9  17  34  64  89 124 168 210 261 319 383
#     4  10  18  37  62  95 127 167 210 265 328 378
#     4  10  20  35  59  92 127 163 207 262 327 381
#     4  12  24  41  65  95 129 170 215 272 333 394
#     4  11  20  33  59  97 130 156 202 272 331 385
#
# _framework density 24.994774
#
# number of rings (size 3 to 8) (size 9 to 14) (size 15 to 20)
#    0.000    1.750    2.500    3.375    0.000    0.000 
#    0.000    0.000    2.750   18.000    0.000    0.000 
#    0.000    0.000    0.000    0.000    0.000    0.000 
#
# Total GULP energy -89170.081702 kJ/mol
# GULP energy per Si atom -5573.130106 kJ/mol
# Density = 2.493788 g / cm^3
# Si number density = 24.994774 Si / 1000 Ang^3
#
#
#
# Elastic Constant Matrix: (Units=GPa)
#
#
# Indices 1 2 3 4 5 6 
#
# 1 131.3762 38.1684 16.8131 6.9500 -8.9303 -15.9260
# 2 38.1684 149.7020 32.8546 -4.4080 -10.5747 -15.0612
# 3 16.8131 32.8546 61.0524 14.2868 -6.5738 -8.9889
# 4 6.9500 -4.4080 14.2868 36.7346 0.7223 -11.1080
# 5 -8.9303 -10.5747 -6.5738 0.7223 23.2747 -0.0620
# 6 -15.9260 -15.0612 -8.9889 -11.1080 -0.0620 72.6932
#
#
#
# Elastic Compliance Matrix: (Units=1/GPa)
#
#
# Indices 1 2 3 4 5 6 
#
# 1 0.008593 -0.001789 -0.000678 -0.001248 0.002335 0.001239
# 2 -0.001789 0.008487 -0.004497 0.003477 0.001795 0.001343
# 3 -0.000678 -0.004497 0.021513 -0.008785 0.004046 0.000241
# 4 -0.001248 0.003477 -0.008785 0.032654 -0.002382 0.004348
# 5 0.002335 0.001795 0.004046 -0.002382 0.045896 0.001059
# 6 0.001239 0.001343 0.000241 0.004348 0.001059 0.015001
#
#
# Mechanical properties :
#
#
# Convention : Reuss Voigt Hill
#
# Bulk Modulus (GPa) = 40.54270 57.53365 49.03817
# Shear Modulus (GPa) = 32.40532 43.49346 37.94939
#
# Velocity S-wave (km/s) = 3.60458 4.17598 3.90075
# Velocity P-wave (km/s) = 5.79480 6.80588 6.32059
#
# Compressibility (1/GPa) = 0.02466535
#
# Stress axis : x y z
#
# Youngs Moduli (GPa) = 116.36975 117.82074 46.48350
#
# Poissons Ratio (x) = 0.21083 0.03150
# Poissons Ratio (y) = 0.20823 0.20905
# Poissons Ratio (z) = 0.07885 0.52987
#
# Static dielectric constant tensor:
#      x y z
#    x 2.574360 -0.027610 0.038420 
#    y -0.027610 2.092830 -0.029250 
#    z 0.038420 -0.029250 1.985080 
# 
# From -- ./inp_files/570983.got.cif
#   From: 2010.05.17/outbox.cif.g08.bks.cpg/sg2_286_cif.got.tgz:570983.got - 2010.06.03 11:33:40.
