data_PCOD9079864
_publ_section_title
;
Structure prediction by ZEFSAII (Michael W. Deem and Ramdas Pophale) SiO2 
 PCOD9079864
Probable space group: P -1
;
_chemical_formula_sum "Si O2"
_cell_formula_units_Z 14
_cell_length_a 9.056389
_cell_length_b 12.379380
_cell_length_c 7.968927
_cell_angle_alpha 71.671868
_cell_angle_beta 65.159565
_cell_angle_gamma 119.074426
_cell_volume 536.129139
_symmetry_space_group_name_H-M "P -1"
_symmetry_group_IT_number 2
_symmetry_cell_setting 'triclinic'
loop_
_space_group_symop_operation_xyz
x,y,z
-x,-y,-z
loop_
_atom_site_type_symbol
_atom_site_label
_atom_site_fract_x
_atom_site_fract_y
_atom_site_fract_z
Si Si1 0.306621 0.716649 0.902398
Si Si2 0.313947 0.276803 0.771469
Si Si3 0.245705 0.561006 0.338128
Si Si4 0.062908 0.956155 0.195653
Si Si5 0.013881 0.745680 0.582168
Si Si6 0.475227 0.026922 0.805818
Si Si7 0.195841 0.455026 0.876695
O O1 0.429673 0.900187 0.761486
O O2 0.031113 0.609872 0.078735
O O3 0.366972 0.686466 0.063845
O O4 0.338888 0.636409 0.785900
O O5 0.570275 0.354263 0.643019
O O6 0.187309 0.185139 0.702744
O O7 0.310754 0.408768 0.747184
O O8 0.150806 0.129275 0.059971
O O9 0.000000 0.500000 0.500000
O O10 0.165324 0.396608 0.397839
O O11 0.068613 0.896964 0.402544
O O12 0.244368 0.986842 0.960266
O O13 0.899152 0.656968 0.855837
O O14 0.261821 0.802550 0.441467
O O15 0.500000 0.000000 0.000000
#
# Coordination Sequence:
#
# PCOD9079864 Si02
#       7
#     2   2   2   2   2   2   2
#     4  10  21  41  64  90 132 168 211 252 322 380
#     4  11  23  41  66  89 133 167 209 264 326 371
#     4  11  22  39  66  94 120 166 216 264 313 378
#     4  10  21  40  63  96 126 168 211 268 317 364
#     4  10  22  37  63  94 126 162 220 255 308 380
#     4  10  18  37  67  92 124 166 209 264 308 366
#     4  10  23  42  63  95 128 175 207 255 321 383
#
# _framework density 26.113111
#
# number of rings (size 3 to 8) (size 9 to 14) (size 15 to 20)
#    0.000    1.714    1.429    4.286    0.000    4.000 
#    0.000    1.429    6.286    0.000    0.000    0.000 
#    0.000    0.000    0.000    0.000    0.000    0.000 
#
# Total GULP energy -78266.636804 kJ/mol
# GULP energy per Si atom -5590.474057 kJ/mol
# Density = 2.605368 g / cm^3
# Si number density = 26.113111 Si / 1000 Ang^3
#
#
#
# Elastic Constant Matrix: (Units=GPa)
#
#
# Indices 1 2 3 4 5 6 
#
# 1 154.5487 59.6710 30.3478 0.7434 -2.2664 15.9104
# 2 59.6710 131.8906 34.7052 -19.9583 -13.9741 -8.9140
# 3 30.3478 34.7052 90.3176 6.1886 3.4687 1.9280
# 4 0.7434 -19.9583 6.1886 24.2890 3.4887 -0.5178
# 5 -2.2664 -13.9741 3.4687 3.4887 54.5661 -11.7218
# 6 15.9104 -8.9140 1.9280 -0.5178 -11.7218 45.6486
#
#
#
# Elastic Compliance Matrix: (Units=1/GPa)
#
#
# Indices 1 2 3 4 5 6 
#
# 1 0.008986 -0.004976 -0.000672 -0.004063 -0.001570 -0.004524
# 2 -0.004976 0.013746 -0.004726 0.012189 0.004082 0.005804
# 3 -0.000672 -0.004726 0.013720 -0.007103 -0.002060 -0.001877
# 4 -0.004063 0.012189 -0.007103 0.053072 0.001080 0.004976
# 5 -0.001570 0.004082 -0.002060 0.001080 0.020827 0.006792
# 6 -0.004524 0.005804 -0.001877 0.004976 0.006792 0.026497
#
#
# Mechanical properties :
#
#
# Convention : Reuss Voigt Hill
#
# Bulk Modulus (GPa) = 63.67773 69.57833 66.62803
# Shear Modulus (GPa) = 30.70702 41.70293 36.20498
#
# Velocity S-wave (km/s) = 3.43289 4.00060 3.72757
# Velocity P-wave (km/s) = 6.33651 6.93127 6.64055
#
# Compressibility (1/GPa) = 0.01570408
#
# Stress axis : x y z
#
# Youngs Moduli (GPa) = 111.28661 72.74867 72.88778
#
# Poissons Ratio (x) = 0.36197 0.04899
# Poissons Ratio (y) = 0.55372 0.34447
# Poissons Ratio (z) = 0.07480 0.34381
#
# Static dielectric constant tensor:
#      x y z
#    x 2.061320 -0.068040 0.008260 
#    y -0.068040 2.047780 0.006270 
#    z 0.008260 0.006270 2.133050 
# 
# From -- ./inp_files/185825.got.cif
#   From: 2010.05.17/outbox.cif.g08.bks.cpg/sg2_93_cif.got.tgz:185825.got - 2010.06.03 11:33:40.
