data_PCOD9079519
_publ_section_title
;
Structure prediction by ZEFSAII (Michael W. Deem and Ramdas Pophale) SiO2 
 PCOD9079519
Probable space group: P -1
;
_chemical_formula_sum "Si O2"
_cell_formula_units_Z 12
_cell_length_a 9.245838
_cell_length_b 15.821587
_cell_length_c 7.683245
_cell_angle_alpha 69.530393
_cell_angle_beta 102.511830
_cell_angle_gamma 151.018463
_cell_volume 500.227042
_symmetry_space_group_name_H-M "P -1"
_symmetry_group_IT_number 2
_symmetry_cell_setting 'triclinic'
loop_
_space_group_symop_operation_xyz
x,y,z
-x,-y,-z
loop_
_atom_site_type_symbol
_atom_site_label
_atom_site_fract_x
_atom_site_fract_y
_atom_site_fract_z
Si Si1 0.208036 0.823093 0.672188
Si Si2 0.851627 0.395387 0.349739
Si Si3 0.828376 0.947461 0.825365
Si Si4 0.748985 0.701991 0.483243
Si Si5 0.671876 0.237909 0.961074
Si Si6 0.677249 0.867734 0.376612
O O1 0.057749 0.653341 0.669007
O O2 0.953922 0.766079 0.641837
O O3 0.500000 0.000000 0.500000
O O4 0.306039 0.845527 0.875372
O O5 0.491590 0.193412 0.446699
O O6 0.000000 0.500000 0.500000
O O7 0.996469 0.550154 0.157411
O O8 0.488673 0.783189 0.920697
O O9 0.986216 0.128950 0.705307
O O10 0.964818 0.954283 0.704284
O O11 0.000000 0.000000 0.000000
O O12 0.500000 0.500000 0.500000
O O13 0.589934 0.714525 0.455288
O O14 0.468189 0.147001 0.801422
#
# Coordination Sequence:
#
# PCOD9079519 Si02
#       6
#     2   2   2   2   2   2
#     4  12  23  37  61  95 123 148 197 259 300 333
#     4  10  21  38  62  84 119 160 201 235 293 363
#     4   8  16  32  59  81 113 152 207 228 280 365
#     4  10  19  34  59  84 118 155 196 235 297 352
#     4  10  18  37  60  90 112 156 203 242 284 360
#     4   8  18  37  60  80 114 157 202 230 287 357
#
# _framework density 23.989104999999999
#
# number of rings (size 3 to 8) (size 9 to 14) (size 15 to 20)
#    1.000    1.333    1.667    2.500    0.000    0.000 
#    0.000    7.500    3.667    4.000    0.000    0.000 
#    0.000    0.000    0.000    0.000    0.000    0.000 
#
# Total GULP energy -66802.822849 kJ/mol
# GULP energy per Si atom -5566.901904 kJ/mol
# Density = 2.393450 g / cm^3
# Si number density = 23.989105 Si / 1000 Ang^3
#
#
#
# Elastic Constant Matrix: (Units=GPa)
#
#
# Indices 1 2 3 4 5 6 
#
# 1 106.9150 17.2669 47.8742 7.6928 18.4092 16.0128
# 2 17.2669 83.0073 25.2157 -10.6562 17.1074 12.6124
# 3 47.8742 25.2157 172.8657 -3.4439 6.7913 15.3473
# 4 7.6928 -10.6562 -3.4439 25.7359 5.6367 4.0304
# 5 18.4092 17.1074 6.7913 5.6367 61.5469 -0.1344
# 6 16.0128 12.6124 15.3473 4.0304 -0.1344 51.4171
#
#
#
# Elastic Compliance Matrix: (Units=1/GPa)
#
#
# Indices 1 2 3 4 5 6 
#
# 1 0.011872 -0.001159 -0.002883 -0.003488 -0.002596 -0.002286
# 2 -0.001159 0.015165 -0.001233 0.008009 -0.004474 -0.003630
# 3 -0.002883 -0.001233 0.006862 0.001348 0.000323 -0.000953
# 4 -0.003488 0.008009 0.001348 0.045359 -0.005496 -0.004851
# 5 -0.002596 -0.004474 0.000323 -0.005496 0.018741 0.002289
# 6 -0.002286 -0.003630 -0.000953 -0.004851 0.002289 0.021722
#
#
# Mechanical properties :
#
#
# Convention : Reuss Voigt Hill
#
# Bulk Modulus (GPa) = 42.83231 60.38908 51.61070
# Shear Modulus (GPa) = 36.21789 45.90206 41.05998
#
# Velocity S-wave (km/s) = 3.88978 4.37905 4.14165
# Velocity P-wave (km/s) = 6.16989 7.12715 6.66573
#
# Compressibility (1/GPa) = 0.02334686
#
# Stress axis : x y z
#
# Youngs Moduli (GPa) = 84.23305 65.94278 145.72941
#
# Poissons Ratio (x) = 0.07643 0.42019
# Poissons Ratio (y) = 0.09763 0.17975
# Poissons Ratio (z) = 0.24287 0.08134
#
# Static dielectric constant tensor:
#      x y z
#    x 1.948240 0.055700 0.018430 
#    y 0.055700 2.060220 0.073940 
#    z 0.018430 0.073940 1.964650 
# 
# From -- ./inp_files/205998.got.cif
#   From: 2010.05.17/outbox.cif.g08.bks.cpg/sg2_103_cif.got.tgz:205998.got - 2010.06.03 11:33:40.
