data_PCOD9079311
_publ_section_title
;
Structure prediction by ZEFSAII (Michael W. Deem and Ramdas Pophale) SiO2 
 PCOD9079311
Probable space group: P -1
;
_chemical_formula_sum "Si O2"
_cell_formula_units_Z 14
_cell_length_a 9.996462
_cell_length_b 7.225272
_cell_length_c 17.093729
_cell_angle_alpha 98.843538
_cell_angle_beta 59.487208
_cell_angle_gamma 56.017895
_cell_volume 697.222649
_symmetry_space_group_name_H-M "P -1"
_symmetry_group_IT_number 2
_symmetry_cell_setting 'triclinic'
loop_
_space_group_symop_operation_xyz
x,y,z
-x,-y,-z
loop_
_atom_site_type_symbol
_atom_site_label
_atom_site_fract_x
_atom_site_fract_y
_atom_site_fract_z
Si Si1 0.425755 0.711281 0.178024
Si Si2 0.379413 0.879720 0.680926
Si Si3 0.806015 0.072455 0.008675
Si Si4 0.024376 0.853753 0.767783
Si Si5 0.720471 0.256800 0.600434
Si Si6 0.522796 0.689037 0.465825
Si Si7 0.268385 0.203010 0.883471
O O1 0.608630 0.399813 0.067095
O O2 0.373944 0.703093 0.282744
O O3 0.557021 0.790403 0.145268
O O4 0.187874 0.928300 0.214231
O O5 0.600905 0.561383 0.628898
O O6 0.441039 0.889003 0.575234
O O7 0.167653 0.918919 0.742543
O O8 0.308503 0.105984 0.775832
O O9 0.688980 0.017463 0.090940
O O10 0.929805 0.882296 0.882468
O O11 0.000000 0.000000 0.000000
O O12 0.210205 0.541899 0.655755
O O13 0.632435 0.185867 0.557480
O O14 0.000000 0.000000 0.500000
O O15 0.500000 0.500000 0.500000
O O16 0.000000 0.500000 0.000000
#
# Coordination Sequence:
#
# PCOD9079311 Si02
#       7
#     2   2   2   2   2   2   2
#     4  12  23  38  64  96 124 162 211 257 312 365
#     4  10  19  40  62  89 127 162 209 255 306 372
#     4  12  21  42  64  88 124 167 210 252 314 372
#     4  10  20  37  64  91 122 167 204 254 311 370
#     4  10  18  36  66  93 121 165 208 251 312 373
#     4   8  17  33  60  89 119 158 207 253 301 368
#     4  12  25  39  65  95 124 165 209 259 308 368
#
# _framework density 20.07967
#
# number of rings (size 3 to 8) (size 9 to 14) (size 15 to 20)
#    0.000    1.714    4.286    3.857    0.000    0.571 
#    0.000    3.571    0.000    0.000    0.000    0.000 
#    0.000    0.000    0.000    0.000    0.000    0.000 
#
# Total GULP energy -78206.545599 kJ/mol
# GULP energy per Si atom -5586.181829 kJ/mol
# Density = 2.003397 g / cm^3
# Si number density = 20.079670 Si / 1000 Ang^3
#
#
#
# Elastic Constant Matrix: (Units=GPa)
#
#
# Indices 1 2 3 4 5 6 
#
# 1 61.1925 39.4106 27.0093 20.5226 -0.1669 -9.6272
# 2 39.4106 68.9861 28.7161 16.2267 -0.0237 -28.0864
# 3 27.0093 28.7161 145.5013 4.4491 23.6378 -13.6136
# 4 20.5226 16.2267 4.4491 42.3166 -7.4455 -4.2584
# 5 -0.1669 -0.0237 23.6378 -7.4455 38.2831 1.3883
# 6 -9.6272 -28.0864 -13.6136 -4.2584 1.3883 37.3393
#
#
#
# Elastic Compliance Matrix: (Units=1/GPa)
#
#
# Indices 1 2 3 4 5 6 
#
# 1 0.030225 -0.016963 -0.002717 -0.008496 0.000398 -0.006941
# 2 -0.016963 0.033557 -0.001459 -0.002534 -0.000373 0.020061
# 3 -0.002717 -0.001459 0.008686 0.000174 -0.005400 0.001589
# 4 -0.008496 -0.002534 0.000174 0.029611 0.005644 -0.000866
# 5 0.000398 -0.000373 -0.005400 0.005644 0.030650 -0.002642
# 6 -0.006941 0.020061 0.001589 -0.000866 -0.002642 0.040660
#
#
# Mechanical properties :
#
#
# Convention : Reuss Voigt Hill
#
# Bulk Modulus (GPa) = 33.12451 51.77242 42.44847
# Shear Modulus (GPa) = 22.15024 35.62406 28.88715
#
# Velocity S-wave (km/s) = 3.32492 4.21662 3.79704
# Velocity P-wave (km/s) = 5.59218 7.03889 6.35683
#
# Compressibility (1/GPa) = 0.03018912
#
# Stress axis : x y z
#
# Youngs Moduli (GPa) = 33.08545 29.79985 115.13213
#
# Poissons Ratio (x) = 0.50550 0.31282
# Poissons Ratio (y) = 0.56124 0.16797
# Poissons Ratio (z) = 0.08990 0.04348
#
# Static dielectric constant tensor:
#      x y z
#    x 1.661110 0.056140 0.034350 
#    y 0.056140 1.725660 -0.003970 
#    z 0.034350 -0.003970 1.734520 
# 
# From -- ./inp_files/495175.got.cif
#   From: 2010.05.17/outbox.cif.g08.bks.cpg/sg2_248_cif.got.tgz:495175.got - 2010.06.03 11:33:40.
