data_PCOD9079714
_publ_section_title
;
Structure prediction by ZEFSAII (Michael W. Deem and Ramdas Pophale) SiO2 
 PCOD9079714
Probable space group: P -1
;
_chemical_formula_sum "Si O2"
_cell_formula_units_Z 16
_cell_length_a 6.094482
_cell_length_b 17.198730
_cell_length_c 8.362286
_cell_angle_alpha 89.781119
_cell_angle_beta 53.662686
_cell_angle_gamma 99.835180
_cell_volume 689.572802
_symmetry_space_group_name_H-M "P -1"
_symmetry_group_IT_number 2
_symmetry_cell_setting 'triclinic'
loop_
_space_group_symop_operation_xyz
x,y,z
-x,-y,-z
loop_
_atom_site_type_symbol
_atom_site_label
_atom_site_fract_x
_atom_site_fract_y
_atom_site_fract_z
Si Si1 0.186662 0.949472 0.629584
Si Si2 0.979664 0.899655 0.375887
Si Si3 0.352045 0.818029 0.717743
Si Si4 0.430028 0.603000 0.418477
Si Si5 0.021142 0.707652 0.623290
Si Si6 0.549366 0.307205 0.057284
Si Si7 0.048319 0.267099 0.698427
Si Si8 0.326845 0.528524 0.817229
O O1 0.154911 0.881883 0.780268
O O2 0.149972 0.910844 0.467972
O O3 0.500000 0.000000 0.500000
O O4 0.992676 0.014155 0.718461
O O5 0.661718 0.870927 0.573653
O O6 0.024821 0.828189 0.242676
O O7 0.284590 0.766840 0.584613
O O8 0.350334 0.753661 0.858709
O O9 0.136701 0.629953 0.534000
O O10 0.388137 0.561734 0.611208
O O11 0.508452 0.543349 0.252317
O O12 0.701829 0.676300 0.315078
O O13 0.884241 0.729070 0.519418
O O14 0.773235 0.712398 0.854050
O O15 0.576120 0.395079 0.114810
O O16 0.772619 0.303003 0.826220
O O17 0.000000 0.500000 0.000000
#
# Coordination Sequence:
#
# PCOD9079714 Si02
#       8
#     2   2   2   2   2   2   2   2
#     4   9  19  32  65 100 126 167 211 264 318 376
#     4  10  18  37  63  97 128 167 217 260 317 384
#     4  11  19  40  65  88 130 171 212 261 321 380
#     4  11  24  42  68  88 126 178 216 260 330 382
#     4  12  22  42  63  93 125 171 221 262 317 384
#     4  12  25  40  64  96 129 168 219 272 322 380
#     4  12  23  41  66  96 127 173 216 266 320 386
#     4  11  22  43  66  91 131 167 212 275 325 379
#
# _framework density 23.202773000000001
#
# number of rings (size 3 to 8) (size 9 to 14) (size 15 to 20)
#    0.000    1.000    7.500    0.000    0.000    2.500 
#    0.000    1.875    0.000   10.500    0.000    0.000 
#    0.000    0.000    0.000    0.000    0.000    0.000 
#
# Total GULP energy -89145.453660 kJ/mol
# GULP energy per Si atom -5571.590854 kJ/mol
# Density = 2.314996 g / cm^3
# Si number density = 23.202773 Si / 1000 Ang^3
#
#
#
# Elastic Constant Matrix: (Units=GPa)
#
#
# Indices 1 2 3 4 5 6 
#
# 1 71.9197 36.1347 11.3792 -4.6251 -8.7835 -6.8713
# 2 36.1347 142.1080 30.9359 14.2280 -7.9587 -9.8462
# 3 11.3792 30.9359 58.1250 19.1758 -17.5501 -3.6384
# 4 -4.6251 14.2280 19.1758 22.0396 -5.8844 -15.5777
# 5 -8.7835 -7.9587 -17.5501 -5.8844 30.5112 5.9159
# 6 -6.8713 -9.8462 -3.6384 -15.5777 5.9159 38.3330
#
#
#
# Elastic Compliance Matrix: (Units=1/GPa)
#
#
# Indices 1 2 3 4 5 6 
#
# 1 0.020038 -0.004881 -0.006778 0.020880 0.002732 0.009758
# 2 -0.004881 0.009273 -0.002551 -0.005778 -0.001400 -0.000867
# 3 -0.006778 -0.002551 0.035806 -0.038851 0.013660 -0.016368
# 4 0.020880 -0.005778 -0.038851 0.120164 -0.003979 0.048017
# 5 0.002732 -0.001400 0.013660 -0.003979 0.041567 -0.006605
# 6 0.009758 -0.000867 -0.016368 0.048017 -0.006605 0.046592
#
#
# Mechanical properties :
#
#
# Convention : Reuss Voigt Hill
#
# Bulk Modulus (GPa) = 27.24933 47.67247 37.46090
# Shear Modulus (GPa) = 15.91897 31.09027 23.50462
#
# Velocity S-wave (km/s) = 2.62216 3.66449 3.18623
# Velocity P-wave (km/s) = 4.57571 6.20445 5.45125
#
# Compressibility (1/GPa) = 0.03669815
#
# Stress axis : x y z
#
# Youngs Moduli (GPa) = 49.90561 107.83613 27.92864
#
# Poissons Ratio (x) = 0.52635 0.18929
# Poissons Ratio (y) = 0.24359 0.07123
# Poissons Ratio (z) = 0.33825 0.27504
#
# Static dielectric constant tensor:
#      x y z
#    x 1.886710 -0.063000 0.008360 
#    y -0.063000 1.995410 -0.057730 
#    z 0.008360 -0.057730 1.939030 
# 
# From -- ./inp_files/139022.got.cif
#   From: 2010.05.17/outbox.cif.g08.bks.cpg/sg2_70_cif.got.tgz:139022.got - 2010.06.03 11:33:40.
