data_PCOD9079160
_publ_section_title
;
Structure prediction by ZEFSAII (Michael W. Deem and Ramdas Pophale) SiO2 
 PCOD9079160
Probable space group: P -1
;
_chemical_formula_sum "Si O2"
_cell_formula_units_Z 12
_cell_length_a 7.761422
_cell_length_b 10.735590
_cell_length_c 7.915535
_cell_angle_alpha 109.559718
_cell_angle_beta 115.447805
_cell_angle_gamma 108.439533
_cell_volume 472.042231
_symmetry_space_group_name_H-M "P -1"
_symmetry_group_IT_number 2
_symmetry_cell_setting 'triclinic'
loop_
_space_group_symop_operation_xyz
x,y,z
-x,-y,-z
loop_
_atom_site_type_symbol
_atom_site_label
_atom_site_fract_x
_atom_site_fract_y
_atom_site_fract_z
Si Si1 0.025178 0.451746 0.716043
Si Si2 0.130211 0.880412 0.661859
Si Si3 0.248905 0.025683 0.116044
Si Si4 0.391494 0.532287 0.135916
Si Si5 0.681515 0.897039 0.457340
Si Si6 0.382009 0.614035 0.654520
O O1 0.943248 0.286700 0.516838
O O2 0.806660 0.462182 0.607841
O O3 0.228959 0.582492 0.743587
O O4 0.129413 0.447193 0.935699
O O5 0.907951 0.890429 0.564500
O O6 0.302623 0.012884 0.664499
O O7 0.226757 0.912266 0.905569
O O8 0.309703 0.012480 0.327842
O O9 0.435987 0.204017 0.221399
O O10 0.000000 0.000000 0.000000
O O11 0.486017 0.714805 0.284410
O O12 0.482164 0.468874 0.289073
O O13 0.500000 0.500000 0.000000
#
# Coordination Sequence:
#
# PCOD9079160 Si02
#       6
#     2   2   2   2   2   2
#     4  10  21  37  66  96 121 166 211 261 319 372
#     4  10  19  37  63  90 126 165 212 260 312 378
#     4  10  23  38  61  92 128 167 211 258 313 380
#     4  10  18  36  63  89 119 167 204 255 317 365
#     4  10  20  36  62  92 122 169 213 252 318 378
#     4  10  21  39  60  94 129 159 215 259 311 384
#
# _framework density 25.421455000000002
#
# number of rings (size 3 to 8) (size 9 to 14) (size 15 to 20)
#    0.000    2.000    3.333    2.000    4.667    1.333 
#    0.000    1.667    0.000    0.000    0.000    0.000 
#    0.000    0.000    0.000    0.000    0.000    0.000 
#
# Total GULP energy -67169.662602 kJ/mol
# GULP energy per Si atom -5597.471884 kJ/mol
# Density = 2.536359 g / cm^3
# Si number density = 25.421455 Si / 1000 Ang^3
#
#
#
# Elastic Constant Matrix: (Units=GPa)
#
#
# Indices 1 2 3 4 5 6 
#
# 1 117.2954 20.5231 49.2252 -8.2569 17.7703 -9.7096
# 2 20.5231 72.4761 50.4603 -4.8405 2.2471 3.9968
# 3 49.2252 50.4603 207.2815 -26.1407 2.1277 -10.7874
# 4 -8.2569 -4.8405 -26.1407 44.4629 0.0390 17.7623
# 5 17.7703 2.2471 2.1277 0.0390 53.5967 -2.1507
# 6 -9.7096 3.9968 -10.7874 17.7623 -2.1507 25.1120
#
#
#
# Elastic Compliance Matrix: (Units=1/GPa)
#
#
# Indices 1 2 3 4 5 6 
#
# 1 0.010369 -0.001783 -0.001913 -0.000934 -0.003131 0.003863
# 2 -0.001783 0.017543 -0.003949 0.001860 -0.000251 -0.006515
# 3 -0.001913 -0.003949 0.006628 0.002786 0.000567 0.000814
# 4 -0.000934 0.001860 0.002786 0.033412 -0.000833 -0.023165
# 5 -0.003131 -0.000251 0.000567 -0.000833 0.019739 0.001352
# 6 0.003863 -0.006515 0.000814 -0.023165 0.001352 0.059203
#
#
# Mechanical properties :
#
#
# Convention : Reuss Voigt Hill
#
# Bulk Modulus (GPa) = 51.94757 70.83002 61.38879
# Shear Modulus (GPa) = 29.65590 43.09063 36.37326
#
# Velocity S-wave (km/s) = 3.41921 4.12156 3.78671
# Velocity P-wave (km/s) = 6.00557 7.11144 6.58177
#
# Compressibility (1/GPa) = 0.01925018
#
# Stress axis : x y z
#
# Youngs Moduli (GPa) = 96.44437 57.00178 150.87650
#
# Poissons Ratio (x) = 0.10161 0.28862
# Poissons Ratio (y) = 0.17192 0.59586
# Poissons Ratio (z) = 0.18450 0.22512
#
# Static dielectric constant tensor:
#      x y z
#    x 2.051310 0.021680 0.000960 
#    y 0.021680 1.962870 -0.073780 
#    z 0.000960 -0.073780 2.016140 
# 
# From -- ./inp_files/189567.got.cif
#   From: 2010.05.17/outbox.cif.g08.bks.cpg/sg2_95_cif.got.tgz:189567.got - 2010.06.03 11:33:40.
