data_PCOD9079099
_publ_section_title
;
Structure prediction by ZEFSAII (Michael W. Deem and Ramdas Pophale) SiO2 
 PCOD9079099
Probable space group: P -1
;
_chemical_formula_sum "Si O2"
_cell_formula_units_Z 12
_cell_length_a 7.792338
_cell_length_b 11.162273
_cell_length_c 7.575483
_cell_angle_alpha 117.926450
_cell_angle_beta 53.913339
_cell_angle_gamma 90.582329
_cell_volume 436.695011
_symmetry_space_group_name_H-M "P -1"
_symmetry_group_IT_number 2
_symmetry_cell_setting 'triclinic'
loop_
_space_group_symop_operation_xyz
x,y,z
-x,-y,-z
loop_
_atom_site_type_symbol
_atom_site_label
_atom_site_fract_x
_atom_site_fract_y
_atom_site_fract_z
Si Si1 0.943531 0.670990 0.855379
Si Si2 0.395073 0.413499 0.372756
Si Si3 0.471280 0.716435 0.163228
Si Si4 0.762441 0.130974 0.106771
Si Si5 0.968497 0.816108 0.606154
Si Si6 0.591273 0.966422 0.716243
O O1 0.126260 0.507222 0.625807
O O2 0.074650 0.778291 0.901913
O O3 0.859766 0.735447 0.753769
O O4 0.709805 0.681298 0.098227
O O5 0.500000 0.500000 0.500000
O O6 0.538166 0.249585 0.235204
O O7 0.468016 0.399930 0.114454
O O8 0.236041 0.721894 0.392522
O O9 0.396189 0.884823 0.259638
O O10 0.609409 0.069373 0.286882
O O11 0.922515 0.980301 0.814879
O O12 0.843947 0.843206 0.510230
O O13 0.500000 0.000000 0.000000
#
# Coordination Sequence:
#
# PCOD9079099 Si02
#       6
#     2   2   2   2   2   2
#     4  11  23  40  61  88 127 157 192 246 293 359
#     4  10  22  40  62  84 120 163 198 238 296 361
#     4  12  22  38  64  93 116 157 200 244 304 342
#     4  10  20  41  63  89 119 160 197 239 304 342
#     4  11  22  37  64  92 118 153 201 251 288 351
#     4  10  18  36  62  89 116 156 193 246 293 346
#
# _framework density 27.479133000000001
#
# number of rings (size 3 to 8) (size 9 to 14) (size 15 to 20)
#    0.000    1.333    6.667    1.500    0.000    1.333 
#    0.000    0.000    0.000    8.000    0.000    0.000 
#    0.000    0.000    0.000    0.000    0.000    0.000 
#
# Total GULP energy -66941.239978 kJ/mol
# GULP energy per Si atom -5578.436665 kJ/mol
# Density = 2.741659 g / cm^3
# Si number density = 27.479133 Si / 1000 Ang^3
#
#
#
# Elastic Constant Matrix: (Units=GPa)
#
#
# Indices 1 2 3 4 5 6 
#
# 1 135.3749 16.5576 53.6803 22.4778 -27.8085 23.8571
# 2 16.5576 59.7688 34.0577 30.8641 -3.5608 0.0375
# 3 53.6803 34.0577 159.7324 24.1933 -37.8739 9.0552
# 4 22.4778 30.8641 24.1933 52.2777 -4.2793 -8.0497
# 5 -27.8085 -3.5608 -37.8739 -4.2793 57.2432 17.3007
# 6 23.8571 0.0375 9.0552 -8.0497 17.3007 50.4355
#
#
#
# Elastic Compliance Matrix: (Units=1/GPa)
#
#
# Indices 1 2 3 4 5 6 
#
# 1 0.011688 0.000738 -0.000987 -0.005758 0.007292 -0.008772
# 2 0.000738 0.025978 -0.003815 -0.014223 -0.001141 -0.001562
# 3 -0.000987 -0.003815 0.009424 -0.001726 0.006518 -0.003734
# 4 -0.005758 -0.014223 -0.001726 0.031894 -0.005465 0.010009
# 5 0.007292 -0.001141 0.006518 -0.005465 0.029570 -0.015634
# 6 -0.008772 -0.001562 -0.003734 0.010009 -0.015634 0.031609
#
#
# Mechanical properties :
#
#
# Convention : Reuss Voigt Hill
#
# Bulk Modulus (GPa) = 25.66552 62.60747 44.13650
# Shear Modulus (GPa) = 31.00256 48.69666 39.84961
#
# Velocity S-wave (km/s) = 3.36255 4.21424 3.81225
# Velocity P-wave (km/s) = 4.94327 6.82003 5.95604
#
# Compressibility (1/GPa) = 0.03896277
#
# Stress axis : x y z
#
# Youngs Moduli (GPa) = 85.55923 38.49410 106.11167
#
# Poissons Ratio (x) = -0.02840 0.10471
# Poissons Ratio (y) = -0.06313 0.40477
# Poissons Ratio (z) = 0.08443 0.14684
#
# Static dielectric constant tensor:
#      x y z
#    x 2.465880 0.035410 0.060740 
#    y 0.035410 2.172660 -0.016880 
#    z 0.060740 -0.016880 2.160520 
# 
# From -- ./inp_files/182151.got.cif
#   From: 2010.05.17/outbox.cif.g08.bks.cpg/sg2_92_cif.got.tgz:182151.got - 2010.06.03 11:33:40.
