data_PCOD9079988
_publ_section_title
;
Structure prediction by ZEFSAII (Michael W. Deem and Ramdas Pophale) SiO2 
 PCOD9079988
Probable space group: P -1
;
_chemical_formula_sum "Si O2"
_cell_formula_units_Z 14
_cell_length_a 10.827145
_cell_length_b 7.304534
_cell_length_c 14.193985
_cell_angle_alpha 103.974904
_cell_angle_beta 30.480584
_cell_angle_gamma 99.601867
_cell_volume 550.611874
_symmetry_space_group_name_H-M "P -1"
_symmetry_group_IT_number 2
_symmetry_cell_setting 'triclinic'
loop_
_space_group_symop_operation_xyz
x,y,z
-x,-y,-z
loop_
_atom_site_type_symbol
_atom_site_label
_atom_site_fract_x
_atom_site_fract_y
_atom_site_fract_z
Si Si1 0.194764 0.189260 0.454740
Si Si2 0.691914 0.665201 0.967751
Si Si3 0.487134 0.143559 0.725275
Si Si4 0.460058 0.236177 0.458102
Si Si5 0.447279 0.296741 0.132433
Si Si6 0.038643 0.878563 0.215704
Si Si7 0.188810 0.689739 0.606319
O O1 0.379075 0.302913 0.414600
O O2 0.215522 0.272812 0.348529
O O3 0.973183 0.160094 0.667721
O O4 0.324547 0.974869 0.342809
O O5 0.725124 0.774347 0.057304
O O6 0.506682 0.511129 0.098919
O O7 0.593346 0.780228 0.955318
O O8 0.954612 0.570717 0.748708
O O9 0.625279 0.301580 0.600784
O O10 0.439786 0.982648 0.659251
O O11 0.653677 0.329652 0.404732
O O12 0.194676 0.227932 0.680754
O O13 0.695112 0.196715 0.002318
O O14 0.949444 0.096078 0.281713
#
# Coordination Sequence:
#
# PCOD9079988 Si02
#       7
#     2   2   2   2   2   2   2
#     4   7  18  35  59  81 103 141 176 227 270 315
#     4  11  25  34  55  78 110 155 179 222 263 324
#     4   8  18  36  56  86 103 137 178 222 275 313
#     4   7  17  37  61  85 106 134 176 225 281 317
#     4  11  22  41  49  75 118 148 187 214 268 316
#     4   8  18  34  62  79 104 141 175 225 271 315
#     4  10  18  38  60  86 108 134 181 225 274 322
#
# _framework density 25.426259000000002
#
# number of rings (size 3 to 8) (size 9 to 14) (size 15 to 20)
#    1.714    1.429    0.000    2.571    0.000    5.143 
#    2.571    9.286    0.000    0.000    0.000    0.000 
#    0.000    0.000    0.000    0.000    0.000    0.000 
#
# Total GULP energy -77966.871426 kJ/mol
# GULP energy per Si atom -5569.062245 kJ/mol
# Density = 2.536839 g / cm^3
# Si number density = 25.426259 Si / 1000 Ang^3
#
#
#
# Elastic Constant Matrix: (Units=GPa)
#
#
# Indices 1 2 3 4 5 6 
#
# 1 83.3012 6.0412 32.1054 0.3600 -1.4523 0.4890
# 2 6.0412 67.5719 3.5595 -14.9692 6.2605 -18.0496
# 3 32.1054 3.5595 116.2501 -22.5391 22.4599 -8.9425
# 4 0.3600 -14.9692 -22.5391 31.1739 -5.2953 -2.9017
# 5 -1.4523 6.2605 22.4599 -5.2953 37.0287 -2.8687
# 6 0.4890 -18.0496 -8.9425 -2.9017 -2.8687 28.3448
#
#
#
# Elastic Compliance Matrix: (Units=1/GPa)
#
#
# Indices 1 2 3 4 5 6 
#
# 1 0.014923 -0.004252 -0.006442 -0.006713 0.003842 -0.005296
# 2 -0.004252 0.023897 0.005888 0.016832 -0.003941 0.018473
# 3 -0.006442 0.005888 0.014970 0.013266 -0.007721 0.009160
# 4 -0.006713 0.016832 0.013266 0.051310 -0.002265 0.020043
# 5 0.003842 -0.003941 -0.007721 -0.002265 0.032027 -0.002002
# 6 -0.005296 0.018473 0.009160 0.020043 -0.002002 0.051874
#
#
# Mechanical properties :
#
#
# Convention : Reuss Voigt Hill
#
# Bulk Modulus (GPa) = 22.63600 38.94836 30.79218
# Shear Modulus (GPa) = 23.43682 34.33730 28.88706
#
# Velocity S-wave (km/s) = 3.03934 3.67886 3.37428
# Velocity P-wave (km/s) = 4.60855 5.77899 5.22664
#
# Compressibility (1/GPa) = 0.04417741
#
# Stress axis : x y z
#
# Youngs Moduli (GPa) = 67.01047 41.84579 66.80208
#
# Poissons Ratio (x) = 0.17795 0.43036
# Poissons Ratio (y) = 0.28496 -0.39336
# Poissons Ratio (z) = 0.43170 -0.24641
#
# Static dielectric constant tensor:
#      x y z
#    x 1.971320 0.039740 -0.009460 
#    y 0.039740 2.225370 0.029330 
#    z -0.009460 0.029330 1.955180 
# 
# From -- ./inp_files/513189.got.cif
#   From: 2010.05.17/outbox.cif.g08.bks.cpg/sg2_257_cif.got.tgz:513189.got - 2010.06.03 11:33:40.
