data_PCOD9079816
_publ_section_title
;
Structure prediction by ZEFSAII (Michael W. Deem and Ramdas Pophale) SiO2 
 PCOD9079816
Probable space group: P -1
;
_chemical_formula_sum "Si O2"
_cell_formula_units_Z 16
_cell_length_a 15.145769
_cell_length_b 8.092766
_cell_length_c 12.041338
_cell_angle_alpha 68.232366
_cell_angle_beta 132.896515
_cell_angle_gamma 138.824642
_cell_volume 680.524421
_symmetry_space_group_name_H-M "P -1"
_symmetry_group_IT_number 2
_symmetry_cell_setting 'triclinic'
loop_
_space_group_symop_operation_xyz
x,y,z
-x,-y,-z
loop_
_atom_site_type_symbol
_atom_site_label
_atom_site_fract_x
_atom_site_fract_y
_atom_site_fract_z
Si Si1 0.785006 0.085464 0.208712
Si Si2 0.797266 0.943698 0.619775
Si Si3 0.572533 0.635287 0.297315
Si Si4 0.188862 0.704904 0.049887
Si Si5 0.189086 0.289394 0.127552
Si Si6 0.690433 0.128020 0.651737
Si Si7 0.871874 0.500598 0.328730
Si Si8 0.823467 0.573935 0.501023
O O1 0.778777 0.272892 0.216633
O O2 0.961939 0.166299 0.378880
O O3 0.623453 0.796772 0.190100
O O4 0.789715 0.134019 0.071329
O O5 0.657975 0.827350 0.430619
O O6 0.793027 0.742518 0.718490
O O7 0.740131 0.005389 0.658275
O O8 0.995593 0.212289 0.684423
O O9 0.362015 0.396558 0.188602
O O10 0.688644 0.582199 0.415268
O O11 0.205346 0.518917 0.069851
O O12 0.306920 0.883692 0.211230
O O13 0.000000 0.500000 0.000000
O O14 0.000000 0.000000 0.000000
O O15 0.813804 0.405968 0.625218
O O16 0.500000 0.000000 0.500000
O O17 0.768312 0.464349 0.354668
O O18 0.000000 0.500000 0.500000
#
# Coordination Sequence:
#
# PCOD9079816 Si02
#       8
#     2   2   2   2   2   2   2   2
#     4  11  22  43  72 103 145 183 238 293 361 417
#     4  12  22  43  72 102 142 179 237 293 352 419
#     4  12  25  43  73 109 139 186 241 293 354 426
#     4  12  25  45  73 101 140 194 233 287 358 423
#     4  12  28  47  66 100 148 187 234 295 360 418
#     4  12  23  41  69 104 140 184 241 286 339 424
#     4  10  18  37  66 105 137 180 224 290 357 414
#     4  11  21  40  70 107 139 178 236 298 346 420
#
# _framework density 23.511281
#
# number of rings (size 3 to 8) (size 9 to 14) (size 15 to 20)
#    0.000    0.500    6.250    4.500    0.000    0.500 
#    0.000    2.500    0.000    6.750    0.000    0.000 
#    0.000    0.000    0.000    0.000    0.000    0.000 
#
# Total GULP energy -89423.058738 kJ/mol
# GULP energy per Si atom -5588.941171 kJ/mol
# Density = 2.345777 g / cm^3
# Si number density = 23.511281 Si / 1000 Ang^3
#
#
#
# Elastic Constant Matrix: (Units=GPa)
#
#
# Indices 1 2 3 4 5 6 
#
# 1 123.4608 42.3762 53.1051 -1.0660 -4.6657 6.6091
# 2 42.3762 89.8204 24.7405 -22.9309 12.7051 24.6974
# 3 53.1051 24.7405 103.5001 -13.8248 -18.2027 12.3707
# 4 -1.0660 -22.9309 -13.8248 41.0122 6.4892 -4.5230
# 5 -4.6657 12.7051 -18.2027 6.4892 34.4782 -3.7798
# 6 6.6091 24.6974 12.3707 -4.5230 -3.7798 33.3247
#
#
#
# Elastic Compliance Matrix: (Units=1/GPa)
#
#
# Indices 1 2 3 4 5 6 
#
# 1 0.013069 -0.008037 -0.005579 -0.006031 0.003469 0.005010
# 2 -0.008037 0.025711 -0.000797 0.014491 -0.015570 -0.016964
# 3 -0.005579 -0.000797 0.014545 0.003021 0.006368 -0.002570
# 4 -0.006031 0.014491 0.003021 0.034411 -0.011842 -0.007338
# 5 0.003469 -0.015570 0.006368 -0.011842 0.042079 0.011653
# 6 0.005010 -0.016964 -0.002570 -0.007338 0.011653 0.042866
#
#
# Mechanical properties :
#
#
# Convention : Reuss Voigt Hill
#
# Bulk Modulus (GPa) = 40.81762 61.91386 51.36574
# Shear Modulus (GPa) = 23.84648 34.86699 29.35673
#
# Velocity S-wave (km/s) = 3.18820 3.85514 3.53742
# Velocity P-wave (km/s) = 5.56339 6.79757 6.21121
#
# Compressibility (1/GPa) = 0.02449922
#
# Stress axis : x y z
#
# Youngs Moduli (GPa) = 76.51832 38.89346 68.75061
#
# Poissons Ratio (x) = 0.31260 0.38353
# Poissons Ratio (y) = 0.61500 0.05481
# Poissons Ratio (z) = 0.42686 0.03101
#
# Static dielectric constant tensor:
#      x y z
#    x 1.920220 -0.040370 0.010140 
#    y -0.040370 1.961050 0.051890 
#    z 0.010140 0.051890 1.867510 
# 
# From -- ./inp_files/447229.got.cif
#   From: 2010.05.17/outbox.cif.g08.bks.cpg/sg2_224_cif.got.tgz:447229.got - 2010.06.03 11:33:40.
