data_PCOD9079905
_publ_section_title
;
Structure prediction by ZEFSAII (Michael W. Deem and Ramdas Pophale) SiO2 
 PCOD9079905
Probable space group: P -1
;
_chemical_formula_sum "Si O2"
_cell_formula_units_Z 16
_cell_length_a 13.291013
_cell_length_b 11.986498
_cell_length_c 13.511284
_cell_angle_alpha 33.108132
_cell_angle_beta 51.000964
_cell_angle_gamma 35.671924
_cell_volume 676.727257
_symmetry_space_group_name_H-M "P -1"
_symmetry_group_IT_number 2
_symmetry_cell_setting 'triclinic'
loop_
_space_group_symop_operation_xyz
x,y,z
-x,-y,-z
loop_
_atom_site_type_symbol
_atom_site_label
_atom_site_fract_x
_atom_site_fract_y
_atom_site_fract_z
Si Si1 0.126891 0.211208 0.903733
Si Si2 0.492106 0.109258 0.115916
Si Si3 0.401039 0.648036 0.849368
Si Si4 0.557498 0.171271 0.498981
Si Si5 0.955688 0.850793 0.204388
Si Si6 0.090462 0.960022 0.578109
Si Si7 0.863517 0.531954 0.992495
Si Si8 0.180669 0.698417 0.343286
O O1 0.101503 0.240629 0.779086
O O2 0.950575 0.463731 0.880758
O O3 0.312346 0.125269 0.870328
O O4 0.157201 0.951895 0.124320
O O5 0.335346 0.182285 0.093904
O O6 0.463644 0.034775 0.295598
O O7 0.446883 0.395619 0.946447
O O8 0.450427 0.782555 0.647874
O O9 0.201943 0.905769 0.809799
O O10 0.500000 0.500000 0.000000
O O11 0.733023 0.092378 0.490725
O O12 0.378682 0.465420 0.427522
O O13 0.116064 0.628432 0.342352
O O14 0.000000 0.000000 0.000000
O O15 0.136202 0.698884 0.797352
O O16 0.000000 0.000000 0.500000
O O17 0.944858 0.210089 0.554590
O O18 0.000000 0.500000 0.000000
#
# Coordination Sequence:
#
# PCOD9079905 Si02
#       8
#     2   2   2   2   2   2   2   2
#     4  10  21  42  67  95 131 178 223 273 343 402
#     4  12  24  42  68 100 137 176 225 279 336 408
#     4  12  21  43  68  95 143 179 220 280 331 400
#     4  12  25  41  67 101 136 181 227 276 340 407
#     4  10  18  37  70  95 127 185 220 267 343 400
#     4  11  23  43  69  98 135 182 228 287 342 400
#     4  11  24  44  70  99 133 178 225 288 345 400
#     4  10  20  41  66  94 136 177 225 274 339 404
#
# _framework density 23.643204000000001
#
# number of rings (size 3 to 8) (size 9 to 14) (size 15 to 20)
#    0.000    1.000    5.000    3.000    0.000    3.500 
#    0.000    0.625    0.000    0.000    0.000    0.000 
#    0.000    0.000    0.000    0.000    0.000    0.000 
#
# Total GULP energy -89382.803917 kJ/mol
# GULP energy per Si atom -5586.425245 kJ/mol
# Density = 2.358939 g / cm^3
# Si number density = 23.643204 Si / 1000 Ang^3
#
#
#
# Elastic Constant Matrix: (Units=GPa)
#
#
# Indices 1 2 3 4 5 6 
#
# 1 95.1151 42.2789 6.2855 -0.7578 25.4451 -33.3065
# 2 42.2789 114.4943 29.3718 14.4508 5.7903 -42.7409
# 3 6.2855 29.3718 98.6538 13.2626 9.4962 -9.6051
# 4 -0.7578 14.4508 13.2626 25.5724 0.2146 -1.8610
# 5 25.4451 5.7903 9.4962 0.2146 33.1620 0.6951
# 6 -33.3065 -42.7409 -9.6051 -1.8610 0.6951 39.6863
#
#
#
# Elastic Compliance Matrix: (Units=1/GPa)
#
#
# Indices 1 2 3 4 5 6 
#
# 1 0.021970 -0.001292 0.002206 0.001693 -0.017651 0.017969
# 2 -0.001292 0.016806 -0.002227 -0.007190 -0.001598 0.016167
# 3 0.002206 -0.002227 0.011960 -0.004678 -0.004745 0.002211
# 4 0.001693 -0.007190 -0.004678 0.045246 0.001116 -0.005353
# 5 -0.017651 -0.001598 -0.004745 0.001116 0.045715 -0.018431
# 6 0.017969 0.016167 0.002211 -0.005353 -0.018431 0.058297
#
#
# Mechanical properties :
#
#
# Convention : Reuss Voigt Hill
#
# Bulk Modulus (GPa) = 20.78549 51.57063 36.17806
# Shear Modulus (GPa) = 22.86707 35.03926 28.95316
#
# Velocity S-wave (km/s) = 3.11331 3.85385 3.50321
# Velocity P-wave (km/s) = 4.66198 6.45463 5.63011
#
# Compressibility (1/GPa) = 0.04811048
#
# Stress axis : x y z
#
# Youngs Moduli (GPa) = 45.51715 59.50310 83.61338
#
# Poissons Ratio (x) = 0.07685 -0.18443
# Poissons Ratio (y) = 0.05879 0.18618
# Poissons Ratio (z) = -0.10040 0.13250
#
# Static dielectric constant tensor:
#      x y z
#    x 2.012850 0.002780 -0.007160 
#    y 0.002780 1.927480 0.001470 
#    z -0.007160 0.001470 1.918360 
# 
# From -- ./inp_files/534105.got.cif
#   From: 2010.05.17/outbox.cif.g08.bks.cpg/sg2_268_cif.got.tgz:534105.got - 2010.06.03 11:33:40.
