data_PCOD9079987
_publ_section_title
;
Structure prediction by ZEFSAII (Michael W. Deem and Ramdas Pophale) SiO2 
 PCOD9079987
Probable space group: P -1
;
_chemical_formula_sum "Si O2"
_cell_formula_units_Z 16
_cell_length_a 9.807446
_cell_length_b 15.727101
_cell_length_c 10.886223
_cell_angle_alpha 120.852528
_cell_angle_beta 102.030786
_cell_angle_gamma 36.766447
_cell_volume 793.083072
_symmetry_space_group_name_H-M "P -1"
_symmetry_group_IT_number 2
_symmetry_cell_setting 'triclinic'
loop_
_space_group_symop_operation_xyz
x,y,z
-x,-y,-z
loop_
_atom_site_type_symbol
_atom_site_label
_atom_site_fract_x
_atom_site_fract_y
_atom_site_fract_z
Si Si1 0.080302 0.732446 0.578525
Si Si2 0.540669 0.255304 0.911732
Si Si3 0.744070 0.725173 0.283621
Si Si4 0.631392 0.093623 0.202915
Si Si5 0.561672 0.919836 0.628032
Si Si6 0.307619 0.438867 0.245239
Si Si7 0.078615 0.068234 0.089473
Si Si8 0.996723 0.992072 0.638110
O O1 0.281035 0.545955 0.412644
O O2 0.830111 0.814010 0.599798
O O3 0.119977 0.753717 0.738063
O O4 0.031149 0.856716 0.577501
O O5 0.324716 0.329995 0.849772
O O6 0.744152 0.175481 0.795119
O O7 0.689429 0.081806 0.885521
O O8 0.445061 0.378966 0.097044
O O9 0.589285 0.820317 0.452866
O O10 0.032141 0.566074 0.249645
O O11 0.644096 0.880833 0.307583
O O12 0.502764 0.087637 0.258268
O O13 0.443984 0.271253 0.220583
O O14 0.783389 0.075684 0.308696
O O15 0.827389 0.939828 0.024321
O O16 0.000000 0.000000 0.000000
O O17 0.000000 0.000000 0.500000
#
# Coordination Sequence:
#
# PCOD9079987 Si02
#       8
#     2   2   2   2   2   2   2   2
#     4  10  21  41  63  90 121 165 208 249 312 364
#     4  10  19  39  62  90 121 167 205 248 309 368
#     4  10  19  38  64  90 124 164 203 250 313 364
#     4  11  23  38  62  96 123 158 207 258 307 362
#     4  10  21  37  67  93 120 160 217 253 291 373
#     4  10  24  37  63  93 130 159 199 258 319 361
#     4  10  18  38  60  85 120 159 205 249 298 362
#     4  11  22  39  67  89 120 166 214 246 299 375
#
# _framework density 20.174431999999999
#
# number of rings (size 3 to 8) (size 9 to 14) (size 15 to 20)
#    0.000    1.750    5.000    1.125    3.500    3.000 
#    0.000    0.625    5.500    0.000    0.000    0.000 
#    0.000    0.000    0.000    0.000    0.000    0.000 
#
# Total GULP energy -89265.362606 kJ/mol
# GULP energy per Si atom -5579.085163 kJ/mol
# Density = 2.012851 g / cm^3
# Si number density = 20.174432 Si / 1000 Ang^3
#
#
#
# Elastic Constant Matrix: (Units=GPa)
#
#
# Indices 1 2 3 4 5 6 
#
# 1 58.2163 16.3136 25.0137 -6.4406 -18.0011 3.5920
# 2 16.3136 62.7857 35.7609 -8.6494 -14.4146 -9.6960
# 3 25.0137 35.7609 158.0868 -10.3576 -11.3288 10.5490
# 4 -6.4406 -8.6494 -10.3576 31.5332 3.0497 -6.4904
# 5 -18.0011 -14.4146 -11.3288 3.0497 37.5517 -13.3864
# 6 3.5920 -9.6960 10.5490 -6.4904 -13.3864 30.7589
#
#
#
# Elastic Compliance Matrix: (Units=1/GPa)
#
#
# Indices 1 2 3 4 5 6 
#
# 1 0.021823 -0.001039 -0.002497 0.002994 0.010145 0.003027
# 2 -0.001039 0.026247 -0.005489 0.007529 0.013659 0.017811
# 3 -0.002497 -0.005489 0.008114 -0.000208 -0.002793 -0.005481
# 4 0.002994 0.007529 -0.000208 0.036288 0.005672 0.012221
# 5 0.010145 0.013659 -0.002793 0.005672 0.044166 0.024497
# 6 0.003027 0.017811 -0.005481 0.012221 0.024497 0.052891
#
#
# Mechanical properties :
#
#
# Convention : Reuss Voigt Hill
#
# Bulk Modulus (GPa) = 26.22318 48.14057 37.18187
# Shear Modulus (GPa) = 22.69724 33.43548 28.06636
#
# Velocity S-wave (km/s) = 3.35782 4.07544 3.73391
# Velocity P-wave (km/s) = 5.29714 6.78672 6.08766
#
# Compressibility (1/GPa) = 0.03813421
#
# Stress axis : x y z
#
# Youngs Moduli (GPa) = 45.82398 38.09894 123.23769
#
# Poissons Ratio (x) = 0.03958 0.30769
# Poissons Ratio (y) = 0.04761 0.67650
# Poissons Ratio (z) = 0.11441 0.20914
#
# Static dielectric constant tensor:
#      x y z
#    x 1.716780 -0.042740 0.008220 
#    y -0.042740 1.700300 0.004700 
#    z 0.008220 0.004700 1.802400 
# 
# From -- ./inp_files/399444.got.cif
#   From: 2010.05.17/outbox.cif.g08.bks.cpg/sg2_200_cif.got.tgz:399444.got - 2010.06.03 11:33:40.
