data_PCOD9079761
_publ_section_title
;
Structure prediction by ZEFSAII (Michael W. Deem and Ramdas Pophale) SiO2 
 PCOD9079761
Probable space group: P -1
;
_chemical_formula_sum "Si O2"
_cell_formula_units_Z 14
_cell_length_a 7.709027
_cell_length_b 10.164768
_cell_length_c 8.972105
_cell_angle_alpha 82.562648
_cell_angle_beta 98.351750
_cell_angle_gamma 64.088716
_cell_volume 610.797498
_symmetry_space_group_name_H-M "P -1"
_symmetry_group_IT_number 2
_symmetry_cell_setting 'triclinic'
loop_
_space_group_symop_operation_xyz
x,y,z
-x,-y,-z
loop_
_atom_site_type_symbol
_atom_site_label
_atom_site_fract_x
_atom_site_fract_y
_atom_site_fract_z
Si Si1 0.105547 0.527834 0.758814
Si Si2 0.732115 0.805307 0.178521
Si Si3 0.286416 0.623707 0.015264
Si Si4 0.110213 0.178550 0.501379
Si Si5 0.518884 0.400602 0.655553
Si Si6 0.728051 0.080426 0.976714
Si Si7 0.802587 0.097485 0.652007
O O1 0.107078 0.368344 0.799435
O O2 0.129687 0.588999 0.913614
O O3 0.312664 0.471145 0.704472
O O4 0.955364 0.665732 0.618614
O O5 0.737506 0.839320 0.347817
O O6 0.511534 0.840756 0.094197
O O7 0.780698 0.923247 0.080731
O O8 0.500000 0.500000 0.000000
O O9 0.317404 0.612953 0.199232
O O10 0.249567 0.791241 0.947036
O O11 0.935754 0.161225 0.573853
O O12 0.185880 0.042533 0.415215
O O13 0.500000 0.500000 0.500000
O O14 0.588228 0.238806 0.616642
O O15 0.842258 0.055071 0.837907
#
# Coordination Sequence:
#
# PCOD9079761 Si02
#       7
#     2   2   2   2   2   2   2
#     4  11  21  42  63  96 126 167 210 258 319 376
#     4  11  23  41  64  94 131 167 203 268 325 366
#     4   9  18  35  64  90 116 164 214 254 291 376
#     4  11  25  38  66  92 134 164 205 271 320 369
#     4  10  18  37  64  92 121 161 221 256 292 372
#     4  10  22  42  67  91 126 167 218 257 309 387
#     4  10  22  43  59  99 118 169 221 252 310 377
#
# _framework density 22.920853000000001
#
# number of rings (size 3 to 8) (size 9 to 14) (size 15 to 20)
#    0.000    1.714    5.714    0.429    4.000    1.143 
#    2.571    0.714    0.000    0.000    0.000    0.000 
#    0.000    0.000    0.000    0.000    0.000    0.000 
#
# Total GULP energy -78176.816523 kJ/mol
# GULP energy per Si atom -5584.058323 kJ/mol
# Density = 2.286868 g / cm^3
# Si number density = 22.920853 Si / 1000 Ang^3
#
#
#
# Elastic Constant Matrix: (Units=GPa)
#
#
# Indices 1 2 3 4 5 6 
#
# 1 54.7212 28.4213 13.6915 3.2254 -5.6378 4.2278
# 2 28.4213 188.1911 73.7418 -12.8884 -15.9546 19.8236
# 3 13.6915 73.7418 106.0302 -13.8093 -15.4179 5.5023
# 4 3.2254 -12.8884 -13.8093 54.6958 2.0066 -5.0400
# 5 -5.6378 -15.9546 -15.4179 2.0066 26.1800 -1.8740
# 6 4.2278 19.8236 5.5023 -5.0400 -1.8740 24.7221
#
#
#
# Elastic Compliance Matrix: (Units=1/GPa)
#
#
# Indices 1 2 3 4 5 6 
#
# 1 0.020284 -0.002583 -0.000674 -0.002204 0.002458 -0.001511
# 2 -0.002583 0.008292 -0.004957 0.000356 0.001197 -0.004941
# 3 -0.000674 -0.004957 0.013901 0.002370 0.004972 0.001856
# 4 -0.002204 0.000356 0.002370 0.019423 -0.000099 0.003516
# 5 0.002458 0.001197 0.004972 -0.000099 0.042442 0.000710
# 6 -0.001511 -0.004941 0.001856 0.003516 0.000710 0.045028
#
#
# Mechanical properties :
#
#
# Convention : Reuss Voigt Hill
#
# Bulk Modulus (GPa) = 38.38757 64.51686 51.45222
# Shear Modulus (GPa) = 28.65620 36.65877 32.65748
#
# Velocity S-wave (km/s) = 3.53969 4.00354 3.77874
# Velocity P-wave (km/s) = 5.78706 7.04130 6.44477
#
# Compressibility (1/GPa) = 0.02605010
#
# Stress axis : x y z
#
# Youngs Moduli (GPa) = 49.29880 120.59111 71.93673
#
# Poissons Ratio (x) = 0.31144 0.04852
# Poissons Ratio (y) = 0.12732 0.35659
# Poissons Ratio (z) = 0.03325 0.59776
#
# Static dielectric constant tensor:
#      x y z
#    x 2.005050 0.004100 -0.002630 
#    y 0.004100 1.855920 -0.038830 
#    z -0.002630 -0.038830 1.873120 
# 
# From -- ./inp_files/158773.got.cif
#   From: 2010.05.17/outbox.cif.g08.bks.cpg/sg2_80_cif.got.tgz:158773.got - 2010.06.03 11:33:40.
