data_PCOD9079773
_publ_section_title
;
Structure prediction by ZEFSAII (Michael W. Deem and Ramdas Pophale) SiO2 
 PCOD9079773
Probable space group: P -1
;
_chemical_formula_sum "Si O2"
_cell_formula_units_Z 12
_cell_length_a 13.451923
_cell_length_b 12.171043
_cell_length_c 15.104479
_cell_angle_alpha 151.039827
_cell_angle_beta 152.794544
_cell_angle_gamma 28.687192
_cell_volume 489.528409
_symmetry_space_group_name_H-M "P -1"
_symmetry_group_IT_number 2
_symmetry_cell_setting 'triclinic'
loop_
_space_group_symop_operation_xyz
x,y,z
-x,-y,-z
loop_
_atom_site_type_symbol
_atom_site_label
_atom_site_fract_x
_atom_site_fract_y
_atom_site_fract_z
Si Si1 0.048050 0.898207 0.259301
Si Si2 0.558492 0.530160 0.428503
Si Si3 0.085590 0.713942 0.831227
Si Si4 0.241772 0.003766 0.732573
Si Si5 0.770980 0.444138 0.352401
Si Si6 0.090600 0.495621 0.863160
O O1 0.312280 0.775397 0.427895
O O2 0.844011 0.908829 0.173310
O O3 0.979759 0.177705 0.367329
O O4 0.057014 0.718283 0.060064
O O5 0.570051 0.511120 0.316631
O O6 0.815520 0.523972 0.652633
O O7 0.557310 0.284886 0.301389
O O8 0.262473 0.621076 0.820922
O O9 0.859528 0.663777 0.581791
O O10 0.176518 0.541629 0.868617
O O11 0.000000 0.000000 0.000000
O O12 0.263277 0.222282 0.848672
O O13 0.000000 0.000000 0.500000
#
# Coordination Sequence:
#
# PCOD9079773 Si02
#       6
#     2   2   2   2   2   2
#     4  11  20  38  64  87 119 158 196 245 301 356
#     4   9  21  39  61  88 121 156 194 247 300 351
#     4  10  18  37  65  82 120 166 191 247 307 338
#     4   9  20  38  57  87 123 154 195 247 296 355
#     4   9  20  38  61  89 123 153 199 253 290 353
#     4  10  20  36  60  87 118 156 199 242 295 352
#
# _framework density 24.513387999999999
#
# number of rings (size 3 to 8) (size 9 to 14) (size 15 to 20)
#    0.000    2.333    1.667    1.500    0.000    3.333 
#    0.000   21.667    0.000    0.000    0.000    0.000 
#    0.000    0.000    0.000    0.000    0.000    0.000 
#
# Total GULP energy -67082.772266 kJ/mol
# GULP energy per Si atom -5590.231022 kJ/mol
# Density = 2.445759 g / cm^3
# Si number density = 24.513388 Si / 1000 Ang^3
#
#
#
# Elastic Constant Matrix: (Units=GPa)
#
#
# Indices 1 2 3 4 5 6 
#
# 1 81.1817 49.2683 36.7486 10.9555 -11.5488 30.4116
# 2 49.2683 112.1921 30.8482 15.8498 15.0400 13.3434
# 3 36.7486 30.8482 127.9346 20.8460 -10.0966 -1.2286
# 4 10.9555 15.8498 20.8460 37.4692 -1.4927 -0.2163
# 5 -11.5488 15.0400 -10.0966 -1.4927 42.9351 -2.5424
# 6 30.4116 13.3434 -1.2286 -0.2163 -2.5424 35.5557
#
#
#
# Elastic Compliance Matrix: (Units=1/GPa)
#
#
# Indices 1 2 3 4 5 6 
#
# 1 0.031070 -0.010534 -0.005657 -0.001236 0.009362 -0.022155
# 2 -0.010534 0.014939 -0.000678 -0.003172 -0.008172 0.002777
# 3 -0.005657 -0.000678 0.010375 -0.003746 0.001352 0.005526
# 4 -0.001236 -0.003172 -0.003746 0.030533 0.001100 0.002383
# 5 0.009362 -0.008172 0.001352 0.001100 0.028861 -0.002824
# 6 -0.022155 0.002777 0.005526 0.002383 -0.002824 0.046036
#
#
# Mechanical properties :
#
#
# Convention : Reuss Voigt Hill
#
# Bulk Modulus (GPa) = 44.15789 61.67095 52.91442
# Shear Modulus (GPa) = 24.61823 36.82156 30.71989
#
# Velocity S-wave (km/s) = 3.17247 3.87990 3.54388
# Velocity P-wave (km/s) = 5.61002 6.72935 6.19502
#
# Compressibility (1/GPa) = 0.02264601
#
# Stress axis : x y z
#
# Youngs Moduli (GPa) = 32.18504 66.93908 96.38530
#
# Poissons Ratio (x) = 0.70515 0.54527
# Poissons Ratio (y) = 0.33904 0.06532
# Poissons Ratio (z) = 0.18208 0.04536
#
# Static dielectric constant tensor:
#      x y z
#    x 1.952470 0.024380 -0.011280 
#    y 0.024380 1.900900 -0.038370 
#    z -0.011280 -0.038370 2.027090 
# 
# From -- ./inp_files/49601.got.cif
#   From: 2010.05.17/outbox.cif.g08.bks.cpg/sg2_25_cif.got.tgz:49601.got - 2010.06.03 11:33:40.
