data_PCOD9079957
_publ_section_title
;
Structure prediction by ZEFSAII (Michael W. Deem and Ramdas Pophale) SiO2 
 PCOD9079957
Probable space group: P -1
;
_chemical_formula_sum "Si O2"
_cell_formula_units_Z 14
_cell_length_a 11.332408
_cell_length_b 15.737575
_cell_length_c 7.829137
_cell_angle_alpha 138.545963
_cell_angle_beta 52.076271
_cell_angle_gamma 145.234398
_cell_volume 527.090745
_symmetry_space_group_name_H-M "P -1"
_symmetry_group_IT_number 2
_symmetry_cell_setting 'triclinic'
loop_
_space_group_symop_operation_xyz
x,y,z
-x,-y,-z
loop_
_atom_site_type_symbol
_atom_site_label
_atom_site_fract_x
_atom_site_fract_y
_atom_site_fract_z
Si Si1 0.460722 0.599439 0.057519
Si Si2 0.378627 0.884957 0.266182
Si Si3 0.923019 0.916997 0.157732
Si Si4 0.710075 0.254783 0.387984
Si Si5 0.218118 0.250445 0.599058
Si Si6 0.373410 0.651554 0.708920
Si Si7 0.012818 0.737031 0.587076
O O1 0.332204 0.454875 0.804493
O O2 0.500000 0.500000 0.000000
O O3 0.687421 0.792385 0.117468
O O4 0.332784 0.634992 0.315391
O O5 0.146200 0.779078 0.365935
O O6 0.500000 0.000000 0.500000
O O7 0.501242 0.044912 0.263645
O O8 0.402819 0.749100 0.001817
O O9 0.896680 0.831793 0.239796
O O10 0.059883 0.119505 0.393967
O O11 0.029895 0.887427 0.882162
O O12 0.742416 0.309775 0.246164
O O13 0.889245 0.290690 0.386838
O O14 0.403738 0.256283 0.424474
O O15 0.223220 0.441674 0.507562
#
# Coordination Sequence:
#
# PCOD9079957 Si02
#       7
#     2   2   2   2   2   2   2
#     4  10  18  38  58  91 129 157 202 269 313 363
#     4  10  24  41  59  89 133 169 207 260 324 380
#     4  10  19  36  61  87 125 163 209 252 317 375
#     4  11  22  40  64  97 126 162 217 269 306 376
#     4  10  19  33  62  92 120 166 207 259 318 364
#     4  12  20  39  68  94 124 165 220 262 313 374
#     4  11  23  41  64  95 131 169 203 265 326 378
#
# _framework density 26.560890000000001
#
# number of rings (size 3 to 8) (size 9 to 14) (size 15 to 20)
#    0.000    1.429    4.286    3.857    0.000    0.000 
#    2.571    0.714    0.000    4.286    0.000    0.000 
#    0.000    0.000    0.000    0.000    0.000    0.000 
#
# Total GULP energy -78398.857412 kJ/mol
# GULP energy per Si atom -5599.918387 kJ/mol
# Density = 2.650044 g / cm^3
# Si number density = 26.560890 Si / 1000 Ang^3
#
#
#
# Elastic Constant Matrix: (Units=GPa)
#
#
# Indices 1 2 3 4 5 6 
#
# 1 79.0454 5.1814 28.7798 13.2657 2.1829 0.2728
# 2 5.1814 122.8065 38.1601 25.8648 16.8429 9.8539
# 3 28.7798 38.1601 189.0431 32.8687 10.6618 6.2769
# 4 13.2657 25.8648 32.8687 57.8403 4.3215 3.8949
# 5 2.1829 16.8429 10.6618 4.3215 42.3294 4.2390
# 6 0.2728 9.8539 6.2769 3.8949 4.2390 28.5707
#
#
#
# Elastic Compliance Matrix: (Units=1/GPa)
#
#
# Indices 1 2 3 4 5 6 
#
# 1 0.013663 0.000465 -0.001766 -0.002350 -0.000250 0.000455
# 2 0.000465 0.009818 -0.001210 -0.003433 -0.003055 -0.002204
# 3 -0.001766 -0.001210 0.006303 -0.002549 -0.000705 -0.000498
# 4 -0.002350 -0.003433 -0.002549 0.020877 0.000107 -0.001096
# 5 -0.000250 -0.003055 -0.000705 0.000107 0.025275 -0.002554
# 6 0.000455 -0.002204 -0.000498 -0.001096 -0.002554 0.036394
#
#
# Mechanical properties :
#
#
# Convention : Reuss Voigt Hill
#
# Bulk Modulus (GPa) = 40.38673 59.45975 49.92324
# Shear Modulus (GPa) = 39.80667 46.99967 43.40317
#
# Velocity S-wave (km/s) = 3.87550 4.21111 4.04679
# Velocity P-wave (km/s) = 5.93838 6.78818 6.37745
#
# Compressibility (1/GPa) = 0.02476061
#
# Stress axis : x y z
#
# Youngs Moduli (GPa) = 73.18875 101.85271 158.66697
#
# Poissons Ratio (x) = -0.04738 0.28027
# Poissons Ratio (y) = -0.03405 0.19205
# Poissons Ratio (z) = 0.12928 0.12328
#
# Static dielectric constant tensor:
#      x y z
#    x 2.143050 -0.098410 0.065880 
#    y -0.098410 2.171320 -0.000260 
#    z 0.065880 -0.000260 2.039480 
# 
# From -- ./inp_files/270533.got.cif
#   From: 2010.05.17/outbox.cif.g08.bks.cpg/sg2_136_cif.got.tgz:270533.got - 2010.06.03 11:33:40.
