data_PCOD9079466
_publ_section_title
;
Structure prediction by ZEFSAII (Michael W. Deem and Ramdas Pophale) SiO2 
 PCOD9079466
Probable space group: P -1
;
_chemical_formula_sum "Si O2"
_cell_formula_units_Z 14
_cell_length_a 12.120216
_cell_length_b 7.724917
_cell_length_c 18.016585
_cell_angle_alpha 130.553729
_cell_angle_beta 28.392434
_cell_angle_gamma 116.177123
_cell_volume 568.095018
_symmetry_space_group_name_H-M "P -1"
_symmetry_group_IT_number 2
_symmetry_cell_setting 'triclinic'
loop_
_space_group_symop_operation_xyz
x,y,z
-x,-y,-z
loop_
_atom_site_type_symbol
_atom_site_label
_atom_site_fract_x
_atom_site_fract_y
_atom_site_fract_z
Si Si1 0.979685 0.401503 0.747139
Si Si2 0.276098 0.818469 0.884967
Si Si3 0.137327 0.587100 0.331818
Si Si4 0.264741 0.154724 0.778959
Si Si5 0.311971 0.021646 0.336202
Si Si6 0.651422 0.631785 0.362487
Si Si7 0.596451 0.427331 0.105930
O O1 0.166846 0.141448 0.530972
O O2 0.152871 0.487633 0.722017
O O3 0.882412 0.551949 0.770659
O O4 0.770696 0.366940 0.913423
O O5 0.404075 0.005548 0.838126
O O6 0.441825 0.568883 0.674042
O O7 0.307941 0.767406 0.939388
O O8 0.995071 0.854534 0.041895
O O9 0.318578 0.455473 0.253390
O O10 0.854523 0.769990 0.565047
O O11 0.271465 0.773201 0.276659
O O12 0.220213 0.283062 0.759345
O O13 0.380759 0.322683 0.804170
O O14 0.446628 0.877993 0.581944
#
# Coordination Sequence:
#
# PCOD9079466 Si02
#       7
#     2   2   2   2   2   2   2
#     4  10  18  37  59  82 117 158 192 236 289 360
#     4  11  21  40  59  95 118 146 198 257 282 337
#     4   9  21  40  59  82 113 169 196 223 302 361
#     4  10  20  35  60  91 119 154 195 235 299 353
#     4   9  22  39  59  81 125 151 198 245 289 343
#     4  10  19  36  61  88 119 158 189 237 301 351
#     4  11  19  37  65  84 117 155 203 236 286 358
#
# _framework density 24.643764999999998
#
# number of rings (size 3 to 8) (size 9 to 14) (size 15 to 20)
#    0.857    1.143    2.857    2.143    0.000    1.143 
#    2.571    2.143    0.000    0.000    0.000    0.000 
#    0.000    0.000    0.000    0.000    0.000    0.000 
#
# Total GULP energy -78185.126809 kJ/mol
# GULP energy per Si atom -5584.651915 kJ/mol
# Density = 2.458767 g / cm^3
# Si number density = 24.643765 Si / 1000 Ang^3
#
#
#
# Elastic Constant Matrix: (Units=GPa)
#
#
# Indices 1 2 3 4 5 6 
#
# 1 144.6201 11.7424 20.9983 -5.2611 -3.2054 2.8184
# 2 11.7424 51.1573 23.2867 -14.5142 5.4316 1.7637
# 3 20.9983 23.2867 95.7600 -1.0428 8.6157 6.8544
# 4 -5.2611 -14.5142 -1.0428 22.4452 4.5890 -0.2577
# 5 -3.2054 5.4316 8.6157 4.5890 25.1207 -5.3377
# 6 2.8184 1.7637 6.8544 -0.2577 -5.3377 23.4928
#
#
#
# Elastic Compliance Matrix: (Units=1/GPa)
#
#
# Indices 1 2 3 4 5 6 
#
# 1 0.007268 -0.000947 -0.001490 0.000713 0.001510 -0.000015
# 2 -0.000947 0.029019 -0.005711 0.019999 -0.008540 -0.002120
# 3 -0.001490 -0.005711 0.012743 -0.002746 -0.003669 -0.003974
# 4 0.000713 0.019999 -0.002746 0.060574 -0.015112 -0.003555
# 5 0.001510 -0.008540 -0.003669 -0.015112 0.048497 0.012384
# 6 -0.000015 -0.002120 -0.003974 -0.003555 0.012384 0.046661
#
#
# Mechanical properties :
#
#
# Convention : Reuss Voigt Hill
#
# Bulk Modulus (GPa) = 30.55122 44.84360 37.69741
# Shear Modulus (GPa) = 21.55451 29.91241 25.73346
#
# Velocity S-wave (km/s) = 2.96065 3.48773 3.23494
# Velocity P-wave (km/s) = 4.91032 5.86986 5.41140
#
# Compressibility (1/GPa) = 0.03273191
#
# Stress axis : x y z
#
# Youngs Moduli (GPa) = 137.59583 34.46054 78.47441
#
# Poissons Ratio (x) = 0.03265 0.11695
# Poissons Ratio (y) = 0.13036 0.44817
# Poissons Ratio (z) = 0.20506 0.19681
#
# Static dielectric constant tensor:
#      x y z
#    x 2.076320 -0.032790 -0.046940 
#    y -0.032790 1.916010 0.010290 
#    z -0.046940 0.010290 1.992340 
# 
# From -- ./inp_files/566882.got.cif
#   From: 2010.05.17/outbox.cif.g08.bks.cpg/sg2_284_cif.got.tgz:566882.got - 2010.06.03 11:33:40.
