data_PCOD9079926
_publ_section_title
;
Structure prediction by ZEFSAII (Michael W. Deem and Ramdas Pophale) SiO2 
 PCOD9079926
Probable space group: P -1
;
_chemical_formula_sum "Si O2"
_cell_formula_units_Z 16
_cell_length_a 9.375196
_cell_length_b 9.083229
_cell_length_c 14.090145
_cell_angle_alpha 139.990406
_cell_angle_beta 102.123657
_cell_angle_gamma 89.975060
_cell_volume 729.235275
_symmetry_space_group_name_H-M "P -1"
_symmetry_group_IT_number 2
_symmetry_cell_setting 'triclinic'
loop_
_space_group_symop_operation_xyz
x,y,z
-x,-y,-z
loop_
_atom_site_type_symbol
_atom_site_label
_atom_site_fract_x
_atom_site_fract_y
_atom_site_fract_z
Si Si1 0.937996 0.174640 0.513420
Si Si2 0.449108 0.619539 0.694363
Si Si3 0.927245 0.670238 0.815358
Si Si4 0.117372 0.583629 0.640993
Si Si5 0.593654 0.865838 0.642812
Si Si6 0.194153 0.933024 0.087994
Si Si7 0.551880 0.335581 0.064634
Si Si8 0.642174 0.840148 0.228920
O O1 0.872979 0.385722 0.656354
O O2 0.091812 0.334920 0.568975
O O3 0.806313 0.019962 0.352433
O O4 0.000000 0.000000 0.500000
O O5 0.288279 0.679644 0.686818
O O6 0.422976 0.339434 0.536519
O O7 0.493841 0.680651 0.839507
O O8 0.049698 0.740433 0.780702
O O9 0.814811 0.830073 0.854410
O O10 0.029939 0.753555 0.962111
O O11 0.542359 0.740474 0.676199
O O12 0.000000 0.500000 0.500000
O O13 0.761522 0.007678 0.766619
O O14 0.484005 0.031700 0.688298
O O15 0.320481 0.808456 0.004056
O O16 0.626550 0.603094 0.171632
O O17 0.413215 0.236943 0.924130
#
# Coordination Sequence:
#
# PCOD9079926 Si02
#       8
#     2   2   2   2   2   2   2   2
#     4  10  20  36  60  89 120 157 195 241 297 369
#     4  11  21  39  57  90 120 159 204 253 298 348
#     4   9  20  32  60  85 117 156 197 235 300 356
#     4  10  19  33  56  87 118 153 196 244 289 358
#     4  10  24  35  62  84 123 155 206 258 293 348
#     4  10  18  38  55  90 113 158 194 247 292 349
#     4  10  21  39  62  89 125 157 203 245 295 367
#     4  10  21  39  62  93 117 162 197 242 309 358
#
# _framework density 21.940791999999998
#
# number of rings (size 3 to 8) (size 9 to 14) (size 15 to 20)
#    0.750    1.250    1.250    3.000    3.500    2.500 
#    2.250    0.000    0.000    0.000    0.000    8.750 
#    0.000    0.000    0.000    0.000    0.000    0.000 
#
# Total GULP energy -89175.562187 kJ/mol
# GULP energy per Si atom -5573.472637 kJ/mol
# Density = 2.189085 g / cm^3
# Si number density = 21.940792 Si / 1000 Ang^3
#
#
#
# Elastic Constant Matrix: (Units=GPa)
#
#
# Indices 1 2 3 4 5 6 
#
# 1 49.8000 19.7747 23.8207 -4.4025 6.3588 -17.2310
# 2 19.7747 93.0882 45.7931 5.6174 -11.2393 -24.3244
# 3 23.8207 45.7931 111.4562 16.6340 2.8603 -18.4700
# 4 -4.4025 5.6174 16.6340 30.7495 -11.9016 2.6944
# 5 6.3588 -11.2393 2.8603 -11.9016 32.4835 1.1828
# 6 -17.2310 -24.3244 -18.4700 2.6944 1.1828 28.8376
#
#
#
# Elastic Compliance Matrix: (Units=1/GPa)
#
#
# Indices 1 2 3 4 5 6 
#
# 1 0.027762 -0.001610 -0.003454 0.003053 -0.005040 0.012940
# 2 -0.001610 0.016979 -0.005458 0.001446 0.006856 0.009447
# 3 -0.003454 -0.005458 0.014185 -0.009892 -0.006217 0.003597
# 4 0.003053 0.001446 -0.009892 0.045663 0.017806 -0.008288
# 5 -0.005040 0.006856 -0.006217 0.017806 0.041382 -0.004571
# 6 0.012940 0.009447 0.003597 -0.008288 -0.004571 0.053643
#
#
# Mechanical properties :
#
#
# Convention : Reuss Voigt Hill
#
# Bulk Modulus (GPa) = 26.39779 48.12460 37.26120
# Shear Modulus (GPa) = 21.43306 29.41118 25.42212
#
# Velocity S-wave (km/s) = 3.12887 3.66523 3.40762
# Velocity P-wave (km/s) = 5.01104 6.31612 5.70105
#
# Compressibility (1/GPa) = 0.03788195
#
# Stress axis : x y z
#
# Youngs Moduli (GPa) = 36.01998 58.89752 70.49875
#
# Poissons Ratio (x) = 0.09482 0.24349
# Poissons Ratio (y) = 0.05799 0.38478
# Poissons Ratio (z) = 0.12441 0.32146
#
# Static dielectric constant tensor:
#      x y z
#    x 1.834390 -0.097260 0.109750 
#    y -0.097260 1.927500 -0.152470 
#    z 0.109750 -0.152470 2.028330 
# 
# From -- ./inp_files/568358.got.cif
#   From: 2010.05.17/outbox.cif.g08.bks.cpg/sg2_285_cif.got.tgz:568358.got - 2010.06.03 11:33:40.
