data_PCOD9079488
_publ_section_title
;
Structure prediction by ZEFSAII (Michael W. Deem and Ramdas Pophale) SiO2 
 PCOD9079488
Probable space group: P -1
;
_chemical_formula_sum "Si O2"
_cell_formula_units_Z 10
_cell_length_a 12.430990
_cell_length_b 10.912381
_cell_length_c 6.904897
_cell_angle_alpha 78.347496
_cell_angle_beta 55.562581
_cell_angle_gamma 119.186561
_cell_volume 504.584442
_symmetry_space_group_name_H-M "P -1"
_symmetry_group_IT_number 2
_symmetry_cell_setting 'triclinic'
loop_
_space_group_symop_operation_xyz
x,y,z
-x,-y,-z
loop_
_atom_site_type_symbol
_atom_site_label
_atom_site_fract_x
_atom_site_fract_y
_atom_site_fract_z
Si Si1 0.561728 0.196221 0.564452
Si Si2 0.747398 0.068910 0.357167
Si Si3 0.752992 0.941012 0.795213
Si Si4 0.567785 0.463282 0.619894
Si Si5 0.956610 0.848533 0.227144
O O1 0.703981 0.180581 0.422228
O O2 0.652078 0.394928 0.461108
O O3 0.445213 0.116220 0.504682
O O4 0.390292 0.062927 0.944085
O O5 0.924232 0.176268 0.994861
O O6 0.785172 0.013072 0.525644
O O7 0.621074 0.721710 0.013055
O O8 0.944446 0.063359 0.693220
O O9 0.500000 0.500000 0.500000
O O10 0.730893 0.651112 0.515119
O O11 0.000000 0.000000 0.000000
#
# Coordination Sequence:
#
# PCOD9079488 Si02
#       5
#     2   2   2   2   2
#     4   8  19  35  60  79 115 142 177 229 271 320
#     4  10  18  37  60  82 107 150 182 218 280 320
#     4   9  20  36  59  81 109 146 182 223 269 329
#     4  10  19  39  56  78 115 145 176 231 274 314
#     4  11  21  38  55  80 116 143 181 231 272 316
#
# _framework density 19.818286000000001
#
# number of rings (size 3 to 8) (size 9 to 14) (size 15 to 20)
#    1.200    1.200    2.000    0.600    0.000    1.600 
#    3.600    3.000    0.000    0.000    0.000    0.000 
#    0.000    0.000    0.000    0.000    0.000    0.000 
#
# Total GULP energy -55737.061629 kJ/mol
# GULP energy per Si atom -5573.706163 kJ/mol
# Density = 1.977318 g / cm^3
# Si number density = 19.818286 Si / 1000 Ang^3
#
#
#
# Elastic Constant Matrix: (Units=GPa)
#
#
# Indices 1 2 3 4 5 6 
#
# 1 82.0554 46.8198 38.1167 -6.7743 12.3477 21.2544
# 2 46.8198 120.4743 49.1725 -18.4551 3.1741 14.9348
# 3 38.1167 49.1725 57.0445 4.2610 7.7097 18.6198
# 4 -6.7743 -18.4551 4.2610 36.4372 3.4432 -9.1748
# 5 12.3477 3.1741 7.7097 3.4432 31.4203 9.7380
# 6 21.2544 14.9348 18.6198 -9.1748 9.7380 39.7253
#
#
#
# Elastic Compliance Matrix: (Units=1/GPa)
#
#
# Indices 1 2 3 4 5 6 
#
# 1 0.020018 -0.003033 -0.009220 0.002812 -0.004525 -0.003489
# 2 -0.003033 0.016423 -0.014468 0.010539 0.000522 0.004536
# 3 -0.009220 -0.014468 0.041719 -0.017387 0.000913 -0.013421
# 4 0.002812 0.010539 -0.017387 0.039288 -0.006334 0.013309
# 5 -0.004525 0.000522 0.000913 -0.006334 0.036707 -0.008665
# 6 -0.003489 0.004536 -0.013421 0.013309 -0.008665 0.036823
#
#
# Mechanical properties :
#
#
# Convention : Reuss Voigt Hill
#
# Bulk Modulus (GPa) = 40.46073 58.64356 49.55214
# Shear Modulus (GPa) = 19.78940 29.88092 24.83516
#
# Velocity S-wave (km/s) = 3.16340 3.88718 3.54382
# Velocity P-wave (km/s) = 5.81403 7.05704 6.46548
#
# Compressibility (1/GPa) = 0.02471532
#
# Stress axis : x y z
#
# Youngs Moduli (GPa) = 49.95567 60.88999 23.96996
#
# Poissons Ratio (x) = 0.18471 0.22101
# Poissons Ratio (y) = 0.15154 0.34680
# Poissons Ratio (z) = 0.46062 0.88097
#
# Static dielectric constant tensor:
#      x y z
#    x 1.692800 -0.028330 -0.044280 
#    y -0.028330 1.718960 0.027990 
#    z -0.044280 0.027990 1.695210 
# 
# From -- ./inp_files/21317.got.cif
#   From: 2010.05.17/outbox.cif.g08.bks.cpg/sg2_11_cif.got.tgz:21317.got - 2010.06.03 11:33:40.
