data_PCOD9079239
_publ_section_title
;
Structure prediction by ZEFSAII (Michael W. Deem and Ramdas Pophale) SiO2 
 PCOD9079239
Probable space group: P -1
;
_chemical_formula_sum "Si O2"
_cell_formula_units_Z 16
_cell_length_a 7.781684
_cell_length_b 10.825450
_cell_length_c 10.792848
_cell_angle_alpha 92.267377
_cell_angle_beta 109.390664
_cell_angle_gamma 125.053618
_cell_volume 670.123279
_symmetry_space_group_name_H-M "P -1"
_symmetry_group_IT_number 2
_symmetry_cell_setting 'triclinic'
loop_
_space_group_symop_operation_xyz
x,y,z
-x,-y,-z
loop_
_atom_site_type_symbol
_atom_site_label
_atom_site_fract_x
_atom_site_fract_y
_atom_site_fract_z
Si Si1 0.178104 0.908532 0.326264
Si Si2 0.696755 0.050597 0.372254
Si Si3 0.355728 0.454462 0.086568
Si Si4 0.520147 0.731401 0.301272
Si Si5 0.613499 0.674755 0.582969
Si Si6 0.208685 0.629820 0.646183
Si Si7 0.019186 0.417436 0.828456
Si Si8 0.864710 0.870956 0.849821
O O1 0.149566 0.907470 0.466931
O O2 0.999560 0.729493 0.233296
O O3 0.435611 0.965104 0.358763
O O4 0.163488 0.022448 0.242843
O O5 0.767220 0.211726 0.338396
O O6 0.659488 0.906659 0.282516
O O7 0.137338 0.447343 0.991131
O O8 0.500000 0.500000 0.000000
O O9 0.512789 0.597903 0.225458
O O10 0.274757 0.286719 0.104989
O O11 0.620216 0.758300 0.463952
O O12 0.245543 0.646952 0.240618
O O13 0.500000 0.500000 0.500000
O O14 0.434596 0.666071 0.635105
O O15 0.855246 0.769573 0.721138
O O16 0.000000 0.500000 0.500000
O O17 0.163803 0.558890 0.769796
O O18 0.000000 0.000000 0.000000
#
# Coordination Sequence:
#
# PCOD9079239 Si02
#       8
#     2   2   2   2   2   2   2   2
#     4  10  18  36  64  95 123 168 215 263 325 405
#     4  10  19  36  67  97 126 163 222 277 332 382
#     4  12  27  45  64  94 139 183 219 274 350 407
#     4  11  23  43  68  96 129 178 229 283 329 401
#     4  12  23  41  68 103 139 179 228 277 336 410
#     4  12  21  38  70 106 131 168 223 287 339 391
#     4  11  23  41  67  97 133 169 228 270 333 401
#     4  12  23  41  68  98 134 181 226 268 343 412
#
# _framework density 23.876203
#
# number of rings (size 3 to 8) (size 9 to 14) (size 15 to 20)
#    0.000    0.750    7.500    1.875    0.000    0.000 
#    0.000    3.125    0.000    3.000    0.000    0.000 
#    0.000    0.000    0.000    0.000    0.000    0.000 
#
# Total GULP energy -89114.947816 kJ/mol
# GULP energy per Si atom -5569.684238 kJ/mol
# Density = 2.382186 g / cm^3
# Si number density = 23.876203 Si / 1000 Ang^3
#
#
#
# Elastic Constant Matrix: (Units=GPa)
#
#
# Indices 1 2 3 4 5 6 
#
# 1 63.2903 33.9381 12.5773 -3.6493 -6.9996 1.0601
# 2 33.9381 240.5129 73.6550 -0.8170 -11.3288 -43.5855
# 3 12.5773 73.6550 151.5155 11.1370 10.4748 -12.1689
# 4 -3.6493 -0.8170 11.1370 50.9715 -13.8876 0.1849
# 5 -6.9996 -11.3288 10.4748 -13.8876 20.7139 6.5687
# 6 1.0601 -43.5855 -12.1689 0.1849 6.5687 29.9737
#
#
#
# Elastic Compliance Matrix: (Units=1/GPa)
#
#
# Indices 1 2 3 4 5 6 
#
# 1 0.019697 -0.003166 -0.002029 0.005162 0.012213 -0.008832
# 2 -0.003166 0.007161 -0.002714 0.001007 0.002050 0.008967
# 3 -0.002029 -0.002714 0.009464 -0.005353 -0.011333 0.002485
# 4 0.005162 0.001007 -0.005353 0.028323 0.026147 -0.006796
# 5 0.012213 0.002050 -0.011333 0.026147 0.083275 -0.020462
# 6 -0.008832 0.008967 0.002485 -0.006796 -0.020462 0.052249
#
#
# Mechanical properties :
#
#
# Convention : Reuss Voigt Hill
#
# Bulk Modulus (GPa) = 48.76960 77.29551 63.03255
# Shear Modulus (GPa) = 22.43950 42.67503 32.55726
#
# Velocity S-wave (km/s) = 3.06899 4.23229 3.69668
# Velocity P-wave (km/s) = 5.74705 7.50511 6.68414
#
# Compressibility (1/GPa) = 0.02050458
#
# Stress axis : x y z
#
# Youngs Moduli (GPa) = 50.76826 139.65450 105.66171
#
# Poissons Ratio (x) = 0.44211 0.21442
# Poissons Ratio (y) = 0.16072 0.28673
# Poissons Ratio (z) = 0.10302 0.37898
#
# Static dielectric constant tensor:
#      x y z
#    x 1.703310 -0.014600 -0.199080 
#    y -0.014600 1.967680 -0.004090 
#    z -0.199080 -0.004090 1.831070 
# 
# From -- ./inp_files/179302.got.cif
#   From: 2010.05.17/outbox.cif.g08.bks.cpg/sg2_90_cif.got.tgz:179302.got - 2010.06.03 11:33:40.
