data_PCOD9079359
_publ_section_title
;
Structure prediction by ZEFSAII (Michael W. Deem and Ramdas Pophale) SiO2 
 PCOD9079359
Probable space group: P -1
;
_chemical_formula_sum "Si O2"
_cell_formula_units_Z 16
_cell_length_a 15.134971
_cell_length_b 14.667438
_cell_length_c 9.491844
_cell_angle_alpha 127.324193
_cell_angle_beta 103.072813
_cell_angle_gamma 32.326734
_cell_volume 662.784927
_symmetry_space_group_name_H-M "P -1"
_symmetry_group_IT_number 2
_symmetry_cell_setting 'triclinic'
loop_
_space_group_symop_operation_xyz
x,y,z
-x,-y,-z
loop_
_atom_site_type_symbol
_atom_site_label
_atom_site_fract_x
_atom_site_fract_y
_atom_site_fract_z
Si Si1 0.504079 0.955913 0.226577
Si Si2 0.979386 0.074400 0.790232
Si Si3 0.309913 0.913715 0.442301
Si Si4 0.127039 0.249821 0.240909
Si Si5 0.137152 0.025890 0.206689
Si Si6 0.282734 0.394689 0.765145
Si Si7 0.633317 0.395393 0.726322
Si Si8 0.166068 0.245048 0.928215
O O1 0.379579 0.996854 0.139085
O O2 0.340570 0.222919 0.516827
O O3 0.693336 0.684887 0.144203
O O4 0.625594 0.908410 0.127220
O O5 0.952718 0.999162 0.821170
O O6 0.803899 0.254228 0.767587
O O7 0.901596 0.289681 0.016939
O O8 0.225908 0.780658 0.532448
O O9 0.137102 0.084472 0.416645
O O10 0.485379 0.801545 0.345626
O O11 0.420855 0.666170 0.286820
O O12 0.222120 0.065210 0.697032
O O13 0.000000 0.500000 0.500000
O O14 0.036087 0.238506 0.268177
O O15 0.093502 0.294665 0.103841
O O16 0.390012 0.731338 0.959687
O O17 0.000000 0.500000 0.000000
#
# Coordination Sequence:
#
# PCOD9079359 Si02
#       8
#     2   2   2   2   2   2   2   2
#     4  10  23  40  68  99 136 182 219 278 339 394
#     4  10  19  33  60 104 130 178 218 277 323 407
#     4  10  18  37  63  93 130 176 214 276 326 394
#     4  12  26  46  67  96 136 177 221 284 348 396
#     4  11  20  42  64  92 142 171 221 279 339 392
#     4  10  18  36  68  97 138 172 224 269 338 397
#     4  10  19  32  62  96 135 171 226 265 336 391
#     4  11  26  43  67  99 130 176 233 278 333 411
#
# _framework density 24.140561999999999
#
# number of rings (size 3 to 8) (size 9 to 14) (size 15 to 20)
#    0.000    1.500    3.750    1.875    5.250    0.000 
#    9.000    0.625    0.000    1.500    0.000    0.000 
#    0.000    0.000    0.000    0.000    0.000    0.000 
#
# Total GULP energy -89330.839937 kJ/mol
# GULP energy per Si atom -5583.177496 kJ/mol
# Density = 2.408562 g / cm^3
# Si number density = 24.140562 Si / 1000 Ang^3
#
#
#
# Elastic Constant Matrix: (Units=GPa)
#
#
# Indices 1 2 3 4 5 6 
#
# 1 132.1270 33.7433 38.4836 -12.3156 5.5604 30.2987
# 2 33.7433 74.6628 32.1295 -15.6165 14.2905 28.7311
# 3 38.4836 32.1295 83.8040 -20.0981 9.5455 26.7953
# 4 -12.3156 -15.6165 -20.0981 27.9979 -1.8555 -0.8181
# 5 5.5604 14.2905 9.5455 -1.8555 49.2519 -5.5185
# 6 30.2987 28.7311 26.7953 -0.8181 -5.5185 40.6108
#
#
#
# Elastic Compliance Matrix: (Units=1/GPa)
#
#
# Indices 1 2 3 4 5 6 
#
# 1 0.009860 -0.000769 -0.001644 0.002483 -0.001131 -0.005831
# 2 -0.000769 0.024976 0.000894 0.013098 -0.008928 -0.018636
# 3 -0.001644 0.000894 0.020472 0.013750 -0.005016 -0.013318
# 4 0.002483 0.013098 0.013750 0.052934 -0.007001 -0.020076
# 5 -0.001131 -0.008928 -0.005016 -0.007001 0.025272 0.013763
# 6 -0.005831 -0.018636 -0.013318 -0.020076 0.013763 0.052412
#
#
# Mechanical properties :
#
#
# Convention : Reuss Voigt Hill
#
# Bulk Modulus (GPa) = 19.13158 55.47852 37.30505
# Shear Modulus (GPa) = 24.22632 35.98792 30.10712
#
# Velocity S-wave (km/s) = 3.17133 3.86523 3.53535
# Velocity P-wave (km/s) = 4.62083 6.55373 5.67025
#
# Compressibility (1/GPa) = 0.05226961
#
# Stress axis : x y z
#
# Youngs Moduli (GPa) = 101.42070 40.03865 48.84758
#
# Poissons Ratio (x) = 0.03079 0.08033
# Poissons Ratio (y) = 0.07798 -0.04369
# Poissons Ratio (z) = 0.16678 -0.03581
#
# Static dielectric constant tensor:
#      x y z
#    x 1.906560 -0.118070 -0.161750 
#    y -0.118070 2.028730 -0.029260 
#    z -0.161750 -0.029260 1.731110 
# 
# From -- ./inp_files/335498.got.cif
#   From: 2010.05.17/outbox.cif.g08.bks.cpg/sg2_168_cif.got.tgz:335498.got - 2010.06.03 11:33:40.
