data_PCOD9079069
_publ_section_title
;
Structure prediction by ZEFSAII (Michael W. Deem and Ramdas Pophale) SiO2 
 PCOD9079069
Probable space group: P -1
;
_chemical_formula_sum "Si O2"
_cell_formula_units_Z 16
_cell_length_a 8.951525
_cell_length_b 14.848387
_cell_length_c 13.789878
_cell_angle_alpha 129.596550
_cell_angle_beta 144.626884
_cell_angle_gamma 40.576526
_cell_volume 689.385824
_symmetry_space_group_name_H-M "P -1"
_symmetry_group_IT_number 2
_symmetry_cell_setting 'triclinic'
loop_
_space_group_symop_operation_xyz
x,y,z
-x,-y,-z
loop_
_atom_site_type_symbol
_atom_site_label
_atom_site_fract_x
_atom_site_fract_y
_atom_site_fract_z
Si Si1 0.560863 0.943501 0.102371
Si Si2 0.207053 0.793141 0.790306
Si Si3 0.512128 0.759422 0.223319
Si Si4 0.105148 0.180577 0.166075
Si Si5 0.726245 0.215077 0.661132
Si Si6 0.269749 0.522729 0.127887
Si Si7 0.156195 0.540318 0.860068
Si Si8 0.288777 0.041352 0.510887
O O1 0.922966 0.860747 0.240005
O O2 0.423389 0.847662 0.970423
O O3 0.373923 0.066408 0.163703
O O4 0.500000 0.000000 0.000000
O O5 0.939865 0.844891 0.764285
O O6 0.418433 0.627729 0.800847
O O7 0.051005 0.859336 0.649148
O O8 0.396869 0.773547 0.284186
O O9 0.799352 0.604825 0.244936
O O10 0.624308 0.860692 0.321798
O O11 0.209799 0.796748 0.030471
O O12 0.072429 0.328244 0.235109
O O13 0.644351 0.372090 0.708331
O O14 0.661840 0.097234 0.509048
O O15 0.130511 0.579579 0.985730
O O16 0.000000 0.500000 0.000000
O O17 0.500000 0.500000 0.000000
O O18 0.500000 0.000000 0.500000
#
# Coordination Sequence:
#
# PCOD9079069 Si02
#       8
#     2   2   2   2   2   2   2   2
#     4  12  20  33  58  93 124 156 197 271 307 354
#     4  12  23  37  63  99 117 158 221 257 297 369
#     4  10  18  38  63  86 123 169 197 243 313 379
#     4  11  21  37  64  94 122 155 215 265 304 358
#     4  11  20  37  58  90 124 162 199 249 320 354
#     4  12  22  36  63  98 125 150 207 271 308 352
#     4  10  18  36  62  86 118 163 196 258 314 342
#     4  10  23  39  61  89 131 172 196 244 319 380
#
# _framework density 23.209064999999999
#
# number of rings (size 3 to 8) (size 9 to 14) (size 15 to 20)
#    0.000    1.000    8.750    1.125    0.000    0.000 
#    0.000    5.625    0.000   15.000    0.000    0.000 
#    0.000    0.000    0.000    0.000    0.000    0.000 
#
# Total GULP energy -89124.995079 kJ/mol
# GULP energy per Si atom -5570.312192 kJ/mol
# Density = 2.315624 g / cm^3
# Si number density = 23.209065 Si / 1000 Ang^3
#
#
#
# Elastic Constant Matrix: (Units=GPa)
#
#
# Indices 1 2 3 4 5 6 
#
# 1 51.7943 36.6400 22.7142 20.5066 19.1419 14.4956
# 2 36.6400 181.4310 52.3574 49.2983 16.7290 5.2874
# 3 22.7142 52.3574 71.2924 24.5887 13.5615 3.5691
# 4 20.5066 49.2983 24.5887 30.2840 6.5708 6.7307
# 5 19.1419 16.7290 13.5615 6.5708 32.3790 -1.4781
# 6 14.4956 5.2874 3.5691 6.7307 -1.4781 31.6439
#
#
#
# Elastic Compliance Matrix: (Units=1/GPa)
#
#
# Indices 1 2 3 4 5 6 
#
# 1 0.037784 -0.000692 -0.001839 -0.015683 -0.018690 -0.014523
# 2 -0.000692 0.010335 -0.002182 -0.014817 -0.000921 0.001945
# 3 -0.001839 -0.002182 0.020931 -0.011542 -0.004160 0.001107
# 4 -0.015683 -0.014817 -0.011542 0.076994 0.005902 -0.005139
# 5 -0.018690 -0.000921 -0.004160 0.005902 0.043409 0.009957
# 6 -0.014523 0.001945 0.001107 -0.005139 0.009957 0.039363
#
#
# Mechanical properties :
#
#
# Convention : Reuss Voigt Hill
#
# Bulk Modulus (GPa) = 16.77105 58.66009 37.71557
# Shear Modulus (GPa) = 19.37115 31.71512 25.54313
#
# Velocity S-wave (km/s) = 2.89214 3.70063 3.32108
# Velocity P-wave (km/s) = 4.28887 6.60220 5.56702
#
# Compressibility (1/GPa) = 0.05962656
#
# Stress axis : x y z
#
# Youngs Moduli (GPa) = 26.46620 96.75472 47.77497
#
# Poissons Ratio (x) = 0.06695 0.08784
# Poissons Ratio (y) = 0.01831 0.10423
# Poissons Ratio (z) = 0.04866 0.21108
#
# Static dielectric constant tensor:
#      x y z
#    x 1.847800 0.018070 -0.020400 
#    y 0.018070 1.938830 0.052110 
#    z -0.020400 0.052110 1.952750 
# 
# From -- ./inp_files/504304.got.cif
#   From: 2010.05.17/outbox.cif.g08.bks.cpg/sg2_253_cif.got.tgz:504304.got - 2010.06.03 11:33:40.
