data_PCOD9079342
_publ_section_title
;
Structure prediction by ZEFSAII (Michael W. Deem and Ramdas Pophale) SiO2 
 PCOD9079342
Probable space group: P -1
;
_chemical_formula_sum "Si O2"
_cell_formula_units_Z 16
_cell_length_a 7.534085
_cell_length_b 18.105346
_cell_length_c 16.185447
_cell_angle_alpha 155.408126
_cell_angle_beta 44.647941
_cell_angle_gamma 132.894460
_cell_volume 641.362668
_symmetry_space_group_name_H-M "P -1"
_symmetry_group_IT_number 2
_symmetry_cell_setting 'triclinic'
loop_
_space_group_symop_operation_xyz
x,y,z
-x,-y,-z
loop_
_atom_site_type_symbol
_atom_site_label
_atom_site_fract_x
_atom_site_fract_y
_atom_site_fract_z
Si Si1 0.901002 0.467602 0.814271
Si Si2 0.611075 0.392368 0.279617
Si Si3 0.430673 0.980983 0.362579
Si Si4 0.854707 0.886027 0.257308
Si Si5 0.918065 0.826096 0.794664
Si Si6 0.725683 0.393473 0.971920
Si Si7 0.778032 0.046257 0.918156
Si Si8 0.671724 0.340798 0.587265
O O1 0.805306 0.375628 0.667593
O O2 0.208949 0.488805 0.723357
O O3 0.844198 0.672738 0.050372
O O4 0.743313 0.368672 0.840924
O O5 0.500000 0.500000 0.500000
O O6 0.367918 0.271881 0.197685
O O7 0.797054 0.262589 0.131402
O O8 0.664268 0.929263 0.290158
O O9 0.230326 0.040960 0.554796
O O10 0.511793 0.146989 0.446450
O O11 0.316031 0.801156 0.173040
O O12 0.129003 0.980132 0.232146
O O13 0.117195 0.679525 0.573433
O O14 0.926426 0.922691 0.800930
O O15 0.000000 0.000000 0.000000
O O16 0.513676 0.506199 0.192984
O O17 0.000000 0.500000 0.000000
O O18 0.500000 0.000000 0.000000
#
# Coordination Sequence:
#
# PCOD9079342 Si02
#       8
#     2   2   2   2   2   2   2   2
#     4  11  21  42  71  95 132 170 228 275 328 401
#     4  10  21  41  69  97 130 174 226 281 330 390
#     4  11  22  37  70  95 126 167 219 269 332 388
#     4  10  18  36  67  99 119 168 222 273 315 388
#     4  11  24  44  65  98 137 177 225 278 341 400
#     4  12  28  45  61 102 141 172 217 280 348 405
#     4   9  20  37  62  95 129 164 222 272 319 392
#     4  12  23  45  73  94 131 181 228 275 329 410
#
# _framework density 24.946884000000001
#
# number of rings (size 3 to 8) (size 9 to 14) (size 15 to 20)
#    0.000    1.250    5.000    1.875    0.000    1.500 
#    9.000    0.625    0.000    0.000    0.000    0.000 
#    0.000    0.000    0.000    0.000    0.000    0.000 
#
# Total GULP energy -89371.969490 kJ/mol
# GULP energy per Si atom -5585.748093 kJ/mol
# Density = 2.489010 g / cm^3
# Si number density = 24.946884 Si / 1000 Ang^3
#
#
#
# Elastic Constant Matrix: (Units=GPa)
#
#
# Indices 1 2 3 4 5 6 
#
# 1 35.0860 15.3823 18.5705 -5.5076 14.0752 18.3746
# 2 15.3823 132.8506 30.2193 -2.6168 -5.8716 17.4133
# 3 18.5705 30.2193 126.0415 0.7786 -6.2252 25.8860
# 4 -5.5076 -2.6168 0.7786 49.0278 13.6741 -4.2763
# 5 14.0752 -5.8716 -6.2252 13.6741 26.4091 6.4906
# 6 18.3746 17.4133 25.8860 -4.2763 6.4906 31.4015
#
#
#
# Elastic Compliance Matrix: (Units=1/GPa)
#
#
# Indices 1 2 3 4 5 6 
#
# 1 0.061648 -0.004783 -0.006314 0.016203 -0.039407 -0.017864
# 2 -0.004783 0.008854 -0.000395 -0.002128 0.006360 -0.003390
# 3 -0.006314 -0.000395 0.011121 -0.004431 0.010149 -0.007956
# 4 0.016203 -0.002128 -0.004431 0.030143 -0.026999 0.005037
# 5 -0.039407 0.006360 0.010149 -0.026999 0.078818 -0.008802
# 6 -0.017864 -0.003390 -0.007956 0.005037 -0.008802 0.053243
#
#
# Mechanical properties :
#
#
# Convention : Reuss Voigt Hill
#
# Bulk Modulus (GPa) = 17.05288 46.92469 31.98879
# Shear Modulus (GPa) = 17.46077 36.68808 27.07443
#
# Velocity S-wave (km/s) = 2.64847 3.83906 3.29794
# Velocity P-wave (km/s) = 4.02530 6.20499 5.22996
#
# Compressibility (1/GPa) = 0.05864111
#
# Stress axis : x y z
#
# Youngs Moduli (GPa) = 16.22118 112.93858 89.91757
#
# Poissons Ratio (x) = 0.54016 0.56772
# Poissons Ratio (y) = 0.07758 0.03549
# Poissons Ratio (z) = 0.10242 0.04457
#
# Static dielectric constant tensor:
#      x y z
#    x 2.098330 0.032110 -0.099260 
#    y 0.032110 2.027780 0.076900 
#    z -0.099260 0.076900 2.069480 
# 
# From -- ./inp_files/299564.got.cif
#   From: 2010.05.17/outbox.cif.g08.bks.cpg/sg2_150_cif.got.tgz:299564.got - 2010.06.03 11:33:40.
