data_PCOD9079281
_publ_section_title
;
Structure prediction by ZEFSAII (Michael W. Deem and Ramdas Pophale) SiO2 
 PCOD9079281
Probable space group: P -1
;
_chemical_formula_sum "Si O2"
_cell_formula_units_Z 16
_cell_length_a 12.343494
_cell_length_b 16.949424
_cell_length_c 7.599711
_cell_angle_alpha 102.409160
_cell_angle_beta 73.843078
_cell_angle_gamma 155.312781
_cell_volume 634.987271
_symmetry_space_group_name_H-M "P -1"
_symmetry_group_IT_number 2
_symmetry_cell_setting 'triclinic'
loop_
_space_group_symop_operation_xyz
x,y,z
-x,-y,-z
loop_
_atom_site_type_symbol
_atom_site_label
_atom_site_fract_x
_atom_site_fract_y
_atom_site_fract_z
Si Si1 0.224595 0.079019 0.588988
Si Si2 0.303634 0.303380 0.837118
Si Si3 0.028409 0.541156 0.799455
Si Si4 0.558773 0.951829 0.868510
Si Si5 0.747362 0.957962 0.077215
Si Si6 0.117954 0.272565 0.588570
Si Si7 0.740026 0.467803 0.358308
Si Si8 0.369483 0.582698 0.019142
O O1 0.205480 0.154861 0.721901
O O2 0.314896 0.079429 0.707354
O O3 0.455018 0.243832 0.422161
O O4 0.964116 0.864268 0.535483
O O5 0.316166 0.374505 0.704562
O O6 0.557605 0.447108 0.910933
O O7 0.055154 0.169156 0.003690
O O8 0.314962 0.768631 0.768881
O O9 0.049337 0.466700 0.664138
O O10 0.000000 0.500000 0.000000
O O11 0.812324 0.469385 0.821407
O O12 0.835549 0.118639 0.724039
O O13 0.581059 0.909619 0.009082
O O14 0.500000 0.000000 0.000000
O O15 0.654401 0.810089 0.981163
O O16 0.781521 0.581556 0.484898
O O17 0.749045 0.497034 0.160615
#
# Coordination Sequence:
#
# PCOD9079281 Si02
#       8
#     2   2   2   2   2   2   2   2
#     4  11  22  43  67  95 137 172 212 273 336 388
#     4  10  23  42  67  98 126 174 225 274 327 387
#     4  10  18  36  65  93 127 167 215 270 315 381
#     4  11  20  39  69  97 130 170 226 268 322 386
#     4  10  21  41  68  97 127 175 219 273 329 385
#     4  11  24  41  67  98 133 175 215 271 333 389
#     4  11  22  40  66  99 131 174 218 265 332 394
#     4  10  19  37  66  93 126 169 225 268 318 385
#
# _framework density 25.197357
#
# number of rings (size 3 to 8) (size 9 to 14) (size 15 to 20)
#    0.000    1.500    3.750    4.125    0.000    2.000 
#    0.000   10.625    0.000    0.750    0.000    0.000 
#    0.000    0.000    0.000    0.000    0.000    0.000 
#
# Total GULP energy -89391.214846 kJ/mol
# GULP energy per Si atom -5586.950928 kJ/mol
# Density = 2.514001 g / cm^3
# Si number density = 25.197357 Si / 1000 Ang^3
#
#
#
# Elastic Constant Matrix: (Units=GPa)
#
#
# Indices 1 2 3 4 5 6 
#
# 1 112.4041 30.6259 14.8262 -5.7441 -17.3678 4.0218
# 2 30.6259 96.6234 10.2720 0.0957 -8.7052 1.7151
# 3 14.8262 10.2720 56.3461 -3.1449 -5.3305 1.6108
# 4 -5.7441 0.0957 -3.1449 25.1703 5.8897 -11.1729
# 5 -17.3678 -8.7052 -5.3305 5.8897 35.8530 4.8526
# 6 4.0218 1.7151 1.6108 -11.1729 4.8526 50.6308
#
#
#
# Elastic Compliance Matrix: (Units=1/GPa)
#
#
# Indices 1 2 3 4 5 6 
#
# 1 0.010615 -0.002779 -0.001819 0.000822 0.004185 -0.000911
# 2 -0.002779 0.011522 -0.001284 -0.001479 0.001586 -0.000607
# 3 -0.001819 -0.001284 0.018679 0.001515 0.001363 -0.000203
# 4 0.000822 -0.001479 0.001515 0.047198 -0.009007 0.011215
# 5 0.004185 0.001586 0.001363 -0.009007 0.032738 -0.005555
# 6 -0.000911 -0.000607 -0.000203 0.011215 -0.005555 0.022857
#
#
# Mechanical properties :
#
#
# Convention : Reuss Voigt Hill
#
# Bulk Modulus (GPa) = 34.42057 41.86908 38.14483
# Shear Modulus (GPa) = 30.29260 36.30745 33.30002
#
# Velocity S-wave (km/s) = 3.47106 3.80007 3.63928
# Velocity P-wave (km/s) = 5.45476 5.99221 5.72979
#
# Compressibility (1/GPa) = 0.02905239
#
# Stress axis : x y z
#
# Youngs Moduli (GPa) = 94.20905 86.79158 53.53482
#
# Poissons Ratio (x) = 0.24117 0.09736
# Poissons Ratio (y) = 0.26178 0.06876
# Poissons Ratio (z) = 0.17133 0.11148
#
# Static dielectric constant tensor:
#      x y z
#    x 1.995210 -0.020510 -0.013350 
#    y -0.020510 2.028210 0.025710 
#    z -0.013350 0.025710 2.065010 
# 
# From -- ./inp_files/254604.got.cif
#   From: 2010.05.17/outbox.cif.g08.bks.cpg/sg2_128_cif.got.tgz:254604.got - 2010.06.03 11:33:40.
