data_PCOD9079129
_publ_section_title
;
Structure prediction by ZEFSAII (Michael W. Deem and Ramdas Pophale) SiO2 
 PCOD9079129
Probable space group: P -1
;
_chemical_formula_sum "Si O2"
_cell_formula_units_Z 16
_cell_length_a 5.804470
_cell_length_b 8.929588
_cell_length_c 13.971183
_cell_angle_alpha 90.749563
_cell_angle_beta 65.684613
_cell_angle_gamma 81.237417
_cell_volume 649.893638
_symmetry_space_group_name_H-M "P -1"
_symmetry_group_IT_number 2
_symmetry_cell_setting 'triclinic'
loop_
_space_group_symop_operation_xyz
x,y,z
-x,-y,-z
loop_
_atom_site_type_symbol
_atom_site_label
_atom_site_fract_x
_atom_site_fract_y
_atom_site_fract_z
Si Si1 0.974664 0.357196 0.654574
Si Si2 0.566819 0.100665 0.607453
Si Si3 0.800123 0.883639 0.040151
Si Si4 0.977294 0.986123 0.343834
Si Si5 0.498230 0.329592 0.465570
Si Si6 0.480662 0.391392 0.261340
Si Si7 0.227176 0.351781 0.801790
Si Si8 0.691567 0.862653 0.843510
O O1 0.914729 0.193823 0.691851
O O2 0.758831 0.488115 0.655440
O O3 0.204717 0.315662 0.539382
O O4 0.048405 0.419960 0.745079
O O5 0.815590 0.991376 0.606311
O O6 0.657464 0.209530 0.511007
O O7 0.423446 0.222623 0.709346
O O8 0.330698 0.019690 0.610288
O O9 0.879749 0.744241 0.098274
O O10 0.534816 0.989901 0.118456
O O11 0.752389 0.821596 0.942717
O O12 0.000000 0.000000 0.000000
O O13 0.062507 0.084810 0.245288
O O14 0.500000 0.500000 0.500000
O O15 0.586887 0.313004 0.341480
O O16 0.646237 0.506145 0.185019
O O17 0.400982 0.269708 0.202393
#
# Coordination Sequence:
#
# PCOD9079129 Si02
#       8
#     2   2   2   2   2   2   2   2
#     4  10  20  36  67  89 128 179 220 252 323 393
#     4  10  19  35  67  91 127 176 232 254 313 396
#     4  11  23  46  69  87 119 173 226 265 339 411
#     4  10  19  41  62  93 129 178 222 266 324 398
#     4  10  18  36  62  97 128 178 215 255 319 397
#     4  12  22  40  59 100 136 159 219 276 329 379
#     4  10  20  38  64  89 125 172 213 272 324 396
#     4  11  26  39  66  96 125 166 216 285 332 391
#
# _framework density 24.619415
#
# number of rings (size 3 to 8) (size 9 to 14) (size 15 to 20)
#    0.000    1.750    5.000    1.875    0.000    3.500 
#    0.000    4.375    0.000    0.000    0.000    0.000 
#    0.000    0.000    0.000    0.000    0.000    0.000 
#
# Total GULP energy -89350.192006 kJ/mol
# GULP energy per Si atom -5584.387000 kJ/mol
# Density = 2.456338 g / cm^3
# Si number density = 24.619415 Si / 1000 Ang^3
#
#
#
# Elastic Constant Matrix: (Units=GPa)
#
#
# Indices 1 2 3 4 5 6 
#
# 1 108.3776 22.3001 37.4915 4.7474 -9.3093 10.5130
# 2 22.3001 129.7012 71.9338 -9.8775 4.9655 38.9141
# 3 37.4915 71.9338 110.9321 -18.9946 14.0740 14.0483
# 4 4.7474 -9.8775 -18.9946 32.0612 7.6839 -3.2840
# 5 -9.3093 4.9655 14.0740 7.6839 27.8069 3.1247
# 6 10.5130 38.9141 14.0483 -3.2840 3.1247 44.4345
#
#
#
# Elastic Compliance Matrix: (Units=1/GPa)
#
#
# Indices 1 2 3 4 5 6 
#
# 1 0.013659 0.002779 -0.009052 -0.009819 0.011861 -0.004363
# 2 0.002779 0.017175 -0.012272 -0.005367 0.006986 -0.012706
# 3 -0.009052 -0.012272 0.024407 0.017336 -0.018857 0.007780
# 4 -0.009819 -0.005367 0.017336 0.047987 -0.025134 0.006856
# 5 0.011861 0.006986 -0.018857 -0.025134 0.056160 -0.008769
# 6 -0.004363 -0.012706 0.007780 0.006856 -0.008769 0.033329
#
#
# Mechanical properties :
#
#
# Convention : Reuss Voigt Hill
#
# Bulk Modulus (GPa) = 55.09451 68.05131 61.57291
# Shear Modulus (GPa) = 21.19924 35.34622 28.27273
#
# Velocity S-wave (km/s) = 2.93760 3.79318 3.39247
# Velocity P-wave (km/s) = 5.82521 6.84731 6.35683
#
# Compressibility (1/GPa) = 0.01815063
#
# Stress axis : x y z
#
# Youngs Moduli (GPa) = 73.21311 58.22525 40.97150
#
# Poissons Ratio (x) = -0.16182 0.37087
# Poissons Ratio (y) = -0.20347 0.50281
# Poissons Ratio (z) = 0.66272 0.71456
#
# Static dielectric constant tensor:
#      x y z
#    x 2.193550 0.047450 0.016490 
#    y 0.047450 1.927080 0.009930 
#    z 0.016490 0.009930 2.030310 
# 
# From -- ./inp_files/480511.got.cif
#   From: 2010.05.17/outbox.cif.g08.bks.cpg/sg2_241_cif.got.tgz:480511.got - 2010.06.03 11:33:40.
