data_PCOD9079401
_publ_section_title
;
Structure prediction by ZEFSAII (Michael W. Deem and Ramdas Pophale) SiO2 
 PCOD9079401
Probable space group: P -1
;
_chemical_formula_sum "Si O2"
_cell_formula_units_Z 16
_cell_length_a 16.194766
_cell_length_b 14.341467
_cell_length_c 19.985261
_cell_angle_alpha 127.182481
_cell_angle_beta 18.497874
_cell_angle_gamma 115.607689
_cell_volume 974.034761
_symmetry_space_group_name_H-M "P -1"
_symmetry_group_IT_number 2
_symmetry_cell_setting 'triclinic'
loop_
_space_group_symop_operation_xyz
x,y,z
-x,-y,-z
loop_
_atom_site_type_symbol
_atom_site_label
_atom_site_fract_x
_atom_site_fract_y
_atom_site_fract_z
Si Si1 0.810227 0.590281 0.010459
Si Si2 0.667001 0.838009 0.719585
Si Si3 0.675902 0.532430 0.232272
Si Si4 0.360539 0.647373 0.261605
Si Si5 0.729669 0.336903 0.280116
Si Si6 0.375222 0.160403 0.090976
Si Si7 0.414325 0.664079 0.073811
Si Si8 0.510031 0.677247 0.670562
O O1 0.935838 0.686749 0.977773
O O2 0.127181 0.443315 0.679414
O O3 0.670764 0.565198 0.172788
O O4 0.569988 0.648842 0.159673
O O5 0.576278 0.832575 0.863720
O O6 0.512289 0.785786 0.765097
O O7 0.043138 0.735479 0.381048
O O8 0.561188 0.997314 0.857006
O O9 0.408834 0.657732 0.538614
O O10 0.631870 0.404024 0.220826
O O11 0.000000 0.500000 0.000000
O O12 0.469710 0.659840 0.109187
O O13 0.995448 0.766803 0.602165
O O14 0.406528 0.495196 0.159827
O O15 0.500000 0.500000 0.500000
O O16 0.680461 0.257459 0.224174
O O17 0.483390 0.245677 0.003807
#
# Coordination Sequence:
#
# PCOD9079401 Si02
#       8
#     2   2   2   2   2   2   2   2
#     4  10  17  30  47  76 104 131 161 206 260 304
#     4  10  21  36  53  77 103 138 177 213 250 310
#     4  10  15  27  47  74 108 129 157 210 264 295
#     4  10  21  33  53  78 104 131 176 214 256 311
#     4   8  16  27  43  69 104 128 156 206 251 298
#     4  10  22  37  52  74 106 138 176 214 257 300
#     4  10  20  37  54  72 104 136 175 219 257 298
#     4  10  18  28  48  74 104 131 165 206 252 303
#
# _framework density 16.426518999999999
#
# number of rings (size 3 to 8) (size 9 to 14) (size 15 to 20)
#    0.000    2.500    5.000    0.750    1.750    2.000 
#    0.000    0.000    0.000    0.750    0.000    1.750 
#    0.000    0.000    0.000    0.000    0.000    0.000 
#
# Total GULP energy -89121.789451 kJ/mol
# GULP energy per Si atom -5570.111841 kJ/mol
# Density = 1.638913 g / cm^3
# Si number density = 16.426519 Si / 1000 Ang^3
#
#
#
# Elastic Constant Matrix: (Units=GPa)
#
#
# Indices 1 2 3 4 5 6 
#
# 1 127.7508 37.5644 18.9651 -8.5289 -9.8210 14.0131
# 2 37.5644 60.5569 7.7417 -12.0588 4.7727 -11.1057
# 3 18.9651 7.7417 20.2791 -1.7057 4.6957 -4.3477
# 4 -8.5289 -12.0588 -1.7057 26.1587 -3.2871 3.4599
# 5 -9.8210 4.7727 4.6957 -3.2871 15.0920 -1.1178
# 6 14.0131 -11.1057 -4.3477 3.4599 -1.1178 20.8200
#
#
#
# Elastic Compliance Matrix: (Units=1/GPa)
#
#
# Indices 1 2 3 4 5 6 
#
# 1 0.022310 -0.016902 -0.026456 0.004982 0.027036 -0.028932
# 2 -0.016902 0.033209 0.015340 0.003864 -0.023180 0.030407
# 3 -0.026456 0.015340 0.087870 -0.007529 -0.047860 0.043020
# 4 0.004982 0.003864 -0.007529 0.044062 0.013257 -0.009474
# 5 0.027036 -0.023180 -0.047860 0.013257 0.106218 -0.037056
# 6 -0.028932 0.030407 0.043020 -0.009474 -0.037056 0.092292
#
#
# Mechanical properties :
#
#
# Convention : Reuss Voigt Hill
#
# Bulk Modulus (GPa) = 11.44779 37.45882 24.45330
# Shear Modulus (GPa) = 10.61317 22.03520 16.32419
#
# Velocity S-wave (km/s) = 2.54461 3.66654 3.15583
# Velocity P-wave (km/s) = 3.95191 6.38577 5.31016
#
# Compressibility (1/GPa) = 0.08735312
#
# Stress axis : x y z
#
# Youngs Moduli (GPa) = 44.82363 30.11202 11.38051
#
# Poissons Ratio (x) = 0.50894 0.30108
# Poissons Ratio (y) = 0.75759 -0.17458
# Poissons Ratio (z) = 1.18585 -0.46191
#
# Static dielectric constant tensor:
#      x y z
#    x 1.584360 0.003600 0.012520 
#    y 0.003600 1.542090 -0.008610 
#    z 0.012520 -0.008610 1.550580 
# 
# From -- ./inp_files/349545.got.cif
#   From: 2010.05.17/outbox.cif.g08.bks.cpg/sg2_175_cif.got.tgz:349545.got - 2010.06.03 11:33:40.
