data_PCOD9079048
_publ_section_title
;
Structure prediction by ZEFSAII (Michael W. Deem and Ramdas Pophale) SiO2 
 PCOD9079048
Probable space group: P -1
;
_chemical_formula_sum "Si O2"
_cell_formula_units_Z 12
_cell_length_a 13.709564
_cell_length_b 5.393190
_cell_length_c 8.720710
_cell_angle_alpha 56.586880
_cell_angle_beta 69.718207
_cell_angle_gamma 87.515275
_cell_volume 495.810413
_symmetry_space_group_name_H-M "P -1"
_symmetry_group_IT_number 2
_symmetry_cell_setting 'triclinic'
loop_
_space_group_symop_operation_xyz
x,y,z
-x,-y,-z
loop_
_atom_site_type_symbol
_atom_site_label
_atom_site_fract_x
_atom_site_fract_y
_atom_site_fract_z
Si Si1 0.016273 0.164623 0.271905
Si Si2 0.761018 0.755593 0.028996
Si Si3 0.264858 0.774565 0.548301
Si Si4 0.613412 0.705879 0.855248
Si Si5 0.202009 0.394345 0.407823
Si Si6 0.066561 0.751898 0.157825
O O1 0.144771 0.243918 0.145591
O O2 0.995385 0.503975 0.174409
O O3 0.989727 0.947355 0.214334
O O4 0.000000 0.000000 0.500000
O O5 0.663703 0.805807 0.960224
O O6 0.824250 0.015147 0.020173
O O7 0.729946 0.439228 0.238829
O O8 0.226055 0.554718 0.502795
O O9 0.373323 0.991642 0.359371
O O10 0.190842 0.025350 0.537104
O O11 0.693825 0.525614 0.784856
O O12 0.500000 0.500000 0.000000
O O13 0.110654 0.551279 0.333112
#
# Coordination Sequence:
#
# PCOD9079048 Si02
#       6
#     2   2   2   2   2   2
#     4  10  20  34  61  94 116 152 202 242 292 358
#     4  10  22  37  64  86 120 160 199 244 303 347
#     4  10  22  36  59  89 117 157 202 244 294 355
#     4  10  22  40  62  87 121 159 201 248 297 351
#     4  10  19  40  56  86 116 157 197 243 291 355
#     4  10  18  36  62  81 116 161 193 236 301 348
#
# _framework density 24.202798000000001
#
# number of rings (size 3 to 8) (size 9 to 14) (size 15 to 20)
#    2.000    0.000    3.333    1.500    2.333    1.333 
#    0.000    0.833    0.000   11.000    0.000    0.000 
#    0.000    0.000    0.000    0.000    0.000    0.000 
#
# Total GULP energy -66900.068872 kJ/mol
# GULP energy per Si atom -5575.005739 kJ/mol
# Density = 2.414771 g / cm^3
# Si number density = 24.202798 Si / 1000 Ang^3
#
#
#
# Elastic Constant Matrix: (Units=GPa)
#
#
# Indices 1 2 3 4 5 6 
#
# 1 62.9138 27.1714 41.5210 -0.5391 -17.2457 13.4096
# 2 27.1714 187.8433 36.2619 -17.1081 -10.6197 22.5947
# 3 41.5210 36.2619 169.2364 -39.7231 -9.7373 10.8797
# 4 -0.5391 -17.1081 -39.7231 43.3891 2.0835 -2.7464
# 5 -17.2457 -10.6197 -9.7373 2.0835 24.1350 -5.7215
# 6 13.4096 22.5947 10.8797 -2.7464 -5.7215 25.7639
#
#
#
# Elastic Compliance Matrix: (Units=1/GPa)
#
#
# Indices 1 2 3 4 5 6 
#
# 1 0.026323 -0.001538 -0.006589 -0.007457 0.014420 -0.007162
# 2 -0.001538 0.006312 -0.000207 0.001986 0.000393 -0.004349
# 3 -0.006589 -0.000207 0.009484 0.008610 -0.001680 0.000150
# 4 -0.007457 0.001986 0.008610 0.031858 -0.003463 0.001131
# 5 0.014420 0.000393 -0.001680 -0.003463 0.052516 0.004153
# 6 -0.007162 -0.004349 0.000150 0.001131 0.004153 0.047335
#
#
# Mechanical properties :
#
#
# Convention : Reuss Voigt Hill
#
# Bulk Modulus (GPa) = 39.28981 69.98913 54.63947
# Shear Modulus (GPa) = 25.12825 39.66022 32.39423
#
# Velocity S-wave (km/s) = 3.22566 4.05243 3.66245
# Velocity P-wave (km/s) = 5.49018 7.13280 6.36470
#
# Compressibility (1/GPa) = 0.02545189
#
# Stress axis : x y z
#
# Youngs Moduli (GPa) = 37.98983 158.42340 105.43805
#
# Poissons Ratio (x) = 0.24368 0.69471
# Poissons Ratio (y) = 0.05843 0.02180
# Poissons Ratio (z) = 0.25031 0.03275
#
# Static dielectric constant tensor:
#      x y z
#    x 1.956860 0.068820 -0.074610 
#    y 0.068820 2.145400 -0.012520 
#    z -0.074610 -0.012520 2.014400 
# 
# From -- ./inp_files/35975.got.cif
#   From: 2010.05.17/outbox.cif.g08.bks.cpg/sg2_18_cif.got.tgz:35975.got - 2010.06.03 11:33:40.
