data_PCOD9079923
_publ_section_title
;
Structure prediction by ZEFSAII (Michael W. Deem and Ramdas Pophale) SiO2 
 PCOD9079923
Probable space group: P -1
;
_chemical_formula_sum "Si O2"
_cell_formula_units_Z 16
_cell_length_a 13.623562
_cell_length_b 10.081388
_cell_length_c 8.523358
_cell_angle_alpha 146.853444
_cell_angle_beta 98.780536
_cell_angle_gamma 80.776079
_cell_volume 631.437500
_symmetry_space_group_name_H-M "P -1"
_symmetry_group_IT_number 2
_symmetry_cell_setting 'triclinic'
loop_
_space_group_symop_operation_xyz
x,y,z
-x,-y,-z
loop_
_atom_site_type_symbol
_atom_site_label
_atom_site_fract_x
_atom_site_fract_y
_atom_site_fract_z
Si Si1 0.581006 0.223033 0.592393
Si Si2 0.267651 0.497839 0.276621
Si Si3 0.599684 0.901436 0.007421
Si Si4 0.382905 0.526189 0.844099
Si Si5 0.775747 0.720032 0.254150
Si Si6 0.235460 0.803865 0.837876
Si Si7 0.079923 0.023504 0.256392
Si Si8 0.964096 0.469110 0.139152
O O1 0.684544 0.319314 0.649990
O O2 0.484720 0.387908 0.673916
O O3 0.586257 0.265909 0.820622
O O4 0.582108 0.968499 0.252491
O O5 0.364173 0.377085 0.268525
O O6 0.199667 0.620319 0.513968
O O7 0.223797 0.303719 0.956814
O O8 0.500000 0.000000 0.000000
O O9 0.690176 0.029778 0.073009
O O10 0.327872 0.319615 0.725321
O O11 0.306544 0.649576 0.823935
O O12 0.844495 0.492611 0.113035
O O13 0.836753 0.940918 0.551014
O O14 0.146482 0.956250 0.053689
O O15 0.021793 0.288881 0.514319
O O16 0.012974 0.798406 0.052864
O O17 0.000000 0.500000 0.000000
#
# Coordination Sequence:
#
# PCOD9079923 Si02
#       8
#     2   2   2   2   2   2   2   2
#     4   9  21  35  52  77 112 161 205 261 304 355
#     4  10  22  39  52  83 121 164 207 250 309 359
#     4  11  23  33  52  77 118 165 210 250 312 353
#     4  10  18  38  55  80 115 151 214 259 308 347
#     4   9  22  36  63  88 118 160 201 255 305 370
#     4  11  22  35  58  81 118 158 202 258 296 364
#     4  10  22  37  66  97 118 157 202 247 303 367
#     4  10  21  40  68  99 124 151 196 254 310 374
#
# _framework density 25.339010999999999
#
# number of rings (size 3 to 8) (size 9 to 14) (size 15 to 20)
#    0.750    1.250    1.250    1.875    7.000    3.000 
#    0.000    2.500    0.000    1.500    0.000    0.000 
#    0.000    0.000    0.000    0.000    0.000    0.000 
#
# Total GULP energy -89298.531508 kJ/mol
# GULP energy per Si atom -5581.158219 kJ/mol
# Density = 2.528134 g / cm^3
# Si number density = 25.339011 Si / 1000 Ang^3
#
#
#
# Elastic Constant Matrix: (Units=GPa)
#
#
# Indices 1 2 3 4 5 6 
#
# 1 83.1935 25.8842 34.3779 -4.5637 -11.1380 7.5774
# 2 25.8842 78.3355 37.4553 -2.8801 2.9162 14.0335
# 3 34.3779 37.4553 166.2564 -10.9700 -29.1664 15.6692
# 4 -4.5637 -2.8801 -10.9700 34.2105 9.6471 -1.1039
# 5 -11.1380 2.9162 -29.1664 9.6471 14.1111 -9.2516
# 6 7.5774 14.0335 15.6692 -1.1039 -9.2516 35.0104
#
#
#
# Elastic Compliance Matrix: (Units=1/GPa)
#
#
# Indices 1 2 3 4 5 6 
#
# 1 0.016701 -0.009132 0.002622 -0.005475 0.028279 0.006172
# 2 -0.009132 0.027735 -0.012163 0.013460 -0.059784 -0.019071
# 3 0.002622 -0.012163 0.015267 -0.009319 0.049181 0.010178
# 4 -0.005475 0.013460 -0.009319 0.045369 -0.068303 -0.016658
# 5 0.028279 -0.059784 0.049181 -0.068303 0.302081 0.073504
# 6 0.006172 -0.019071 0.010178 -0.016658 0.073504 0.049215
#
#
# Mechanical properties :
#
#
# Convention : Reuss Voigt Hill
#
# Bulk Modulus (GPa) = 44.72698 58.13557 51.43127
# Shear Modulus (GPa) = 9.97672 32.00426 20.99049
#
# Velocity S-wave (km/s) = 1.98641 3.55779 2.88129
# Velocity P-wave (km/s) = 4.79071 6.31427 5.60450
#
# Compressibility (1/GPa) = 0.02235787
#
# Stress axis : x y z
#
# Youngs Moduli (GPa) = 59.87498 36.05489 65.50286
#
# Poissons Ratio (x) = 0.32925 -0.17174
# Poissons Ratio (y) = 0.54678 0.79668
# Poissons Ratio (z) = -0.15698 0.43852
#
# Static dielectric constant tensor:
#      x y z
#    x 2.012180 -0.023430 0.043260 
#    y -0.023430 2.056260 0.036900 
#    z 0.043260 0.036900 2.101380 
# 
# From -- ./inp_files/47061.got.cif
#   From: 2010.05.17/outbox.cif.g08.bks.cpg/sg2_24_cif.got.tgz:47061.got - 2010.06.03 11:33:40.
