data_PCOD9079318
_publ_section_title
;
Structure prediction by ZEFSAII (Michael W. Deem and Ramdas Pophale) SiO2 
 PCOD9079318
Probable space group: P -1
;
_chemical_formula_sum "Si O2"
_cell_formula_units_Z 13
_cell_length_a 9.510862
_cell_length_b 11.722669
_cell_length_c 9.145735
_cell_angle_alpha 124.120431
_cell_angle_beta 54.049252
_cell_angle_gamma 90.102555
_cell_volume 596.191138
_symmetry_space_group_name_H-M "P -1"
_symmetry_group_IT_number 2
_symmetry_cell_setting 'triclinic'
loop_
_space_group_symop_operation_xyz
x,y,z
-x,-y,-z
loop_
_atom_site_type_symbol
_atom_site_label
_atom_site_fract_x
_atom_site_fract_y
_atom_site_fract_z
Si Si1 0.572623 0.831148 0.413380
Si Si2 0.365675 0.156971 0.284273
Si Si3 0.000000 0.000000 0.000000
Si Si4 0.011431 0.728344 0.999478
Si Si5 0.052081 0.818395 0.346788
Si Si6 0.712498 0.293513 0.593423
Si Si7 0.195047 0.476166 0.454160
O O1 0.530812 0.850746 0.627844
O O2 0.806815 0.735440 0.175640
O O3 0.470164 0.737345 0.342339
O O4 0.500000 0.000000 0.500000
O O5 0.326634 0.299728 0.304097
O O6 0.150632 0.176898 0.471032
O O7 0.500000 0.000000 0.000000
O O8 0.036485 0.112741 0.943233
O O9 0.109116 0.847563 0.709844
O O10 0.113042 0.735024 0.092717
O O11 0.128615 0.580984 0.717294
O O12 0.221038 0.729540 0.297516
O O13 0.000000 0.000000 0.500000
O O14 0.690877 0.455705 0.663181
O O15 0.000000 0.500000 0.500000
#
# Coordination Sequence:
#
# PCOD9079318 Si02
#       7
#     2   2   1   2   2   2   2
#     4  11  23  42  67 108 140 178 225 293 349 406
#     4  11  27  45  71  98 140 181 236 292 346 413
#     4  10  18  36  66  96 128 188 220 274 332 422
#     4  10  23  40  71  94 141 179 235 279 346 409
#     4  11  21  42  67 108 131 186 233 279 344 425
#     4  11  22  39  71  98 140 184 231 277 354 415
#     4  11  25  47  69 100 136 192 238 282 347 414
#
# _framework density 21.805087
#
# number of rings (size 3 to 8) (size 9 to 14) (size 15 to 20)
#    0.000    1.231    4.615    0.923    4.308    3.077 
#    0.000    2.308    0.000    0.000    0.000    0.000 
#    0.000    0.000    0.000    0.000    0.000    0.000 
#
# Total GULP energy -72500.950419 kJ/mol
# GULP energy per Si atom -5576.996186 kJ/mol
# Density = 2.175546 g / cm^3
# Si number density = 21.805087 Si / 1000 Ang^3
#
#
#
# Elastic Constant Matrix: (Units=GPa)
#
#
# Indices 1 2 3 4 5 6 
#
# 1 147.1051 78.9084 35.6096 -8.7438 36.3530 -8.3467
# 2 78.9084 190.7099 50.3644 19.6068 16.1647 -1.5457
# 3 35.6096 50.3644 79.9434 7.8011 24.2466 -18.1232
# 4 -8.7438 19.6068 7.8011 39.4834 -4.3487 3.5463
# 5 36.3530 16.1647 24.2466 -4.3487 20.7399 -3.2243
# 6 -8.3467 -1.5457 -18.1232 3.5463 -3.2243 32.2641
#
#
#
# Elastic Compliance Matrix: (Units=1/GPa)
#
#
# Indices 1 2 3 4 5 6 
#
# 1 0.016399 -0.006071 0.006769 0.001500 -0.030913 0.004500
# 2 -0.006071 0.008886 -0.006407 -0.003081 0.010030 -0.003403
# 3 0.006769 -0.006407 0.030174 -0.007183 -0.041313 0.015055
# 4 0.001500 -0.003081 -0.007183 0.030637 0.013694 -0.005794
# 5 -0.030913 0.010030 -0.041313 0.013694 0.142965 -0.017941
# 6 0.004500 -0.003403 0.015055 -0.005794 -0.017941 0.039296
#
#
# Mechanical properties :
#
#
# Convention : Reuss Voigt Hill
#
# Bulk Modulus (GPa) = 22.70510 83.05814 52.88162
# Shear Modulus (GPa) = 16.98049 35.35588 26.16819
#
# Velocity S-wave (km/s) = 2.79362 4.03109 3.46800
# Velocity P-wave (km/s) = 4.56520 7.73564 6.35143
#
# Compressibility (1/GPa) = 0.04404297
#
# Stress axis : x y z
#
# Youngs Moduli (GPa) = 60.97757 112.53047 33.14090
#
# Poissons Ratio (x) = 0.68314 -0.22434
# Poissons Ratio (y) = 0.37018 0.21234
# Poissons Ratio (z) = -0.41278 0.72102
#
# Static dielectric constant tensor:
#      x y z
#    x 0.884120 -0.370310 -0.988210 
#    y -0.370310 1.624010 -0.375670 
#    z -0.988210 -0.375670 0.738310 
# 
# From -- ./inp_files/152818.got.cif
#   From: 2010.05.17/outbox.cif.g08.bks.cpg/sg2_77_cif.got.tgz:152818.got - 2010.06.03 11:33:40.
