data_PCOD9079763
_publ_section_title
;
Structure prediction by ZEFSAII (Michael W. Deem and Ramdas Pophale) SiO2 
 PCOD9079763
Probable space group: P -1
;
_chemical_formula_sum "Si O2"
_cell_formula_units_Z 12
_cell_length_a 13.442714
_cell_length_b 18.962441
_cell_length_c 10.379180
_cell_angle_alpha 138.178220
_cell_angle_beta 147.958212
_cell_angle_gamma 20.030006
_cell_volume 461.316729
_symmetry_space_group_name_H-M "P -1"
_symmetry_group_IT_number 2
_symmetry_cell_setting 'triclinic'
loop_
_space_group_symop_operation_xyz
x,y,z
-x,-y,-z
loop_
_atom_site_type_symbol
_atom_site_label
_atom_site_fract_x
_atom_site_fract_y
_atom_site_fract_z
Si Si1 0.734464 0.848790 0.932095
Si Si2 0.493533 0.686572 0.048355
Si Si3 0.753202 0.219214 0.588086
Si Si4 0.718724 0.569491 0.875574
Si Si5 0.326515 0.229178 0.476758
Si Si6 0.752543 0.414949 0.283035
O O1 0.952837 0.843560 0.114424
O O2 0.031063 0.628285 0.030396
O O3 0.493521 0.920795 0.649321
O O4 0.500000 0.000000 0.000000
O O5 0.386196 0.825258 0.227404
O O6 0.929137 0.457404 0.276136
O O7 0.492264 0.736577 0.971337
O O8 0.286462 0.674494 0.800495
O O9 0.550387 0.355634 0.419708
O O10 0.417103 0.399155 0.572343
O O11 0.000000 0.000000 0.500000
O O12 0.000000 0.500000 0.000000
O O13 0.154958 0.249204 0.437009
O O14 0.500000 0.500000 0.000000
#
# Coordination Sequence:
#
# PCOD9079763 Si02
#       6
#     2   2   2   2   2   2
#     4  11  23  41  64 100 133 169 218 271 327 392
#     4   9  18  33  62  92 119 166 214 259 317 392
#     4  12  24  40  66  97 132 170 218 273 327 385
#     4  11  22  40  64  94 133 173 214 267 334 387
#     4   9  18  36  63  93 126 167 218 261 329 389
#     4  10  18  37  64  92 122 171 216 261 324 391
#
# _framework density 26.012498000000001
#
# number of rings (size 3 to 8) (size 9 to 14) (size 15 to 20)
#    0.000    1.667    5.000    2.500    0.000    5.333 
#    0.000    0.000    3.667   13.000    0.000    0.000 
#    0.000    0.000    0.000    0.000    0.000    0.000 
#
# Total GULP energy -66812.216894 kJ/mol
# GULP energy per Si atom -5567.684741 kJ/mol
# Density = 2.595329 g / cm^3
# Si number density = 26.012498 Si / 1000 Ang^3
#
#
#
# Elastic Constant Matrix: (Units=GPa)
#
#
# Indices 1 2 3 4 5 6 
#
# 1 132.0360 42.3142 39.6439 18.3926 -20.5521 -19.3201
# 2 42.3142 92.5864 43.7744 19.4809 -19.3574 -13.3708
# 3 39.6439 43.7744 116.1704 21.3952 -27.9769 1.0850
# 4 18.3926 19.4809 21.3952 35.6596 -9.9284 -11.2744
# 5 -20.5521 -19.3574 -27.9769 -9.9284 47.8395 19.5169
# 6 -19.3201 -13.3708 1.0850 -11.2744 19.5169 34.5713
#
#
#
# Elastic Compliance Matrix: (Units=1/GPa)
#
#
# Indices 1 2 3 4 5 6 
#
# 1 0.009840 -0.002631 -0.002258 -0.000953 -0.000112 0.004305
# 2 -0.002631 0.015226 -0.004083 -0.003350 0.000700 0.003059
# 3 -0.002258 -0.004083 0.014145 -0.005886 0.008512 -0.010010
# 4 -0.000953 -0.003350 -0.005886 0.036955 -0.002318 0.011717
# 5 -0.000112 0.000700 0.008512 -0.002318 0.033738 -0.019861
# 6 0.004305 0.003059 -0.010010 0.011717 -0.019861 0.047862
#
#
# Mechanical properties :
#
#
# Convention : Reuss Voigt Hill
#
# Bulk Modulus (GPa) = 47.02014 65.80640 56.41327
# Shear Modulus (GPa) = 27.35249 37.95144 32.65196
#
# Velocity S-wave (km/s) = 3.24622 3.82379 3.54678
# Velocity P-wave (km/s) = 5.67149 6.69687 6.20540
#
# Compressibility (1/GPa) = 0.02126748
#
# Stress axis : x y z
#
# Youngs Moduli (GPa) = 101.62525 65.67616 70.69849
#
# Poissons Ratio (x) = 0.17276 0.15966
# Poissons Ratio (y) = 0.26733 0.28865
# Poissons Ratio (z) = 0.22950 0.26815
#
# Static dielectric constant tensor:
#      x y z
#    x 2.276040 -0.399090 0.061260 
#    y -0.399090 2.873330 0.032780 
#    z 0.061260 0.032780 1.945850 
# 
# From -- ./inp_files/457165.got.cif
#   From: 2010.05.17/outbox.cif.g08.bks.cpg/sg2_229_cif.got.tgz:457165.got - 2010.06.03 11:33:40.
