data_PCOD9079167
_publ_section_title
;
Structure prediction by ZEFSAII (Michael W. Deem and Ramdas Pophale) SiO2 
 PCOD9079167
Probable space group: P -1
;
_chemical_formula_sum "Si O2"
_cell_formula_units_Z 16
_cell_length_a 12.157818
_cell_length_b 22.537675
_cell_length_c 8.589896
_cell_angle_alpha 154.038501
_cell_angle_beta 53.557956
_cell_angle_gamma 136.706219
_cell_volume 692.124765
_symmetry_space_group_name_H-M "P -1"
_symmetry_group_IT_number 2
_symmetry_cell_setting 'triclinic'
loop_
_space_group_symop_operation_xyz
x,y,z
-x,-y,-z
loop_
_atom_site_type_symbol
_atom_site_label
_atom_site_fract_x
_atom_site_fract_y
_atom_site_fract_z
Si Si1 0.395015 0.764021 0.199866
Si Si2 0.746049 0.822779 0.562214
Si Si3 0.854136 0.127701 0.410019
Si Si4 0.751941 0.705844 0.866064
Si Si5 0.368314 0.031842 0.252199
Si Si6 0.469540 0.384985 0.471915
Si Si7 0.883192 0.563952 0.239181
Si Si8 0.085288 0.916435 0.396204
O O1 0.285423 0.837115 0.432239
O O2 0.552786 0.880893 0.444813
O O3 0.443906 0.710402 0.875513
O O4 0.293240 0.602825 0.013044
O O5 0.652699 0.861990 0.606049
O O6 0.623565 0.675763 0.430936
O O7 0.889666 0.813514 0.338810
O O8 0.832032 0.982383 0.979897
O O9 0.031318 0.291787 0.616165
O O10 0.848984 0.087577 0.498986
O O11 0.607807 0.576154 0.794275
O O12 0.659868 0.665106 0.678595
O O13 0.874434 0.647454 0.600309
O O14 0.855159 0.897591 0.252263
O O15 0.184810 0.885390 0.109554
O O16 0.500000 0.000000 0.000000
O O17 0.000000 0.500000 0.000000
#
# Coordination Sequence:
#
# PCOD9079167 Si02
#       8
#     2   2   2   2   2   2   2   2
#     4  10  21  40  62  96 127 165 209 258 318 368
#     4  12  23  39  62  95 129 164 211 251 317 377
#     4  11  20  36  69  97 124 156 218 265 312 365
#     4  10  18  36  63  90 126 151 205 267 313 355
#     4  12  26  42  60  87 135 172 207 253 316 383
#     4  10  21  36  65  95 120 159 209 268 306 366
#     4   9  19  34  60  95 124 158 199 264 316 365
#     4  12  24  41  65  97 123 168 211 267 312 367
#
# _framework density 23.117217
#
# number of rings (size 3 to 8) (size 9 to 14) (size 15 to 20)
#    0.000    1.250    5.000    1.500    1.750    1.000 
#    0.000    0.625    2.750    0.750    0.000    0.000 
#    0.000    0.000    0.000    0.000    0.000    0.000 
#
# Total GULP energy -89408.132717 kJ/mol
# GULP energy per Si atom -5588.008295 kJ/mol
# Density = 2.306460 g / cm^3
# Si number density = 23.117217 Si / 1000 Ang^3
#
#
#
# Elastic Constant Matrix: (Units=GPa)
#
#
# Indices 1 2 3 4 5 6 
#
# 1 102.5748 57.5974 12.5064 -3.9733 -3.9638 6.4847
# 2 57.5974 232.3277 36.6050 8.3536 -11.4896 11.6467
# 3 12.5064 36.6050 49.9913 0.7431 -9.5457 11.7225
# 4 -3.9733 8.3536 0.7431 35.3553 12.1753 -10.7365
# 5 -3.9638 -11.4896 -9.5457 12.1753 29.0676 -5.5927
# 6 6.4847 11.6467 11.7225 -10.7365 -5.5927 43.7017
#
#
#
# Elastic Compliance Matrix: (Units=1/GPa)
#
#
# Indices 1 2 3 4 5 6 
#
# 1 0.011512 -0.002810 -0.000946 0.002174 -0.000815 -0.000276
# 2 -0.002810 0.005669 -0.002913 -0.002413 0.001781 -0.000677
# 3 -0.000946 -0.002913 0.025317 -0.004429 0.007740 -0.005972
# 4 0.002174 -0.002413 -0.004429 0.037355 -0.016099 0.008626
# 5 -0.000815 0.001781 0.007740 -0.016099 0.044139 -0.000736
# 6 -0.000276 -0.000677 -0.005972 0.008626 -0.000736 0.026731
#
#
# Mechanical properties :
#
#
# Convention : Reuss Voigt Hill
#
# Bulk Modulus (GPa) = 34.29278 66.47904 50.38591
# Shear Modulus (GPa) = 28.77201 40.17060 34.47131
#
# Velocity S-wave (km/s) = 3.53174 4.17309 3.86573
# Velocity P-wave (km/s) = 5.61225 7.21383 6.46284
#
# Compressibility (1/GPa) = 0.02916066
#
# Stress axis : x y z
#
# Youngs Moduli (GPa) = 86.86469 176.41077 39.49873
#
# Poissons Ratio (x) = 0.49565 0.03737
# Poissons Ratio (y) = 0.24406 0.11506
# Poissons Ratio (z) = 0.08218 0.51388
#
# Static dielectric constant tensor:
#      x y z
#    x 1.885380 0.051600 -0.025340 
#    y 0.051600 1.901130 -0.049430 
#    z -0.025340 -0.049430 1.937950 
# 
# From -- ./inp_files/282545.got.cif
#   From: 2010.05.17/outbox.cif.g08.bks.cpg/sg2_142_cif.got.tgz:282545.got - 2010.06.03 11:33:40.
