data_PCOD9079383
_publ_section_title
;
Structure prediction by ZEFSAII (Michael W. Deem and Ramdas Pophale) SiO2 
 PCOD9079383
Probable space group: P -1
;
_chemical_formula_sum "Si O2"
_cell_formula_units_Z 16
_cell_length_a 18.216652
_cell_length_b 11.432503
_cell_length_c 6.394008
_cell_angle_alpha 69.040637
_cell_angle_beta 124.072160
_cell_angle_gamma 135.451182
_cell_volume 771.814399
_symmetry_space_group_name_H-M "P -1"
_symmetry_group_IT_number 2
_symmetry_cell_setting 'triclinic'
loop_
_space_group_symop_operation_xyz
x,y,z
-x,-y,-z
loop_
_atom_site_type_symbol
_atom_site_label
_atom_site_fract_x
_atom_site_fract_y
_atom_site_fract_z
Si Si1 0.159313 0.565148 0.862397
Si Si2 0.750172 0.987235 0.619768
Si Si3 0.557305 0.922462 0.051745
Si Si4 0.051487 0.717681 0.468673
Si Si5 0.676467 0.365277 0.287656
Si Si6 0.717732 0.175425 0.763324
Si Si7 0.921755 0.965299 0.093781
Si Si8 0.902944 0.716529 0.537504
O O1 0.117625 0.648113 0.613962
O O2 0.260319 0.599491 0.859098
O O3 0.046386 0.370697 0.811570
O O4 0.191441 0.651784 0.078623
O O5 0.848205 0.087877 0.528898
O O6 0.767882 0.111389 0.743521
O O7 0.630636 0.917847 0.353377
O O8 0.794434 0.904216 0.861581
O O9 0.458347 0.734193 0.925866
O O10 0.500000 0.000000 0.000000
O O11 0.638550 0.042864 0.908728
O O12 0.976460 0.669563 0.586812
O O13 0.660169 0.220801 0.483894
O O14 0.766749 0.539559 0.449210
O O15 0.898490 0.822378 0.289880
O O16 0.009817 0.142866 0.242117
O O17 0.000000 0.000000 0.000000
#
# Coordination Sequence:
#
# PCOD9079383 Si02
#       8
#     2   2   2   2   2   2   2   2
#     4  10  20  33  55  87 133 157 195 251 301 380
#     4  12  24  37  62  97 121 169 209 251 315 372
#     4  12  23  42  59  91 136 168 208 251 297 382
#     4  10  18  37  53  89 128 155 193 253 309 369
#     4  11  23  39  60  92 125 170 207 248 308 373
#     4  12  21  35  61  92 125 169 203 245 317 367
#     4  11  24  44  68  90 123 162 213 265 322 365
#     4  10  24  42  65  91 123 161 210 266 311 368
#
# _framework density 20.730370000000001
#
# number of rings (size 3 to 8) (size 9 to 14) (size 15 to 20)
#    0.000    1.000    6.250    1.125    1.750    0.500 
#    0.000    0.625    0.000    1.500    0.000    0.000 
#    0.000    0.000    0.000    0.000    0.000    0.000 
#
# Total GULP energy -89080.509885 kJ/mol
# GULP energy per Si atom -5567.531868 kJ/mol
# Density = 2.068319 g / cm^3
# Si number density = 20.730370 Si / 1000 Ang^3
#
#
#
# Elastic Constant Matrix: (Units=GPa)
#
#
# Indices 1 2 3 4 5 6 
#
# 1 50.8197 10.7155 38.3957 5.5268 5.4822 -4.7488
# 2 10.7155 73.3507 31.7336 7.8458 7.7608 2.3230
# 3 38.3957 31.7336 89.6383 -0.3523 16.6831 7.2260
# 4 5.5268 7.8458 -0.3523 47.6829 -2.2642 2.9077
# 5 5.4822 7.7608 16.6831 -2.2642 28.3989 1.4124
# 6 -4.7488 2.3230 7.2260 2.9077 1.4124 18.0948
#
#
#
# Elastic Compliance Matrix: (Units=1/GPa)
#
#
# Indices 1 2 3 4 5 6 
#
# 1 0.033916 0.002270 -0.016941 -0.005338 0.001558 0.016111
# 2 0.002270 0.016666 -0.006776 -0.003229 -0.001358 0.001787
# 3 -0.016941 -0.006776 0.023282 0.003673 -0.007622 -0.012869
# 4 -0.005338 -0.003229 0.003673 0.022618 0.001868 -0.006234
# 5 0.001558 -0.001358 -0.007622 0.001868 0.039899 0.000212
# 6 0.016111 0.001787 -0.012869 -0.006234 0.000212 0.065388
#
#
# Mechanical properties :
#
#
# Convention : Reuss Voigt Hill
#
# Bulk Modulus (GPa) = 32.28980 41.72202 37.00591
# Shear Modulus (GPa) = 19.60895 27.69958 23.65426
#
# Velocity S-wave (km/s) = 3.07889 3.65935 3.38160
# Velocity P-wave (km/s) = 5.31501 6.16638 5.75645
#
# Compressibility (1/GPa) = 0.03096953
#
# Stress axis : x y z
#
# Youngs Moduli (GPa) = 29.48445 60.00385 42.95176
#
# Poissons Ratio (x) = -0.13624 0.72765
# Poissons Ratio (y) = -0.06694 0.29106
# Poissons Ratio (z) = 0.49950 0.40662
#
# Static dielectric constant tensor:
#      x y z
#    x 1.725640 -0.000390 0.005940 
#    y -0.000390 1.818290 0.028810 
#    z 0.005940 0.028810 1.873760 
# 
# From -- ./inp_files/80204.got.cif
#   From: 2010.05.17/outbox.cif.g08.bks.cpg/sg2_41_cif.got.tgz:80204.got - 2010.06.03 11:33:40.
