data_PCOD9079006
_publ_section_title
;
Structure prediction by ZEFSAII (Michael W. Deem and Ramdas Pophale) SiO2 
 PCOD9079006
Probable space group: P -1
;
_chemical_formula_sum "Si O2"
_cell_formula_units_Z 16
_cell_length_a 8.497301
_cell_length_b 24.160583
_cell_length_c 20.486860
_cell_angle_alpha 17.284017
_cell_angle_beta 147.831240
_cell_angle_gamma 146.170296
_cell_volume 658.591368
_symmetry_space_group_name_H-M "P -1"
_symmetry_group_IT_number 2
_symmetry_cell_setting 'triclinic'
loop_
_space_group_symop_operation_xyz
x,y,z
-x,-y,-z
loop_
_atom_site_type_symbol
_atom_site_label
_atom_site_fract_x
_atom_site_fract_y
_atom_site_fract_z
Si Si1 0.226945 0.864004 0.258357
Si Si2 0.620111 0.674529 0.800730
Si Si3 0.375705 0.202860 0.017660
Si Si4 0.148748 0.988626 0.879890
Si Si5 0.831232 0.840039 0.434422
Si Si6 0.202227 0.927216 0.595441
Si Si7 0.199465 0.563814 0.181903
Si Si8 0.063720 0.625207 0.577577
O O1 0.479795 0.833912 0.330337
O O2 0.073631 0.666956 0.456985
O O3 0.397891 0.998687 0.222902
O O4 0.000000 0.000000 0.000000
O O5 0.576057 0.888666 0.558398
O O6 0.412910 0.626708 0.718208
O O7 0.500000 0.500000 0.000000
O O8 0.971473 0.680161 0.932888
O O9 0.604255 0.220254 0.139042
O O10 0.480117 0.348242 0.833054
O O11 0.047790 0.178373 0.961584
O O12 0.077793 0.992251 0.773833
O O13 0.060157 0.184440 0.656171
O O14 0.500000 0.000000 0.000000
O O15 0.879026 0.645821 0.636865
O O16 0.003102 0.854954 0.545901
O O17 0.000000 0.000000 0.500000
O O18 0.130136 0.540267 0.261741
#
# Coordination Sequence:
#
# PCOD9079006 Si02
#       8
#     2   2   2   2   2   2   2   2
#     4  11  21  40  67  88 115 175 227 252 308 382
#     4  10  18  36  61  88 125 168 195 246 320 381
#     4  11  22  41  64  88 127 171 209 260 321 380
#     4  10  21  41  62  87 121 165 216 266 312 364
#     4  11  23  38  62  97 129 163 213 266 317 377
#     4  12  20  39  63  90 131 165 211 258 316 393
#     4  10  22  38  61  97 129 164 203 261 329 374
#     4   9  19  39  60  86 123 164 207 250 315 375
#
# _framework density 24.294276
#
# number of rings (size 3 to 8) (size 9 to 14) (size 15 to 20)
#    0.000    1.500    5.000    1.500    0.000    1.000 
#    0.000    8.750    0.000    0.000    0.000    0.000 
#    0.000    0.000    0.000    0.000    0.000    0.000 
#
# Total GULP energy -89204.140755 kJ/mol
# GULP energy per Si atom -5575.258797 kJ/mol
# Density = 2.423898 g / cm^3
# Si number density = 24.294276 Si / 1000 Ang^3
#
#
#
# Elastic Constant Matrix: (Units=GPa)
#
#
# Indices 1 2 3 4 5 6 
#
# 1 79.4532 24.8167 17.5925 -3.5423 -28.7534 32.1476
# 2 24.8167 55.7418 24.1436 5.8807 -23.2676 25.3431
# 3 17.5925 24.1436 84.6263 2.2260 -29.7844 20.3279
# 4 -3.5423 5.8807 2.2260 50.7700 13.7404 -4.3030
# 5 -28.7534 -23.2676 -29.7844 13.7404 46.2336 -12.8151
# 6 32.1476 25.3431 20.3279 -4.3030 -12.8151 41.0201
#
#
#
# Elastic Compliance Matrix: (Units=1/GPa)
#
#
# Indices 1 2 3 4 5 6 
#
# 1 0.023095 0.002504 0.003929 -0.004279 0.014578 -0.017488
# 2 0.002504 0.032677 0.000467 -0.009530 0.016043 -0.018370
# 3 0.003929 0.000467 0.017662 -0.004830 0.013129 -0.008525
# 4 -0.004279 -0.009530 -0.004830 0.025736 -0.015594 0.009462
# 5 0.014578 0.016043 0.013129 -0.015594 0.047833 -0.014535
# 6 -0.017488 -0.018370 -0.008525 0.009462 -0.014535 0.050109
#
#
# Mechanical properties :
#
#
# Convention : Reuss Voigt Hill
#
# Bulk Modulus (GPa) = 11.46366 39.21409 25.33888
# Shear Modulus (GPa) = 23.54141 37.82266 30.68203
#
# Velocity S-wave (km/s) = 3.11627 3.94998 3.55763
# Velocity P-wave (km/s) = 4.20441 6.08107 5.22765
#
# Compressibility (1/GPa) = 0.08723215
#
# Stress axis : x y z
#
# Youngs Moduli (GPa) = 43.29986 30.60262 56.61729
#
# Poissons Ratio (x) = -0.07662 -0.22243
# Poissons Ratio (y) = -0.10841 -0.02641
# Poissons Ratio (z) = -0.17011 -0.01428
#
# Static dielectric constant tensor:
#      x y z
#    x 2.038710 0.081060 -0.056240 
#    y 0.081060 2.018530 0.006470 
#    z -0.056240 0.006470 1.946370 
# 
# From -- ./inp_files/508919.got.cif
#   From: 2010.05.17/outbox.cif.g08.bks.cpg/sg2_255_cif.got.tgz:508919.got - 2010.06.03 11:33:40.
