data_PCOD9079406
_publ_section_title
;
Structure prediction by ZEFSAII (Michael W. Deem and Ramdas Pophale) SiO2 
 PCOD9079406
Probable space group: P -1
;
_chemical_formula_sum "Si O2"
_cell_formula_units_Z 16
_cell_length_a 17.709113
_cell_length_b 16.331775
_cell_length_c 15.748363
_cell_angle_alpha 18.563840
_cell_angle_beta 142.801388
_cell_angle_gamma 136.207977
_cell_volume 863.501354
_symmetry_space_group_name_H-M "P -1"
_symmetry_group_IT_number 2
_symmetry_cell_setting 'triclinic'
loop_
_space_group_symop_operation_xyz
x,y,z
-x,-y,-z
loop_
_atom_site_type_symbol
_atom_site_label
_atom_site_fract_x
_atom_site_fract_y
_atom_site_fract_z
Si Si1 0.670588 0.576721 0.905370
Si Si2 0.408302 0.372153 0.852792
Si Si3 0.690057 0.309807 0.694437
Si Si4 0.209932 0.064201 0.573998
Si Si5 0.411465 0.278696 0.133309
Si Si6 0.461815 0.075667 0.701792
Si Si7 0.885435 0.409695 0.134468
Si Si8 0.177857 0.224620 0.583015
O O1 0.550672 0.426992 0.942851
O O2 0.682224 0.668430 0.922112
O O3 0.620247 0.810903 0.565079
O O4 0.795407 0.423962 0.122718
O O5 0.321802 0.614908 0.490429
O O6 0.357583 0.294121 0.974353
O O7 0.434444 0.149789 0.023620
O O8 0.544219 0.279158 0.614511
O O9 0.740654 0.545883 0.554341
O O10 0.776913 0.037290 0.064470
O O11 0.360156 0.000845 0.749259
O O12 0.189355 0.133971 0.584827
O O13 0.148888 0.818284 0.732329
O O14 0.149078 0.317270 0.215393
O O15 0.500000 0.000000 0.500000
O O16 0.500000 0.500000 0.000000
O O17 0.032258 0.345663 0.351860
#
# Coordination Sequence:
#
# PCOD9079406 Si02
#       8
#     2   2   2   2   2   2   2   2
#     4   9  19  33  58  90 111 143 178 231 291 331
#     4  10  18  37  56  83 117 144 177 228 288 335
#     4  11  24  38  56  80 114 157 189 223 279 334
#     4  11  23  38  61  84 109 144 189 245 289 319
#     4  10  19  30  56  88 117 137 175 226 284 345
#     4  10  19  36  58  82 118 144 179 234 289 332
#     4  11  22  39  61  81 115 145 186 240 284 323
#     4  12  24  40  56  81 111 155 200 226 265 339
#
# _framework density 18.529212999999999
#
# number of rings (size 3 to 8) (size 9 to 14) (size 15 to 20)
#    0.000    1.500    3.750    2.250    0.000    1.000 
#    0.000    0.000    0.000    1.500    0.000    0.000 
#    0.000    0.000    0.000    0.000    0.000    0.000 
#
# Total GULP energy -89204.800725 kJ/mol
# GULP energy per Si atom -5575.300045 kJ/mol
# Density = 1.848704 g / cm^3
# Si number density = 18.529213 Si / 1000 Ang^3
#
#
#
# Elastic Constant Matrix: (Units=GPa)
#
#
# Indices 1 2 3 4 5 6 
#
# 1 89.1229 108.2183 46.2903 26.6738 16.5476 -16.0012
# 2 108.2183 747.2387 209.2800 84.8550 49.7217 59.8045
# 3 46.2903 209.2800 147.1095 23.3468 5.7159 6.3167
# 4 26.6738 84.8550 23.3468 41.6407 6.1794 3.5228
# 5 16.5476 49.7217 5.7159 6.1794 16.2010 -5.4901
# 6 -16.0012 59.8045 6.3167 3.5228 -5.4901 23.3707
#
#
#
# Elastic Compliance Matrix: (Units=1/GPa)
#
#
# Indices 1 2 3 4 5 6 
#
# 1 0.027453 -0.007347 0.000919 -0.008302 0.011332 0.041261
# 2 -0.007347 0.010347 -0.009064 -0.003512 -0.031924 -0.036029
# 3 0.000919 -0.009064 0.016863 0.001957 0.028913 0.025762
# 4 -0.008302 -0.003512 0.001957 0.034786 0.004850 -0.001329
# 5 0.011332 -0.031924 0.028913 0.004850 0.177635 0.122635
# 6 0.041261 -0.036029 0.025762 -0.001329 0.122635 0.185280
#
#
# Mechanical properties :
#
#
# Convention : Reuss Voigt Hill
#
# Bulk Modulus (GPa) = 42.23118 190.11647 116.17383
# Shear Modulus (GPa) = 10.17831 57.55465 33.86648
#
# Velocity S-wave (km/s) = 2.34628 5.57934 4.27984
# Velocity P-wave (km/s) = 5.49374 12.01381 9.34112
#
# Compressibility (1/GPa) = 0.02367919
#
# Stress axis : x y z
#
# Youngs Moduli (GPa) = 36.42611 96.64301 59.30287
#
# Poissons Ratio (x) = 0.71000 -0.05447
# Poissons Ratio (y) = 0.26761 0.53750
# Poissons Ratio (z) = -0.03346 0.87594
#
# Static dielectric constant tensor:
#      x y z
#    x 1.649200 -0.008370 -0.018160 
#    y -0.008370 1.671760 -0.028480 
#    z -0.018160 -0.028480 1.679310 
# 
# From -- ./inp_files/98289.got.cif
#   From: 2010.05.17/outbox.cif.g08.bks.cpg/sg2_50_cif.got.tgz:98289.got - 2010.06.03 11:33:40.
