data_PCOD9079353
_publ_section_title
;
Structure prediction by ZEFSAII (Michael W. Deem and Ramdas Pophale) SiO2 
 PCOD9079353
Probable space group: P -1
;
_chemical_formula_sum "Si O2"
_cell_formula_units_Z 12
_cell_length_a 10.563444
_cell_length_b 8.251486
_cell_length_c 8.572288
_cell_angle_alpha 129.951417
_cell_angle_beta 88.028191
_cell_angle_gamma 65.802504
_cell_volume 472.779908
_symmetry_space_group_name_H-M "P -1"
_symmetry_group_IT_number 2
_symmetry_cell_setting 'triclinic'
loop_
_space_group_symop_operation_xyz
x,y,z
-x,-y,-z
loop_
_atom_site_type_symbol
_atom_site_label
_atom_site_fract_x
_atom_site_fract_y
_atom_site_fract_z
Si Si1 0.660445 0.500687 0.863547
Si Si2 0.997825 0.755436 0.288353
Si Si3 0.957769 0.048931 0.208750
Si Si4 0.141010 0.248913 0.422960
Si Si5 0.356963 0.385610 0.402075
Si Si6 0.498161 0.749032 0.351829
O O1 0.824210 0.462057 0.831438
O O2 0.578910 0.663185 0.807486
O O3 0.651393 0.255768 0.678032
O O4 0.598290 0.591455 0.097388
O O5 0.891583 0.704819 0.363187
O O6 0.000000 0.000000 0.500000
O O7 0.950083 0.832028 0.160419
O O8 0.797478 0.322410 0.410344
O O9 0.106009 0.040844 0.257511
O O10 0.000000 0.000000 0.000000
O O11 0.294357 0.209051 0.332650
O O12 0.000000 0.500000 0.500000
O O13 0.450538 0.354740 0.536106
O O14 0.500000 0.000000 0.500000
#
# Coordination Sequence:
#
# PCOD9079353 Si02
#       6
#     2   2   2   2   2   2
#     4  11  23  48  68  93 137 172 220 282 326 388
#     4  10  18  36  68  93 127 173 201 267 346 388
#     4  10  20  35  60  98 131 167 210 263 335 400
#     4   9  18  36  58  91 130 160 202 265 323 396
#     4  11  22  44  64  93 136 169 218 276 331 394
#     4  11  28  45  68  95 126 182 235 270 324 392
#
# _framework density 25.381791
#
# number of rings (size 3 to 8) (size 9 to 14) (size 15 to 20)
#    0.000    1.667    5.000    1.500    4.667    0.667 
#    6.000    2.500    0.000    0.000    0.000    0.000 
#    0.000    0.000    0.000    0.000    0.000    0.000 
#
# Total GULP energy -66919.260363 kJ/mol
# GULP energy per Si atom -5576.605030 kJ/mol
# Density = 2.532402 g / cm^3
# Si number density = 25.381791 Si / 1000 Ang^3
#
#
#
# Elastic Constant Matrix: (Units=GPa)
#
#
# Indices 1 2 3 4 5 6 
#
# 1 55.1684 17.6531 3.6748 5.0757 13.1796 0.5192
# 2 17.6531 137.8034 43.5101 -47.8681 -3.3779 7.7746
# 3 3.6748 43.5101 92.1803 -23.5689 1.5721 -4.9868
# 4 5.0757 -47.8681 -23.5689 45.5488 13.1015 0.4011
# 5 13.1796 -3.3779 1.5721 13.1015 34.8537 -8.1731
# 6 0.5192 7.7746 -4.9868 0.4011 -8.1731 42.0995
#
#
#
# Elastic Compliance Matrix: (Units=1/GPa)
#
#
# Indices 1 2 3 4 5 6 
#
# 1 0.021823 -0.004891 0.000098 -0.005564 -0.006784 -0.000618
# 2 -0.004891 0.014010 -0.002794 0.014730 -0.003046 -0.003589
# 3 0.000098 -0.002794 0.013486 0.004676 -0.002294 0.001622
# 4 -0.005564 0.014730 0.004676 0.044772 -0.014773 -0.005392
# 5 -0.006784 -0.003046 -0.002294 -0.014773 0.038491 0.007988
# 6 -0.000618 -0.003589 0.001622 -0.005392 0.007988 0.026218
#
#
# Mechanical properties :
#
#
# Convention : Reuss Voigt Hill
#
# Bulk Modulus (GPa) = 29.28606 46.09200 37.68903
# Shear Modulus (GPa) = 26.97527 39.18802 33.08164
#
# Velocity S-wave (km/s) = 3.26357 3.93357 3.61413
# Velocity P-wave (km/s) = 5.07587 6.23133 5.68304
#
# Compressibility (1/GPa) = 0.03414594
#
# Stress axis : x y z
#
# Youngs Moduli (GPa) = 45.82275 71.37729 74.15260
#
# Poissons Ratio (x) = 0.34909 -0.00728
# Poissons Ratio (y) = 0.22411 0.20717
# Poissons Ratio (z) = -0.00450 0.19942
#
# Static dielectric constant tensor:
#      x y z
#    x 1.978980 0.033840 -0.035320 
#    y 0.033840 2.154910 -0.036820 
#    z -0.035320 -0.036820 2.092790 
# 
# From -- ./inp_files/241466.got.cif
#   From: 2010.05.17/outbox.cif.g08.bks.cpg/sg2_121_cif.got.tgz:241466.got - 2010.06.03 11:33:40.
