data_PCOD9079744
_publ_section_title
;
Structure prediction by ZEFSAII (Michael W. Deem and Ramdas Pophale) SiO2 
 PCOD9079744
Probable space group: P -1
;
_chemical_formula_sum "Si O2"
_cell_formula_units_Z 12
_cell_length_a 10.069235
_cell_length_b 10.266226
_cell_length_c 7.960344
_cell_angle_alpha 139.151285
_cell_angle_beta 75.183267
_cell_angle_gamma 83.641154
_cell_volume 456.153430
_symmetry_space_group_name_H-M "P -1"
_symmetry_group_IT_number 2
_symmetry_cell_setting 'triclinic'
loop_
_space_group_symop_operation_xyz
x,y,z
-x,-y,-z
loop_
_atom_site_type_symbol
_atom_site_label
_atom_site_fract_x
_atom_site_fract_y
_atom_site_fract_z
Si Si1 0.780821 0.546746 0.327612
Si Si2 0.540258 0.762998 0.862654
Si Si3 0.795198 0.116928 0.359029
Si Si4 0.787520 0.134062 0.776547
Si Si5 0.956425 0.768513 0.659958
Si Si6 0.488869 0.915819 0.600146
O O1 0.650704 0.557243 0.512211
O O2 0.903713 0.585025 0.438451
O O3 0.667020 0.760185 0.454838
O O4 0.838593 0.326680 0.981429
O O5 0.392011 0.772026 0.010634
O O6 0.500000 0.000000 0.000000
O O7 0.625123 0.831747 0.041787
O O8 0.807835 0.069187 0.509936
O O9 0.610919 0.214875 0.477483
O O10 0.864021 0.287157 0.465033
O O11 0.887992 0.909752 0.993808
O O12 0.881504 0.945532 0.701345
O O13 0.500000 0.000000 0.500000
#
# Coordination Sequence:
#
# PCOD9079744 Si02
#       6
#     2   2   2   2   2   2
#     4  11  23  40  69  93 127 172 214 263 326 378
#     4  10  18  37  64  89 123 163 206 260 319 370
#     4  11  24  40  69  93 129 175 214 259 327 384
#     4  12  23  42  68  97 126 171 218 266 321 382
#     4  11  23  47  63  91 136 171 211 269 316 384
#     4  11  19  39  66  95 124 169 215 264 317 381
#
# _framework density 26.306940000000001
#
# number of rings (size 3 to 8) (size 9 to 14) (size 15 to 20)
#    0.000    1.000    6.667    2.000    0.000    1.333 
#    3.000    3.333    0.000    0.000    0.000    0.000 
#    0.000    0.000    0.000    0.000    0.000    0.000 
#
# Total GULP energy -66848.853567 kJ/mol
# GULP energy per Si atom -5570.737797 kJ/mol
# Density = 2.624706 g / cm^3
# Si number density = 26.306940 Si / 1000 Ang^3
#
#
#
# Elastic Constant Matrix: (Units=GPa)
#
#
# Indices 1 2 3 4 5 6 
#
# 1 149.0061 33.1540 40.1857 0.7338 21.1366 39.4744
# 2 33.1540 91.3423 56.1689 -21.4630 3.1775 2.5062
# 3 40.1857 56.1689 97.7770 -21.5675 33.7601 -6.4782
# 4 0.7338 -21.4630 -21.5675 48.3827 0.3445 2.3163
# 5 21.1366 3.1775 33.7601 0.3445 36.8804 0.1243
# 6 39.4744 2.5062 -6.4782 2.3163 0.1243 51.4529
#
#
#
# Elastic Compliance Matrix: (Units=1/GPa)
#
#
# Indices 1 2 3 4 5 6 
#
# 1 0.010692 -0.002075 -0.003188 -0.002080 -0.002983 -0.008402
# 2 -0.002075 0.021650 -0.015934 0.002511 0.013892 -0.001616
# 3 -0.003188 -0.015934 0.031584 0.006910 -0.025800 0.006950
# 4 -0.002080 0.002511 0.006910 0.024875 -0.005586 0.001237
# 5 -0.002983 0.013892 -0.025800 -0.005586 0.051301 -0.001509
# 6 -0.008402 -0.001616 0.006950 0.001237 -0.001509 0.026783
#
#
# Mechanical properties :
#
#
# Convention : Reuss Voigt Hill
#
# Bulk Modulus (GPa) = 46.44251 66.34918 56.39584
# Shear Modulus (GPa) = 23.09937 41.25098 32.17518
#
# Velocity S-wave (km/s) = 2.96644 3.96418 3.50103
# Velocity P-wave (km/s) = 5.42452 6.79918 6.15038
#
# Compressibility (1/GPa) = 0.02153200
#
# Stress axis : x y z
#
# Youngs Moduli (GPa) = 93.52959 46.18848 31.66199
#
# Poissons Ratio (x) = 0.09584 0.10094
# Poissons Ratio (y) = 0.19406 0.50451
# Poissons Ratio (z) = 0.29817 0.73597
#
# Static dielectric constant tensor:
#      x y z
#    x 2.214610 0.006290 0.146850 
#    y 0.006290 2.076050 0.133880 
#    z 0.146850 0.133880 1.975940 
# 
# From -- ./inp_files/250958.got.cif
#   From: 2010.05.17/outbox.cif.g08.bks.cpg/sg2_126_cif.got.tgz:250958.got - 2010.06.03 11:33:40.
