data_PCOD9079477
_publ_section_title
;
Structure prediction by ZEFSAII (Michael W. Deem and Ramdas Pophale) SiO2 
 PCOD9079477
Probable space group: P -1
;
_chemical_formula_sum "Si O2"
_cell_formula_units_Z 12
_cell_length_a 10.362495
_cell_length_b 19.792074
_cell_length_c 8.355415
_cell_angle_alpha 52.223884
_cell_angle_beta 41.883280
_cell_angle_gamma 24.863242
_cell_volume 468.784158
_symmetry_space_group_name_H-M "P -1"
_symmetry_group_IT_number 2
_symmetry_cell_setting 'triclinic'
loop_
_space_group_symop_operation_xyz
x,y,z
-x,-y,-z
loop_
_atom_site_type_symbol
_atom_site_label
_atom_site_fract_x
_atom_site_fract_y
_atom_site_fract_z
Si Si1 0.711588 0.892992 0.620008
Si Si2 0.311786 0.608772 0.246198
Si Si3 0.308115 0.452544 0.662066
Si Si4 0.315082 0.365188 0.272026
Si Si5 0.601447 0.826942 0.364304
Si Si6 0.701500 0.732630 0.045753
O O1 0.122268 0.718221 0.425891
O O2 0.500000 0.000000 0.500000
O O3 0.656759 0.992224 0.646006
O O4 0.553510 0.865605 0.880450
O O5 0.489920 0.451875 0.372797
O O6 0.978574 0.705869 0.291072
O O7 0.492842 0.618684 0.970330
O O8 0.478086 0.293862 0.752731
O O9 0.912378 0.583025 0.744945
O O10 0.123820 0.558325 0.841716
O O11 0.562499 0.194730 0.362442
O O12 0.000000 0.500000 0.500000
O O13 0.689644 0.769108 0.185453
#
# Coordination Sequence:
#
# PCOD9079477 Si02
#       6
#     2   2   2   2   2   2
#     4   9  19  38  62  86 116 160 196 239 292 349
#     4   9  21  38  62  88 119 157 197 236 293 351
#     4   9  20  37  58  86 122 157 191 239 293 349
#     4  11  21  39  61  89 117 158 197 242 293 348
#     4  10  20  36  61  91 119 157 191 242 289 349
#     4  10  18  37  59  88 124 153 190 245 294 344
#
# _framework density 25.598133000000001
#
# number of rings (size 3 to 8) (size 9 to 14) (size 15 to 20)
#    0.000    2.333    1.667    1.500    0.000    3.333 
#    0.000   10.833    0.000    6.000    0.000    0.000 
#    0.000    0.000    0.000    0.000    0.000    0.000 
#
# Total GULP energy -67076.333902 kJ/mol
# GULP energy per Si atom -5589.694492 kJ/mol
# Density = 2.553987 g / cm^3
# Si number density = 25.598133 Si / 1000 Ang^3
#
#
#
# Elastic Constant Matrix: (Units=GPa)
#
#
# Indices 1 2 3 4 5 6 
#
# 1 89.5696 29.0220 74.0909 -6.8917 4.8272 43.6143
# 2 29.0220 100.4724 68.6580 -40.8973 -1.3478 35.2965
# 3 74.0909 68.6580 255.0206 -60.9818 -16.5492 18.2167
# 4 -6.8917 -40.8973 -60.9818 57.7888 4.9311 -0.2043
# 5 4.8272 -1.3478 -16.5492 4.9311 47.8132 1.3058
# 6 43.6143 35.2965 18.2167 -0.2043 1.3058 46.2021
#
#
#
# Elastic Compliance Matrix: (Units=1/GPa)
#
#
# Indices 1 2 3 4 5 6 
#
# 1 0.034061 0.009707 -0.010241 0.000495 -0.005795 -0.035366
# 2 0.009707 0.025520 -0.004441 0.014658 -0.002578 -0.026771
# 3 -0.010241 -0.004441 0.008715 0.004594 0.003191 0.009554
# 4 0.000495 0.014658 0.004594 0.032627 -0.001048 -0.013302
# 5 -0.005795 -0.002578 0.003191 -0.001048 0.022488 0.005542
# 6 -0.035366 -0.026771 0.009554 -0.013302 0.005542 0.071499
#
#
# Mechanical properties :
#
#
# Convention : Reuss Voigt Hill
#
# Bulk Modulus (GPa) = 17.13866 87.62271 52.38068
# Shear Modulus (GPa) = 22.29064 48.58026 35.43545
#
# Velocity S-wave (km/s) = 2.95412 4.36111 3.72465
# Velocity P-wave (km/s) = 4.28317 7.72421 6.24536
#
# Compressibility (1/GPa) = 0.05834762
#
# Stress axis : x y z
#
# Youngs Moduli (GPa) = 29.35886 39.18435 114.74107
#
# Poissons Ratio (x) = -0.38036 1.17503
# Poissons Ratio (y) = -0.28498 0.50955
# Poissons Ratio (z) = 0.30065 0.17401
#
# Static dielectric constant tensor:
#      x y z
#    x 2.246620 -0.072310 -0.049960 
#    y -0.072310 2.120320 0.011990 
#    z -0.049960 0.011990 1.999630 
# 
# From -- ./inp_files/59954.got.cif
#   From: 2010.05.17/outbox.cif.g08.bks.cpg/sg2_30_cif.got.tgz:59954.got - 2010.06.03 11:33:40.
