data_PCOD9079096
_publ_section_title
;
Structure prediction by ZEFSAII (Michael W. Deem and Ramdas Pophale) SiO2 
 PCOD9079096
Probable space group: P -1
;
_chemical_formula_sum "Si O2"
_cell_formula_units_Z 14
_cell_length_a 8.799165
_cell_length_b 8.733948
_cell_length_c 9.613459
_cell_angle_alpha 107.480163
_cell_angle_beta 88.500633
_cell_angle_gamma 98.991946
_cell_volume 695.861051
_symmetry_space_group_name_H-M "P -1"
_symmetry_group_IT_number 2
_symmetry_cell_setting 'triclinic'
loop_
_space_group_symop_operation_xyz
x,y,z
-x,-y,-z
loop_
_atom_site_type_symbol
_atom_site_label
_atom_site_fract_x
_atom_site_fract_y
_atom_site_fract_z
Si Si1 0.823656 0.384534 0.561390
Si Si2 0.504359 0.813764 0.417906
Si Si3 0.322300 0.288070 0.349385
Si Si4 0.398272 0.120632 0.871456
Si Si5 0.603863 0.249434 0.150005
Si Si6 0.121637 0.153786 0.081665
Si Si7 0.923017 0.408679 0.257077
O O1 0.672004 0.272766 0.588291
O O2 0.765732 0.558998 0.593331
O O3 0.880420 0.338801 0.395554
O O4 0.971575 0.418591 0.668444
O O5 0.612879 0.752975 0.515187
O O6 0.572683 0.807016 0.261326
O O7 0.500000 0.000000 0.500000
O O8 0.472864 0.323822 0.257179
O O9 0.211171 0.149596 0.226848
O O10 0.377744 0.922468 0.821515
O O11 0.543032 0.189865 0.984030
O O12 0.252103 0.172204 0.966407
O O13 0.757920 0.379042 0.180410
O O14 0.029170 0.302924 0.141892
O O15 0.000000 0.000000 0.000000
#
# Coordination Sequence:
#
# PCOD9079096 Si02
#       7
#     2   2   2   2   2   2   2
#     4  10  22  38  63  89 118 156 197 244 296 351
#     4  12  22  37  61  92 121 148 200 252 295 339
#     4  10  21  38  63  90 114 161 200 236 291 358
#     4  10  21  35  59  90 122 150 197 250 290 346
#     4  10  18  36  62  89 111 161 202 235 290 356
#     4  10  20  36  62  87 118 158 201 236 290 358
#     4  10  19  36  64  84 115 159 205 234 284 359
#
# _framework density 20.118959
#
# number of rings (size 3 to 8) (size 9 to 14) (size 15 to 20)
#    0.000    1.714    4.286    0.429    0.000    0.000 
#    0.000    7.857    9.429    0.000    0.000    0.000 
#    0.000    0.000    0.000    0.000    0.000    0.000 
#
# Total GULP energy -78101.775073 kJ/mol
# GULP energy per Si atom -5578.698220 kJ/mol
# Density = 2.007317 g / cm^3
# Si number density = 20.118959 Si / 1000 Ang^3
#
#
#
# Elastic Constant Matrix: (Units=GPa)
#
#
# Indices 1 2 3 4 5 6 
#
# 1 117.6972 33.6381 41.6586 4.5058 9.6555 36.2983
# 2 33.6381 53.8706 35.3176 3.6708 14.6008 30.2663
# 3 41.6586 35.3176 101.9744 -6.4476 3.9804 30.3651
# 4 4.5058 3.6708 -6.4476 25.0331 3.0475 2.6381
# 5 9.6555 14.6008 3.9804 3.0475 46.9319 15.7616
# 6 36.2983 30.2663 30.3651 2.6381 15.7616 32.5354
#
#
#
# Elastic Compliance Matrix: (Units=1/GPa)
#
#
# Indices 1 2 3 4 5 6 
#
# 1 0.013362 0.000498 -0.001290 -0.001501 0.002412 -0.015214
# 2 0.000498 0.040288 -0.004482 -0.003551 -0.000900 -0.033127
# 3 -0.001290 -0.004482 0.015354 0.005551 0.003675 -0.010952
# 4 -0.001501 -0.003551 0.005551 0.042603 -0.000711 -0.003313
# 5 0.002412 -0.000900 0.003675 -0.000711 0.026969 -0.018291
# 6 -0.015214 -0.033127 -0.010952 -0.003313 -0.018291 0.097877
#
#
# Mechanical properties :
#
#
# Convention : Reuss Voigt Hill
#
# Bulk Modulus (GPa) = 17.10649 54.97453 36.04051
# Shear Modulus (GPa) = 18.76263 31.76194 25.26228
#
# Velocity S-wave (km/s) = 3.05714 3.97760 3.54735
# Velocity P-wave (km/s) = 4.58067 6.96270 5.89329
#
# Compressibility (1/GPa) = 0.05845736
#
# Stress axis : x y z
#
# Youngs Moduli (GPa) = 74.83786 24.82119 65.12795
#
# Poissons Ratio (x) = -0.01237 0.08402
# Poissons Ratio (y) = -0.03729 0.29190
# Poissons Ratio (z) = 0.09654 0.11125
#
# Static dielectric constant tensor:
#      x y z
#    x 1.753130 0.004680 0.034250 
#    y 0.004680 1.705890 0.035710 
#    z 0.034250 0.035710 1.753110 
# 
# From -- ./inp_files/155311.got.cif
#   From: 2010.05.17/outbox.cif.g08.bks.cpg/sg2_78_cif.got.tgz:155311.got - 2010.06.03 11:33:40.
