data_PCOD9079968
_publ_section_title
;
Structure prediction by ZEFSAII (Michael W. Deem and Ramdas Pophale) SiO2 
 PCOD9079968
Probable space group: P -1
;
_chemical_formula_sum "Si O2"
_cell_formula_units_Z 14
_cell_length_a 15.220508
_cell_length_b 13.159389
_cell_length_c 9.125408
_cell_angle_alpha 130.740998
_cell_angle_beta 146.112501
_cell_angle_gamma 37.349958
_cell_volume 618.119592
_symmetry_space_group_name_H-M "P -1"
_symmetry_group_IT_number 2
_symmetry_cell_setting 'triclinic'
loop_
_space_group_symop_operation_xyz
x,y,z
-x,-y,-z
loop_
_atom_site_type_symbol
_atom_site_label
_atom_site_fract_x
_atom_site_fract_y
_atom_site_fract_z
Si Si1 0.529285 0.466877 0.681998
Si Si2 0.657758 0.038277 0.795654
Si Si3 0.244707 0.421269 0.773822
Si Si4 0.330497 0.370415 0.518461
Si Si5 0.765875 0.864978 0.366659
Si Si6 0.324464 0.131909 0.076880
Si Si7 0.959488 0.221527 0.098969
O O1 0.500000 0.500000 0.500000
O O2 0.363111 0.473425 0.547128
O O3 0.563314 0.593008 0.924397
O O4 0.740092 0.282513 0.822877
O O5 0.683160 0.002147 0.968893
O O6 0.868024 0.908746 0.892178
O O7 0.500000 0.000000 0.500000
O O8 0.544138 0.221788 0.744461
O O9 0.216279 0.452304 0.588921
O O10 0.255336 0.266430 0.701942
O O11 0.081529 0.596508 0.792975
O O12 0.256476 0.283733 0.235663
O O13 0.945331 0.851136 0.678027
O O14 0.553840 0.043383 0.268477
O O15 0.789774 0.823008 0.189870
#
# Coordination Sequence:
#
# PCOD9079968 Si02
#       7
#     2   2   2   2   2   2   2
#     4  10  24  41  60  85 117 159 202 239 289 348
#     4  10  18  38  59  88 116 153 192 236 297 344
#     4  10  22  37  64  83 119 157 196 241 293 352
#     4  11  19  40  63  82 117 163 195 234 297 346
#     4  11  18  38  57  93 117 150 195 242 298 337
#     4  10  21  32  64  88 121 150 193 244 287 351
#     4  10  22  38  59  87 122 153 195 241 294 352
#
# _framework density 22.649336999999999
#
# number of rings (size 3 to 8) (size 9 to 14) (size 15 to 20)
#    0.857    0.857    4.286    2.571    0.000    0.571 
#    2.571    1.429    0.000    1.714    0.000    0.000 
#    0.000    0.000    0.000    0.000    0.000    0.000 
#
# Total GULP energy -78042.523378 kJ/mol
# GULP energy per Si atom -5574.465956 kJ/mol
# Density = 2.259779 g / cm^3
# Si number density = 22.649337 Si / 1000 Ang^3
#
#
#
# Elastic Constant Matrix: (Units=GPa)
#
#
# Indices 1 2 3 4 5 6 
#
# 1 105.7168 -4.6767 28.5647 11.5726 -29.5233 17.4793
# 2 -4.6767 34.5183 -15.4279 2.2034 7.7752 -7.2775
# 3 28.5647 -15.4279 76.7757 -2.8883 -32.5562 7.3071
# 4 11.5726 2.2034 -2.8883 22.9015 -6.8111 -3.5721
# 5 -29.5233 7.7752 -32.5562 -6.8111 40.6576 -4.2041
# 6 17.4793 -7.2775 7.3071 -3.5721 -4.2041 30.7867
#
#
#
# Elastic Compliance Matrix: (Units=1/GPa)
#
#
# Indices 1 2 3 4 5 6 
#
# 1 0.013786 -0.001810 -0.002100 -0.006194 0.006858 -0.007539
# 2 -0.001810 0.033379 0.005462 -0.001341 -0.002816 0.007081
# 3 -0.002100 0.005462 0.022260 0.008383 0.016706 0.000454
# 4 -0.006194 -0.001341 0.008383 0.053048 0.012293 0.009044
# 5 0.006858 -0.002816 0.016706 0.012293 0.045459 -0.000890
# 6 -0.007539 0.007081 0.000454 0.009044 -0.000890 0.039255
#
#
# Mechanical properties :
#
#
# Convention : Reuss Voigt Hill
#
# Bulk Modulus (GPa) = 13.78736 25.99234 19.88985
# Shear Modulus (GPa) = 21.90479 32.77254 27.33867
#
# Velocity S-wave (km/s) = 3.11324 3.80801 3.47802
# Velocity P-wave (km/s) = 4.36160 5.55297 4.99295
#
# Compressibility (1/GPa) = 0.07253022
#
# Stress axis : x y z
#
# Youngs Moduli (GPa) = 72.53548 29.95883 44.92299
#
# Poissons Ratio (x) = 0.05422 0.09435
# Poissons Ratio (y) = 0.13127 -0.24538
# Poissons Ratio (z) = 0.15235 -0.16364
#
# Static dielectric constant tensor:
#      x y z
#    x 1.855950 -0.017070 0.028490 
#    y -0.017070 1.932730 -0.019300 
#    z 0.028490 -0.019300 1.896030 
# 
# From -- ./inp_files/314024.got.cif
#   From: 2010.05.17/outbox.cif.g08.bks.cpg/sg2_158_cif.got.tgz:314024.got - 2010.06.03 11:33:40.
