data_PCOD9079515
_publ_section_title
;
Structure prediction by ZEFSAII (Michael W. Deem and Ramdas Pophale) SiO2 
 PCOD9079515
Probable space group: P -1
;
_chemical_formula_sum "Si O2"
_cell_formula_units_Z 14
_cell_length_a 7.632541
_cell_length_b 9.326140
_cell_length_c 12.691943
_cell_angle_alpha 51.262269
_cell_angle_beta 66.948553
_cell_angle_gamma 83.506418
_cell_volume 637.383793
_symmetry_space_group_name_H-M "P -1"
_symmetry_group_IT_number 2
_symmetry_cell_setting 'triclinic'
loop_
_space_group_symop_operation_xyz
x,y,z
-x,-y,-z
loop_
_atom_site_type_symbol
_atom_site_label
_atom_site_fract_x
_atom_site_fract_y
_atom_site_fract_z
Si Si1 0.782350 0.075801 0.383505
Si Si2 0.831091 0.497865 0.125587
Si Si3 0.521909 0.672211 0.997528
Si Si4 0.782244 0.530877 0.703244
Si Si5 0.787366 0.894368 0.683809
Si Si6 0.185267 0.464773 0.649836
Si Si7 0.593919 0.713508 0.476271
O O1 0.994767 0.518360 0.619300
O O2 0.644169 0.914591 0.426917
O O3 0.744863 0.277219 0.264033
O O4 0.009911 0.062375 0.320588
O O5 0.686283 0.622805 0.057989
O O6 0.883576 0.568999 0.197819
O O7 0.000000 0.500000 0.000000
O O8 0.328228 0.647766 0.123213
O O9 0.500000 0.500000 0.000000
O O10 0.607870 0.852283 0.825346
O O11 0.799081 0.705412 0.700669
O O12 0.651562 0.575051 0.616710
O O13 0.768310 0.039208 0.529380
O O14 0.376943 0.627176 0.531115
O O15 0.260325 0.298384 0.649072
#
# Coordination Sequence:
#
# PCOD9079515 Si02
#       7
#     2   2   2   2   2   2   2
#     4  10  20  37  60  95 122 159 202 263 308 349
#     4  12  21  38  65  93 118 160 206 254 305 366
#     4  10  19  35  58  91 123 160 202 252 309 368
#     4  10  18  37  60  88 118 167 204 249 301 372
#     4   9  18  35  59  90 127 154 201 257 309 357
#     4  11  22  40  60  90 123 163 213 245 305 374
#     4  10  23  39  60  89 126 165 204 254 304 370
#
# _framework density 21.964787999999999
#
# number of rings (size 3 to 8) (size 9 to 14) (size 15 to 20)
#    0.000    1.714    4.286    1.286    0.000    0.571 
#    0.000    0.714    0.000    0.857    0.000    0.000 
#    0.000    0.000    0.000    0.000    0.000    0.000 
#
# Total GULP energy -78176.706446 kJ/mol
# GULP energy per Si atom -5584.050460 kJ/mol
# Density = 2.191479 g / cm^3
# Si number density = 21.964788 Si / 1000 Ang^3
#
#
#
# Elastic Constant Matrix: (Units=GPa)
#
#
# Indices 1 2 3 4 5 6 
#
# 1 87.2564 17.6717 23.6301 4.4808 -30.4200 -4.4554
# 2 17.6717 46.5282 25.1179 13.7114 0.1325 -5.9911
# 3 23.6301 25.1179 131.7792 3.2849 -15.8180 -3.8500
# 4 4.4808 13.7114 3.2849 31.4704 -2.7668 -3.9905
# 5 -30.4200 0.1325 -15.8180 -2.7668 27.9385 6.6226
# 6 -4.4554 -5.9911 -3.8500 -3.9905 6.6226 23.2736
#
#
#
# Elastic Compliance Matrix: (Units=1/GPa)
#
#
# Indices 1 2 3 4 5 6 
#
# 1 0.022001 -0.010499 0.000960 0.002970 0.026086 -0.005246
# 2 -0.010499 0.033875 -0.006210 -0.013138 -0.018468 0.008685
# 3 0.000960 -0.006210 0.009336 0.002013 0.006914 -0.001493
# 4 0.002970 -0.013138 0.002013 0.037776 0.007752 0.001791
# 5 0.026086 -0.018468 0.006914 0.007752 0.073264 -0.018135
# 6 -0.005246 0.008685 -0.001493 0.001791 -0.018135 0.049419
#
#
# Mechanical properties :
#
#
# Convention : Reuss Voigt Hill
#
# Bulk Modulus (GPa) = 29.66131 44.26701 36.96416
# Shear Modulus (GPa) = 18.62848 29.81278 24.22063
#
# Velocity S-wave (km/s) = 2.91539 3.68815 3.32430
# Velocity P-wave (km/s) = 4.98658 6.19144 5.62139
#
# Compressibility (1/GPa) = 0.03371395
#
# Stress axis : x y z
#
# Youngs Moduli (GPa) = 45.45312 29.52041 107.11229
#
# Poissons Ratio (x) = 0.30994 -0.10283
# Poissons Ratio (y) = 0.47722 0.66513
# Poissons Ratio (z) = -0.04364 0.18331
#
# Static dielectric constant tensor:
#      x y z
#    x 1.641870 -0.038550 -0.129710 
#    y -0.038550 1.804970 0.009820 
#    z -0.129710 0.009820 1.819310 
# 
# From -- ./inp_files/381262.got.cif
#   From: 2010.05.17/outbox.cif.g08.bks.cpg/sg2_191_cif.got.tgz:381262.got - 2010.06.03 11:33:40.
