data_PCOD9079739
_publ_section_title
;
Structure prediction by ZEFSAII (Michael W. Deem and Ramdas Pophale) SiO2 
 PCOD9079739
Probable space group: P -1
;
_chemical_formula_sum "Si O2"
_cell_formula_units_Z 16
_cell_length_a 8.781344
_cell_length_b 13.457285
_cell_length_c 9.894499
_cell_angle_alpha 107.332767
_cell_angle_beta 126.479309
_cell_angle_gamma 108.858739
_cell_volume 680.574759
_symmetry_space_group_name_H-M "P -1"
_symmetry_group_IT_number 2
_symmetry_cell_setting 'triclinic'
loop_
_space_group_symop_operation_xyz
x,y,z
-x,-y,-z
loop_
_atom_site_type_symbol
_atom_site_label
_atom_site_fract_x
_atom_site_fract_y
_atom_site_fract_z
Si Si1 0.219996 0.898223 0.409906
Si Si2 0.567510 0.261982 0.056114
Si Si3 0.328546 0.787982 0.656020
Si Si4 0.105652 0.229243 0.567703
Si Si5 0.479994 0.199722 0.675197
Si Si6 0.148060 0.486537 0.397746
Si Si7 0.509134 0.474383 0.171253
Si Si8 0.018854 0.359664 0.983930
O O1 0.365767 0.866473 0.570154
O O2 0.082503 0.792091 0.170238
O O3 0.012569 0.862427 0.396558
O O4 0.381121 0.053679 0.515174
O O5 0.480246 0.167571 0.103954
O O6 0.469640 0.343470 0.048636
O O7 0.869074 0.383415 0.270759
O O8 0.510406 0.197404 0.852980
O O9 0.230248 0.637919 0.498658
O O10 0.129254 0.793762 0.626380
O O11 0.264727 0.208506 0.551832
O O12 0.295205 0.392334 0.761193
O O13 0.755582 0.326804 0.816270
O O14 0.345649 0.494385 0.596612
O O15 0.116376 0.421908 0.208923
O O16 0.258204 0.450434 0.050405
#
# Coordination Sequence:
#
# PCOD9079739 Si02
#       8
#     2   2   2   2   2   2   2   2
#     4  10  22  42  57  81 119 157 199 241 269 336
#     4  10  18  37  64  89 109 154 190 245 291 340
#     4   9  19  36  63  87 115 140 193 245 294 323
#     4  10  21  38  63  87 113 151 187 255 285 329
#     4  11  24  38  60  84 120 156 203 226 281 343
#     4  10  18  38  60  90 116 150 186 241 295 357
#     4  11  20  38  61  90 123 139 190 245 301 346
#     4  11  25  36  58  86 123 161 182 230 302 348
#
# _framework density 23.509540000000001
#
# number of rings (size 3 to 8) (size 9 to 14) (size 15 to 20)
#    0.750    1.000    2.500    2.625    0.000    6.500 
#    0.000    0.000    0.000    3.750    0.000    0.000 
#    0.000    0.000    0.000    0.000    0.000    0.000 
#
# Total GULP energy -89189.143716 kJ/mol
# GULP energy per Si atom -5574.321482 kJ/mol
# Density = 2.345603 g / cm^3
# Si number density = 23.509540 Si / 1000 Ang^3
#
#
#
# Elastic Constant Matrix: (Units=GPa)
#
#
# Indices 1 2 3 4 5 6 
#
# 1 126.5123 39.4702 18.4622 -7.8481 1.7820 -5.5412
# 2 39.4702 89.3975 26.1148 -16.0963 7.7070 -14.9803
# 3 18.4622 26.1148 46.0225 -4.4156 -14.2781 -9.4689
# 4 -7.8481 -16.0963 -4.4156 24.7002 1.7348 -3.4902
# 5 1.7820 7.7070 -14.2781 1.7348 41.4260 6.3464
# 6 -5.5412 -14.9803 -9.4689 -3.4902 6.3464 36.1242
#
#
#
# Elastic Compliance Matrix: (Units=1/GPa)
#
#
# Indices 1 2 3 4 5 6 
#
# 1 0.009288 -0.003554 -0.001881 0.000257 -0.000327 -0.000460
# 2 -0.003554 0.019721 -0.009703 0.011677 -0.008532 0.007716
# 3 -0.001881 -0.009703 0.032123 -0.001838 0.012777 0.001686
# 4 0.000257 0.011677 -0.001838 0.049766 -0.006486 0.010348
# 5 -0.000327 -0.008532 0.012777 -0.006486 0.031394 -0.006381
# 6 -0.000460 0.007716 0.001686 0.010348 -0.006381 0.033374
#
#
# Mechanical properties :
#
#
# Convention : Reuss Voigt Hill
#
# Bulk Modulus (GPa) = 32.40864 47.78074 40.09469
# Shear Modulus (GPa) = 23.12377 32.30908 27.71643
#
# Velocity S-wave (km/s) = 3.13963 3.71117 3.43730
# Velocity P-wave (km/s) = 5.19213 6.22349 5.73106
#
# Compressibility (1/GPa) = 0.03085597
#
# Stress axis : x y z
#
# Youngs Moduli (GPa) = 107.66548 50.70791 31.12995
#
# Poissons Ratio (x) = 0.18022 0.05854
# Poissons Ratio (y) = 0.38265 0.30207
# Poissons Ratio (z) = 0.20248 0.49204
#
# Static dielectric constant tensor:
#      x y z
#    x 1.952700 -0.015940 -0.004710 
#    y -0.015940 1.866660 -0.011300 
#    z -0.004710 -0.011300 1.927850 
# 
# From -- ./inp_files/396265.got.cif
#   From: 2010.05.17/outbox.cif.g08.bks.cpg/sg2_199_cif.got.tgz:396265.got - 2010.06.03 11:33:40.
