data_PCOD9079754
_publ_section_title
;
Structure prediction by ZEFSAII (Michael W. Deem and Ramdas Pophale) SiO2 
 PCOD9079754
Probable space group: P -1
;
_chemical_formula_sum "Si O2"
_cell_formula_units_Z 16
_cell_length_a 9.759941
_cell_length_b 14.294735
_cell_length_c 12.500616
_cell_angle_alpha 136.739993
_cell_angle_beta 63.757989
_cell_angle_gamma 82.475628
_cell_volume 724.691261
_symmetry_space_group_name_H-M "P -1"
_symmetry_group_IT_number 2
_symmetry_cell_setting 'triclinic'
loop_
_space_group_symop_operation_xyz
x,y,z
-x,-y,-z
loop_
_atom_site_type_symbol
_atom_site_label
_atom_site_fract_x
_atom_site_fract_y
_atom_site_fract_z
Si Si1 0.052761 0.134491 0.688730
Si Si2 0.065801 0.101831 0.015341
Si Si3 0.745912 0.816064 0.809803
Si Si4 0.804517 0.570063 0.771754
Si Si5 0.557108 0.417683 0.031548
Si Si6 0.617843 0.181954 0.527596
Si Si7 0.787962 0.702678 0.305869
Si Si8 0.935808 0.397658 0.154649
O O1 0.160487 0.171006 0.597880
O O2 0.822261 0.220305 0.798015
O O3 0.238426 0.914378 0.493212
O O4 0.988867 0.269753 0.927212
O O5 0.228028 0.959654 0.742709
O O6 0.186841 0.105250 0.069737
O O7 0.883225 0.327304 0.211576
O O8 0.000000 0.000000 0.000000
O O9 0.744076 0.684364 0.777011
O O10 0.952882 0.661727 0.526605
O O11 0.500000 0.000000 0.000000
O O12 0.608316 0.595939 0.892197
O O13 0.853543 0.652963 0.913690
O O14 0.491413 0.598465 0.269989
O O15 0.500000 0.500000 0.000000
O O16 0.426207 0.192705 0.604881
O O17 0.769960 0.625058 0.356064
O O18 0.000000 0.500000 0.000000
#
# Coordination Sequence:
#
# PCOD9079754 Si02
#       8
#     2   2   2   2   2   2   2   2
#     4  10  22  40  65  92 124 164 213 254 304 371
#     4  10  22  41  63  94 124 154 214 266 304 366
#     4  10  23  43  64  93 121 168 212 254 315 370
#     4  10  23  41  64  90 132 164 204 260 313 371
#     4  12  25  41  62  96 133 166 204 256 321 383
#     4  11  23  40  65  92 124 164 212 259 313 360
#     4  10  18  37  64  91 120 161 211 252 298 372
#     4   9  19  38  65  90 119 164 208 250 304 371
#
# _framework density 22.078368000000001
#
# number of rings (size 3 to 8) (size 9 to 14) (size 15 to 20)
#    0.000    1.750    2.500    1.875    3.500    3.500 
#    2.250    0.625    0.000    0.000    0.000    0.000 
#    0.000    0.000    0.000    0.000    0.000    0.000 
#
# Total GULP energy -89318.202655 kJ/mol
# GULP energy per Si atom -5582.387666 kJ/mol
# Density = 2.202812 g / cm^3
# Si number density = 22.078368 Si / 1000 Ang^3
#
#
#
# Elastic Constant Matrix: (Units=GPa)
#
#
# Indices 1 2 3 4 5 6 
#
# 1 124.5336 68.5475 45.4040 -3.6662 -24.1988 5.6957
# 2 68.5475 123.6716 41.9740 8.4630 -24.6175 15.5016
# 3 45.4040 41.9740 86.6380 9.6518 -22.4096 -1.3390
# 4 -3.6662 8.4630 9.6518 30.0659 -5.0126 -5.8937
# 5 -24.1988 -24.6175 -22.4096 -5.0126 41.6381 -0.8626
# 6 5.6957 15.5016 -1.3390 -5.8937 -0.8626 45.1048
#
#
#
# Elastic Compliance Matrix: (Units=1/GPa)
#
#
# Indices 1 2 3 4 5 6 
#
# 1 0.013453 -0.006043 -0.003981 0.005276 0.002759 0.001002
# 2 -0.006043 0.013613 -0.002332 -0.004254 0.002677 -0.004489
# 3 -0.003981 -0.002332 0.016447 -0.004061 0.004699 0.001352
# 4 0.005276 -0.004254 -0.004061 0.038033 0.003062 0.005704
# 5 0.002759 0.002677 0.004699 0.003062 0.030097 -0.000153
# 6 0.001002 -0.004489 0.001352 0.005704 -0.000153 0.024369
#
#
# Mechanical properties :
#
#
# Convention : Reuss Voigt Hill
#
# Bulk Modulus (GPa) = 53.18631 71.85492 62.52061
# Shear Modulus (GPa) = 29.94148 35.28961 32.61555
#
# Velocity S-wave (km/s) = 3.68658 4.00231 3.84769
# Velocity P-wave (km/s) = 6.50102 7.34670 6.93676
#
# Compressibility (1/GPa) = 0.01880183
#
# Stress axis : x y z
#
# Youngs Moduli (GPa) = 74.33031 73.45741 60.80135
#
# Poissons Ratio (x) = 0.44390 0.24208
# Poissons Ratio (y) = 0.44918 0.14176
# Poissons Ratio (z) = 0.29594 0.17127
#
# Static dielectric constant tensor:
#      x y z
#    x 1.769040 -0.028380 0.026290 
#    y -0.028380 1.835970 0.045090 
#    z 0.026290 0.045090 1.854040 
# 
# From -- ./inp_files/504371.got.cif
#   From: 2010.05.17/outbox.cif.g08.bks.cpg/sg2_253_cif.got.tgz:504371.got - 2010.06.03 11:33:40.
