data_PCOD9079249
_publ_section_title
;
Structure prediction by ZEFSAII (Michael W. Deem and Ramdas Pophale) SiO2 
 PCOD9079249
Probable space group: P -1
;
_chemical_formula_sum "Si O2"
_cell_formula_units_Z 16
_cell_length_a 8.949159
_cell_length_b 12.751513
_cell_length_c 8.218822
_cell_angle_alpha 103.302044
_cell_angle_beta 117.806053
_cell_angle_gamma 60.375900
_cell_volume 721.157386
_symmetry_space_group_name_H-M "P -1"
_symmetry_group_IT_number 2
_symmetry_cell_setting 'triclinic'
loop_
_space_group_symop_operation_xyz
x,y,z
-x,-y,-z
loop_
_atom_site_type_symbol
_atom_site_label
_atom_site_fract_x
_atom_site_fract_y
_atom_site_fract_z
Si Si1 0.010596 0.809561 0.930065
Si Si2 0.212937 0.162031 0.883863
Si Si3 0.238446 0.736382 0.729822
Si Si4 0.220502 0.646071 0.362511
Si Si5 0.581309 0.697149 0.093387
Si Si6 0.226637 0.953137 0.603170
Si Si7 0.154799 0.532479 0.010466
Si Si8 0.661909 0.180433 0.699781
O O1 0.041544 0.809708 0.753384
O O2 0.080230 0.666849 0.951253
O O3 0.151319 0.855949 0.104647
O O4 0.818248 0.869741 0.957865
O O5 0.347989 0.224874 0.955030
O O6 0.002366 0.259815 0.749322
O O7 0.272392 0.047238 0.758260
O O8 0.239845 0.641421 0.564158
O O9 0.286919 0.831472 0.692508
O O10 0.399766 0.685003 0.928937
O O11 0.273192 0.531341 0.232721
O O12 0.336857 0.711358 0.368651
O O13 0.518471 0.765596 0.256556
O O14 0.744332 0.562048 0.114018
O O15 0.309725 0.921459 0.452630
O O16 0.000000 0.000000 0.500000
O O17 0.000000 0.500000 0.000000
#
# Coordination Sequence:
#
# PCOD9079249 Si02
#       8
#     2   2   2   2   2   2   2   2
#     4   9  18  35  56  89 107 144 198 220 271 349
#     4  10  19  35  62  79 111 154 188 224 277 340
#     4  10  22  35  55  88 118 133 192 245 273 314
#     4   9  18  37  58  83 107 150 196 215 271 354
#     4  11  21  36  56  87 118 140 182 248 274 319
#     4  11  18  38  63  77 109 159 188 225 278 337
#     4  10  18  36  65  78 111 158 183 215 288 340
#     4   8  18  33  54  83 109 141 189 224 276 330
#
# _framework density 22.186557000000001
#
# number of rings (size 3 to 8) (size 9 to 14) (size 15 to 20)
#    0.000    2.500    6.250    0.000    0.000    6.500 
#    0.000    4.375    0.000    0.000    0.000    0.000 
#    0.000    0.000    0.000    0.000    0.000    0.000 
#
# Total GULP energy -89150.511331 kJ/mol
# GULP energy per Si atom -5571.906958 kJ/mol
# Density = 2.213606 g / cm^3
# Si number density = 22.186557 Si / 1000 Ang^3
#
#
#
# Elastic Constant Matrix: (Units=GPa)
#
#
# Indices 1 2 3 4 5 6 
#
# 1 73.9684 5.1413 23.3099 11.3287 -22.0321 -5.5695
# 2 5.1413 40.8051 11.7536 23.0084 -1.4311 -5.8723
# 3 23.3099 11.7536 80.9927 27.4414 -34.9141 -7.0373
# 4 11.3287 23.0084 27.4414 31.6575 -7.2886 -4.0883
# 5 -22.0321 -1.4311 -34.9141 -7.2886 34.2909 14.4854
# 6 -5.5695 -5.8723 -7.0373 -4.0883 14.4854 23.4983
#
#
#
# Elastic Compliance Matrix: (Units=1/GPa)
#
#
# Indices 1 2 3 4 5 6 
#
# 1 0.017737 0.000216 0.003466 -0.006573 0.015932 -0.005669
# 2 0.000216 0.045030 0.004248 -0.036507 -0.005471 0.009598
# 3 0.003466 0.004248 0.036682 -0.028943 0.040957 -0.017415
# 4 -0.006573 -0.036507 -0.028943 0.081705 -0.021201 0.007936
# 5 0.015932 -0.005471 0.040957 -0.021201 0.096978 -0.048795
# 6 -0.005669 0.009598 -0.017415 0.007936 -0.048795 0.069856
#
#
# Mechanical properties :
#
#
# Convention : Reuss Voigt Hill
#
# Bulk Modulus (GPa) = 8.67240 30.68620 19.67930
# Shear Modulus (GPa) = 13.49289 28.26009 20.87649
#
# Velocity S-wave (km/s) = 2.46876 3.57283 3.07082
# Velocity P-wave (km/s) = 3.47040 5.55708 4.63276
#
# Compressibility (1/GPa) = 0.11530832
#
# Stress axis : x y z
#
# Youngs Moduli (GPa) = 56.37833 22.20728 27.26152
#
# Poissons Ratio (x) = -0.00479 -0.09449
# Poissons Ratio (y) = -0.01217 -0.11579
# Poissons Ratio (z) = -0.19542 -0.09433
#
# Static dielectric constant tensor:
#      x y z
#    x 1.805180 -0.055410 -0.026050 
#    y -0.055410 1.876870 -0.018090 
#    z -0.026050 -0.018090 1.904840 
# 
# From -- ./inp_files/203210.got.cif
#   From: 2010.05.17/outbox.cif.g08.bks.cpg/sg2_102_cif.got.tgz:203210.got - 2010.06.03 11:33:40.
