data_PCOD9079788
_publ_section_title
;
Structure prediction by ZEFSAII (Michael W. Deem and Ramdas Pophale) SiO2 
 PCOD9079788
Probable space group: P -1
;
_chemical_formula_sum "Si O2"
_cell_formula_units_Z 16
_cell_length_a 7.164439
_cell_length_b 12.550397
_cell_length_c 11.814529
_cell_angle_alpha 58.165381
_cell_angle_beta 54.661182
_cell_angle_gamma 89.350311
_cell_volume 666.819890
_symmetry_space_group_name_H-M "P -1"
_symmetry_group_IT_number 2
_symmetry_cell_setting 'triclinic'
loop_
_space_group_symop_operation_xyz
x,y,z
-x,-y,-z
loop_
_atom_site_type_symbol
_atom_site_label
_atom_site_fract_x
_atom_site_fract_y
_atom_site_fract_z
Si Si1 0.354726 0.525612 0.428225
Si Si2 0.202886 0.087155 0.513069
Si Si3 0.403089 0.626079 0.714424
Si Si4 0.849717 0.512326 0.884975
Si Si5 0.803218 0.061499 0.856373
Si Si6 0.928246 0.326761 0.816591
Si Si7 0.763675 0.778394 0.066323
Si Si8 0.136846 0.202358 0.240908
O O1 0.500000 0.500000 0.500000
O O2 0.412122 0.439541 0.357907
O O3 0.484438 0.686701 0.263644
O O4 0.074813 0.455344 0.609599
O O5 0.440821 0.208359 0.422643
O O6 0.229139 0.132118 0.347114
O O7 0.957190 0.087232 0.668483
O O8 0.140385 0.923893 0.621379
O O9 0.156220 0.573868 0.750470
O O10 0.279833 0.555178 0.914647
O O11 0.745405 0.383356 0.908620
O O12 0.822638 0.653115 0.798033
O O13 0.878610 0.197782 0.826912
O O14 0.500000 0.000000 0.000000
O O15 0.861399 0.940718 0.961933
O O16 0.067463 0.289229 0.895418
O O17 0.754272 0.764206 0.942398
#
# Coordination Sequence:
#
# PCOD9079788 Si02
#       8
#     2   2   2   2   2   2   2   2
#     4  10  18  37  65  92 122 166 203 255 317 378
#     4  10  24  43  65  85 130 180 207 248 324 383
#     4  11  20  40  63  94 130 161 210 259 315 375
#     4  11  22  37  66 100 126 155 215 272 299 366
#     4  11  25  44  63  92 129 165 217 263 308 376
#     4  11  22  41  66  98 126 164 208 261 324 372
#     4  10  20  41  69  89 122 173 210 256 318 378
#     4  10  22  43  61  93 129 170 213 255 309 378
#
# _framework density 23.994482999999999
#
# number of rings (size 3 to 8) (size 9 to 14) (size 15 to 20)
#    0.000    1.500    5.000    1.125    0.000    5.000 
#    2.250    1.250    0.000    0.000    0.000    0.000 
#    0.000    0.000    0.000    0.000    0.000    0.000 
#
# Total GULP energy -89208.581230 kJ/mol
# GULP energy per Si atom -5575.536327 kJ/mol
# Density = 2.393987 g / cm^3
# Si number density = 23.994483 Si / 1000 Ang^3
#
#
#
# Elastic Constant Matrix: (Units=GPa)
#
#
# Indices 1 2 3 4 5 6 
#
# 1 54.5794 16.3707 24.9318 4.3941 3.3084 9.2502
# 2 16.3707 145.5376 39.6669 -0.0360 15.1268 13.0667
# 3 24.9318 39.6669 141.6288 -0.4021 17.3349 8.0534
# 4 4.3941 -0.0360 -0.4021 46.2006 0.2824 -0.5064
# 5 3.3084 15.1268 17.3349 0.2824 25.0283 -1.0083
# 6 9.2502 13.0667 8.0534 -0.5064 -1.0083 28.5324
#
#
#
# Elastic Compliance Matrix: (Units=1/GPa)
#
#
# Indices 1 2 3 4 5 6 
#
# 1 0.021171 -0.001011 -0.003104 -0.002101 -0.000238 -0.005570
# 2 -0.001011 0.008054 -0.001428 0.000080 -0.003871 -0.003093
# 3 -0.003104 -0.001428 0.008644 0.000388 -0.004756 -0.000941
# 4 -0.002101 0.000080 0.000388 0.021860 -0.000249 0.000914
# 5 -0.000238 -0.003871 -0.004756 -0.000249 0.045816 0.004807
# 6 -0.005570 -0.003093 -0.000941 0.000914 0.004807 0.038722
#
#
# Mechanical properties :
#
#
# Convention : Reuss Voigt Hill
#
# Bulk Modulus (GPa) = 37.33716 55.96496 46.65106
# Shear Modulus (GPa) = 30.43613 37.33735 33.88674
#
# Velocity S-wave (km/s) = 3.56541 3.94900 3.76210
# Velocity P-wave (km/s) = 5.70474 6.64586 6.19321
#
# Compressibility (1/GPa) = 0.02678297
#
# Stress axis : x y z
#
# Youngs Moduli (GPa) = 47.23536 124.16190 115.69163
#
# Poissons Ratio (x) = 0.12554 0.35907
# Poissons Ratio (y) = 0.04776 0.16520
# Poissons Ratio (z) = 0.14660 0.17729
#
# Static dielectric constant tensor:
#      x y z
#    x 2.021580 0.023840 -0.066980 
#    y 0.023840 1.968440 -0.019340 
#    z -0.066980 -0.019340 1.888990 
# 
# From -- ./inp_files/383531.got.cif
#   From: 2010.05.17/outbox.cif.g08.bks.cpg/sg2_192_cif.got.tgz:383531.got - 2010.06.03 11:33:40.
