data_PCOD9079210
_publ_section_title
;
Structure prediction by ZEFSAII (Michael W. Deem and Ramdas Pophale) SiO2 
 PCOD9079210
Probable space group: P -1
;
_chemical_formula_sum "Si O2"
_cell_formula_units_Z 13
_cell_length_a 7.798340
_cell_length_b 16.811979
_cell_length_c 4.915424
_cell_angle_alpha 82.505954
_cell_angle_beta 119.242993
_cell_angle_gamma 92.709975
_cell_volume 557.405584
_symmetry_space_group_name_H-M "P -1"
_symmetry_group_IT_number 2
_symmetry_cell_setting 'triclinic'
loop_
_space_group_symop_operation_xyz
x,y,z
-x,-y,-z
loop_
_atom_site_type_symbol
_atom_site_label
_atom_site_fract_x
_atom_site_fract_y
_atom_site_fract_z
Si Si1 0.785517 0.414985 0.531554
Si Si2 0.500000 0.500000 0.500000
Si Si3 0.239306 0.965682 0.934938
Si Si4 0.564281 0.290938 0.053953
Si Si5 0.252823 0.420538 0.877797
Si Si6 0.473666 0.815922 0.424260
Si Si7 0.204074 0.071216 0.378723
O O1 0.663554 0.421877 0.710614
O O2 0.719776 0.347377 0.304497
O O3 0.699179 0.505069 0.325995
O O4 0.018781 0.417911 0.729410
O O5 0.641625 0.558704 0.770970
O O6 0.024860 0.929453 0.728473
O O7 0.305284 0.004411 0.685200
O O8 0.356210 0.895438 0.208320
O O9 0.221534 0.039520 0.099236
O O10 0.554209 0.213253 0.278710
O O11 0.357184 0.340427 0.886438
O O12 0.592185 0.254127 0.795727
O O13 0.697943 0.843286 0.548069
#
# Coordination Sequence:
#
# PCOD9079210 Si02
#       7
#     2   1   2   2   2   2   2
#     4  10  23  41  64  88 119 168 218 266 317 374
#     4  10  18  36  64  90 110 144 212 270 308 362
#     4  10  21  39  65  91 119 160 210 255 300 369
#     4  11  26  39  61  91 132 165 206 260 318 384
#     4  10  23  41  64  88 119 168 218 266 317 374
#     4  12  24  40  61  92 129 167 196 258 320 376
#     4  10  21  39  65  91 119 160 210 255 300 369
#
# _framework density 23.322337000000001
#
# number of rings (size 3 to 8) (size 9 to 14) (size 15 to 20)
#    0.000    1.538    0.000    5.077    8.615    2.462 
#    0.000    0.000    0.000    0.000    0.000    0.000 
#    0.000    0.000    0.000    0.000    0.000    0.000 
#
# Total GULP energy -72497.222430 kJ/mol
# GULP energy per Si atom -5576.709418 kJ/mol
# Density = 2.326925 g / cm^3
# Si number density = 23.322337 Si / 1000 Ang^3
#
#
#
# Elastic Constant Matrix: (Units=GPa)
#
#
# Indices 1 2 3 4 5 6 
#
# 1 48.9921 0.9810 21.8838 3.5731 26.6069 6.2209
# 2 0.9810 60.6571 -3.6341 3.1863 9.5803 11.7368
# 3 21.8838 -3.6341 66.3188 -10.9394 3.3253 13.2159
# 4 3.5731 3.1863 -10.9394 40.3557 -3.0252 -2.5754
# 5 26.6069 9.5803 3.3253 -3.0252 50.3529 0.8850
# 6 6.2209 11.7368 13.2159 -2.5754 0.8850 27.2324
#
#
#
# Elastic Compliance Matrix: (Units=1/GPa)
#
#
# Indices 1 2 3 4 5 6 
#
# 1 0.037815 0.003187 -0.011825 -0.008606 -0.020247 -0.004429
# 2 0.003187 0.019495 0.001916 -0.002358 -0.005484 -0.010105
# 3 -0.011825 0.001916 0.021540 0.006591 0.005000 -0.008117
# 4 -0.008606 -0.002358 0.006591 0.028123 0.006211 0.002241
# 5 -0.020247 -0.005484 0.005000 0.006211 0.031572 0.004123
# 6 -0.004429 -0.010105 -0.008117 0.002241 0.004123 0.046105
#
#
# Mechanical properties :
#
#
# Convention : Reuss Voigt Hill
#
# Bulk Modulus (GPa) = 15.28931 23.82550 19.55741
# Shear Modulus (GPa) = 22.73798 34.03735 28.38766
#
# Velocity S-wave (km/s) = 3.12580 3.82439 3.49261
# Velocity P-wave (km/s) = 4.42689 5.45337 4.96672
#
# Compressibility (1/GPa) = 0.06540518
#
# Stress axis : x y z
#
# Youngs Moduli (GPa) = 26.44421 51.29648 46.42537
#
# Poissons Ratio (x) = -0.16347 0.54900
# Poissons Ratio (y) = -0.08427 -0.08897
# Poissons Ratio (z) = 0.31271 -0.09830
#
# Static dielectric constant tensor:
#      x y z
#    x -0.104110 0.050750 0.876870 
#    y 0.050750 1.899460 -0.059990 
#    z 0.876870 -0.059990 1.487010 
# 
# From -- ./inp_files/39129.got.cif
#   From: 2010.05.17/outbox.cif.g08.bks.cpg/sg2_20_cif.got.tgz:39129.got - 2010.06.03 11:33:40.
