data_PCOD9079242
_publ_section_title
;
Structure prediction by ZEFSAII (Michael W. Deem and Ramdas Pophale) SiO2 
 PCOD9079242
Probable space group: P -1
;
_chemical_formula_sum "Si O2"
_cell_formula_units_Z 15
_cell_length_a 7.543013
_cell_length_b 14.008774
_cell_length_c 10.982867
_cell_angle_alpha 65.078224
_cell_angle_beta 72.813982
_cell_angle_gamma 34.996240
_cell_volume 600.855330
_symmetry_space_group_name_H-M "P -1"
_symmetry_group_IT_number 2
_symmetry_cell_setting 'triclinic'
loop_
_space_group_symop_operation_xyz
x,y,z
-x,-y,-z
loop_
_atom_site_type_symbol
_atom_site_label
_atom_site_fract_x
_atom_site_fract_y
_atom_site_fract_z
Si Si1 0.527991 0.975613 0.364712
Si Si2 0.409536 0.216543 0.098827
Si Si3 0.261005 0.454167 0.836756
Si Si4 0.145320 0.611653 0.362090
Si Si5 0.419623 0.697657 0.386067
Si Si6 0.496401 0.449350 0.159179
Si Si7 0.922208 0.935537 0.758658
Si Si8 0.500000 0.000000 0.000000
O O1 0.214241 0.074156 0.317121
O O2 0.787337 0.772368 0.383978
O O3 0.500000 0.000000 0.500000
O O4 0.598050 0.054986 0.238927
O O5 0.357654 0.158693 0.029394
O O6 0.096826 0.392934 0.137265
O O7 0.489759 0.286615 0.972166
O O8 0.329637 0.388572 0.722244
O O9 0.335065 0.542654 0.792196
O O10 0.250486 0.671691 0.377750
O O11 0.384602 0.418922 0.471520
O O12 0.172565 0.592346 0.220310
O O13 0.179306 0.900491 0.337161
O O14 0.500000 0.500000 0.000000
O O15 0.708924 0.250108 0.212780
O O16 0.745331 0.973484 0.895173
#
# Coordination Sequence:
#
# PCOD9079242 Si02
#       8
#     2   2   2   2   2   2   2   1
#     4  11  24  43  66  97 133 170 219 271 323 384
#     4  10  20  34  65  90 125 164 213 259 324 372
#     4  10  19  38  61  95 119 171 209 265 319 381
#     4  10  25  43  67  93 133 173 216 270 323 389
#     4  10  22  43  69  91 129 174 221 263 329 385
#     4  11  25  42  63  96 133 167 213 268 323 389
#     4  11  24  42  70  93 131 172 218 270 323 384
#     4  10  18  36  64  96 116 160 218 260 316 368
#
# _framework density 24.964410000000001
#
# number of rings (size 3 to 8) (size 9 to 14) (size 15 to 20)
#    0.000    1.600    4.000    0.800    7.467    2.133 
#    2.400    2.667    0.000    0.000    0.000    0.000 
#    0.000    0.000    0.000    0.000    0.000    0.000 
#
# Total GULP energy -83553.202379 kJ/mol
# GULP energy per Si atom -5570.213492 kJ/mol
# Density = 2.490759 g / cm^3
# Si number density = 24.964410 Si / 1000 Ang^3
#
#
#
# Elastic Constant Matrix: (Units=GPa)
#
#
# Indices 1 2 3 4 5 6 
#
# 1 32.9239 6.3392 5.4476 -11.6743 -3.0660 7.9519
# 2 6.3392 125.8125 45.9650 -10.1932 4.5601 22.8691
# 3 5.4476 45.9650 113.4459 3.0134 4.5746 13.2081
# 4 -11.6743 -10.1932 3.0134 52.4051 13.6503 -12.6976
# 5 -3.0660 4.5601 4.5746 13.6503 29.1719 -11.0429
# 6 7.9519 22.8691 13.2081 -12.6976 -11.0429 31.0042
#
#
#
# Elastic Compliance Matrix: (Units=1/GPa)
#
#
# Indices 1 2 3 4 5 6 
#
# 1 0.034263 0.000522 -0.001187 0.006705 -0.001934 -0.006610
# 2 0.000522 0.010889 -0.003390 0.001835 -0.004894 -0.007713
# 3 -0.001187 -0.003390 0.010718 -0.001881 -0.001564 -0.003088
# 4 0.006705 0.001835 -0.001881 0.024493 -0.009028 0.004543
# 5 -0.001934 -0.004894 -0.001564 -0.009028 0.045908 0.017426
# 6 -0.006610 -0.007713 -0.003088 0.004543 0.017426 0.049021
#
#
# Mechanical properties :
#
#
# Convention : Reuss Voigt Hill
#
# Bulk Modulus (GPa) = 20.93864 43.07620 32.00742
# Shear Modulus (GPa) = 25.08504 36.81163 30.94833
#
# Velocity S-wave (km/s) = 3.17335 3.84417 3.52475
# Velocity P-wave (km/s) = 4.67252 6.08244 5.42349
#
# Compressibility (1/GPa) = 0.04775859
#
# Stress axis : x y z
#
# Youngs Moduli (GPa) = 29.18622 91.83851 93.30051
#
# Poissons Ratio (x) = -0.04796 0.11079
# Poissons Ratio (y) = -0.01524 0.31632
# Poissons Ratio (z) = 0.03466 0.31136
#
# Static dielectric constant tensor:
#      x y z
#    x 2.070730 -0.059750 -0.053860 
#    y -0.059750 1.967100 0.018220 
#    z -0.053860 0.018220 2.058390 
# 
# From -- ./inp_files/217838.got.cif
#   From: 2010.05.17/outbox.cif.g08.bks.cpg/sg2_109_cif.got.tgz:217838.got - 2010.06.03 11:33:40.
