data_PCOD9079448
_publ_section_title
;
Structure prediction by ZEFSAII (Michael W. Deem and Ramdas Pophale) SiO2 
 PCOD9079448
Probable space group: P -1
;
_chemical_formula_sum "Si O2"
_cell_formula_units_Z 16
_cell_length_a 8.885132
_cell_length_b 15.808983
_cell_length_c 16.236333
_cell_angle_alpha 27.179055
_cell_angle_beta 47.393301
_cell_angle_gamma 37.037764
_cell_volume 622.910239
_symmetry_space_group_name_H-M "P -1"
_symmetry_group_IT_number 2
_symmetry_cell_setting 'triclinic'
loop_
_space_group_symop_operation_xyz
x,y,z
-x,-y,-z
loop_
_atom_site_type_symbol
_atom_site_label
_atom_site_fract_x
_atom_site_fract_y
_atom_site_fract_z
Si Si1 0.084382 0.316932 0.396393
Si Si2 0.724415 0.750964 0.793130
Si Si3 0.877251 0.240638 0.289203
Si Si4 0.827517 0.294875 0.742868
Si Si5 0.395094 0.277292 0.473252
Si Si6 0.963380 0.940065 0.791044
Si Si7 0.756227 0.188548 0.041036
Si Si8 0.519816 0.680855 0.284373
O O1 0.262176 0.252191 0.307795
O O2 0.220682 0.318052 0.425868
O O3 0.028613 0.124726 0.590783
O O4 0.815230 0.559843 0.274073
O O5 0.540452 0.688035 0.946352
O O6 0.010079 0.638705 0.812350
O O7 0.569908 0.010765 0.658180
O O8 0.589520 0.335092 0.322968
O O9 0.971117 0.193492 0.201788
O O10 0.000000 0.000000 0.500000
O O11 0.748611 0.551273 0.545769
O O12 0.613225 0.291256 0.777930
O O13 0.841403 0.243505 0.878865
O O14 0.087045 0.089147 0.785223
O O15 0.671075 0.081611 0.803424
O O16 0.134903 0.785152 0.937916
O O17 0.500000 0.500000 0.500000
#
# Coordination Sequence:
#
# PCOD9079448 Si02
#       8
#     2   2   2   2   2   2   2   2
#     4  11  19  36  58  91 122 148 198 250 291 334
#     4  11  21  35  62  87 118 158 197 243 292 346
#     4  10  20  33  57  90 123 150 192 254 291 334
#     4  10  23  42  59  86 125 152 194 243 296 348
#     4  11  21  34  60  87 119 151 196 250 281 338
#     4  10  18  37  58  86 118 160 194 234 301 347
#     4  10  22  42  61  83 120 165 188 235 303 361
#     4   9  21  35  60  86 115 155 193 241 293 345
#
# _framework density 25.685884999999999
#
# number of rings (size 3 to 8) (size 9 to 14) (size 15 to 20)
#    0.000    1.750    3.750    1.875    5.250    1.500 
#    0.000    6.250    0.000    4.500    0.000    0.000 
#    0.000    0.000    0.000    0.000    0.000    0.000 
#
# Total GULP energy -89533.238349 kJ/mol
# GULP energy per Si atom -5595.827397 kJ/mol
# Density = 2.562742 g / cm^3
# Si number density = 25.685885 Si / 1000 Ang^3
#
#
#
# Elastic Constant Matrix: (Units=GPa)
#
#
# Indices 1 2 3 4 5 6 
#
# 1 106.6976 27.4021 0.7162 2.5002 22.3704 -19.6812
# 2 27.4021 91.4269 5.3724 -1.6643 3.3110 -1.9993
# 3 0.7162 5.3724 68.8014 13.5258 -0.6861 -0.1106
# 4 2.5002 -1.6643 13.5258 44.9396 9.6573 3.5595
# 5 22.3704 3.3110 -0.6861 9.6573 31.2749 8.6177
# 6 -19.6812 -1.9993 -0.1106 3.5595 8.6177 51.9695
#
#
#
# Elastic Compliance Matrix: (Units=1/GPa)
#
#
# Indices 1 2 3 4 5 6 
#
# 1 0.014109 -0.003604 -0.000203 0.001165 -0.012037 0.007120
# 2 -0.003604 0.012017 -0.001038 0.000756 0.001376 -0.001185
# 3 -0.000203 -0.001038 0.015665 -0.005215 0.002236 -0.000097
# 4 0.001165 0.000756 -0.005215 0.025708 -0.009020 0.000194
# 5 -0.012037 0.001376 0.002236 -0.009020 0.046466 -0.011588
# 6 0.007120 -0.001185 -0.000097 0.000194 -0.011588 0.023801
#
#
# Mechanical properties :
#
#
# Convention : Reuss Voigt Hill
#
# Bulk Modulus (GPa) = 31.15126 37.10079 34.12603
# Shear Modulus (GPa) = 31.61456 41.19915 36.40685
#
# Velocity S-wave (km/s) = 3.51210 4.00929 3.76891
# Velocity P-wave (km/s) = 5.34795 5.99233 5.67928
#
# Compressibility (1/GPa) = 0.03210143
#
# Stress axis : x y z
#
# Youngs Moduli (GPa) = 70.87733 83.21647 63.83642
#
# Poissons Ratio (x) = 0.29990 0.01297
# Poissons Ratio (y) = 0.25544 0.06624
# Poissons Ratio (z) = 0.01440 0.08635
#
# Static dielectric constant tensor:
#      x y z
#    x 2.008460 -0.035690 -0.047870 
#    y -0.035690 2.009460 -0.071510 
#    z -0.047870 -0.071510 2.119840 
# 
# From -- ./inp_files/205688.got.cif
#   From: 2010.05.17/outbox.cif.g08.bks.cpg/sg2_103_cif.got.tgz:205688.got - 2010.06.03 11:33:40.
