data_PCOD9079072
_publ_section_title
;
Structure prediction by ZEFSAII (Michael W. Deem and Ramdas Pophale) SiO2 
 PCOD9079072
Probable space group: P -1
;
_chemical_formula_sum "Si O2"
_cell_formula_units_Z 12
_cell_length_a 8.828417
_cell_length_b 12.292993
_cell_length_c 11.423566
_cell_angle_alpha 46.319595
_cell_angle_beta 58.358319
_cell_angle_gamma 32.066214
_cell_volume 470.029312
_symmetry_space_group_name_H-M "P -1"
_symmetry_group_IT_number 2
_symmetry_cell_setting 'triclinic'
loop_
_space_group_symop_operation_xyz
x,y,z
-x,-y,-z
loop_
_atom_site_type_symbol
_atom_site_label
_atom_site_fract_x
_atom_site_fract_y
_atom_site_fract_z
Si Si1 0.169301 0.578755 0.981884
Si Si2 0.823458 0.187631 0.543303
Si Si3 0.603894 0.473410 0.725382
Si Si4 0.876620 0.005524 0.904932
Si Si5 0.596514 0.868271 0.858793
Si Si6 0.414385 0.928969 0.499441
O O1 0.358036 0.538425 0.839051
O O2 0.862292 0.737530 0.931234
O O3 0.313837 0.320805 0.130795
O O4 0.145752 0.712859 0.997968
O O5 0.516081 0.432170 0.429744
O O6 0.807969 0.089383 0.734000
O O7 0.000000 0.000000 0.500000
O O8 0.068254 0.147524 0.500404
O O9 0.875172 0.175896 0.833541
O O10 0.578440 0.659254 0.646634
O O11 0.638764 0.057373 0.021407
O O12 0.515926 0.062813 0.667089
O O13 0.500000 0.000000 0.500000
#
# Coordination Sequence:
#
# PCOD9079072 Si02
#       6
#     2   2   2   2   2   2
#     4  10  18  37  60  90 125 149 192 250 300 349
#     4  10  18  36  62  86 120 154 194 243 294 348
#     4  10  20  37  64  89 117 158 203 235 301 356
#     4  11  20  35  62  92 119 155 194 252 296 352
#     4  10  22  35  59  94 119 153 200 245 298 349
#     4  11  22  42  63  84 121 162 200 248 295 349
#
# _framework density 25.530321000000001
#
# number of rings (size 3 to 8) (size 9 to 14) (size 15 to 20)
#    0.000    1.667    5.000    2.000    0.000    0.000 
#    3.000    5.000    0.000    0.000    0.000    0.000 
#    0.000    0.000    0.000    0.000    0.000    0.000 
#
# Total GULP energy -67000.626564 kJ/mol
# GULP energy per Si atom -5583.385547 kJ/mol
# Density = 2.547221 g / cm^3
# Si number density = 25.530321 Si / 1000 Ang^3
#
#
#
# Elastic Constant Matrix: (Units=GPa)
#
#
# Indices 1 2 3 4 5 6 
#
# 1 114.2022 27.7694 29.2937 -0.6594 -15.8727 4.5430
# 2 27.7694 97.8793 35.7567 -17.0185 -11.3773 23.4878
# 3 29.2937 35.7567 161.2434 -0.0852 -23.7607 -12.6730
# 4 -0.6594 -17.0185 -0.0852 58.5287 6.2414 -14.4375
# 5 -15.8727 -11.3773 -23.7607 6.2414 32.5686 -6.0440
# 6 4.5430 23.4878 -12.6730 -14.4375 -6.0440 37.8483
#
#
#
# Elastic Compliance Matrix: (Units=1/GPa)
#
#
# Indices 1 2 3 4 5 6 
#
# 1 0.010023 -0.002369 -0.000720 -0.000909 0.003758 0.000279
# 2 -0.002369 0.014777 -0.003718 0.002012 -0.000853 -0.009500
# 3 -0.000720 -0.003718 0.008473 -0.000187 0.005694 0.006069
# 4 -0.000909 0.002012 -0.000187 0.019354 -0.002513 0.005779
# 5 0.003758 -0.000853 0.005694 -0.002513 0.038196 0.007126
# 6 0.000279 -0.009500 0.006069 0.005779 0.007126 0.037657
#
#
# Mechanical properties :
#
#
# Convention : Reuss Voigt Hill
#
# Bulk Modulus (GPa) = 50.86647 62.10719 56.48683
# Shear Modulus (GPa) = 33.63670 44.48946 39.06308
#
# Velocity S-wave (km/s) = 3.63370 4.17899 3.91585
# Velocity P-wave (km/s) = 6.12962 6.90398 6.52829
#
# Compressibility (1/GPa) = 0.01965932
#
# Stress axis : x y z
#
# Youngs Moduli (GPa) = 99.76959 67.67189 118.02113
#
# Poissons Ratio (x) = 0.16029 0.08503
# Poissons Ratio (y) = 0.23632 0.43879
# Poissons Ratio (z) = 0.07188 0.25160
#
# Static dielectric constant tensor:
#      x y z
#    x 2.123030 0.003300 0.083010 
#    y 0.003300 2.306120 -0.001120 
#    z 0.083010 -0.001120 2.019020 
# 
# From -- ./inp_files/391970.got.cif
#   From: 2010.05.17/outbox.cif.g08.bks.cpg/sg2_196_cif.got.tgz:391970.got - 2010.06.03 11:33:40.
