data_PCOD9079470
_publ_section_title
;
Structure prediction by ZEFSAII (Michael W. Deem and Ramdas Pophale) SiO2 
 PCOD9079470
Probable space group: P -1
;
_chemical_formula_sum "Si O2"
_cell_formula_units_Z 16
_cell_length_a 15.608243
_cell_length_b 9.377249
_cell_length_c 7.630603
_cell_angle_alpha 49.390118
_cell_angle_beta 61.515621
_cell_angle_gamma 46.953731
_cell_volume 618.542202
_symmetry_space_group_name_H-M "P -1"
_symmetry_group_IT_number 2
_symmetry_cell_setting 'triclinic'
loop_
_space_group_symop_operation_xyz
x,y,z
-x,-y,-z
loop_
_atom_site_type_symbol
_atom_site_label
_atom_site_fract_x
_atom_site_fract_y
_atom_site_fract_z
Si Si1 0.300222 0.783791 0.363982
Si Si2 0.114268 0.208657 0.434956
Si Si3 0.467714 0.294749 0.757475
Si Si4 0.524064 0.185340 0.382909
Si Si5 0.716209 0.442271 0.771072
Si Si6 0.231770 0.171318 0.678451
Si Si7 0.237362 0.465915 0.995333
Si Si8 0.099107 0.505361 0.796924
O O1 0.378921 0.566357 0.591722
O O2 0.410279 0.800246 0.186707
O O3 0.251460 0.728274 0.284514
O O4 0.199174 0.983803 0.419601
O O5 0.129767 0.193456 0.640831
O O6 0.979148 0.327787 0.417355
O O7 0.169385 0.354383 0.218770
O O8 0.502526 0.209904 0.592426
O O9 0.373450 0.269529 0.973708
O O10 0.425216 0.416003 0.204305
O O11 0.500000 0.000000 0.500000
O O12 0.656364 0.072949 0.283171
O O13 0.741510 0.635077 0.542089
O O14 0.764873 0.379946 0.970209
O O15 0.188981 0.245822 0.856951
O O16 0.167305 0.577795 0.794024
O O17 0.000000 0.500000 0.000000
#
# Coordination Sequence:
#
# PCOD9079470 Si02
#       8
#     2   2   2   2   2   2   2   2
#     4  10  20  38  57  87 120 152 190 235 285 350
#     4  10  21  38  62  88 112 149 204 239 283 336
#     4  10  20  36  60  83 125 150 185 235 295 341
#     4   9  16  31  54  85 110 148 187 229 273 354
#     4   9  20  35  57  84 123 153 186 225 295 354
#     4  10  18  37  59  84 111 154 195 235 288 346
#     4  10  21  39  57  84 119 159 190 236 284 336
#     4  10  21  38  58  85 115 147 196 253 281 321
#
# _framework density 25.867272
#
# number of rings (size 3 to 8) (size 9 to 14) (size 15 to 20)
#    0.000    2.250    1.250    2.625    0.000    1.000 
#    4.500    5.625    0.000    0.000    0.000    0.000 
#    0.000    0.000    0.000    0.000    0.000    0.000 
#
# Total GULP energy -89365.990664 kJ/mol
# GULP energy per Si atom -5585.374417 kJ/mol
# Density = 2.580840 g / cm^3
# Si number density = 25.867272 Si / 1000 Ang^3
#
#
#
# Elastic Constant Matrix: (Units=GPa)
#
#
# Indices 1 2 3 4 5 6 
#
# 1 172.1499 54.8878 29.3918 12.5455 33.7338 20.3263
# 2 54.8878 91.6522 5.5926 10.8177 7.7390 8.0821
# 3 29.3918 5.5926 37.8942 12.8423 4.6569 6.1987
# 4 12.5455 10.8177 12.8423 34.5150 4.3536 1.5164
# 5 33.7338 7.7390 4.6569 4.3536 42.0937 15.5256
# 6 20.3263 8.0821 6.1987 1.5164 15.5256 49.7545
#
#
#
# Elastic Compliance Matrix: (Units=1/GPa)
#
#
# Indices 1 2 3 4 5 6 
#
# 1 0.009626 -0.004966 -0.006314 0.001191 -0.006045 -0.000489
# 2 -0.004966 0.014103 0.003057 -0.003939 0.001864 -0.001104
# 3 -0.006314 0.003057 0.034980 -0.011920 0.002900 -0.002817
# 4 0.001191 -0.003939 -0.011920 0.034527 -0.003050 0.001538
# 5 -0.006045 0.001864 0.002900 -0.003050 0.031137 -0.007817
# 6 -0.000489 -0.001104 -0.002817 0.001538 -0.007817 0.023221
#
#
# Mechanical properties :
#
#
# Convention : Reuss Voigt Hill
#
# Bulk Modulus (GPa) = 23.66148 53.49341 38.57745
# Shear Modulus (GPa) = 28.06976 39.39423 33.73200
#
# Velocity S-wave (km/s) = 3.29773 3.90672 3.61507
# Velocity P-wave (km/s) = 4.86489 6.40896 5.68955
#
# Compressibility (1/GPa) = 0.04226278
#
# Stress axis : x y z
#
# Youngs Moduli (GPa) = 103.88585 70.90455 28.58817
#
# Poissons Ratio (x) = 0.35214 0.18050
# Poissons Ratio (y) = 0.51594 -0.08740
# Poissons Ratio (z) = 0.65593 -0.21677
#
# Static dielectric constant tensor:
#      x y z
#    x 2.069830 -0.004240 0.007960 
#    y -0.004240 2.026080 -0.033960 
#    z 0.007960 -0.033960 2.359890 
# 
# From -- ./inp_files/270138.got.cif
#   From: 2010.05.17/outbox.cif.g08.bks.cpg/sg2_136_cif.got.tgz:270138.got - 2010.06.03 11:33:40.
