data_PCOD9079640
_publ_section_title
;
Structure prediction by ZEFSAII (Michael W. Deem and Ramdas Pophale) SiO2 
 PCOD9079640
Probable space group: P -1
;
_chemical_formula_sum "Si O2"
_cell_formula_units_Z 16
_cell_length_a 9.251160
_cell_length_b 22.717266
_cell_length_c 22.682089
_cell_angle_alpha 17.143041
_cell_angle_beta 36.017764
_cell_angle_gamma 34.972036
_cell_volume 795.907010
_symmetry_space_group_name_H-M "P -1"
_symmetry_group_IT_number 2
_symmetry_cell_setting 'triclinic'
loop_
_space_group_symop_operation_xyz
x,y,z
-x,-y,-z
loop_
_atom_site_type_symbol
_atom_site_label
_atom_site_fract_x
_atom_site_fract_y
_atom_site_fract_z
Si Si1 0.313450 0.757001 0.956759
Si Si2 0.949933 0.447408 0.158817
Si Si3 0.195047 0.712180 0.254915
Si Si4 0.351056 0.255249 0.644387
Si Si5 0.611624 0.926215 0.597486
Si Si6 0.246208 0.059903 0.988260
Si Si7 0.683027 0.335911 0.243550
Si Si8 0.475504 0.153454 0.074847
O O1 0.410887 0.845314 0.781279
O O2 0.463135 0.832231 0.890181
O O3 0.012712 0.831997 0.995413
O O4 0.411058 0.507071 0.166010
O O5 0.792665 0.335938 0.273343
O O6 0.137496 0.267426 0.306244
O O7 0.750787 0.648794 0.058105
O O8 0.133696 0.555948 0.957311
O O9 0.384072 0.483706 0.416197
O O10 0.903436 0.713544 0.341148
O O11 0.212387 0.848000 0.175156
O O12 0.278009 0.819776 0.067324
O O13 0.556693 0.065344 0.727795
O O14 0.290338 0.192765 0.789952
O O15 0.500000 0.000000 0.500000
O O16 0.676836 0.116522 0.429059
O O17 0.500000 0.000000 0.000000
#
# Coordination Sequence:
#
# PCOD9079640 Si02
#       8
#     2   2   2   2   2   2   2   2
#     4  10  21  39  63  86 116 166 200 237 308 352
#     4   9  20  37  64  90 113 152 196 249 299 349
#     4  10  20  37  62  91 119 154 203 245 295 351
#     4  10  20  37  63  88 121 156 197 251 292 349
#     4  11  24  42  59  89 123 156 199 248 300 364
#     4  11  22  41  59  87 130 163 195 243 292 360
#     4   9  20  40  63  86 115 149 201 253 292 351
#     4  10  18  37  62  91 120 151 202 248 293 349
#
# _framework density 20.102853
#
# number of rings (size 3 to 8) (size 9 to 14) (size 15 to 20)
#    0.000    2.000    2.500    1.875    0.000    6.500 
#   11.250    0.000    0.000    0.000    0.000    0.000 
#    0.000    0.000    0.000    0.000    0.000    0.000 
#
# Total GULP energy -89277.944613 kJ/mol
# GULP energy per Si atom -5579.871538 kJ/mol
# Density = 2.005710 g / cm^3
# Si number density = 20.102853 Si / 1000 Ang^3
#
#
#
# Elastic Constant Matrix: (Units=GPa)
#
#
# Indices 1 2 3 4 5 6 
#
# 1 83.1115 36.0333 27.0259 -4.0905 21.2234 -19.2796
# 2 36.0333 111.0230 27.7328 -22.6634 15.7573 -18.6106
# 3 27.0259 27.7328 64.0272 -22.0293 18.3898 -9.8415
# 4 -4.0905 -22.6634 -22.0293 34.3279 -2.3546 7.1393
# 5 21.2234 15.7573 18.3898 -2.3546 22.2795 -2.9589
# 6 -19.2796 -18.6106 -9.8415 7.1393 -2.9589 19.7775
#
#
#
# Elastic Compliance Matrix: (Units=1/GPa)
#
#
# Indices 1 2 3 4 5 6 
#
# 1 0.021452 -0.002427 -0.003184 -0.005595 -0.014437 0.016904
# 2 -0.002427 0.013009 0.000345 0.006728 -0.005561 0.006787
# 3 -0.003184 0.000345 0.027962 0.015993 -0.018252 0.002631
# 4 -0.005595 0.006728 0.015993 0.044319 -0.009078 -0.008521
# 5 -0.014437 -0.005561 -0.018252 -0.009078 0.074828 -0.013917
# 6 0.016904 0.006787 0.002631 -0.008521 -0.013917 0.075730
#
#
# Mechanical properties :
#
#
# Convention : Reuss Voigt Hill
#
# Bulk Modulus (GPa) = 19.27083 48.86063 34.06573
# Shear Modulus (GPa) = 17.53597 26.43498 21.98548
#
# Velocity S-wave (km/s) = 2.95670 3.63021 3.31063
# Velocity P-wave (km/s) = 4.61118 6.47528 5.62105
#
# Compressibility (1/GPa) = 0.05189189
#
# Stress axis : x y z
#
# Youngs Moduli (GPa) = 46.61589 76.87048 35.76244
#
# Poissons Ratio (x) = 0.18653 0.11386
# Poissons Ratio (y) = 0.11312 -0.01233
# Poissons Ratio (z) = 0.14842 -0.02651
#
# Static dielectric constant tensor:
#      x y z
#    x 1.692660 -0.004060 0.003520 
#    y -0.004060 1.761960 -0.010620 
#    z 0.003520 -0.010620 1.734230 
# 
# From -- ./inp_files/591579.got.cif
#   From: 2010.05.17/outbox.cif.g08.bks.cpg/sg2_296_cif.got.tgz:591579.got - 2010.06.03 11:33:40.
