data_PCOD9079753
_publ_section_title
;
Structure prediction by ZEFSAII (Michael W. Deem and Ramdas Pophale) SiO2 
 PCOD9079753
Probable space group: P -1
;
_chemical_formula_sum "Si O2"
_cell_formula_units_Z 16
_cell_length_a 14.337777
_cell_length_b 7.912128
_cell_length_c 7.695494
_cell_angle_alpha 83.989358
_cell_angle_beta 72.610346
_cell_angle_gamma 132.940773
_cell_volume 547.265746
_symmetry_space_group_name_H-M "P -1"
_symmetry_group_IT_number 2
_symmetry_cell_setting 'triclinic'
loop_
_space_group_symop_operation_xyz
x,y,z
-x,-y,-z
loop_
_atom_site_type_symbol
_atom_site_label
_atom_site_fract_x
_atom_site_fract_y
_atom_site_fract_z
Si Si1 0.926929 0.268394 0.435878
Si Si2 0.360653 0.492328 0.730285
Si Si3 0.786913 0.041941 0.032590
Si Si4 0.682615 0.456717 0.720035
Si Si5 0.973059 0.819566 0.308618
Si Si6 0.871856 0.626450 0.928293
Si Si7 0.553975 0.936155 0.334911
Si Si8 0.637186 0.800173 0.765127
O O1 0.949792 0.126609 0.554551
O O2 0.000000 0.500000 0.500000
O O3 0.008951 0.359144 0.197581
O O4 0.751255 0.051403 0.549781
O O5 0.270789 0.200351 0.809166
O O6 0.470517 0.661126 0.490510
O O7 0.473458 0.636390 0.816117
O O8 0.237957 0.476586 0.841238
O O9 0.721476 0.115088 0.167028
O O10 0.695793 0.920133 0.912563
O O11 0.955565 0.222504 0.862232
O O12 0.761978 0.481664 0.839462
O O13 0.540548 0.163492 0.776144
O O14 0.649093 0.612411 0.751323
O O15 0.803643 0.599354 0.482103
O O16 0.032749 0.075261 0.178450
O O17 0.500000 0.000000 0.500000
#
# Coordination Sequence:
#
# PCOD9079753 Si02
#       8
#     2   2   2   2   2   2   2   2
#     4  10  19  31  54  93 125 141 176 245 306 345
#     4  11  22  37  61  88 113 153 204 242 279 348
#     4  10  20  39  65  89 115 146 199 252 291 337
#     4  11  18  38  66  87 115 153 195 238 294 345
#     4   9  18  35  63  92 112 145 193 248 295 341
#     4  10  18  37  64  91 114 143 199 250 289 343
#     4  12  28  42  53  81 129 166 192 236 295 349
#     4  11  19  36  68  94 108 149 201 248 292 341
#
# _framework density 29.236253999999999
#
# number of rings (size 3 to 8) (size 9 to 14) (size 15 to 20)
#    0.000    1.500    6.250    2.250    0.000    4.000 
#    0.000    6.250    0.000    0.000    0.000    0.000 
#    0.000    0.000    0.000    0.000    0.000    0.000 
#
# Total GULP energy -89667.816959 kJ/mol
# GULP energy per Si atom -5604.238560 kJ/mol
# Density = 2.916971 g / cm^3
# Si number density = 29.236254 Si / 1000 Ang^3
#
#
#
# Elastic Constant Matrix: (Units=GPa)
#
#
# Indices 1 2 3 4 5 6 
#
# 1 89.8831 38.3123 36.4862 2.9610 -42.0397 3.5355
# 2 38.3123 82.2292 13.1300 18.9138 -20.3756 -11.9794
# 3 36.4862 13.1300 199.6089 13.4851 -46.2012 0.6223
# 4 2.9610 18.9138 13.4851 54.0009 5.9824 -11.6277
# 5 -42.0397 -20.3756 -46.2012 5.9824 76.7949 3.8421
# 6 3.5355 -11.9794 0.6223 -11.6277 3.8421 47.0731
#
#
#
# Elastic Compliance Matrix: (Units=1/GPa)
#
#
# Indices 1 2 3 4 5 6 
#
# 1 0.018295 -0.007009 -0.001099 0.000067 0.007677 -0.003753
# 2 -0.007009 0.017409 0.000839 -0.005338 0.001528 0.003502
# 3 -0.001099 0.000839 0.006126 -0.002290 0.003517 -0.000638
# 4 0.000067 -0.005338 -0.002290 0.022473 -0.004738 0.004605
# 5 0.007677 0.001528 0.003517 -0.004738 0.020268 -0.003059
# 6 -0.003753 0.003502 -0.000638 0.004605 -0.003059 0.023812
#
#
# Mechanical properties :
#
#
# Convention : Reuss Voigt Hill
#
# Bulk Modulus (GPa) = 36.63819 60.84202 48.74011
# Shear Modulus (GPa) = 37.87369 54.49330 46.18349
#
# Velocity S-wave (km/s) = 3.60312 4.32197 3.97881
# Velocity P-wave (km/s) = 5.46525 6.76473 6.14941
#
# Compressibility (1/GPa) = 0.02729393
#
# Stress axis : x y z
#
# Youngs Moduli (GPa) = 54.65933 57.44093 163.23180
#
# Poissons Ratio (x) = 0.40258 0.17940
# Poissons Ratio (y) = 0.38308 -0.13700
# Poissons Ratio (z) = 0.06007 -0.04821
#
# Static dielectric constant tensor:
#      x y z
#    x 2.390340 -0.008960 0.064920 
#    y -0.008960 2.297330 0.019020 
#    z 0.064920 0.019020 2.302840 
# 
# From -- ./inp_files/200744.got.cif
#   From: 2010.05.17/outbox.cif.g08.bks.cpg/sg2_101_cif.got.tgz:200744.got - 2010.06.03 11:33:40.
