data_PCOD9079042
_publ_section_title
;
Structure prediction by ZEFSAII (Michael W. Deem and Ramdas Pophale) SiO2 
 PCOD9079042
Probable space group: P -1
;
_chemical_formula_sum "Si O2"
_cell_formula_units_Z 15
_cell_length_a 6.932876
_cell_length_b 13.745588
_cell_length_c 14.990846
_cell_angle_alpha 31.699886
_cell_angle_beta 125.250667
_cell_angle_gamma 134.858082
_cell_volume 531.106501
_symmetry_space_group_name_H-M "P -1"
_symmetry_group_IT_number 2
_symmetry_cell_setting 'triclinic'
loop_
_space_group_symop_operation_xyz
x,y,z
-x,-y,-z
loop_
_atom_site_type_symbol
_atom_site_label
_atom_site_fract_x
_atom_site_fract_y
_atom_site_fract_z
Si Si1 0.701737 0.533894 0.389432
Si Si2 0.966690 0.404385 0.200141
Si Si3 0.142479 0.448113 0.398192
Si Si4 0.950396 0.971621 0.693697
Si Si5 0.356927 0.831445 0.861739
Si Si6 0.401100 0.297258 0.336263
Si Si7 0.000000 0.000000 0.000000
Si Si8 0.786943 0.745174 0.007722
O O1 0.434055 0.528630 0.366298
O O2 0.821507 0.469640 0.555964
O O3 0.610941 0.354020 0.427722
O O4 0.850420 0.763541 0.203359
O O5 0.958274 0.455545 0.261652
O O6 0.141112 0.286383 0.324310
O O7 0.698606 0.256145 0.186920
O O8 0.152123 0.626789 0.025530
O O9 0.015292 0.194843 0.575523
O O10 0.724681 0.896713 0.613950
O O11 0.832780 0.798402 0.875967
O O12 0.227899 0.981683 0.725041
O O13 0.668287 0.889774 0.918350
O O14 0.542743 0.512694 0.146673
O O15 0.932233 0.132727 0.960316
#
# Coordination Sequence:
#
# PCOD9079042 Si02
#       8
#     2   2   2   2   2   2   1   2
#     4   9  18  33  55  85 117 162 196 235 296 367
#     4   8  16  33  53  80 121 161 182 245 302 355
#     4  10  19  33  59  91 120 152 203 241 308 351
#     4  11  20  34  61  96 112 150 204 253 287 357
#     4   9  19  35  57  87 120 151 201 243 294 349
#     4   8  17  30  54  84 115 147 199 238 291 342
#     4  10  18  36  62  80 112 168 202 224 290 364
#     4  10  19  35  58  86 118 158 194 247 291 355
#
# _framework density 28.242923000000001
#
# number of rings (size 3 to 8) (size 9 to 14) (size 15 to 20)
#    0.000    2.667    1.333    2.000    0.000    4.800 
#    0.000    1.333    0.000    7.200    0.000    0.000 
#    0.000    0.000    0.000    0.000    0.000    0.000 
#
# Total GULP energy -83699.373553 kJ/mol
# GULP energy per Si atom -5579.958237 kJ/mol
# Density = 2.817864 g / cm^3
# Si number density = 28.242923 Si / 1000 Ang^3
#
#
#
# Elastic Constant Matrix: (Units=GPa)
#
#
# Indices 1 2 3 4 5 6 
#
# 1 102.9126 23.3480 17.1097 10.4323 -9.0690 12.5185
# 2 23.3480 144.4453 54.4198 31.9158 -25.0119 -20.3326
# 3 17.1097 54.4198 137.3114 20.1776 -40.5917 -0.5052
# 4 10.4323 31.9158 20.1776 58.8487 -3.5831 -11.8584
# 5 -9.0690 -25.0119 -40.5917 -3.5831 37.5703 8.7237
# 6 12.5185 -20.3326 -0.5052 -11.8584 8.7237 45.9271
#
#
#
# Elastic Compliance Matrix: (Units=1/GPa)
#
#
# Indices 1 2 3 4 5 6 
#
# 1 0.011077 -0.001683 0.000436 -0.001995 0.002958 -0.004837
# 2 -0.001683 0.009739 -0.002478 -0.003298 0.002283 0.003458
# 3 0.000436 -0.002478 0.012330 -0.003056 0.012470 -0.004238
# 4 -0.001995 -0.003298 -0.003056 0.020964 -0.005247 0.005460
# 5 0.002958 0.002283 0.012470 -0.005247 0.043999 -0.009371
# 6 -0.004837 0.003458 -0.004238 0.005460 -0.009371 0.027766
#
#
# Mechanical properties :
#
#
# Convention : Reuss Voigt Hill
#
# Bulk Modulus (GPa) = 38.91260 63.82492 51.36876
# Shear Modulus (GPa) = 35.23840 47.78867 41.51353
#
# Velocity S-wave (km/s) = 3.53610 4.11793 3.83805
# Velocity P-wave (km/s) = 5.52084 6.72736 6.15374
#
# Compressibility (1/GPa) = 0.02569862
#
# Stress axis : x y z
#
# Youngs Moduli (GPa) = 90.27341 102.67509 81.10097
#
# Poissons Ratio (x) = 0.17277 -0.03540
# Poissons Ratio (y) = 0.15191 0.20097
# Poissons Ratio (z) = -0.03940 0.25443
#
# Static dielectric constant tensor:
#      x y z
#    x 2.246250 0.003900 0.153740 
#    y 0.003900 3.327400 0.245330 
#    z 0.153740 0.245330 2.348840 
# 
# From -- ./inp_files/502708.got.cif
#   From: 2010.05.17/outbox.cif.g08.bks.cpg/sg2_252_cif.got.tgz:502708.got - 2010.06.03 11:33:40.
