data_PCOD9079425
_publ_section_title
;
Structure prediction by ZEFSAII (Michael W. Deem and Ramdas Pophale) SiO2 
 PCOD9079425
Probable space group: P -1
;
_chemical_formula_sum "Si O2"
_cell_formula_units_Z 16
_cell_length_a 11.299921
_cell_length_b 11.203065
_cell_length_c 11.819891
_cell_angle_alpha 36.031036
_cell_angle_beta 41.367354
_cell_angle_gamma 55.260150
_cell_volume 579.042245
_symmetry_space_group_name_H-M "P -1"
_symmetry_group_IT_number 2
_symmetry_cell_setting 'triclinic'
loop_
_space_group_symop_operation_xyz
x,y,z
-x,-y,-z
loop_
_atom_site_type_symbol
_atom_site_label
_atom_site_fract_x
_atom_site_fract_y
_atom_site_fract_z
Si Si1 0.711035 0.581505 0.791634
Si Si2 0.262382 0.927640 0.656134
Si Si3 0.649289 0.635239 0.038044
Si Si4 0.660422 0.925192 0.282400
Si Si5 0.861055 0.258187 0.481590
Si Si6 0.530193 0.051121 0.809737
Si Si7 0.225428 0.491354 0.440557
Si Si8 0.068741 0.202311 0.152240
O O1 0.734610 0.826107 0.558367
O O2 0.742634 0.544145 0.930922
O O3 0.803515 0.480843 0.694525
O O4 0.500000 0.500000 0.000000
O O5 0.279912 0.908327 0.793855
O O6 0.448248 0.864995 0.514749
O O7 0.082497 0.811133 0.824206
O O8 0.742260 0.659140 0.076732
O O9 0.643041 0.871365 0.821345
O O10 0.439682 0.557145 0.255236
O O11 0.644041 0.965483 0.130558
O O12 0.788065 0.747558 0.341173
O O13 0.663117 0.252635 0.570960
O O14 0.875663 0.394800 0.477921
O O15 0.983442 0.286616 0.262600
O O16 0.894757 0.032332 0.674786
O O17 0.500000 0.000000 0.000000
#
# Coordination Sequence:
#
# PCOD9079425 Si02
#       8
#     2   2   2   2   2   2   2   2
#     4   9  17  31  55  84 119 147 195 248 290 335
#     4  10  18  37  57  84 117 162 201 238 298 367
#     4  10  19  36  59  90 118 152 207 246 286 356
#     4  10  21  35  60  85 121 156 197 247 301 355
#     4  10  19  34  56  90 118 151 201 246 295 352
#     4  11  19  34  59  87 110 152 200 249 289 341
#     4  10  21  35  56  95 120 154 198 255 298 341
#     4  10  20  35  61  86 119 162 195 244 301 357
#
# _framework density 27.631836
#
# number of rings (size 3 to 8) (size 9 to 14) (size 15 to 20)
#    0.000    2.000    3.750    1.500    0.000    0.500 
#    0.000    6.250    0.000    3.000    0.000    0.000 
#    0.000    0.125    0.000    0.000    0.000    0.000 
#
# Total GULP energy -89401.376178 kJ/mol
# GULP energy per Si atom -5587.586011 kJ/mol
# Density = 2.756894 g / cm^3
# Si number density = 27.631836 Si / 1000 Ang^3
#
#
#
# Elastic Constant Matrix: (Units=GPa)
#
#
# Indices 1 2 3 4 5 6 
#
# 1 201.8351 25.4096 22.5591 2.3087 4.2978 49.8458
# 2 25.4096 138.5401 19.7109 17.0158 16.2157 30.2619
# 3 22.5591 19.7109 55.6969 3.6743 14.2230 2.2600
# 4 2.3087 17.0158 3.6743 36.5286 -3.6992 9.6602
# 5 4.2978 16.2157 14.2230 -3.6992 31.1264 4.8064
# 6 49.8458 30.2619 2.2600 9.6602 4.8064 48.8916
#
#
#
# Elastic Compliance Matrix: (Units=1/GPa)
#
#
# Indices 1 2 3 4 5 6 
#
# 1 0.007190 0.000460 -0.003329 0.001966 0.001761 -0.008023
# 2 0.000460 0.009382 -0.002187 -0.003160 -0.003524 -0.005204
# 3 -0.003329 -0.002187 0.022639 -0.003480 -0.009989 0.005371
# 4 0.001966 -0.003160 -0.003480 0.031693 0.007800 -0.006916
# 5 0.001761 -0.003524 -0.009989 0.007800 0.039924 -0.004619
# 6 -0.008023 -0.005204 0.005371 -0.006916 -0.004619 0.033426
#
#
# Mechanical properties :
#
#
# Convention : Reuss Voigt Hill
#
# Bulk Modulus (GPa) = 34.36553 59.04791 46.70672
# Shear Modulus (GPa) = 30.47548 45.20213 37.83881
#
# Velocity S-wave (km/s) = 3.32461 4.04898 3.70454
# Velocity P-wave (km/s) = 5.21549 6.57836 5.93617
#
# Compressibility (1/GPa) = 0.02909893
#
# Stress axis : x y z
#
# Youngs Moduli (GPa) = 139.08116 106.58351 44.17160
#
# Poissons Ratio (x) = -0.04899 0.14704
# Poissons Ratio (y) = -0.06393 0.09660
# Poissons Ratio (z) = 0.46298 0.23310
#
# Static dielectric constant tensor:
#      x y z
#    x 2.247900 -0.032500 -0.059660 
#    y -0.032500 2.181530 -0.029730 
#    z -0.059660 -0.029730 2.284120 
# 
# From -- ./inp_files/424907.got.cif
#   From: 2010.05.17/outbox.cif.g08.bks.cpg/sg2_213_cif.got.tgz:424907.got - 2010.06.03 11:33:40.
