data_PCOD9079447
_publ_section_title
;
Structure prediction by ZEFSAII (Michael W. Deem and Ramdas Pophale) SiO2 
 PCOD9079447
Probable space group: P -1
;
_chemical_formula_sum "Si O2"
_cell_formula_units_Z 16
_cell_length_a 8.327510
_cell_length_b 13.796498
_cell_length_c 11.384767
_cell_angle_alpha 136.024732
_cell_angle_beta 107.126308
_cell_angle_gamma 64.471571
_cell_volume 819.285024
_symmetry_space_group_name_H-M "P -1"
_symmetry_group_IT_number 2
_symmetry_cell_setting 'triclinic'
loop_
_space_group_symop_operation_xyz
x,y,z
-x,-y,-z
loop_
_atom_site_type_symbol
_atom_site_label
_atom_site_fract_x
_atom_site_fract_y
_atom_site_fract_z
Si Si1 0.457479 0.033564 0.313044
Si Si2 0.940199 0.178019 0.500688
Si Si3 0.296404 0.930185 0.809396
Si Si4 0.006939 0.237351 0.001162
Si Si5 0.950490 0.544703 0.163477
Si Si6 0.808356 0.136069 0.678431
Si Si7 0.587224 0.781585 0.297691
Si Si8 0.803296 0.093865 0.990031
O O1 0.593329 0.889252 0.283500
O O2 0.287791 0.993931 0.192515
O O3 0.550072 0.083599 0.265065
O O4 0.406535 0.148286 0.510639
O O5 0.843032 0.145740 0.337507
O O6 0.815251 0.161392 0.565090
O O7 0.973302 0.331173 0.660560
O O8 0.120452 0.039407 0.436616
O O9 0.330582 0.867056 0.893598
O O10 0.190051 0.106516 0.953988
O O11 0.949425 0.195832 0.824732
O O12 0.853362 0.219898 0.039404
O O13 0.011982 0.400538 0.132617
O O14 0.738496 0.625694 0.187865
O O15 0.000000 0.500000 0.000000
O O16 0.613418 0.218378 0.754379
O O17 0.000000 0.000000 0.000000
#
# Coordination Sequence:
#
# PCOD9079447 Si02
#       8
#     2   2   2   2   2   2   2   2
#     4  11  20  37  61  97 116 145 201 252 292 344
#     4  10  20  35  60  85 119 155 198 237 294 356
#     4  10  21  38  65  84 113 158 205 247 282 338
#     4  10  21  39  56  88 122 157 197 237 298 356
#     4  12  24  37  55  90 129 159 185 236 316 366
#     4  10  18  37  58  86 118 155 193 247 291 348
#     4  11  23  33  61  93 123 149 188 248 305 352
#     4  10  22  38  62  86 116 157 204 248 283 335
#
# _framework density 19.529222000000001
#
# number of rings (size 3 to 8) (size 9 to 14) (size 15 to 20)
#    0.000    1.500    3.750    2.625    5.250    0.500 
#    0.000    0.625    0.000    0.750    0.000    0.000 
#    0.000    0.000    0.000    0.000    0.000    0.000 
#
# Total GULP energy -89207.379945 kJ/mol
# GULP energy per Si atom -5575.461247 kJ/mol
# Density = 1.948477 g / cm^3
# Si number density = 19.529222 Si / 1000 Ang^3
#
#
#
# Elastic Constant Matrix: (Units=GPa)
#
#
# Indices 1 2 3 4 5 6 
#
# 1 81.5067 19.0284 21.2380 5.6340 -3.2532 11.3927
# 2 19.0284 58.7671 44.2960 1.0114 2.6449 17.3595
# 3 21.2380 44.2960 71.0460 10.2697 7.8894 8.5510
# 4 5.6340 1.0114 10.2697 40.7031 4.9713 -1.5334
# 5 -3.2532 2.6449 7.8894 4.9713 37.6864 -6.9384
# 6 11.3927 17.3595 8.5510 -1.5334 -6.9384 30.7244
#
#
#
# Elastic Compliance Matrix: (Units=1/GPa)
#
#
# Indices 1 2 3 4 5 6 
#
# 1 0.013969 -0.001468 -0.002811 -0.001494 0.001486 -0.003307
# 2 -0.001468 0.038969 -0.022490 0.004524 -0.001575 -0.015344
# 3 -0.002811 -0.022490 0.029623 -0.005960 -0.003256 0.004472
# 4 -0.001494 0.004524 -0.005960 0.026501 -0.002623 0.000387
# 5 0.001486 -0.001575 -0.003256 -0.002623 0.029221 0.007713
# 6 -0.003307 -0.015344 0.004472 0.000387 0.007713 0.042960
#
#
# Mechanical properties :
#
#
# Convention : Reuss Voigt Hill
#
# Bulk Modulus (GPa) = 34.45700 42.27163 38.36431
# Shear Modulus (GPa) = 20.45353 30.27328 25.36341
#
# Velocity S-wave (km/s) = 3.23976 3.94147 3.60772
# Velocity P-wave (km/s) = 5.62822 6.51198 6.08616
#
# Compressibility (1/GPa) = 0.02902168
#
# Stress axis : x y z
#
# Youngs Moduli (GPa) = 71.58690 25.66120 33.75787
#
# Poissons Ratio (x) = 0.03768 0.09491
# Poissons Ratio (y) = 0.10512 0.75921
# Poissons Ratio (z) = 0.20126 0.57712
#
# Static dielectric constant tensor:
#      x y z
#    x 1.753330 0.033880 0.002390 
#    y 0.033880 1.698300 -0.017490 
#    z 0.002390 -0.017490 1.693390 
# 
# From -- ./inp_files/396616.got.cif
#   From: 2010.05.17/outbox.cif.g08.bks.cpg/sg2_199_cif.got.tgz:396616.got - 2010.06.03 11:33:40.
