data_PCOD9079294
_publ_section_title
;
Structure prediction by ZEFSAII (Michael W. Deem and Ramdas Pophale) SiO2 
 PCOD9079294
Probable space group: P -1
;
_chemical_formula_sum "Si O2"
_cell_formula_units_Z 15
_cell_length_a 11.427287
_cell_length_b 9.039727
_cell_length_c 11.445927
_cell_angle_alpha 42.385215
_cell_angle_beta 47.260593
_cell_angle_gamma 60.479735
_cell_volume 585.298796
_symmetry_space_group_name_H-M "P -1"
_symmetry_group_IT_number 2
_symmetry_cell_setting 'triclinic'
loop_
_space_group_symop_operation_xyz
x,y,z
-x,-y,-z
loop_
_atom_site_type_symbol
_atom_site_label
_atom_site_fract_x
_atom_site_fract_y
_atom_site_fract_z
Si Si1 0.718896 0.720395 0.161517
Si Si2 0.909250 0.548556 0.654566
Si Si3 0.487450 0.649900 0.147764
Si Si4 0.817077 0.074515 0.067492
Si Si5 0.000000 0.500000 0.000000
Si Si6 0.223868 0.680690 0.478709
Si Si7 0.672188 0.227008 0.299661
Si Si8 0.324948 0.084813 0.321783
O O1 0.585584 0.739932 0.142280
O O2 0.891295 0.704091 0.993477
O O3 0.697948 0.500972 0.383724
O O4 0.731785 0.922308 0.120738
O O5 0.792380 0.752421 0.625573
O O6 0.000000 0.500000 0.500000
O O7 0.042793 0.598520 0.634570
O O8 0.818797 0.327634 0.881408
O O9 0.308592 0.673393 0.299980
O O10 0.542618 0.399935 0.244886
O O11 0.549114 0.775842 0.919483
O O12 0.730004 0.066624 0.254095
O O13 0.000000 0.000000 0.000000
O O14 0.830106 0.367147 0.151931
O O15 0.233347 0.920815 0.388575
O O16 0.607039 0.084046 0.533438
#
# Coordination Sequence:
#
# PCOD9079294 Si02
#       8
#     2   2   2   2   1   2   2   2
#     4  11  24  40  76 104 142 186 243 296 363 425
#     4  12  28  45  72 113 147 189 243 305 365 432
#     4  11  26  49  73 107 147 194 244 298 360 435
#     4  12  22  44  70 104 145 187 238 300 363 424
#     4  10  18  36  66 104 130 178 230 300 340 404
#     4  12  25  48  75 106 146 192 244 300 368 425
#     4  11  23  43  72 102 147 189 243 296 359 428
#     4  12  26  46  74 107 146 189 249 302 356 426
#
# _framework density 25.627935999999998
#
# number of rings (size 3 to 8) (size 9 to 14) (size 15 to 20)
#    0.000    0.533    6.667    2.000    3.733    1.067 
#    0.000    2.667    0.000    0.000    0.000    0.000 
#    0.000    0.000    0.000    0.000    0.000    0.000 
#
# Total GULP energy -83932.417685 kJ/mol
# GULP energy per Si atom -5595.494512 kJ/mol
# Density = 2.556961 g / cm^3
# Si number density = 25.627936 Si / 1000 Ang^3
#
#
#
# Elastic Constant Matrix: (Units=GPa)
#
#
# Indices 1 2 3 4 5 6 
#
# 1 69.9204 36.5356 33.1068 0.5017 -6.3526 -2.2728
# 2 36.5356 166.2821 42.7198 -9.5971 -11.0187 3.7627
# 3 33.1068 42.7198 130.8060 -7.9213 16.2935 -0.5555
# 4 0.5017 -9.5971 -7.9213 40.5188 -2.2498 6.6042
# 5 -6.3526 -11.0187 16.2935 -2.2498 33.4282 1.5414
# 6 -2.2728 3.7627 -0.5555 6.6042 1.5414 16.4798
#
#
#
# Elastic Compliance Matrix: (Units=1/GPa)
#
#
# Indices 1 2 3 4 5 6 
#
# 1 0.018380 -0.002816 -0.004392 -0.002070 0.004407 0.003447
# 2 -0.002816 0.007576 -0.002052 0.002156 0.003262 -0.003357
# 3 -0.004392 -0.002052 0.010305 0.001167 -0.006471 0.000348
# 4 -0.002070 0.002156 0.001167 0.027514 0.002152 -0.011966
# 5 0.004407 0.003262 -0.006471 0.002152 0.035335 -0.004522
# 6 0.003447 -0.003357 0.000348 -0.011966 -0.004522 0.067152
#
#
# Mechanical properties :
#
#
# Convention : Reuss Voigt Hill
#
# Bulk Modulus (GPa) = 56.36227 65.74812 61.05520
# Shear Modulus (GPa) = 26.21976 35.06177 30.64076
#
# Velocity S-wave (km/s) = 3.20205 3.70281 3.46150
# Velocity P-wave (km/s) = 5.97588 6.63262 6.31279
#
# Compressibility (1/GPa) = 0.01774236
#
# Stress axis : x y z
#
# Youngs Moduli (GPa) = 54.40630 131.99247 97.04157
#
# Poissons Ratio (x) = 0.37163 0.42623
# Poissons Ratio (y) = 0.15318 0.19910
# Poissons Ratio (z) = 0.23896 0.27081
#
# Static dielectric constant tensor:
#      x y z
#    x 1.775450 0.137340 0.000420 
#    y 0.137340 1.977950 0.034540 
#    z 0.000420 0.034540 2.035370 
# 
# From -- ./inp_files/418751.got.cif
#   From: 2010.05.17/outbox.cif.g08.bks.cpg/sg2_210_cif.got.tgz:418751.got - 2010.06.03 11:33:40.
