data_PCOD9079938
_publ_section_title
;
Structure prediction by ZEFSAII (Michael W. Deem and Ramdas Pophale) SiO2 
 PCOD9079938
Probable space group: P -1
;
_chemical_formula_sum "Si O2"
_cell_formula_units_Z 14
_cell_length_a 9.157054
_cell_length_b 9.219919
_cell_length_c 14.476347
_cell_angle_alpha 120.455518
_cell_angle_beta 44.658052
_cell_angle_gamma 117.814102
_cell_volume 729.088603
_symmetry_space_group_name_H-M "P -1"
_symmetry_group_IT_number 2
_symmetry_cell_setting 'triclinic'
loop_
_space_group_symop_operation_xyz
x,y,z
-x,-y,-z
loop_
_atom_site_type_symbol
_atom_site_label
_atom_site_fract_x
_atom_site_fract_y
_atom_site_fract_z
Si Si1 0.483533 0.926680 0.849250
Si Si2 0.240596 0.557120 0.875755
Si Si3 0.920140 0.689892 0.283377
Si Si4 0.298899 0.497808 0.026282
Si Si5 0.847504 0.830788 0.549283
Si Si6 0.082153 0.061858 0.257754
Si Si7 0.866288 0.864798 0.949122
O O1 0.312236 0.758298 0.893950
O O2 0.616481 0.876998 0.685333
O O3 0.671546 0.960145 0.850723
O O4 0.365363 0.083175 0.935633
O O5 0.240699 0.445769 0.747721
O O6 0.368296 0.509645 0.891802
O O7 0.000000 0.500000 0.000000
O O8 0.854533 0.697157 0.421964
O O9 0.153641 0.639617 0.157015
O O10 0.944773 0.878261 0.286553
O O11 0.500000 0.500000 0.000000
O O12 0.148198 0.319728 0.059680
O O13 0.000000 0.000000 0.500000
O O14 0.071394 0.193395 0.390255
O O15 0.046069 0.121235 0.190374
O O16 0.000000 0.000000 0.000000
#
# Coordination Sequence:
#
# PCOD9079938 Si02
#       7
#     2   2   2   2   2   2   2
#     4  10  20  36  60  79 105 145 192 215 263 325
#     4  10  20  35  54  82 110 141 178 225 269 317
#     4  10  18  38  58  77 108 143 182 227 263 316
#     4  11  22  32  54  83 114 137 172 226 284 314
#     4   8  19  35  62  78  98 143 201 222 245 313
#     4   9  19  36  59  78 102 146 195 214 255 323
#     4  12  21  33  54  85 114 137 171 230 281 317
#
# _framework density 19.202055999999999
#
# number of rings (size 3 to 8) (size 9 to 14) (size 15 to 20)
#    0.857    1.143    0.000    6.429    0.000    0.571 
#    0.000    0.714    3.143    2.571    0.000    0.000 
#    0.000    0.000    0.000    0.000    0.000    0.000 
#
# Total GULP energy -77963.097914 kJ/mol
# GULP energy per Si atom -5568.792708 kJ/mol
# Density = 1.915835 g / cm^3
# Si number density = 19.202056 Si / 1000 Ang^3
#
#
#
# Elastic Constant Matrix: (Units=GPa)
#
#
# Indices 1 2 3 4 5 6 
#
# 1 72.6520 -8.9866 22.1517 5.8528 26.5112 -5.8248
# 2 -8.9866 71.6433 9.9930 -4.8865 7.1684 -3.7893
# 3 22.1517 9.9930 85.8086 0.7742 35.0807 -6.9760
# 4 5.8528 -4.8865 0.7742 21.8440 10.6560 0.8754
# 5 26.5112 7.1684 35.0807 10.6560 40.0359 -3.6971
# 6 -5.8248 -3.7893 -6.9760 0.8754 -3.6971 21.0831
#
#
#
# Elastic Compliance Matrix: (Units=1/GPa)
#
#
# Indices 1 2 3 4 5 6 
#
# 1 0.019496 0.004192 0.000773 0.002719 -0.014720 0.003701
# 2 0.004192 0.015687 0.000078 0.005658 -0.006923 0.002554
# 3 0.000773 0.000078 0.019715 0.008673 -0.019840 0.002912
# 4 0.002719 0.005658 0.008673 0.058949 -0.026328 -0.002426
# 5 -0.014720 -0.006923 -0.019840 -0.026328 0.060338 -0.000202
# 6 0.003701 0.002554 0.002912 -0.002426 -0.000202 0.049942
#
#
# Mechanical properties :
#
#
# Convention : Reuss Voigt Hill
#
# Bulk Modulus (GPa) = 15.38871 30.71336 23.05103
# Shear Modulus (GPa) = 21.21321 30.38899 25.80110
#
# Velocity S-wave (km/s) = 3.32736 3.98249 3.66958
# Velocity P-wave (km/s) = 4.77423 6.09726 5.47585
#
# Compressibility (1/GPa) = 0.06498272
#
# Stress axis : x y z
#
# Youngs Moduli (GPa) = 51.29233 63.74868 50.72316
#
# Poissons Ratio (x) = -0.26721 -0.03921
# Poissons Ratio (y) = -0.21500 -0.00395
# Poissons Ratio (z) = -0.03965 -0.00496
#
# Static dielectric constant tensor:
#      x y z
#    x 1.722070 0.028740 0.041140 
#    y 0.028740 1.657490 -0.003000 
#    z 0.041140 -0.003000 1.719070 
# 
# From -- ./inp_files/397503.got.cif
#   From: 2010.05.17/outbox.cif.g08.bks.cpg/sg2_199_cif.got.tgz:397503.got - 2010.06.03 11:33:40.
