data_PCOD9079031
_publ_section_title
;
Structure prediction by ZEFSAII (Michael W. Deem and Ramdas Pophale) SiO2 
 PCOD9079031
Probable space group: P -1
;
_chemical_formula_sum "Si O2"
_cell_formula_units_Z 14
_cell_length_a 17.576836
_cell_length_b 21.188040
_cell_length_c 11.455372
_cell_angle_alpha 146.951387
_cell_angle_beta 148.157146
_cell_angle_gamma 18.262890
_cell_volume 692.432104
_symmetry_space_group_name_H-M "P -1"
_symmetry_group_IT_number 2
_symmetry_cell_setting 'triclinic'
loop_
_space_group_symop_operation_xyz
x,y,z
-x,-y,-z
loop_
_atom_site_type_symbol
_atom_site_label
_atom_site_fract_x
_atom_site_fract_y
_atom_site_fract_z
Si Si1 0.778299 0.257950 0.974760
Si Si2 0.910938 0.915352 0.118509
Si Si3 0.523479 0.993507 0.821344
Si Si4 0.224626 0.523533 0.352055
Si Si5 0.875402 0.929920 0.637807
Si Si6 0.159834 0.336229 0.085189
Si Si7 0.298371 0.710634 0.494114
O O1 0.912948 0.214837 0.966335
O O2 0.767908 0.124329 0.756322
O O3 0.500000 0.500000 0.000000
O O4 0.964107 0.163241 0.178987
O O5 0.077699 0.790816 0.261401
O O6 0.817481 0.110131 0.302425
O O7 0.670416 0.989464 0.928864
O O8 0.732280 0.783041 0.840064
O O9 0.346637 0.018720 0.563801
O O10 0.350743 0.169736 0.970160
O O11 0.155938 0.477180 0.291229
O O12 0.524470 0.343899 0.456728
O O13 0.075580 0.741333 0.514837
O O14 0.109799 0.540144 0.111894
O O15 0.500000 0.500000 0.500000
#
# Coordination Sequence:
#
# PCOD9079031 Si02
#       7
#     2   2   2   2   2   2   2
#     4  11  25  46  64  85 119 168 216 259 298 363
#     4  11  24  39  62  93 126 159 205 255 308 358
#     4  10  20  38  59  96 127 157 199 257 304 369
#     4  10  18  36  61  93 119 166 198 241 307 376
#     4  10  24  41  66  89 117 165 215 250 304 366
#     4   9  19  32  62  92 132 156 194 241 313 374
#     4  11  22  36  60  93 130 160 192 251 312 371
#
# _framework density 20.218588
#
# number of rings (size 3 to 8) (size 9 to 14) (size 15 to 20)
#    0.000    1.714    1.429    2.571    4.000    4.000 
#    0.000    0.714    0.000    0.000    0.000    0.000 
#    0.000    0.000    0.000    0.000    0.000    0.000 
#
# Total GULP energy -78192.266045 kJ/mol
# GULP energy per Si atom -5585.161860 kJ/mol
# Density = 2.017257 g / cm^3
# Si number density = 20.218588 Si / 1000 Ang^3
#
#
#
# Elastic Constant Matrix: (Units=GPa)
#
#
# Indices 1 2 3 4 5 6 
#
# 1 71.8397 22.2110 35.1870 2.9914 11.1424 -8.7801
# 2 22.2110 98.6347 31.9227 10.5178 4.1052 6.1005
# 3 35.1870 31.9227 96.0053 -2.9462 21.0944 -8.8549
# 4 2.9914 10.5178 -2.9462 34.8186 -5.0206 6.2087
# 5 11.1424 4.1052 21.0944 -5.0206 19.5974 -3.0398
# 6 -8.7801 6.1005 -8.8549 6.2087 -3.0398 40.2310
#
#
#
# Elastic Compliance Matrix: (Units=1/GPa)
#
#
# Indices 1 2 3 4 5 6 
#
# 1 0.018170 -0.002346 -0.004529 -0.002566 -0.005105 0.003335
# 2 -0.002346 0.012384 -0.004001 -0.003142 0.001831 -0.002647
# 3 -0.004529 -0.004001 0.016720 0.000598 -0.014099 0.002141
# 4 -0.002566 -0.003142 0.000598 0.031991 0.009017 -0.004208
# 5 -0.005105 0.001831 -0.014099 0.009017 0.070950 -0.000525
# 6 0.003335 -0.002647 0.002141 -0.004208 -0.000525 0.027067
#
#
# Mechanical properties :
#
#
# Convention : Reuss Voigt Hill
#
# Bulk Modulus (GPa) = 39.18143 49.45790 44.31966
# Shear Modulus (GPa) = 24.09172 30.73999 27.41585
#
# Velocity S-wave (km/s) = 3.45565 3.90344 3.68635
# Velocity P-wave (km/s) = 5.94500 6.69556 6.33141
#
# Compressibility (1/GPa) = 0.02552229
#
# Stress axis : x y z
#
# Youngs Moduli (GPa) = 55.03715 80.74858 59.80888
#
# Poissons Ratio (x) = 0.18943 0.27087
# Poissons Ratio (y) = 0.12911 0.23929
# Poissons Ratio (z) = 0.24926 0.32306
#
# Static dielectric constant tensor:
#      x y z
#    x 1.731560 0.010770 0.011050 
#    y 0.010770 1.732370 0.007240 
#    z 0.011050 0.007240 1.729960 
# 
# From -- ./inp_files/467197.got.cif
#   From: 2010.05.17/outbox.cif.g08.bks.cpg/sg2_234_cif.got.tgz:467197.got - 2010.06.03 11:33:40.
