data_PCOD9079698
_publ_section_title
;
Structure prediction by ZEFSAII (Michael W. Deem and Ramdas Pophale) SiO2 
 PCOD9079698
Probable space group: P -1
;
_chemical_formula_sum "Si O2"
_cell_formula_units_Z 16
_cell_length_a 7.815945
_cell_length_b 7.150335
_cell_length_c 19.890608
_cell_angle_alpha 37.693391
_cell_angle_beta 106.942707
_cell_angle_gamma 118.533237
_cell_volume 589.325564
_symmetry_space_group_name_H-M "P -1"
_symmetry_group_IT_number 2
_symmetry_cell_setting 'triclinic'
loop_
_space_group_symop_operation_xyz
x,y,z
-x,-y,-z
loop_
_atom_site_type_symbol
_atom_site_label
_atom_site_fract_x
_atom_site_fract_y
_atom_site_fract_z
Si Si1 0.052856 0.793656 0.284837
Si Si2 0.295297 0.148357 0.925175
Si Si3 0.014031 0.634043 0.133071
Si Si4 0.937469 0.796174 0.629817
Si Si5 0.748148 0.448437 0.525651
Si Si6 0.171801 0.773837 0.894591
Si Si7 0.511453 0.406944 0.640309
Si Si8 0.458212 0.251303 0.131509
O O1 0.992944 0.423885 0.350945
O O2 0.131553 0.767160 0.376802
O O3 0.231167 0.034139 0.187890
O O4 0.895574 0.947118 0.221439
O O5 0.098865 0.215194 0.873896
O O6 0.461586 0.500345 0.866269
O O7 0.330345 0.966389 0.916307
O O8 0.216782 0.893033 0.050959
O O9 0.854445 0.475044 0.100448
O O10 0.059398 0.361433 0.253383
O O11 0.709295 0.696583 0.612543
O O12 0.103424 0.170945 0.546563
O O13 0.576798 0.321280 0.599056
O O14 0.651068 0.459854 0.439286
O O15 0.000000 0.500000 0.000000
O O16 0.467802 0.056172 0.775746
O O17 0.500000 0.500000 0.000000
#
# Coordination Sequence:
#
# PCOD9079698 Si02
#       8
#     2   2   2   2   2   2   2   2
#     4  10  21  39  63  97 131 168 214 267 322 388
#     4  10  20  39  65  91 125 176 210 262 339 373
#     4  10  21  37  64  94 129 163 220 272 309 395
#     4  10  18  37  63  91 128 174 212 265 330 378
#     4   9  17  33  62  93 125 171 214 256 330 385
#     4  11  21  39  67  94 125 175 214 260 329 390
#     4   9  18  33  60  91 128 167 207 268 316 379
#     4   9  21  41  60  94 133 160 212 275 310 384
#
# _framework density 27.14968
#
# number of rings (size 3 to 8) (size 9 to 14) (size 15 to 20)
#    0.000    2.500    1.250    3.375    0.000    0.000 
#    6.750    5.625    2.750   12.750    0.000    0.000 
#    0.000    0.000    0.000    0.000    0.000    0.000 
#
# Total GULP energy -89354.586963 kJ/mol
# GULP energy per Si atom -5584.661685 kJ/mol
# Density = 2.708789 g / cm^3
# Si number density = 27.149680 Si / 1000 Ang^3
#
#
#
# Elastic Constant Matrix: (Units=GPa)
#
#
# Indices 1 2 3 4 5 6 
#
# 1 73.6034 29.9046 29.5512 -2.1996 27.6905 -2.0100
# 2 29.9046 124.3858 28.7137 0.8637 4.2035 3.0994
# 3 29.5512 28.7137 177.8586 21.9410 13.5961 12.6598
# 4 -2.1996 0.8637 21.9410 40.7508 7.0188 0.8675
# 5 27.6905 4.2035 13.5961 7.0188 45.4834 5.2284
# 6 -2.0100 3.0994 12.6598 0.8675 5.2284 38.0695
#
#
#
# Elastic Compliance Matrix: (Units=1/GPa)
#
#
# Indices 1 2 3 4 5 6 
#
# 1 0.021668 -0.004252 -0.002810 0.004958 -0.013198 0.004124
# 2 -0.004252 0.009208 -0.000834 -0.000325 0.002150 -0.000985
# 3 -0.002810 -0.000834 0.006820 -0.003862 0.000615 -0.002345
# 4 0.004958 -0.000325 -0.003862 0.027949 -0.006355 0.001808
# 5 -0.013198 0.002150 0.000615 -0.006355 0.031219 -0.005219
# 6 0.004124 -0.000985 -0.002345 0.001808 -0.005219 0.028021
#
#
# Mechanical properties :
#
#
# Convention : Reuss Voigt Hill
#
# Bulk Modulus (GPa) = 45.65314 61.35409 53.50361
# Shear Modulus (GPa) = 33.78823 44.03929 38.91376
#
# Velocity S-wave (km/s) = 3.53160 4.03189 3.79001
# Velocity P-wave (km/s) = 5.78631 6.65750 6.23714
#
# Compressibility (1/GPa) = 0.02190430
#
# Stress axis : x y z
#
# Youngs Moduli (GPa) = 46.15094 108.59564 146.61872
#
# Poissons Ratio (x) = 0.46174 0.41200
# Poissons Ratio (y) = 0.19623 0.12234
# Poissons Ratio (z) = 0.12969 0.09061
#
# Static dielectric constant tensor:
#      x y z
#    x 2.562240 -0.054540 -0.050360 
#    y -0.054540 2.100010 0.082110 
#    z -0.050360 0.082110 2.163350 
# 
# From -- ./inp_files/609727.got.cif
#   From: 2010.05.17/outbox.cif.g08.bks.cpg/sg2_305_cif.got.tgz:609727.got - 2010.06.03 11:33:40.
