data_PCOD9079009
_publ_section_title
;
Structure prediction by ZEFSAII (Michael W. Deem and Ramdas Pophale) SiO2 
 PCOD9079009
Probable space group: P -1
;
_chemical_formula_sum "Si O2"
_cell_formula_units_Z 14
_cell_length_a 10.382148
_cell_length_b 9.146176
_cell_length_c 10.464063
_cell_angle_alpha 117.431546
_cell_angle_beta 43.177238
_cell_angle_gamma 115.713198
_cell_volume 595.561184
_symmetry_space_group_name_H-M "P -1"
_symmetry_group_IT_number 2
_symmetry_cell_setting 'triclinic'
loop_
_space_group_symop_operation_xyz
x,y,z
-x,-y,-z
loop_
_atom_site_type_symbol
_atom_site_label
_atom_site_fract_x
_atom_site_fract_y
_atom_site_fract_z
Si Si1 0.886960 0.506582 0.717473
Si Si2 0.756808 0.812514 0.037711
Si Si3 0.831960 0.159986 0.579414
Si Si4 0.764076 0.439975 0.320320
Si Si5 0.829882 0.805530 0.462408
Si Si6 0.595127 0.183833 0.541333
Si Si7 0.922414 0.168873 0.962171
O O1 0.760570 0.324354 0.751812
O O2 0.000000 0.500000 0.500000
O O3 0.037935 0.523655 0.729570
O O4 0.784769 0.665645 0.862328
O O5 0.552465 0.764537 0.230954
O O6 0.911311 0.818361 0.044460
O O7 0.788107 0.994984 0.023811
O O8 0.796967 0.172248 0.457963
O O9 0.044653 0.185228 0.494718
O O10 0.733390 0.971800 0.606122
O O11 0.709427 0.625633 0.440958
O O12 0.627698 0.309902 0.453009
O O13 0.816553 0.331662 0.118103
O O14 0.980301 0.837053 0.248311
O O15 0.500000 0.000000 0.500000
#
# Coordination Sequence:
#
# PCOD9079009 Si02
#       7
#     2   2   2   2   2   2   2
#     4  10  18  36  61  89 115 157 207 253 285 358
#     4  10  22  34  65  93 119 160 205 256 303 351
#     4  10  22  38  60  88 124 160 205 247 303 358
#     4  10  21  36  64  91 119 157 205 253 303 356
#     4  10  21  38  65  88 120 168 201 252 300 366
#     4  12  22  40  62  93 126 158 200 260 304 359
#     4  10  19  39  60  93 116 156 214 250 296 367
#
# _framework density 23.507238999999998
#
# number of rings (size 3 to 8) (size 9 to 14) (size 15 to 20)
#    0.000    1.714    2.857    2.143    2.000    0.571 
#    0.000    3.571    6.286    0.000    0.000    0.000 
#    0.000    0.000    0.000    0.000    0.000    0.000 
#
# Total GULP energy -78105.105130 kJ/mol
# GULP energy per Si atom -5578.936081 kJ/mol
# Density = 2.345374 g / cm^3
# Si number density = 23.507239 Si / 1000 Ang^3
#
#
#
# Elastic Constant Matrix: (Units=GPa)
#
#
# Indices 1 2 3 4 5 6 
#
# 1 75.0081 20.6237 8.3794 7.2412 7.2245 -2.8047
# 2 20.6237 190.0410 53.9353 32.0979 -1.4228 11.8166
# 3 8.3794 53.9353 109.1074 14.3186 15.2267 7.7758
# 4 7.2412 32.0979 14.3186 46.0562 1.1548 9.8787
# 5 7.2245 -1.4228 15.2267 1.1548 20.3398 1.7213
# 6 -2.8047 11.8166 7.7758 9.8787 1.7213 22.7905
#
#
#
# Elastic Compliance Matrix: (Units=1/GPa)
#
#
# Indices 1 2 3 4 5 6 
#
# 1 0.014638 -0.001687 0.000522 -0.001953 -0.005918 0.003791
# 2 -0.001687 0.007104 -0.003376 -0.003400 0.003949 -0.001564
# 3 0.000522 -0.003376 0.012347 -0.001069 -0.009501 -0.001217
# 4 -0.001953 -0.003400 -0.001069 0.026804 0.000561 -0.009773
# 5 -0.005918 0.003949 -0.009501 0.000561 0.058981 -0.004232
# 6 0.003791 -0.001564 -0.001217 -0.009773 -0.004232 0.050127
#
#
# Mechanical properties :
#
#
# Convention : Reuss Voigt Hill
#
# Bulk Modulus (GPa) = 39.98895 60.00370 49.99632
# Shear Modulus (GPa) = 26.67836 37.25184 31.96510
#
# Velocity S-wave (km/s) = 3.37248 3.98514 3.69154
# Velocity P-wave (km/s) = 5.67566 6.83785 6.28368
#
# Compressibility (1/GPa) = 0.02500691
#
# Stress axis : x y z
#
# Youngs Moduli (GPa) = 68.31700 140.76221 80.99253
#
# Poissons Ratio (x) = 0.23743 -0.04224
# Poissons Ratio (y) = 0.11523 0.27340
# Poissons Ratio (z) = -0.03563 0.47517
#
# Static dielectric constant tensor:
#      x y z
#    x 1.890040 -0.030320 -0.039350 
#    y -0.030320 1.995710 0.073580 
#    z -0.039350 0.073580 2.144710 
# 
# From -- ./inp_files/278053.got.cif
#   From: 2010.05.17/outbox.cif.g08.bks.cpg/sg2_140_cif.got.tgz:278053.got - 2010.06.03 11:33:40.
