data_PCOD9079108
_publ_section_title
;
Structure prediction by ZEFSAII (Michael W. Deem and Ramdas Pophale) SiO2 
 PCOD9079108
Probable space group: P -1
;
_chemical_formula_sum "Si O2"
_cell_formula_units_Z 13
_cell_length_a 7.268597
_cell_length_b 11.981996
_cell_length_c 7.213879
_cell_angle_alpha 70.392035
_cell_angle_beta 78.983564
_cell_angle_gamma 71.132920
_cell_volume 557.633507
_symmetry_space_group_name_H-M "P -1"
_symmetry_group_IT_number 2
_symmetry_cell_setting 'triclinic'
loop_
_space_group_symop_operation_xyz
x,y,z
-x,-y,-z
loop_
_atom_site_type_symbol
_atom_site_label
_atom_site_fract_x
_atom_site_fract_y
_atom_site_fract_z
Si Si1 0.100993 0.818941 0.357982
Si Si2 0.914857 0.428422 0.333921
Si Si3 0.694817 0.645250 0.504709
Si Si4 0.665574 0.926181 0.373019
Si Si5 0.000000 0.000000 0.500000
Si Si6 0.377142 0.612956 0.842289
Si Si7 0.806019 0.130371 0.097584
O O1 0.131071 0.676932 0.465834
O O2 0.884451 0.893489 0.451371
O O3 0.105596 0.847624 0.127766
O O4 0.203568 0.895119 0.425178
O O5 0.796620 0.561188 0.360557
O O6 0.830802 0.405460 0.166028
O O7 0.145549 0.399770 0.335201
O O8 0.662262 0.790084 0.393087
O O9 0.499478 0.618945 0.629150
O O10 0.500000 0.000000 0.500000
O O11 0.694371 0.024037 0.162473
O O12 0.962603 0.085822 0.255721
O O13 0.342028 0.740667 0.885375
O O14 0.500000 0.500000 0.000000
#
# Coordination Sequence:
#
# PCOD9079108 Si02
#       7
#     2   2   2   2   1   2   2
#     4  10  21  38  67  98 128 178 229 273 337 409
#     4  10  22  44  69  94 134 182 225 283 343 400
#     4  10  22  41  68  96 131 182 223 280 345 403
#     4  10  19  37  63  92 138 173 211 284 337 397
#     4  10  18  36  62  90 132 168 218 272 322 398
#     4  12  24  41  68  98 136 178 227 285 340 409
#     4  11  22  39  66 101 132 177 230 274 341 412
#
# _framework density 23.312802000000001
#
# number of rings (size 3 to 8) (size 9 to 14) (size 15 to 20)
#    0.000    1.538    3.077    3.231    0.000    0.615 
#    0.000    0.000    6.769   16.615    0.000    0.000 
#    0.000    0.000    0.000    0.000    0.000    0.000 
#
# Total GULP energy -72398.914614 kJ/mol
# GULP energy per Si atom -5569.147278 kJ/mol
# Density = 2.325974 g / cm^3
# Si number density = 23.312802 Si / 1000 Ang^3
#
#
#
# Elastic Constant Matrix: (Units=GPa)
#
#
# Indices 1 2 3 4 5 6 
#
# 1 71.8069 16.8582 7.8807 -1.9991 -1.9106 -10.9778
# 2 16.8582 191.8650 22.0931 -9.7706 -5.6105 -13.1899
# 3 7.8807 22.0931 92.8771 -9.6237 8.8882 -6.8167
# 4 -1.9991 -9.7706 -9.6237 29.4283 -3.4080 -4.3661
# 5 -1.9106 -5.6105 8.8882 -3.4080 19.4085 8.3433
# 6 -10.9778 -13.1899 -6.8167 -4.3661 8.3433 29.8305
#
#
#
# Elastic Compliance Matrix: (Units=1/GPa)
#
#
# Indices 1 2 3 4 5 6 
#
# 1 0.015025 -0.000845 -0.000478 0.001313 -0.000645 0.005419
# 2 -0.000845 0.005681 -0.001108 0.001919 0.001643 0.001769
# 3 -0.000478 -0.001108 0.012514 0.003533 -0.007551 0.004822
# 4 0.001313 0.001919 0.003533 0.037185 0.002656 0.006839
# 5 -0.000645 0.001643 -0.007551 0.002656 0.063908 -0.018722
# 6 0.005419 0.001769 0.004822 0.006839 -0.018722 0.043639
#
#
# Mechanical properties :
#
#
# Convention : Reuss Voigt Hill
#
# Bulk Modulus (GPa) = 35.26424 50.02365 42.64395
# Shear Modulus (GPa) = 26.00568 36.38128 31.19348
#
# Velocity S-wave (km/s) = 3.34355 3.95469 3.66189
# Velocity P-wave (km/s) = 5.48317 6.50822 6.01756
#
# Compressibility (1/GPa) = 0.02835734
#
# Stress axis : x y z
#
# Youngs Moduli (GPa) = 66.55629 176.01797 79.91201
#
# Poissons Ratio (x) = 0.14865 0.03824
# Poissons Ratio (y) = 0.05621 0.08857
# Poissons Ratio (z) = 0.03185 0.19508
#
# Static dielectric constant tensor:
#      x y z
#    x 2.014280 0.023020 0.029700 
#    y 0.023020 1.959700 0.039250 
#    z 0.029700 0.039250 1.864340 
# 
# From -- ./inp_files/24017.got.cif
#   From: 2010.05.17/outbox.cif.g08.bks.cpg/sg2_13_cif.got.tgz:24017.got - 2010.06.03 11:33:40.
