data_PCOD9079088
_publ_section_title
;
Structure prediction by ZEFSAII (Michael W. Deem and Ramdas Pophale) SiO2 
 PCOD9079088
Probable space group: P -1
;
_chemical_formula_sum "Si O2"
_cell_formula_units_Z 14
_cell_length_a 8.233661
_cell_length_b 7.007222
_cell_length_c 10.484719
_cell_angle_alpha 90.309636
_cell_angle_beta 64.091697
_cell_angle_gamma 75.776416
_cell_volume 523.009660
_symmetry_space_group_name_H-M "P -1"
_symmetry_group_IT_number 2
_symmetry_cell_setting 'triclinic'
loop_
_space_group_symop_operation_xyz
x,y,z
-x,-y,-z
loop_
_atom_site_type_symbol
_atom_site_label
_atom_site_fract_x
_atom_site_fract_y
_atom_site_fract_z
Si Si1 0.707484 0.429757 0.566619
Si Si2 0.617866 0.184344 0.400807
Si Si3 0.882263 0.642256 0.683216
Si Si4 0.439420 0.007446 0.248518
Si Si5 0.395946 0.780335 0.037915
Si Si6 0.108713 0.549397 0.082457
Si Si7 0.009058 0.024101 0.846135
O O1 0.656549 0.233003 0.535952
O O2 0.532230 0.614616 0.592729
O O3 0.775686 0.473588 0.682040
O O4 0.899688 0.430865 0.427674
O O5 0.547052 0.018908 0.345845
O O6 0.824932 0.142490 0.270608
O O7 0.772021 0.847133 0.654842
O O8 0.867379 0.638226 0.838236
O O9 0.481117 0.802644 0.150216
O O10 0.512449 0.142307 0.115624
O O11 0.309996 0.603284 0.014962
O O12 0.198889 0.948041 0.131335
O O13 0.969823 0.754725 0.185411
O O14 0.000000 0.500000 0.000000
O O15 0.000000 0.000000 0.000000
#
# Coordination Sequence:
#
# PCOD9079088 Si02
#       7
#     2   2   2   2   2   2   2
#     4   9  21  36  65  85 113 164 201 246 278 354
#     4  10  18  36  62  88 109 152 213 236 284 347
#     4  10  21  39  57  88 119 156 201 244 296 339
#     4  10  19  33  63  84 120 151 196 242 283 370
#     4   9  21  34  53  94 112 159 183 236 307 348
#     4  10  24  36  59  91 123 155 189 251 303 351
#     4  10  20  37  60  88 116 158 193 243 297 356
#
# _framework density 26.768149000000001
#
# number of rings (size 3 to 8) (size 9 to 14) (size 15 to 20)
#    0.857    1.429    1.429    0.857    6.000    0.571 
#    0.000    1.429    0.000    0.000    0.000    0.000 
#    0.000    0.000    0.000    0.000    0.000    0.000 
#
# Total GULP energy -77946.340336 kJ/mol
# GULP energy per Si atom -5567.595738 kJ/mol
# Density = 2.670722 g / cm^3
# Si number density = 26.768149 Si / 1000 Ang^3
#
#
#
# Elastic Constant Matrix: (Units=GPa)
#
#
# Indices 1 2 3 4 5 6 
#
# 1 94.2393 32.4941 56.0371 23.3768 10.7175 0.4609
# 2 32.4941 91.4453 23.0654 23.9425 -2.3367 21.2241
# 3 56.0371 23.0654 34.8051 57.7024 28.1581 27.7802
# 4 23.3768 23.9425 57.7024 26.0840 -3.4637 0.3565
# 5 10.7175 -2.3367 28.1581 -3.4637 78.5174 16.2957
# 6 0.4609 21.2241 27.7802 0.3565 16.2957 43.4958
#
#
#
# Elastic Compliance Matrix: (Units=1/GPa)
#
#
# Indices 1 2 3 4 5 6 
#
# 1 0.014602 -0.002527 0.000775 -0.012949 -0.003319 0.001933
# 2 -0.002527 0.014237 -0.004825 0.000418 0.003594 -0.005189
# 3 0.000775 -0.004825 -0.006785 0.018902 0.001804 0.005849
# 4 -0.012949 0.000418 0.018902 0.007592 -0.002311 -0.011336
# 5 -0.003319 0.003594 0.001804 -0.002311 0.014247 -0.008189
# 6 0.001933 -0.005189 0.005849 -0.011336 -0.008189 0.024928
#
#
# Mechanical properties :
#
#
# Convention : Reuss Voigt Hill
#
# Bulk Modulus (GPa) = 112.34443 49.29810 80.82127
# Shear Modulus (GPa) = 58.86457 36.87897 47.87177
#
# Velocity S-wave (km/s) = 4.69449 3.71579 4.23352
# Velocity P-wave (km/s) = 8.45251 6.07175 7.35904
#
# Compressibility (1/GPa) = 0.00890120
#
# Stress axis : x y z
#
# Youngs Moduli (GPa) = 68.48537 70.23804 -147.38824
#
# Poissons Ratio (x) = 0.17751 0.11427
# Poissons Ratio (y) = 0.17308 -0.71109
# Poissons Ratio (z) = -0.05310 0.33887
#
# Static dielectric constant tensor:
#      x y z
#    x 2.303290 0.209190 0.087660 
#    y 0.209190 2.329220 0.106670 
#    z 0.087660 0.106670 2.185270 
# 
# From -- ./inp_files/376839.got.cif
#   From: 2010.05.17/outbox.cif.g08.bks.cpg/sg2_189_cif.got.tgz:376839.got - 2010.06.03 11:33:40.
