data_PCOD9079235
_publ_section_title
;
Structure prediction by ZEFSAII (Michael W. Deem and Ramdas Pophale) SiO2 
 PCOD9079235
Probable space group: P -1
;
_chemical_formula_sum "Si O2"
_cell_formula_units_Z 16
_cell_length_a 14.633710
_cell_length_b 8.891036
_cell_length_c 12.165650
_cell_angle_alpha 137.217347
_cell_angle_beta 114.420422
_cell_angle_gamma 43.647515
_cell_volume 718.315485
_symmetry_space_group_name_H-M "P -1"
_symmetry_group_IT_number 2
_symmetry_cell_setting 'triclinic'
loop_
_space_group_symop_operation_xyz
x,y,z
-x,-y,-z
loop_
_atom_site_type_symbol
_atom_site_label
_atom_site_fract_x
_atom_site_fract_y
_atom_site_fract_z
Si Si1 0.935078 0.057701 0.677862
Si Si2 0.578448 0.651912 0.350406
Si Si3 0.955706 0.249065 0.024086
Si Si4 0.987750 0.333847 0.688862
Si Si5 0.484939 0.209722 0.243203
Si Si6 0.650670 0.598089 0.110467
Si Si7 0.351940 0.630238 0.224174
Si Si8 0.706285 0.242538 0.389317
O O1 0.801548 0.117746 0.676241
O O2 0.898065 0.317559 0.717143
O O3 0.024731 0.752832 0.485694
O O4 0.982500 0.107186 0.840051
O O5 0.640091 0.543737 0.201498
O O6 0.456399 0.664506 0.323311
O O7 0.692384 0.427062 0.377310
O O8 0.500000 0.000000 0.500000
O O9 0.025068 0.383879 0.152013
O O10 0.792199 0.511223 0.105072
O O11 0.000000 0.000000 0.000000
O O12 0.141610 0.042675 0.650657
O O13 0.412235 0.319250 0.146608
O O14 0.624777 0.140625 0.264853
O O15 0.379194 0.514446 0.425754
O O16 0.524375 0.938709 0.189712
O O17 0.649876 0.390815 0.918286
#
# Coordination Sequence:
#
# PCOD9079235 Si02
#       8
#     2   2   2   2   2   2   2   2
#     4  10  24  43  69  98 124 177 221 265 323 381
#     4  11  23  37  62  94 129 169 204 258 328 392
#     4  11  26  45  66  97 135 171 219 272 323 389
#     4  11  22  45  71  91 133 172 223 272 316 382
#     4  10  18  36  64  94 119 163 209 254 326 375
#     4  11  22  40  61  94 127 171 199 264 337 368
#     4  10  22  40  60  94 134 157 217 263 310 396
#     4  10  20  35  63  95 121 163 217 257 308 388
#
# _framework density 22.274336000000002
#
# number of rings (size 3 to 8) (size 9 to 14) (size 15 to 20)
#    0.000    1.500    3.750    1.125    3.500    0.500 
#    0.000    7.500    0.000    0.000    0.000    0.000 
#    0.000    0.000    0.000    0.000    0.000    0.000 
#
# Total GULP energy -89318.742801 kJ/mol
# GULP energy per Si atom -5582.421425 kJ/mol
# Density = 2.222364 g / cm^3
# Si number density = 22.274336 Si / 1000 Ang^3
#
#
#
# Elastic Constant Matrix: (Units=GPa)
#
#
# Indices 1 2 3 4 5 6 
#
# 1 74.2560 11.8439 38.0018 -7.8188 4.9562 4.3048
# 2 11.8439 79.2555 43.3397 -11.5656 -7.8286 27.2404
# 3 38.0018 43.3397 98.8759 -26.7415 -1.9800 23.1778
# 4 -7.8188 -11.5656 -26.7415 31.5694 8.7711 -6.3056
# 5 4.9562 -7.8286 -1.9800 8.7711 35.9722 -3.8476
# 6 4.3048 27.2404 23.1778 -6.3056 -3.8476 34.4340
#
#
#
# Elastic Compliance Matrix: (Units=1/GPa)
#
#
# Indices 1 2 3 4 5 6 
#
# 1 0.017226 0.000506 -0.007665 -0.000992 -0.002210 0.002177
# 2 0.000506 0.020248 -0.006647 -0.001227 0.003041 -0.011492
# 3 -0.007665 -0.006647 0.020754 0.012942 -0.003015 -0.005720
# 4 -0.000992 -0.001227 0.012942 0.044710 -0.010383 -0.000589
# 5 -0.002210 0.003041 -0.003015 -0.010383 0.031291 0.001496
# 6 0.002177 -0.011492 -0.005720 -0.000589 0.001496 0.041770
#
#
# Mechanical properties :
#
#
# Convention : Reuss Voigt Hill
#
# Bulk Modulus (GPa) = 32.66344 48.75091 40.70717
# Shear Modulus (GPa) = 23.38464 31.00860 27.19662
#
# Velocity S-wave (km/s) = 3.24365 3.73516 3.49805
# Velocity P-wave (km/s) = 5.35951 6.36679 5.88474
#
# Compressibility (1/GPa) = 0.03061527
#
# Stress axis : x y z
#
# Youngs Moduli (GPa) = 58.05198 49.38875 48.18382
#
# Poissons Ratio (x) = -0.02499 0.36935
# Poissons Ratio (y) = -0.02938 0.32026
# Poissons Ratio (z) = 0.44499 0.32827
#
# Static dielectric constant tensor:
#      x y z
#    x 1.847600 -0.021160 0.000520 
#    y -0.021160 1.856750 -0.012420 
#    z 0.000520 -0.012420 1.851780 
# 
# From -- ./inp_files/238524.got.cif
#   From: 2010.05.17/outbox.cif.g08.bks.cpg/sg2_120_cif.got.tgz:238524.got - 2010.06.03 11:33:40.
