data_PCOD9079015
_publ_section_title
;
Structure prediction by ZEFSAII (Michael W. Deem and Ramdas Pophale) SiO2 
 PCOD9079015
Probable space group: P -1
;
_chemical_formula_sum "Si O2"
_cell_formula_units_Z 16
_cell_length_a 10.774349
_cell_length_b 10.813492
_cell_length_c 14.266894
_cell_angle_alpha 125.409128
_cell_angle_beta 32.804772
_cell_angle_gamma 135.529673
_cell_volume 629.959682
_symmetry_space_group_name_H-M "P -1"
_symmetry_group_IT_number 2
_symmetry_cell_setting 'triclinic'
loop_
_space_group_symop_operation_xyz
x,y,z
-x,-y,-z
loop_
_atom_site_type_symbol
_atom_site_label
_atom_site_fract_x
_atom_site_fract_y
_atom_site_fract_z
Si Si1 0.370956 0.211945 0.539873
Si Si2 0.888615 0.236373 0.907817
Si Si3 0.511370 0.821806 0.014374
Si Si4 0.814189 0.650898 0.050636
Si Si5 0.779006 0.613573 0.698854
Si Si6 0.268200 0.053139 0.743629
Si Si7 0.735252 0.136581 0.622085
Si Si8 0.939824 0.360474 0.290947
O O1 0.310139 0.107742 0.632158
O O2 0.680107 0.362184 0.420414
O O3 0.151228 0.268540 0.699231
O O4 0.325524 0.065303 0.427171
O O5 0.691282 0.265760 0.982459
O O6 0.997759 0.340653 0.981409
O O7 0.713308 0.027744 0.952659
O O8 0.345665 0.814275 0.207571
O O9 0.688697 0.732041 0.867258
O O10 0.501686 0.547856 0.229180
O O11 0.893300 0.855580 0.076929
O O12 0.852000 0.575822 0.897404
O O13 0.968959 0.734261 0.547963
O O14 0.929390 0.560487 0.657242
O O15 0.537669 0.138459 0.670244
O O16 0.160289 0.847315 0.727779
#
# Coordination Sequence:
#
# PCOD9079015 Si02
#       8
#     2   2   2   2   2   2   2   2
#     4  10  18  36  65  90 126 149 199 261 297 356
#     4  10  22  45  61  94 117 155 218 257 292 351
#     4  11  24  42  69  85 120 162 211 258 291 360
#     4  11  24  37  61  91 126 166 196 250 311 358
#     4  12  23  42  59  94 131 156 203 247 302 378
#     4  10  18  36  61  89 123 155 197 253 297 365
#     4  11  20  38  64  93 120 165 194 248 318 345
#     4  11  19  37  63  92 123 160 199 248 309 361
#
# _framework density 25.398453
#
# number of rings (size 3 to 8) (size 9 to 14) (size 15 to 20)
#    0.000    1.250    3.750    4.500    0.000    1.500 
#    6.750    0.625    0.000    0.000    0.000    0.000 
#    0.000    0.000    0.000    0.000    0.000    0.000 
#
# Total GULP energy -89629.085488 kJ/mol
# GULP energy per Si atom -5601.817843 kJ/mol
# Density = 2.534065 g / cm^3
# Si number density = 25.398453 Si / 1000 Ang^3
#
#
#
# Elastic Constant Matrix: (Units=GPa)
#
#
# Indices 1 2 3 4 5 6 
#
# 1 69.4913 32.2381 18.6956 -19.7273 -17.2506 29.3409
# 2 32.2381 82.4430 14.2261 -6.2972 7.0731 23.8784
# 3 18.6956 14.2261 126.1788 -2.6679 2.2285 14.6573
# 4 -19.7273 -6.2972 -2.6679 47.4835 17.2600 -3.7180
# 5 -17.2506 7.0731 2.2285 17.2600 33.5656 -1.3589
# 6 29.3409 23.8784 14.6573 -3.7180 -1.3589 38.0603
#
#
#
# Elastic Compliance Matrix: (Units=1/GPa)
#
#
# Indices 1 2 3 4 5 6 
#
# 1 0.030535 -0.007472 -0.001830 0.005143 0.014051 -0.017143
# 2 -0.007472 0.017504 -0.000052 0.001982 -0.008760 -0.005321
# 3 -0.001830 -0.000052 0.008450 0.000162 -0.001649 -0.001854
# 4 0.005143 0.001982 0.000162 0.027638 -0.012119 -0.003003
# 5 0.014051 -0.008760 -0.001649 -0.012119 0.045028 -0.004277
# 6 -0.017143 -0.005321 -0.001854 -0.003003 -0.004277 0.043096
#
#
# Mechanical properties :
#
#
# Convention : Reuss Voigt Hill
#
# Bulk Modulus (GPa) = 26.46725 45.38139 35.92432
# Shear Modulus (GPa) = 24.56364 38.01877 31.29121
#
# Velocity S-wave (km/s) = 3.11325 3.87317 3.51381
# Velocity P-wave (km/s) = 4.83389 6.15699 5.53511
#
# Compressibility (1/GPa) = 0.03778254
#
# Stress axis : x y z
#
# Youngs Moduli (GPa) = 32.74931 57.12867 118.34111
#
# Poissons Ratio (x) = 0.42686 0.21655
# Poissons Ratio (y) = 0.24470 0.00612
# Poissons Ratio (z) = 0.05993 0.00295
#
# Static dielectric constant tensor:
#      x y z
#    x 1.923660 -0.004310 0.005390 
#    y -0.004310 2.095120 0.004040 
#    z 0.005390 0.004040 2.042630 
# 
# From -- ./inp_files/224378.got.cif
#   From: 2010.05.17/outbox.cif.g08.bks.cpg/sg2_113_cif.got.tgz:224378.got - 2010.06.03 11:33:40.
