data_PCOD9079214
_publ_section_title
;
Structure prediction by ZEFSAII (Michael W. Deem and Ramdas Pophale) SiO2 
 PCOD9079214
Probable space group: P -1
;
_chemical_formula_sum "Si O2"
_cell_formula_units_Z 15
_cell_length_a 11.200155
_cell_length_b 9.913481
_cell_length_c 10.214736
_cell_angle_alpha 73.270005
_cell_angle_beta 79.253539
_cell_angle_gamma 137.855371
_cell_volume 570.496304
_symmetry_space_group_name_H-M "P -1"
_symmetry_group_IT_number 2
_symmetry_cell_setting 'triclinic'
loop_
_space_group_symop_operation_xyz
x,y,z
-x,-y,-z
loop_
_atom_site_type_symbol
_atom_site_label
_atom_site_fract_x
_atom_site_fract_y
_atom_site_fract_z
Si Si1 0.671781 0.637867 0.546299
Si Si2 0.804013 0.335099 0.375271
Si Si3 0.000000 0.500000 0.000000
Si Si4 0.540117 0.802007 0.609608
Si Si5 0.255882 0.087578 0.890161
Si Si6 0.291861 0.895152 0.103394
Si Si7 0.333943 0.572980 0.981831
Si Si8 0.935333 0.942001 0.810079
O O1 0.500000 0.500000 0.500000
O O2 0.695029 0.819162 0.545219
O O3 0.519342 0.382986 0.734302
O O4 0.915694 0.829542 0.389856
O O5 0.825237 0.332208 0.214198
O O6 0.636221 0.306319 0.431945
O O7 0.060857 0.614527 0.290537
O O8 0.690603 0.086425 0.530126
O O9 0.846684 0.477822 0.963859
O O10 0.377430 0.584102 0.817380
O O11 0.149983 0.051595 0.052166
O O12 0.111433 0.004769 0.824240
O O13 0.217352 0.883370 0.977267
O O14 0.423925 0.140367 0.092721
O O15 0.500000 0.000000 0.000000
O O16 0.252714 0.347528 0.125624
#
# Coordination Sequence:
#
# PCOD9079214 Si02
#       8
#     2   2   1   2   2   2   2   2
#     4  10  21  38  69 104 124 161 227 280 329 385
#     4  10  22  39  67  94 131 170 219 276 327 390
#     4  10  18  36  64  90 116 170 222 262 312 388
#     4  10  21  41  66  98 127 169 225 275 324 394
#     4  10  22  43  67  98 134 167 223 284 324 396
#     4  12  26  42  63  96 139 179 217 269 342 400
#     4  11  22  39  65  92 132 178 215 269 337 388
#     4  10  21  40  73  98 127 173 221 278 332 390
#
# _framework density 26.292895000000001
#
# number of rings (size 3 to 8) (size 9 to 14) (size 15 to 20)
#    0.000    1.600    2.667    2.400    3.733    2.133 
#    2.400    2.000    0.000    0.000    0.000    0.000 
#    0.000    0.000    0.000    0.000    0.000    0.000 
#
# Total GULP energy -83658.437494 kJ/mol
# GULP energy per Si atom -5577.229166 kJ/mol
# Density = 2.623305 g / cm^3
# Si number density = 26.292895 Si / 1000 Ang^3
#
#
#
# Elastic Constant Matrix: (Units=GPa)
#
#
# Indices 1 2 3 4 5 6 
#
# 1 44.8651 -6.8496 8.6343 -10.8201 7.1556 6.1116
# 2 -6.8496 62.8231 11.5967 -35.2924 -10.7876 11.8477
# 3 8.6343 11.5967 156.3367 -39.4980 -0.9867 -14.7405
# 4 -10.8201 -35.2924 -39.4980 51.2688 -2.4875 -0.0008
# 5 7.1556 -10.7876 -0.9867 -2.4875 21.6395 -4.7365
# 6 6.1116 11.8477 -14.7405 -0.0008 -4.7365 34.3297
#
#
#
# Elastic Compliance Matrix: (Units=1/GPa)
#
#
# Indices 1 2 3 4 5 6 
#
# 1 0.029971 0.013152 0.000265 0.015397 -0.003824 -0.010288
# 2 0.013152 0.042351 0.004156 0.036020 0.018326 -0.012643
# 3 0.000265 0.004156 0.008894 0.009971 0.004174 0.002913
# 4 0.015397 0.036020 0.009971 0.056101 0.017926 -0.008416
# 5 -0.003824 0.018326 0.004174 0.017926 0.059827 0.004403
# 6 -0.010288 -0.012643 0.002913 -0.008416 0.004403 0.037182
#
#
# Mechanical properties :
#
#
# Convention : Reuss Voigt Hill
#
# Bulk Modulus (GPa) = 8.59388 32.30975 20.45182
# Shear Modulus (GPa) = 21.01137 38.15718 29.58428
#
# Velocity S-wave (km/s) = 2.82995 3.81364 3.35801
# Velocity P-wave (km/s) = 3.73548 5.63089 4.77811
#
# Compressibility (1/GPa) = 0.11636182
#
# Stress axis : x y z
#
# Youngs Moduli (GPa) = 33.36594 23.61235 112.43837
#
# Poissons Ratio (x) = -0.31055 -0.02981
# Poissons Ratio (y) = -0.43884 -0.46729
# Poissons Ratio (z) = -0.00885 -0.09813
#
# Static dielectric constant tensor:
#      x y z
#    x 2.131520 -0.008260 0.005240 
#    y -0.008260 1.465080 -0.000890 
#    z 0.005240 -0.000890 2.125370 
# 
# From -- ./inp_files/225014.got.cif
#   From: 2010.05.17/outbox.cif.g08.bks.cpg/sg2_113_cif.got.tgz:225014.got - 2010.06.03 11:33:40.
