data_PCOD9079885
_publ_section_title
;
Structure prediction by ZEFSAII (Michael W. Deem and Ramdas Pophale) SiO2 
 PCOD9079885
Probable space group: P -1
;
_chemical_formula_sum "Si O2"
_cell_formula_units_Z 16
_cell_length_a 8.874081
_cell_length_b 11.337726
_cell_length_c 11.627612
_cell_angle_alpha 51.798548
_cell_angle_beta 99.241745
_cell_angle_gamma 116.873151
_cell_volume 808.166171
_symmetry_space_group_name_H-M "P -1"
_symmetry_group_IT_number 2
_symmetry_cell_setting 'triclinic'
loop_
_space_group_symop_operation_xyz
x,y,z
-x,-y,-z
loop_
_atom_site_type_symbol
_atom_site_label
_atom_site_fract_x
_atom_site_fract_y
_atom_site_fract_z
Si Si1 0.844413 0.332775 0.849260
Si Si2 0.292334 0.014865 0.818479
Si Si3 0.204392 0.127666 0.962915
Si Si4 0.071055 0.897292 0.645702
Si Si5 0.680696 0.113269 0.746940
Si Si6 0.246646 0.486179 0.829293
Si Si7 0.840969 0.537150 0.918707
Si Si8 0.327197 0.833027 0.550903
O O1 0.773923 0.268689 0.752996
O O2 0.769075 0.434738 0.854255
O O3 0.048350 0.441064 0.805186
O O4 0.798886 0.166496 0.020384
O O5 0.186133 0.009038 0.696782
O O6 0.291044 0.137825 0.843569
O O7 0.479722 0.048730 0.782727
O O8 0.251030 0.315415 0.895079
O O9 0.270828 0.031824 0.117603
O O10 0.000000 0.000000 0.000000
O O11 0.184364 0.834366 0.619991
O O12 0.919219 0.733141 0.782632
O O13 0.000000 0.000000 0.500000
O O14 0.723130 0.159251 0.591846
O O15 0.352514 0.666112 0.674160
O O16 0.277204 0.510865 0.955222
O O17 0.000000 0.500000 0.000000
O O18 0.500000 0.000000 0.500000
#
# Coordination Sequence:
#
# PCOD9079885 Si02
#       8
#     2   2   2   2   2   2   2   2
#     4  10  18  37  68  95 116 170 219 258 313 387
#     4  11  21  43  65  93 136 168 207 268 332 387
#     4  11  21  40  69 102 124 160 225 277 309 382
#     4  12  24  40  69  98 123 171 221 270 320 384
#     4  11  25  40  66  94 136 174 206 260 342 392
#     4  11  21  40  68  97 129 168 220 273 313 384
#     4  10  18  39  66  92 122 162 220 266 310 379
#     4  12  26  45  64  92 138 175 209 268 341 386
#
# _framework density 19.797909000000001
#
# number of rings (size 3 to 8) (size 9 to 14) (size 15 to 20)
#    0.000    1.000    8.750    1.500    3.500    0.500 
#    2.250    3.750    0.000    0.000    0.000    0.000 
#    0.000    0.000    0.000    0.000    0.000    0.000 
#
# Total GULP energy -89348.183106 kJ/mol
# GULP energy per Si atom -5584.261444 kJ/mol
# Density = 1.975285 g / cm^3
# Si number density = 19.797909 Si / 1000 Ang^3
#
#
#
# Elastic Constant Matrix: (Units=GPa)
#
#
# Indices 1 2 3 4 5 6 
#
# 1 30.1824 9.7460 23.1942 -3.1676 6.7109 -12.7131
# 2 9.7460 123.3912 55.3188 5.7053 10.6079 -21.1419
# 3 23.1942 55.3188 116.1912 14.9993 8.9804 -10.4653
# 4 -3.1676 5.7053 14.9993 41.3458 -3.7352 -0.7367
# 5 6.7109 10.6079 8.9804 -3.7352 24.5979 -2.3231
# 6 -12.7131 -21.1419 -10.4653 -0.7367 -2.3231 35.2560
#
#
#
# Elastic Compliance Matrix: (Units=1/GPa)
#
#
# Indices 1 2 3 4 5 6 
#
# 1 0.049623 0.004138 -0.010519 0.006542 -0.008902 0.016803
# 2 0.004138 0.011693 -0.005603 0.000545 -0.003418 0.006628
# 3 -0.010519 -0.005603 0.013818 -0.005180 -0.000849 -0.003215
# 4 0.006542 0.000545 -0.005180 0.026901 0.004143 0.001984
# 5 -0.008902 -0.003418 -0.000849 0.004143 0.045265 -0.002442
# 6 0.016803 0.006628 -0.003215 0.001984 -0.002442 0.037323
#
#
# Mechanical properties :
#
#
# Convention : Reuss Voigt Hill
#
# Bulk Modulus (GPa) = 19.54350 49.58697 34.56524
# Shear Modulus (GPa) = 22.15854 32.34032 27.24943
#
# Velocity S-wave (km/s) = 3.34913 4.04607 3.71398
# Velocity P-wave (km/s) = 4.98482 6.85044 5.99070
#
# Compressibility (1/GPa) = 0.05116791
#
# Stress axis : x y z
#
# Youngs Moduli (GPa) = 20.15206 85.51850 72.36701
#
# Poissons Ratio (x) = -0.35390 0.76123
# Poissons Ratio (y) = -0.08340 0.40545
# Poissons Ratio (z) = 0.21198 0.47913
#
# Static dielectric constant tensor:
#      x y z
#    x 1.721450 -0.020720 -0.006370 
#    y -0.020720 1.743270 0.006700 
#    z -0.006370 0.006700 1.693240 
# 
# From -- ./inp_files/389119.got.cif
#   From: 2010.05.17/outbox.cif.g08.bks.cpg/sg2_195_cif.got.tgz:389119.got - 2010.06.03 11:33:40.
