data_PCOD9079696
_publ_section_title
;
Structure prediction by ZEFSAII (Michael W. Deem and Ramdas Pophale) SiO2 
 PCOD9079696
Probable space group: P -1
;
_chemical_formula_sum "Si O2"
_cell_formula_units_Z 16
_cell_length_a 20.209585
_cell_length_b 7.886143
_cell_length_c 5.455523
_cell_angle_alpha 94.228840
_cell_angle_beta 127.313196
_cell_angle_gamma 72.756376
_cell_volume 653.986720
_symmetry_space_group_name_H-M "P -1"
_symmetry_group_IT_number 2
_symmetry_cell_setting 'triclinic'
loop_
_space_group_symop_operation_xyz
x,y,z
-x,-y,-z
loop_
_atom_site_type_symbol
_atom_site_label
_atom_site_fract_x
_atom_site_fract_y
_atom_site_fract_z
Si Si1 0.348724 0.284052 0.209378
Si Si2 0.944134 0.704232 0.462314
Si Si3 0.101543 0.812776 0.645847
Si Si4 0.185824 0.882991 0.358030
Si Si5 0.357339 0.592229 0.614298
Si Si6 0.492010 0.348159 0.276910
Si Si7 0.773644 0.804847 0.766597
Si Si8 0.172702 0.419643 0.528184
O O1 0.338424 0.473973 0.338976
O O2 0.444471 0.225139 0.297356
O O3 0.322034 0.158704 0.332030
O O4 0.268516 0.318819 0.843928
O O5 0.906917 0.667602 0.638125
O O6 0.000000 0.500000 0.500000
O O7 0.004542 0.819754 0.520821
O O8 0.851174 0.788464 0.129436
O O9 0.121515 0.910967 0.452727
O O10 0.140858 0.609029 0.608853
O O11 0.146376 0.846207 0.003185
O O12 0.271774 0.712376 0.573533
O O13 0.221134 0.048803 0.401834
O O14 0.413403 0.714645 0.645506
O O15 0.421578 0.450507 0.925658
O O16 0.500000 0.500000 0.500000
O O17 0.805392 0.601557 0.709922
#
# Coordination Sequence:
#
# PCOD9079696 Si02
#       8
#     2   2   2   2   2   2   2   2
#     4  10  18  37  63  91 123 166 217 261 316 382
#     4   9  23  41  65  92 125 168 228 273 317 376
#     4  11  25  43  67  92 129 176 224 266 326 386
#     4  12  27  42  64  98 136 175 210 273 332 388
#     4  10  20  39  63  96 126 165 216 267 321 386
#     4   9  19  34  65  97 122 159 219 270 311 382
#     4  11  25  39  63  94 133 172 216 267 330 384
#     4  10  21  40  66  91 123 172 222 268 314 391
#
# _framework density 24.465328
#
# number of rings (size 3 to 8) (size 9 to 14) (size 15 to 20)
#    0.000    1.750    1.250    2.250   10.500    2.000 
#    0.000    0.625    0.000   10.500    0.000    0.000 
#    0.000    0.000    0.000    0.000    0.000    0.000 
#
# Total GULP energy -89184.311816 kJ/mol
# GULP energy per Si atom -5574.019489 kJ/mol
# Density = 2.440964 g / cm^3
# Si number density = 24.465328 Si / 1000 Ang^3
#
#
#
# Elastic Constant Matrix: (Units=GPa)
#
#
# Indices 1 2 3 4 5 6 
#
# 1 234.6163 49.3397 38.1311 14.6137 10.2019 45.7130
# 2 49.3397 66.3405 13.0220 8.3909 0.9706 25.3121
# 3 38.1311 13.0220 59.4891 22.0842 2.6227 9.0650
# 4 14.6137 8.3909 22.0842 24.5222 2.9822 -2.3878
# 5 10.2019 0.9706 2.6227 2.9822 32.1792 7.0826
# 6 45.7130 25.3121 9.0650 -2.3878 7.0826 46.5927
#
#
#
# Elastic Compliance Matrix: (Units=1/GPa)
#
#
# Indices 1 2 3 4 5 6 
#
# 1 0.006026 -0.002293 -0.002301 -0.001064 -0.000636 -0.004177
# 2 -0.002293 0.021648 0.001502 -0.008820 0.003131 -0.010732
# 3 -0.002301 0.001502 0.028089 -0.025225 0.001969 -0.005615
# 4 -0.001064 -0.008820 -0.025225 0.069520 -0.007172 0.015396
# 5 -0.000636 0.003131 0.001969 -0.007172 0.033200 -0.006874
# 6 -0.004177 -0.010732 -0.005615 0.015396 -0.006874 0.034317
#
#
# Mechanical properties :
#
#
# Convention : Reuss Voigt Hill
#
# Bulk Modulus (GPa) = 20.16929 62.38129 41.27529
# Shear Modulus (GPa) = 23.20054 37.98903 30.59479
#
# Velocity S-wave (km/s) = 3.08279 3.94480 3.54013
# Velocity P-wave (km/s) = 4.57530 6.80454 5.79807
#
# Compressibility (1/GPa) = 0.04958033
#
# Stress axis : x y z
#
# Youngs Moduli (GPa) = 165.94188 46.19292 35.60051
#
# Poissons Ratio (x) = 0.10590 0.08193
# Poissons Ratio (y) = 0.38044 -0.05348
# Poissons Ratio (z) = 0.38191 -0.06939
#
# Static dielectric constant tensor:
#      x y z
#    x 2.032080 0.108150 -0.065690 
#    y 0.108150 2.073520 -0.009380 
#    z -0.065690 -0.009380 2.007070 
# 
# From -- ./inp_files/55272.got.cif
#   From: 2010.05.17/outbox.cif.g08.bks.cpg/sg2_28_cif.got.tgz:55272.got - 2010.06.03 11:33:40.
