data_PCOD9079481
_publ_section_title
;
Structure prediction by ZEFSAII (Michael W. Deem and Ramdas Pophale) SiO2 
 PCOD9079481
Probable space group: P -1
;
_chemical_formula_sum "Si O2"
_cell_formula_units_Z 16
_cell_length_a 10.629771
_cell_length_b 12.754623
_cell_length_c 10.708802
_cell_angle_alpha 52.476290
_cell_angle_beta 67.879290
_cell_angle_gamma 107.994159
_cell_volume 726.051211
_symmetry_space_group_name_H-M "P -1"
_symmetry_group_IT_number 2
_symmetry_cell_setting 'triclinic'
loop_
_space_group_symop_operation_xyz
x,y,z
-x,-y,-z
loop_
_atom_site_type_symbol
_atom_site_label
_atom_site_fract_x
_atom_site_fract_y
_atom_site_fract_z
Si Si1 0.315631 0.552651 0.522338
Si Si2 0.017532 0.556781 0.749949
Si Si3 0.375401 0.046040 0.000897
Si Si4 0.239143 0.378445 0.916857
Si Si5 0.179689 0.888270 0.631848
Si Si6 0.963657 0.627724 0.456964
Si Si7 0.659330 0.813779 0.837322
Si Si8 0.605786 0.287851 0.201036
O O1 0.156770 0.541858 0.653220
O O2 0.516278 0.777059 0.261680
O O3 0.226149 0.458874 0.486846
O O4 0.320812 0.438253 0.702171
O O5 0.135313 0.724399 0.688279
O O6 0.962807 0.618428 0.613245
O O7 0.805676 0.357486 0.028590
O O8 0.373730 0.108240 0.093696
O O9 0.500000 0.000000 0.000000
O O10 0.153863 0.849185 0.186704
O O11 0.296629 0.292743 0.038083
O O12 0.329519 0.569878 0.815452
O O13 0.999183 0.218326 0.128044
O O14 0.173286 0.003173 0.448391
O O15 0.406144 0.062813 0.469209
O O16 0.000000 0.500000 0.500000
O O17 0.470294 0.679628 0.912641
#
# Coordination Sequence:
#
# PCOD9079481 Si02
#       8
#     2   2   2   2   2   2   2   2
#     4  11  25  35  59  88 131 159 185 246 301 360
#     4  10  18  37  59  91 114 145 205 250 298 338
#     4  12  21  40  65  91 117 148 206 253 292 343
#     4  11  23  42  54  89 129 159 195 235 302 359
#     4   9  20  37  65  86 111 155 204 254 286 338
#     4  10  19  34  61  86 115 153 194 244 290 347
#     4  10  21  40  66  86 114 159 203 251 284 348
#     4   9  21  35  65  90 109 157 204 246 289 341
#
# _framework density 22.037013999999999
#
# number of rings (size 3 to 8) (size 9 to 14) (size 15 to 20)
#    0.750    1.000    3.750    1.500    1.750    3.500 
#    0.000    1.875    0.000    0.000    0.000    0.000 
#    0.000    0.000    0.000    0.000    0.000    0.000 
#
# Total GULP energy -89337.069890 kJ/mol
# GULP energy per Si atom -5583.566868 kJ/mol
# Density = 2.198686 g / cm^3
# Si number density = 22.037014 Si / 1000 Ang^3
#
#
#
# Elastic Constant Matrix: (Units=GPa)
#
#
# Indices 1 2 3 4 5 6 
#
# 1 64.9185 9.0249 31.1234 -8.3775 17.8712 12.0256
# 2 9.0249 57.6499 35.2385 -8.7258 -6.8365 11.6406
# 3 31.1234 35.2385 174.2177 -14.8691 -2.9543 20.9328
# 4 -8.3775 -8.7258 -14.8691 29.7909 14.6942 -6.2825
# 5 17.8712 -6.8365 -2.9543 14.6942 39.1963 4.2562
# 6 12.0256 11.6406 20.9328 -6.2825 4.2562 18.0137
#
#
#
# Elastic Compliance Matrix: (Units=1/GPa)
#
#
# Indices 1 2 3 4 5 6 
#
# 1 0.023113 -0.001184 -0.002682 0.011174 -0.014682 -0.004182
# 2 -0.001184 0.022236 -0.002812 -0.000526 0.005689 -0.011838
# 3 -0.002682 -0.002812 0.007488 0.000078 0.001866 -0.005507
# 4 0.011174 -0.000526 0.000078 0.053885 -0.027340 0.018043
# 5 -0.014682 0.005689 0.001866 -0.027340 0.045359 -0.016296
# 6 -0.004182 -0.011838 -0.005507 0.018043 -0.016296 0.082498
#
#
# Mechanical properties :
#
#
# Convention : Reuss Voigt Hill
#
# Bulk Modulus (GPa) = 25.32971 49.72886 37.52928
# Shear Modulus (GPa) = 19.15018 32.16012 25.65515
#
# Velocity S-wave (km/s) = 2.95108 3.82431 3.41572
# Velocity P-wave (km/s) = 4.80946 6.48965 5.71168
#
# Compressibility (1/GPa) = 0.03947933
#
# Stress axis : x y z
#
# Youngs Moduli (GPa) = 43.26618 44.97277 133.54868
#
# Poissons Ratio (x) = 0.05325 0.35823
# Poissons Ratio (y) = 0.05123 0.37554
# Poissons Ratio (z) = 0.11606 0.12646
#
# Static dielectric constant tensor:
#      x y z
#    x 1.873330 0.005380 0.024100 
#    y 0.005380 1.787530 0.017050 
#    z 0.024100 0.017050 1.842570 
# 
# From -- ./inp_files/431046.got.cif
#   From: 2010.05.17/outbox.cif.g08.bks.cpg/sg2_216_cif.got.tgz:431046.got - 2010.06.03 11:33:40.
