data_PCOD9079556
_publ_section_title
;
Structure prediction by ZEFSAII (Michael W. Deem and Ramdas Pophale) SiO2 
 PCOD9079556
Probable space group: P -1
;
_chemical_formula_sum "Si O2"
_cell_formula_units_Z 14
_cell_length_a 9.278306
_cell_length_b 7.579457
_cell_length_c 14.594540
_cell_angle_alpha 144.381416
_cell_angle_beta 67.225464
_cell_angle_gamma 117.468720
_cell_volume 530.201591
_symmetry_space_group_name_H-M "P -1"
_symmetry_group_IT_number 2
_symmetry_cell_setting 'triclinic'
loop_
_space_group_symop_operation_xyz
x,y,z
-x,-y,-z
loop_
_atom_site_type_symbol
_atom_site_label
_atom_site_fract_x
_atom_site_fract_y
_atom_site_fract_z
Si Si1 0.510544 0.535133 0.255231
Si Si2 0.897067 0.358149 0.287466
Si Si3 0.081509 0.985524 0.183161
Si Si4 0.641162 0.113246 0.797293
Si Si5 0.128887 0.455113 0.813998
Si Si6 0.586138 0.208757 0.425329
Si Si7 0.317783 0.229762 0.015131
O O1 0.675050 0.438138 0.191180
O O2 0.445692 0.628221 0.405570
O O3 0.368440 0.284440 0.131487
O O4 0.567526 0.844317 0.306827
O O5 0.930134 0.611952 0.304893
O O6 0.755175 0.356859 0.394353
O O7 0.047713 0.295046 0.277913
O O8 0.819958 0.049206 0.112738
O O9 0.235244 0.977837 0.203593
O O10 0.934054 0.846791 0.232827
O O11 0.071710 0.725006 0.996218
O O12 0.719527 0.448691 0.872376
O O13 0.565142 0.843617 0.629179
O O14 0.484847 0.179354 0.912411
#
# Coordination Sequence:
#
# PCOD9079556 Si02
#       7
#     2   2   2   2   2   2   2
#     4  10  18  37  61  87 116 153 191 239 295 332
#     4  11  22  37  60  90 117 148 196 237 288 344
#     4  11  21  38  58  87 121 154 185 243 285 345
#     4   9  17  33  60  85 113 152 192 237 288 335
#     4  11  22  34  61  88 116 154 191 236 293 338
#     4   9  20  37  62  87 114 152 196 239 285 348
#     4   9  17  33  58  89 113 144 197 243 280 340
#
# _framework density 26.405049999999999
#
# number of rings (size 3 to 8) (size 9 to 14) (size 15 to 20)
#    0.000    2.000    2.857    3.000    0.000    1.143 
#    0.000    0.714    3.143    0.857    0.000    0.000 
#    0.000    0.000    0.000    0.000    0.000    0.000 
#
# Total GULP energy -78463.036629 kJ/mol
# GULP energy per Si atom -5604.502616 kJ/mol
# Density = 2.634495 g / cm^3
# Si number density = 26.405050 Si / 1000 Ang^3
#
#
#
# Elastic Constant Matrix: (Units=GPa)
#
#
# Indices 1 2 3 4 5 6 
#
# 1 177.3168 29.0766 37.5486 -17.2388 -4.2190 -28.7971
# 2 29.0766 99.4481 30.2685 -34.0499 -10.4672 -21.2322
# 3 37.5486 30.2685 106.6196 -24.0679 10.0062 -10.1520
# 4 -17.2388 -34.0499 -24.0679 45.2457 -3.3328 8.2520
# 5 -4.2190 -10.4672 10.0062 -3.3328 29.8001 -6.6375
# 6 -28.7971 -21.2322 -10.1520 8.2520 -6.6375 40.5388
#
#
#
# Elastic Compliance Matrix: (Units=1/GPa)
#
#
# Indices 1 2 3 4 5 6 
#
# 1 0.007012 0.000356 -0.002134 0.001135 0.003053 0.004902
# 2 0.000356 0.017331 -0.002743 0.010993 0.010083 0.008056
# 3 -0.002134 -0.002743 0.012030 0.003407 -0.005257 -0.001494
# 4 0.001135 0.010993 0.003407 0.032788 0.006964 0.001883
# 5 0.003053 0.010083 -0.005257 0.006964 0.042682 0.011704
# 6 0.004902 0.008056 -0.001494 0.001883 0.011704 0.033528
#
#
# Mechanical properties :
#
#
# Convention : Reuss Voigt Hill
#
# Bulk Modulus (GPa) = 36.58948 64.13021 50.35984
# Shear Modulus (GPa) = 30.57635 42.21630 36.39632
#
# Velocity S-wave (km/s) = 3.40659 4.00283 3.71669
# Velocity P-wave (km/s) = 5.41851 6.76043 6.12632
#
# Compressibility (1/GPa) = 0.02733026
#
# Stress axis : x y z
#
# Youngs Moduli (GPa) = 142.60640 57.69851 83.12819
#
# Poissons Ratio (x) = -0.02054 0.17741
# Poissons Ratio (y) = -0.05076 0.22805
# Poissons Ratio (z) = 0.30434 0.15829
#
# Static dielectric constant tensor:
#      x y z
#    x 2.026910 -0.014470 -0.003480 
#    y -0.014470 2.234830 0.016940 
#    z -0.003480 0.016940 2.013140 
# 
# From -- ./inp_files/494066.got.cif
#   From: 2010.05.17/outbox.cif.g08.bks.cpg/sg2_248_cif.got.tgz:494066.got - 2010.06.03 11:33:40.
