data_PCOD9079392
_publ_section_title
;
Structure prediction by ZEFSAII (Michael W. Deem and Ramdas Pophale) SiO2 
 PCOD9079392
Probable space group: P -1
;
_chemical_formula_sum "Si O2"
_cell_formula_units_Z 16
_cell_length_a 17.214935
_cell_length_b 20.084611
_cell_length_c 12.285366
_cell_angle_alpha 140.747669
_cell_angle_beta 39.758378
_cell_angle_gamma 160.385738
_cell_volume 886.631567
_symmetry_space_group_name_H-M "P -1"
_symmetry_group_IT_number 2
_symmetry_cell_setting 'triclinic'
loop_
_space_group_symop_operation_xyz
x,y,z
-x,-y,-z
loop_
_atom_site_type_symbol
_atom_site_label
_atom_site_fract_x
_atom_site_fract_y
_atom_site_fract_z
Si Si1 0.570879 0.013862 0.061085
Si Si2 0.049041 0.925079 0.680231
Si Si3 0.462625 0.780770 0.582188
Si Si4 0.419178 0.692030 0.773556
Si Si5 0.750564 0.579494 0.731817
Si Si6 0.076920 0.905910 0.214823
Si Si7 0.237032 0.336371 0.547164
Si Si8 0.231573 0.281684 0.902404
O O1 0.578007 0.124517 0.263535
O O2 0.818954 0.136086 0.950298
O O3 0.500000 0.000000 0.000000
O O4 0.387690 0.780541 0.981729
O O5 0.958507 0.787102 0.701882
O O6 0.846317 0.772662 0.614775
O O7 0.279379 0.050413 0.530343
O O8 0.117519 0.095612 0.849816
O O9 0.447856 0.737397 0.671190
O O10 0.285685 0.570044 0.444999
O O11 0.237177 0.464149 0.697981
O O12 0.677743 0.848436 0.735485
O O13 0.502512 0.451221 0.802120
O O14 0.776864 0.627274 0.890662
O O15 0.938257 0.823443 0.370047
O O16 0.912748 0.806299 0.163274
O O17 0.500000 0.500000 0.500000
#
# Coordination Sequence:
#
# PCOD9079392 Si02
#       8
#     2   2   2   2   2   2   2   2
#     4   8  17  37  54  72 110 144 171 216 268 311
#     4  11  20  33  56  80 107 137 180 215 268 317
#     4  10  18  37  55  77 103 139 182 220 258 307
#     4   9  19  34  50  77 111 136 172 211 268 311
#     4  10  21  37  56  80 104 143 183 214 261 314
#     4  10  21  36  53  80 111 143 170 215 274 312
#     4  12  21  29  52  86 111 136 171 214 270 327
#     4  10  22  37  54  77 113 142 172 221 263 319
#
# _framework density 18.045826999999999
#
# number of rings (size 3 to 8) (size 9 to 14) (size 15 to 20)
#    0.750    1.250    2.500    1.875    1.750    1.000 
#    2.250    2.500    0.000    0.750    0.000    0.000 
#    0.000    0.000    0.000    0.000    0.000    0.000 
#
# Total GULP energy -89106.394011 kJ/mol
# GULP energy per Si atom -5569.149626 kJ/mol
# Density = 1.800475 g / cm^3
# Si number density = 18.045827 Si / 1000 Ang^3
#
#
#
# Elastic Constant Matrix: (Units=GPa)
#
#
# Indices 1 2 3 4 5 6 
#
# 1 22.8937 1.0514 -1.2901 1.4425 -1.8492 -6.6341
# 2 1.0514 48.5569 5.5345 13.3160 0.2732 -15.2569
# 3 -1.2901 5.5345 87.7150 23.7023 -8.6861 -12.2805
# 4 1.4425 13.3160 23.7023 27.1981 -3.7290 -2.1497
# 5 -1.8492 0.2732 -8.6861 -3.7290 25.2136 4.2386
# 6 -6.6341 -15.2569 -12.2805 -2.1497 4.2386 21.2110
#
#
#
# Elastic Compliance Matrix: (Units=1/GPa)
#
#
# Indices 1 2 3 4 5 6 
#
# 1 0.051760 0.009192 0.006775 -0.011116 0.000086 0.025579
# 2 0.009192 0.036119 0.008169 -0.023531 -0.005824 0.032364
# 3 0.006775 0.008169 0.018579 -0.019075 0.001201 0.016579
# 4 -0.011116 -0.023531 -0.019075 0.064356 0.006805 -0.026284
# 5 0.000086 -0.005824 0.001201 0.006805 0.043064 -0.011383
# 6 0.025579 0.032364 0.016579 -0.026284 -0.011383 0.087634
#
#
# Mechanical properties :
#
#
# Convention : Reuss Voigt Hill
#
# Bulk Modulus (GPa) = 6.46287 18.86191 12.66239
# Shear Modulus (GPa) = 16.40330 24.98253 20.69292
#
# Velocity S-wave (km/s) = 3.01820 3.72478 3.38995
# Velocity P-wave (km/s) = 3.96676 5.38271 4.72804
#
# Compressibility (1/GPa) = 0.15472998
#
# Stress axis : x y z
#
# Youngs Moduli (GPa) = 19.32010 27.68631 53.82352
#
# Poissons Ratio (x) = -0.25450 -0.36464
# Poissons Ratio (y) = -0.17759 -0.43969
# Poissons Ratio (z) = -0.13089 -0.22617
#
# Static dielectric constant tensor:
#      x y z
#    x 1.616010 -0.011670 -0.037480 
#    y -0.011670 1.626320 0.031270 
#    z -0.037480 0.031270 1.648810 
# 
# From -- ./inp_files/410820.got.cif
#   From: 2010.05.17/outbox.cif.g08.bks.cpg/sg2_206_cif.got.tgz:410820.got - 2010.06.03 11:33:40.
