data_PCOD9079132
_publ_section_title
;
Structure prediction by ZEFSAII (Michael W. Deem and Ramdas Pophale) SiO2 
 PCOD9079132
Probable space group: P -1
;
_chemical_formula_sum "Si O2"
_cell_formula_units_Z 16
_cell_length_a 11.993508
_cell_length_b 13.624541
_cell_length_c 11.903963
_cell_angle_alpha 22.872156
_cell_angle_beta 123.914907
_cell_angle_gamma 127.678947
_cell_volume 598.284430
_symmetry_space_group_name_H-M "P -1"
_symmetry_group_IT_number 2
_symmetry_cell_setting 'triclinic'
loop_
_space_group_symop_operation_xyz
x,y,z
-x,-y,-z
loop_
_atom_site_type_symbol
_atom_site_label
_atom_site_fract_x
_atom_site_fract_y
_atom_site_fract_z
Si Si1 0.128416 0.210617 0.740388
Si Si2 0.628142 0.665937 0.553051
Si Si3 0.540183 0.469725 0.926963
Si Si4 0.913821 0.060124 0.573414
Si Si5 0.786130 0.264358 0.639038
Si Si6 0.845134 0.549611 0.936877
Si Si7 0.591915 0.850652 0.114936
Si Si8 0.348583 0.984608 0.379242
O O1 0.131010 0.454563 0.562643
O O2 0.282640 0.285282 0.690717
O O3 0.018228 0.154297 0.636660
O O4 0.123796 0.942909 0.086622
O O5 0.567662 0.699776 0.607409
O O6 0.786469 0.659195 0.677140
O O7 0.600391 0.871812 0.232747
O O8 0.545113 0.370814 0.773802
O O9 0.272479 0.739270 0.515818
O O10 0.692653 0.421317 0.051086
O O11 0.500000 0.500000 0.000000
O O12 0.404233 0.231848 0.062828
O O13 0.930454 0.806563 0.784437
O O14 0.759797 0.963544 0.648016
O O15 0.911472 0.308453 0.230720
O O16 0.658522 0.124862 0.799457
O O17 0.500000 0.000000 0.500000
#
# Coordination Sequence:
#
# PCOD9079132 Si02
#       8
#     2   2   2   2   2   2   2   2
#     4  10  24  44  64  90 130 179 220 261 318 384
#     4   9  18  42  67 101 127 170 213 273 335 379
#     4  10  18  36  62  99 133 162 205 266 334 386
#     4  12  24  41  65  91 135 171 218 265 322 390
#     4  10  23  43  66  90 133 167 222 268 314 387
#     4  10  23  39  63  97 127 164 214 270 323 378
#     4   9  20  42  67  94 130 170 218 269 319 399
#     4  12  22  37  66 100 129 169 212 275 333 384
#
# _framework density 26.743131999999999
#
# number of rings (size 3 to 8) (size 9 to 14) (size 15 to 20)
#    1.500    0.250    3.750    0.750    0.000    5.000 
#    2.250    2.500    0.000    0.000    0.000    0.000 
#    0.000    0.000    0.000    0.000    0.000    0.000 
#
# Total GULP energy -89437.301293 kJ/mol
# GULP energy per Si atom -5589.831331 kJ/mol
# Density = 2.668226 g / cm^3
# Si number density = 26.743132 Si / 1000 Ang^3
#
#
#
# Elastic Constant Matrix: (Units=GPa)
#
#
# Indices 1 2 3 4 5 6 
#
# 1 70.7838 14.3841 14.4727 1.9797 -2.5518 -6.2563
# 2 14.3841 181.3828 49.3273 1.6823 11.0804 -11.5872
# 3 14.4727 49.3273 114.7675 5.1667 7.0059 -5.0148
# 4 1.9797 1.6823 5.1667 57.8359 -6.5243 0.1653
# 5 -2.5518 11.0804 7.0059 -6.5243 44.4172 5.2673
# 6 -6.2563 -11.5872 -5.0148 0.1653 5.2673 37.8861
#
#
#
# Elastic Compliance Matrix: (Units=1/GPa)
#
#
# Indices 1 2 3 4 5 6 
#
# 1 0.014792 -0.000694 -0.001535 -0.000241 0.001006 0.001888
# 2 -0.000694 0.006454 -0.002516 -0.000111 -0.001475 0.001732
# 3 -0.001535 -0.002516 0.010128 -0.000922 -0.001252 0.000496
# 4 -0.000241 -0.000111 -0.000922 0.017706 0.002839 -0.000668
# 5 0.001006 -0.001475 -0.001252 0.002839 0.024005 -0.003800
# 6 0.001888 0.001732 0.000496 -0.000668 -0.003800 0.027833
#
#
# Mechanical properties :
#
#
# Convention : Reuss Voigt Hill
#
# Bulk Modulus (GPa) = 45.69507 58.14471 51.91989
# Shear Modulus (GPa) = 42.47964 47.27782 44.87873
#
# Velocity S-wave (km/s) = 3.98984 4.20914 4.10096
# Velocity P-wave (km/s) = 6.19264 6.73881 6.47149
#
# Compressibility (1/GPa) = 0.02188420
#
# Stress axis : x y z
#
# Youngs Moduli (GPa) = 67.60243 154.93842 98.73871
#
# Poissons Ratio (x) = 0.10756 0.15157
# Poissons Ratio (y) = 0.04693 0.24841
# Poissons Ratio (z) = 0.10377 0.38979
#
# Static dielectric constant tensor:
#      x y z
#    x 2.273790 -0.004870 0.027780 
#    y -0.004870 2.086300 -0.049280 
#    z 0.027780 -0.049280 2.358330 
# 
# From -- ./inp_files/535055.got.cif
#   From: 2010.05.17/outbox.cif.g08.bks.cpg/sg2_268_cif.got.tgz:535055.got - 2010.06.03 11:33:40.
