data_PCOD9079055
_publ_section_title
;
Structure prediction by ZEFSAII (Michael W. Deem and Ramdas Pophale) SiO2 
 PCOD9079055
Probable space group: P -1
;
_chemical_formula_sum "Si O2"
_cell_formula_units_Z 11
_cell_length_a 10.576867
_cell_length_b 6.680158
_cell_length_c 13.441061
_cell_angle_alpha 124.267855
_cell_angle_beta 149.580794
_cell_angle_gamma 57.572483
_cell_volume 394.451650
_symmetry_space_group_name_H-M "P -1"
_symmetry_group_IT_number 2
_symmetry_cell_setting 'triclinic'
loop_
_space_group_symop_operation_xyz
x,y,z
-x,-y,-z
loop_
_atom_site_type_symbol
_atom_site_label
_atom_site_fract_x
_atom_site_fract_y
_atom_site_fract_z
Si Si1 0.556174 0.348793 0.396655
Si Si2 0.500000 0.500000 0.000000
Si Si3 0.562242 0.265917 0.753254
Si Si4 0.066775 0.208388 0.975653
Si Si5 0.985233 0.852280 0.654219
Si Si6 0.067804 0.311737 0.646257
O O1 0.500000 0.500000 0.500000
O O2 0.508285 0.514849 0.312808
O O3 0.345550 0.166838 0.198648
O O4 0.855392 0.283890 0.573793
O O5 0.436800 0.611796 0.103934
O O6 0.648188 0.749417 0.144950
O O7 0.316884 0.125822 0.534138
O O8 0.830283 0.141695 0.860342
O O9 0.000000 0.500000 0.000000
O O10 0.076125 0.064068 0.839027
O O11 0.107054 0.596642 0.720486
O O12 0.025287 0.799931 0.549986
#
# Coordination Sequence:
#
# PCOD9079055 Si02
#       6
#     2   1   2   2   2   2
#     4  10  20  36  56  82 119 151 183 231 286 341
#     4  10  18  36  62  84 108 144 196 240 274 322
#     4   9  19  35  59  84 112 148 190 233 275 335
#     4  10  20  35  59  85 115 150 184 232 287 339
#     4   9  18  36  59  83 113 149 190 234 277 332
#     4   9  19  35  57  83 112 149 191 233 278 333
#
# _framework density 27.886811999999999
#
# number of rings (size 3 to 8) (size 9 to 14) (size 15 to 20)
#    0.000    2.545    0.000    2.727    0.000    0.727 
#    0.000   15.455    0.000   22.909    0.000    0.000 
#    0.000    0.000    0.000    0.000    0.000    0.000 
#
# Total GULP energy -61420.491767 kJ/mol
# GULP energy per Si atom -5583.681070 kJ/mol
# Density = 2.782334 g / cm^3
# Si number density = 27.886812 Si / 1000 Ang^3
#
#
#
# Elastic Constant Matrix: (Units=GPa)
#
#
# Indices 1 2 3 4 5 6 
#
# 1 216.4291 10.9029 98.5741 12.5184 3.2792 -38.1969
# 2 10.9029 94.9177 15.1740 9.1667 -25.8862 -15.0205
# 3 98.5741 15.1740 193.3963 37.4895 -25.4454 -32.8849
# 4 12.5184 9.1667 37.4895 50.0174 -12.5519 -6.1009
# 5 3.2792 -25.8862 -25.4454 -12.5519 68.6672 -1.6497
# 6 -38.1969 -15.0205 -32.8849 -6.1009 -1.6497 34.4046
#
#
#
# Elastic Compliance Matrix: (Units=1/GPa)
#
#
# Indices 1 2 3 4 5 6 
#
# 1 0.006781 0.000073 -0.002944 0.000803 -0.001124 0.004836
# 2 0.000073 0.012959 0.000971 -0.000988 0.005223 0.006742
# 3 -0.002944 0.000971 0.008702 -0.004625 0.003001 0.004797
# 4 0.000803 -0.000988 -0.004625 0.024064 0.002284 0.000416
# 5 -0.001124 0.005223 0.003001 0.002284 0.018240 0.005180
# 6 0.004836 0.006742 0.004797 0.000416 0.005180 0.042286
#
#
# Mechanical properties :
#
#
# Convention : Reuss Voigt Hill
#
# Bulk Modulus (GPa) = 40.57974 83.78278 62.18126
# Shear Modulus (GPa) = 39.98568 55.95733 47.97150
#
# Velocity S-wave (km/s) = 3.79074 4.48435 4.15206
# Velocity P-wave (km/s) = 5.80885 7.54465 6.73292
#
# Compressibility (1/GPa) = 0.02464284
#
# Stress axis : x y z
#
# Youngs Moduli (GPa) = 147.46041 77.16926 114.91423
#
# Poissons Ratio (x) = -0.00561 0.33827
# Poissons Ratio (y) = -0.01071 -0.11162
# Poissons Ratio (z) = 0.43407 -0.07496
#
# Static dielectric constant tensor:
#      x y z
#    x 2.143890 0.221400 -0.003840 
#    y 0.221400 2.094140 0.380630 
#    z -0.003840 0.380630 1.653100 
# 
# From -- ./inp_files/145532.got.cif
#   From: 2010.05.17/outbox.cif.g08.bks.cpg/sg2_73_cif.got.tgz:145532.got - 2010.06.03 11:33:40.
