data_PCOD9079207
_publ_section_title
;
Structure prediction by ZEFSAII (Michael W. Deem and Ramdas Pophale) SiO2 
 PCOD9079207
Probable space group: P -1
;
_chemical_formula_sum "Si O2"
_cell_formula_units_Z 16
_cell_length_a 5.429099
_cell_length_b 14.272516
_cell_length_c 20.726462
_cell_angle_alpha 30.686279
_cell_angle_beta 107.075685
_cell_angle_gamma 107.199676
_cell_volume 780.409869
_symmetry_space_group_name_H-M "P -1"
_symmetry_group_IT_number 2
_symmetry_cell_setting 'triclinic'
loop_
_space_group_symop_operation_xyz
x,y,z
-x,-y,-z
loop_
_atom_site_type_symbol
_atom_site_label
_atom_site_fract_x
_atom_site_fract_y
_atom_site_fract_z
Si Si1 0.302435 0.427348 0.432767
Si Si2 0.217878 0.289233 0.115884
Si Si3 0.202245 0.663441 0.394372
Si Si4 0.909579 0.909596 0.311266
Si Si5 0.531916 0.881302 0.880003
Si Si6 0.103632 0.179338 0.941729
Si Si7 0.624588 0.420543 0.790352
Si Si8 0.800842 0.483009 0.899236
O O1 0.223954 0.616623 0.348056
O O2 0.548125 0.378168 0.521535
O O3 0.104404 0.249831 0.541064
O O4 0.376955 0.460414 0.345389
O O5 0.418963 0.198545 0.139692
O O6 0.305282 0.391634 0.127312
O O7 0.020173 0.111572 0.223647
O O8 0.084456 0.439252 0.972153
O O9 0.000000 0.500000 0.500000
O O10 0.087928 0.845299 0.305063
O O11 0.626420 0.940454 0.242453
O O12 0.775207 0.886182 0.942978
O O13 0.340316 0.721563 0.991421
O O14 0.342392 0.308733 0.849326
O O15 0.854616 0.288216 0.873741
O O16 0.000000 0.000000 0.000000
O O17 0.733328 0.545140 0.785813
#
# Coordination Sequence:
#
# PCOD9079207 Si02
#       8
#     2   2   2   2   2   2   2   2
#     4  10  22  40  59  88 119 170 207 255 310 375
#     4  10  18  36  64  89 121 156 209 265 313 368
#     4   9  20  38  58  83 117 160 217 249 302 365
#     4  10  21  36  61  92 122 156 211 266 308 366
#     4  10  20  38  61  90 126 160 205 264 314 372
#     4  11  25  43  62  94 127 169 211 253 318 379
#     4  11  24  44  64  91 131 169 206 258 318 381
#     4   9  20  37  61  91 118 163 209 256 319 374
#
# _framework density 20.502046
#
# number of rings (size 3 to 8) (size 9 to 14) (size 15 to 20)
#    0.000    2.000    1.250    1.500    3.500    4.000 
#    4.500    0.625    0.000    3.000    0.000    0.000 
#    0.000    0.000    0.000    0.000    0.000    0.000 
#
# Total GULP energy -89160.055089 kJ/mol
# GULP energy per Si atom -5572.503443 kJ/mol
# Density = 2.045538 g / cm^3
# Si number density = 20.502046 Si / 1000 Ang^3
#
#
#
# Elastic Constant Matrix: (Units=GPa)
#
#
# Indices 1 2 3 4 5 6 
#
# 1 82.3106 15.5591 15.0208 2.0285 2.0071 -15.4085
# 2 15.5591 112.7598 41.4172 18.0914 0.1950 -10.6089
# 3 15.0208 41.4172 90.3789 11.1642 -17.3206 -4.3053
# 4 2.0285 18.0914 11.1642 29.8899 -10.5006 -3.4912
# 5 2.0071 0.1950 -17.3206 -10.5006 32.1721 -4.3608
# 6 -15.4085 -10.6089 -4.3053 -3.4912 -4.3608 28.2855
#
#
#
# Elastic Compliance Matrix: (Units=1/GPa)
#
#
# Indices 1 2 3 4 5 6 
#
# 1 0.013939 -0.000687 -0.001891 0.000759 -0.000682 0.007036
# 2 -0.000687 0.012275 -0.005540 -0.006870 -0.005017 0.001765
# 3 -0.001891 -0.005540 0.015551 0.000892 0.008916 0.000744
# 4 0.000759 -0.006870 0.000892 0.043296 0.015377 0.005687
# 5 -0.000682 -0.005017 0.008916 0.015377 0.041988 0.007475
# 6 0.007036 0.001765 0.000744 0.005687 0.007475 0.041816
#
#
# Mechanical properties :
#
#
# Convention : Reuss Voigt Hill
#
# Bulk Modulus (GPa) = 39.17022 47.71596 43.44309
# Shear Modulus (GPa) = 25.82491 32.29964 29.06228
#
# Velocity S-wave (km/s) = 3.55297 3.97348 3.76910
# Velocity P-wave (km/s) = 5.99821 6.66151 6.33854
#
# Compressibility (1/GPa) = 0.02552960
#
# Stress axis : x y z
#
# Youngs Moduli (GPa) = 71.74001 81.46633 64.30297
#
# Poissons Ratio (x) = 0.05600 0.12159
# Poissons Ratio (y) = 0.04931 0.35622
# Poissons Ratio (z) = 0.13566 0.45130
#
# Static dielectric constant tensor:
#      x y z
#    x 1.840550 0.005680 -0.045120 
#    y 0.005680 1.755960 -0.018580 
#    z -0.045120 -0.018580 1.796620 
# 
# From -- ./inp_files/367870.got.cif
#   From: 2010.05.17/outbox.cif.g08.bks.cpg/sg2_184_cif.got.tgz:367870.got - 2010.06.03 11:33:40.
