data_PCOD9079238
_publ_section_title
;
Structure prediction by ZEFSAII (Michael W. Deem and Ramdas Pophale) SiO2 
 PCOD9079238
Probable space group: P -1
;
_chemical_formula_sum "Si O2"
_cell_formula_units_Z 16
_cell_length_a 12.026192
_cell_length_b 14.929404
_cell_length_c 9.197652
_cell_angle_alpha 105.985860
_cell_angle_beta 40.296415
_cell_angle_gamma 132.059720
_cell_volume 690.989914
_symmetry_space_group_name_H-M "P -1"
_symmetry_group_IT_number 2
_symmetry_cell_setting 'triclinic'
loop_
_space_group_symop_operation_xyz
x,y,z
-x,-y,-z
loop_
_atom_site_type_symbol
_atom_site_label
_atom_site_fract_x
_atom_site_fract_y
_atom_site_fract_z
Si Si1 0.359993 0.636753 0.819526
Si Si2 0.888394 0.857267 0.512561
Si Si3 0.595300 0.963158 0.506879
Si Si4 0.044609 0.411702 0.624766
Si Si5 0.675750 0.309077 0.442734
Si Si6 0.158789 0.368290 0.994295
Si Si7 0.080580 0.256570 0.305060
Si Si8 0.086873 0.786329 0.100056
O O1 0.652590 0.778616 0.607374
O O2 0.268701 0.628881 0.747054
O O3 0.200444 0.624531 0.100070
O O4 0.340341 0.518779 0.814507
O O5 0.805448 0.765538 0.696403
O O6 0.098374 0.880017 0.231247
O O7 0.000000 0.000000 0.500000
O O8 0.846090 0.104596 0.397515
O O9 0.500000 0.000000 0.500000
O O10 0.579750 0.855978 0.393187
O O11 0.369017 0.867432 0.810070
O O12 0.063692 0.351407 0.718632
O O13 0.271315 0.579002 0.461202
O O14 0.008733 0.324708 0.490137
O O15 0.897181 0.322565 0.265246
O O16 0.249068 0.356727 0.045538
O O17 0.073659 0.262166 0.908093
#
# Coordination Sequence:
#
# PCOD9079238 Si02
#       8
#     2   2   2   2   2   2   2   2
#     4  11  20  38  66  88 125 161 203 242 305 365
#     4  11  27  41  57  90 130 165 197 249 304 371
#     4  11  20  36  66  91 117 160 199 251 302 353
#     4  10  20  37  67  95 116 157 207 263 293 347
#     4  10  18  36  64  95 117 152 212 250 290 355
#     4  10  19  39  67  90 120 154 206 262 292 351
#     4  11  24  40  62  95 128 150 206 257 310 353
#     4  10  20  40  65  89 115 159 212 242 301 363
#
# _framework density 23.155186
#
# number of rings (size 3 to 8) (size 9 to 14) (size 15 to 20)
#    0.000    1.500    6.250    1.500    1.750    4.000 
#    0.000    0.625    2.750    0.000    0.000    0.000 
#    0.000    0.000    0.000    0.000    0.000    0.000 
#
# Total GULP energy -89292.891555 kJ/mol
# GULP energy per Si atom -5580.805722 kJ/mol
# Density = 2.310248 g / cm^3
# Si number density = 23.155186 Si / 1000 Ang^3
#
#
#
# Elastic Constant Matrix: (Units=GPa)
#
#
# Indices 1 2 3 4 5 6 
#
# 1 74.3895 -2.6950 8.4317 5.6712 15.8428 -5.2498
# 2 -2.6950 157.4575 8.0140 0.0482 -3.4521 -17.8869
# 3 8.4317 8.0140 16.4303 4.5668 1.9381 -8.4319
# 4 5.6712 0.0482 4.5668 12.8204 -1.1849 0.1484
# 5 15.8428 -3.4521 1.9381 -1.1849 30.4902 -5.5476
# 6 -5.2498 -17.8869 -8.4319 0.1484 -5.5476 33.1262
#
#
#
# Elastic Compliance Matrix: (Units=1/GPa)
#
#
# Indices 1 2 3 4 5 6 
#
# 1 0.016350 0.000395 -0.006024 -0.005855 -0.008313 -0.000095
# 2 0.000395 0.006889 -0.002123 0.000641 0.001366 0.003468
# 3 -0.006024 -0.002123 0.082152 -0.026804 0.000072 0.018942
# 4 -0.005855 0.000641 -0.026804 0.090873 0.007147 -0.006614
# 5 -0.008313 0.001366 0.000072 0.007147 0.038613 0.005873
# 6 -0.000095 0.003468 0.018942 -0.006614 0.005873 0.037880
#
#
# Mechanical properties :
#
#
# Convention : Reuss Voigt Hill
#
# Bulk Modulus (GPa) = 11.12482 30.64210 20.88346
# Shear Modulus (GPa) = 15.71224 30.92247 23.31736
#
# Velocity S-wave (km/s) = 2.60775 3.65834 3.17677
# Velocity P-wave (km/s) = 3.72586 5.57734 4.74282
#
# Compressibility (1/GPa) = 0.08988911
#
# Stress axis : x y z
#
# Youngs Moduli (GPa) = 61.16252 145.14961 12.17253
#
# Poissons Ratio (x) = -0.05737 0.07332
# Poissons Ratio (y) = -0.02417 0.02584
# Poissons Ratio (z) = 0.36842 0.30811
#
# Static dielectric constant tensor:
#      x y z
#    x 1.849030 -0.011970 0.008080 
#    y -0.011970 1.922510 0.002360 
#    z 0.008080 0.002360 1.881990 
# 
# From -- ./inp_files/251714.got.cif
#   From: 2010.05.17/outbox.cif.g08.bks.cpg/sg2_126_cif.got.tgz:251714.got - 2010.06.03 11:33:40.
