data_PCOD9079884
_publ_section_title
;
Structure prediction by ZEFSAII (Michael W. Deem and Ramdas Pophale) SiO2 
 PCOD9079884
Probable space group: P -1
;
_chemical_formula_sum "Si O2"
_cell_formula_units_Z 16
_cell_length_a 12.447994
_cell_length_b 9.238427
_cell_length_c 14.181323
_cell_angle_alpha 52.225620
_cell_angle_beta 76.599996
_cell_angle_gamma 39.327140
_cell_volume 715.211358
_symmetry_space_group_name_H-M "P -1"
_symmetry_group_IT_number 2
_symmetry_cell_setting 'triclinic'
loop_
_space_group_symop_operation_xyz
x,y,z
-x,-y,-z
loop_
_atom_site_type_symbol
_atom_site_label
_atom_site_fract_x
_atom_site_fract_y
_atom_site_fract_z
Si Si1 0.563889 0.198158 0.595192
Si Si2 0.833218 0.470561 0.493226
Si Si3 0.891039 0.592868 0.076809
Si Si4 0.480580 0.934198 0.159709
Si Si5 0.669119 0.246911 0.204463
Si Si6 0.176341 0.229103 0.470198
Si Si7 0.327374 0.929374 0.928007
Si Si8 0.127244 0.760412 0.718513
O O1 0.500000 0.500000 0.500000
O O2 0.378130 0.319384 0.564984
O O3 0.629770 0.019900 0.751875
O O4 0.711080 0.962512 0.572824
O O5 0.828250 0.562680 0.564068
O O6 0.952537 0.467451 0.416118
O O7 0.969636 0.116715 0.574386
O O8 0.669548 0.856356 0.980200
O O9 0.970606 0.298274 0.220451
O O10 0.000000 0.500000 0.000000
O O11 0.866876 0.766816 0.096376
O O12 0.675123 0.548827 0.254766
O O13 0.556333 0.036610 0.124877
O O14 0.704968 0.114314 0.148649
O O15 0.802546 0.241094 0.198516
O O16 0.716772 0.044690 0.361862
O O17 0.453458 0.620797 0.090726
#
# Coordination Sequence:
#
# PCOD9079884 Si02
#       8
#     2   2   2   2   2   2   2   2
#     4  12  26  40  66  98 134 172 214 262 319 382
#     4  10  23  43  64  94 124 176 215 256 324 377
#     4  11  23  40  60  92 126 164 203 262 315 373
#     4  11  22  43  61  92 125 167 209 255 318 378
#     4  10  18  37  68  92 114 159 213 254 313 374
#     4  10  23  44  66  92 134 170 212 268 315 380
#     4  10  20  37  68  88 117 162 206 257 314 374
#     4  10  20  41  68  84 128 162 211 261 311 378
#
# _framework density 22.371010999999999
#
# number of rings (size 3 to 8) (size 9 to 14) (size 15 to 20)
#    0.000    1.500    2.500    3.375    1.750    2.000 
#    9.000    1.875    0.000    0.000    0.000    0.000 
#    0.000    0.000    0.000    0.000    0.000    0.000 
#
# Total GULP energy -89271.645728 kJ/mol
# GULP energy per Si atom -5579.477858 kJ/mol
# Density = 2.232009 g / cm^3
# Si number density = 22.371011 Si / 1000 Ang^3
#
#
#
# Elastic Constant Matrix: (Units=GPa)
#
#
# Indices 1 2 3 4 5 6 
#
# 1 83.7103 41.7816 -5.2962 4.7661 8.2042 3.8317
# 2 41.7816 139.2154 18.5811 11.2869 -18.0133 14.8878
# 3 -5.2962 18.5811 65.1360 -3.3471 -11.5455 2.6038
# 4 4.7661 11.2869 -3.3471 38.9243 2.6771 -2.3805
# 5 8.2042 -18.0133 -11.5455 2.6771 21.3780 -4.9018
# 6 3.8317 14.8878 2.6038 -2.3805 -4.9018 37.4188
#
#
#
# Elastic Compliance Matrix: (Units=1/GPa)
#
#
# Indices 1 2 3 4 5 6 
#
# 1 0.016397 -0.006556 0.001250 0.000746 -0.011372 -0.000600
# 2 -0.006556 0.011381 -0.001924 -0.003569 0.010936 -0.002517
# 3 0.001250 -0.001924 0.017332 0.001429 0.007187 0.000464
# 4 0.000746 -0.003569 0.001429 0.027269 -0.005416 0.002269
# 5 -0.011372 0.010936 0.007187 -0.005416 0.065974 0.004611
# 6 -0.000600 -0.002517 0.000464 0.002269 0.004611 0.028504
#
#
# Mechanical properties :
#
#
# Convention : Reuss Voigt Hill
#
# Bulk Modulus (GPa) = 32.62646 44.24386 38.43516
# Shear Modulus (GPa) = 26.10538 35.07722 30.59130
#
# Velocity S-wave (km/s) = 3.41974 3.96406 3.70192
# Velocity P-wave (km/s) = 5.49625 6.38530 5.95738
#
# Compressibility (1/GPa) = 0.03064997
#
# Stress axis : x y z
#
# Youngs Moduli (GPa) = 60.98806 87.86544 57.69759
#
# Poissons Ratio (x) = 0.57601 -0.07211
# Poissons Ratio (y) = 0.39982 0.11101
# Poissons Ratio (z) = -0.07623 0.16905
#
# Static dielectric constant tensor:
#      x y z
#    x 1.866020 -0.000910 0.041770 
#    y -0.000910 1.842670 -0.039850 
#    z 0.041770 -0.039850 1.909550 
# 
# From -- ./inp_files/273496.got.cif
#   From: 2010.05.17/outbox.cif.g08.bks.cpg/sg2_137_cif.got.tgz:273496.got - 2010.06.03 11:33:40.
