data_PCOD9079388
_publ_section_title
;
Structure prediction by ZEFSAII (Michael W. Deem and Ramdas Pophale) SiO2 
 PCOD9079388
Probable space group: P -1
;
_chemical_formula_sum "Si O2"
_cell_formula_units_Z 16
_cell_length_a 13.431458
_cell_length_b 11.729734
_cell_length_c 14.153608
_cell_angle_alpha 44.372571
_cell_angle_beta 144.237311
_cell_angle_gamma 137.950045
_cell_volume 836.188542
_symmetry_space_group_name_H-M "P -1"
_symmetry_group_IT_number 2
_symmetry_cell_setting 'triclinic'
loop_
_space_group_symop_operation_xyz
x,y,z
-x,-y,-z
loop_
_atom_site_type_symbol
_atom_site_label
_atom_site_fract_x
_atom_site_fract_y
_atom_site_fract_z
Si Si1 0.100286 0.095487 0.176856
Si Si2 0.535319 0.346548 0.562701
Si Si3 0.411430 0.088915 0.303933
Si Si4 0.520047 0.804434 0.076648
Si Si5 0.523563 0.587547 0.727714
Si Si6 0.691543 0.076154 0.875582
Si Si7 0.133181 0.033865 0.440702
Si Si8 0.804259 0.091118 0.244736
O O1 0.196305 0.034248 0.201756
O O2 0.257751 0.295222 0.196378
O O3 0.091009 0.978024 0.332672
O O4 0.901589 0.098386 0.009555
O O5 0.500000 0.500000 0.500000
O O6 0.580589 0.400158 0.455978
O O7 0.675124 0.265096 0.760196
O O8 0.338846 0.181100 0.512292
O O9 0.507246 0.299423 0.276285
O O10 0.500000 0.000000 0.500000
O O11 0.420385 0.023322 0.245178
O O12 0.519102 0.614836 0.164898
O O13 0.651613 0.894109 0.214632
O O14 0.310225 0.789927 0.936588
O O15 0.606045 0.947733 0.974531
O O16 0.984403 0.115176 0.308349
O O17 0.133646 0.900867 0.603209
#
# Coordination Sequence:
#
# PCOD9079388 Si02
#       8
#     2   2   2   2   2   2   2   2
#     4   9  21  37  62  90 109 153 206 242 286 344
#     4  11  22  36  59  87 118 159 200 236 291 351
#     4  10  20  41  66  83 113 156 204 240 289 349
#     4  11  22  37  57  91 118 152 198 241 300 343
#     4   9  22  38  58  86 119 145 197 245 290 343
#     4  12  21  39  65  86 117 160 197 242 291 348
#     4  10  18  37  54  85 114 163 193 235 286 356
#     4  10  21  33  58  80 126 158 189 233 297 357
#
# _framework density 19.134440000000001
#
# number of rings (size 3 to 8) (size 9 to 14) (size 15 to 20)
#    0.750    1.000    3.750    1.125    1.750    1.500 
#    0.000    2.500    0.000    0.750    0.000    0.000 
#    0.000    0.000    0.000    0.000    0.000    0.000 
#
# Total GULP energy -89102.583158 kJ/mol
# GULP energy per Si atom -5568.911447 kJ/mol
# Density = 1.909089 g / cm^3
# Si number density = 19.134440 Si / 1000 Ang^3
#
#
#
# Elastic Constant Matrix: (Units=GPa)
#
#
# Indices 1 2 3 4 5 6 
#
# 1 64.3048 8.4060 23.4748 -7.1300 -1.5704 -6.6664
# 2 8.4060 44.4668 25.6985 -19.1444 -3.4661 -21.0885
# 3 23.4748 25.6985 96.7709 -5.7013 7.9655 -1.5948
# 4 -7.1300 -19.1444 -5.7013 26.1588 -0.3066 4.7972
# 5 -1.5704 -3.4661 7.9655 -0.3066 41.1287 7.5501
# 6 -6.6664 -21.0885 -1.5948 4.7972 7.5501 25.7744
#
#
#
# Elastic Compliance Matrix: (Units=1/GPa)
#
#
# Indices 1 2 3 4 5 6 
#
# 1 0.018540 0.007526 -0.005976 0.007639 0.000924 0.008891
# 2 0.007526 0.077870 -0.019000 0.044636 0.000581 0.056006
# 3 -0.005976 -0.019000 0.016254 -0.009534 -0.002559 -0.013561
# 4 0.007639 0.044636 -0.009534 0.066329 0.001799 0.025035
# 5 0.000924 0.000581 -0.002559 0.001799 0.026280 -0.007477
# 6 0.008891 0.056006 -0.013561 0.025035 -0.007477 0.083613
#
#
# Mechanical properties :
#
#
# Convention : Reuss Voigt Hill
#
# Bulk Modulus (GPa) = 12.85919 35.63343 24.24631
# Shear Modulus (GPa) = 14.29770 28.47658 21.38714
#
# Velocity S-wave (km/s) = 2.73650 3.86195 3.34687
# Velocity P-wave (km/s) = 4.08897 6.20881 5.25685
#
# Compressibility (1/GPa) = 0.07776540
#
# Stress axis : x y z
#
# Youngs Moduli (GPa) = 53.93794 12.84193 61.52223
#
# Poissons Ratio (x) = -0.09665 0.36763
# Poissons Ratio (y) = -0.40595 1.16892
# Poissons Ratio (z) = 0.32231 0.24400
#
# Static dielectric constant tensor:
#      x y z
#    x 1.693400 -0.007980 -0.015090 
#    y -0.007980 1.640770 0.011740 
#    z -0.015090 0.011740 1.709190 
# 
# From -- ./inp_files/497511.got.cif
#   From: 2010.05.17/outbox.cif.g08.bks.cpg/sg2_249_cif.got.tgz:497511.got - 2010.06.03 11:33:40.
