data_PCOD9079856
_publ_section_title
;
Structure prediction by ZEFSAII (Michael W. Deem and Ramdas Pophale) SiO2 
 PCOD9079856
Probable space group: P -1
;
_chemical_formula_sum "Si O2"
_cell_formula_units_Z 16
_cell_length_a 8.723277
_cell_length_b 19.179305
_cell_length_c 21.895395
_cell_angle_alpha 154.863598
_cell_angle_beta 30.937500
_cell_angle_gamma 141.370987
_cell_volume 799.784705
_symmetry_space_group_name_H-M "P -1"
_symmetry_group_IT_number 2
_symmetry_cell_setting 'triclinic'
loop_
_space_group_symop_operation_xyz
x,y,z
-x,-y,-z
loop_
_atom_site_type_symbol
_atom_site_label
_atom_site_fract_x
_atom_site_fract_y
_atom_site_fract_z
Si Si1 0.934473 0.429020 0.777723
Si Si2 0.300664 0.186119 0.392578
Si Si3 0.201470 0.826145 0.100312
Si Si4 0.763906 0.605603 0.531273
Si Si5 0.664551 0.590859 0.109209
Si Si6 0.082124 0.855576 0.902411
Si Si7 0.269712 0.769644 0.898417
Si Si8 0.359237 0.416347 0.185394
O O1 0.634952 0.381332 0.805280
O O2 0.172036 0.288045 0.573358
O O3 0.059606 0.603940 0.846718
O O4 0.846313 0.461383 0.903290
O O5 0.139088 0.262903 0.449417
O O6 0.648768 0.222919 0.290070
O O7 0.264035 0.989871 0.247674
O O8 0.878295 0.749927 0.165802
O O9 0.229311 0.867029 0.051672
O O10 0.436038 0.678281 0.911580
O O11 0.500000 0.500000 0.500000
O O12 0.591190 0.694481 0.714900
O O13 0.063572 0.519196 0.383069
O O14 0.569278 0.519613 0.150283
O O15 0.200716 0.878805 0.948949
O O16 0.799692 0.737554 0.916023
O O17 0.000000 0.000000 0.000000
#
# Coordination Sequence:
#
# PCOD9079856 Si02
#       8
#     2   2   2   2   2   2   2   2
#     4  10  18  37  67  87 108 162 221 237 277 366
#     4  11  20  38  60  94 119 153 196 255 305 350
#     4  11  26  36  60  91 131 152 190 256 314 344
#     4  11  18  34  66  85 114 157 206 244 284 361
#     4  10  21  38  63  86 116 166 204 245 288 363
#     4  11  20  35  65  87 119 156 200 243 298 359
#     4  10  20  40  62  91 116 160 204 242 298 369
#     4  12  20  40  60  92 119 162 202 245 298 365
#
# _framework density 20.005383999999999
#
# number of rings (size 3 to 8) (size 9 to 14) (size 15 to 20)
#    0.000    1.250    7.500    0.375    0.000    3.000 
#    0.000    0.625    0.000    0.000    0.000    0.000 
#    0.000    0.000    0.000    0.000    0.000    0.000 
#
# Total GULP energy -89108.609307 kJ/mol
# GULP energy per Si atom -5569.288082 kJ/mol
# Density = 1.995985 g / cm^3
# Si number density = 20.005384 Si / 1000 Ang^3
#
#
#
# Elastic Constant Matrix: (Units=GPa)
#
#
# Indices 1 2 3 4 5 6 
#
# 1 39.4959 15.7214 19.0206 -2.7572 -13.7995 -7.5051
# 2 15.7214 88.9555 27.2156 -10.1448 1.8968 4.3899
# 3 19.0206 27.2156 88.3064 -5.4578 -4.7000 -7.8785
# 4 -2.7572 -10.1448 -5.4578 29.1735 -8.0734 -2.1098
# 5 -13.7995 1.8968 -4.7000 -8.0734 29.9586 1.6378
# 6 -7.5051 4.3899 -7.8785 -2.1098 1.6378 29.2488
#
#
#
# Elastic Compliance Matrix: (Units=1/GPa)
#
#
# Indices 1 2 3 4 5 6 
#
# 1 0.038266 -0.005508 -0.004346 0.006682 0.018606 0.008915
# 2 -0.005508 0.013819 -0.003443 0.002501 -0.003056 -0.004063
# 3 -0.004346 -0.003443 0.013716 0.001340 0.000556 0.003162
# 4 0.006682 0.002501 0.001340 0.040106 0.013729 0.003824
# 5 0.018606 -0.003056 0.000556 0.013729 0.045722 0.003813
# 6 0.008915 -0.004063 0.003162 0.003824 0.003813 0.038001
#
#
# Mechanical properties :
#
#
# Convention : Reuss Voigt Hill
#
# Bulk Modulus (GPa) = 25.50572 37.85256 31.67914
# Shear Modulus (GPa) = 21.80616 27.99619 24.90117
#
# Velocity S-wave (km/s) = 3.30512 3.74496 3.53189
# Velocity P-wave (km/s) = 5.22898 6.13693 5.70105
#
# Compressibility (1/GPa) = 0.03920689
#
# Stress axis : x y z
#
# Youngs Moduli (GPa) = 26.13293 72.36205 72.90720
#
# Poissons Ratio (x) = 0.39856 0.31686
# Poissons Ratio (y) = 0.14394 0.25104
# Poissons Ratio (z) = 0.11358 0.24916
#
# Static dielectric constant tensor:
#      x y z
#    x 1.759400 0.004460 -0.028220 
#    y 0.004460 1.744540 0.030410 
#    z -0.028220 0.030410 1.758910 
# 
# From -- ./inp_files/281249.got.cif
#   From: 2010.05.17/outbox.cif.g08.bks.cpg/sg2_141_cif.got.tgz:281249.got - 2010.06.03 11:33:40.
