data_PCOD9079652
_publ_section_title
;
Structure prediction by ZEFSAII (Michael W. Deem and Ramdas Pophale) SiO2 
 PCOD9079652
Probable space group: P -1
;
_chemical_formula_sum "Si O2"
_cell_formula_units_Z 14
_cell_length_a 9.366625
_cell_length_b 11.885319
_cell_length_c 12.375696
_cell_angle_alpha 39.833805
_cell_angle_beta 129.063759
_cell_angle_gamma 101.738800
_cell_volume 565.883023
_symmetry_space_group_name_H-M "P -1"
_symmetry_group_IT_number 2
_symmetry_cell_setting 'triclinic'
loop_
_space_group_symop_operation_xyz
x,y,z
-x,-y,-z
loop_
_atom_site_type_symbol
_atom_site_label
_atom_site_fract_x
_atom_site_fract_y
_atom_site_fract_z
Si Si1 0.624199 0.483199 0.804452
Si Si2 0.631058 0.901619 0.286645
Si Si3 0.958088 0.549672 0.253487
Si Si4 0.350579 0.248100 0.230382
Si Si5 0.894019 0.203032 0.719555
Si Si6 0.711620 0.121090 0.977188
Si Si7 0.475666 0.728771 0.908782
O O1 0.722042 0.612707 0.798921
O O2 0.706539 0.327350 0.855456
O O3 0.365624 0.665790 0.524906
O O4 0.655804 0.333826 0.032285
O O5 0.439374 0.859584 0.210014
O O6 0.859933 0.684400 0.528131
O O7 0.612842 0.025302 0.294386
O O8 0.598529 0.074957 0.055248
O O9 0.057819 0.637252 0.317771
O O10 0.851883 0.690583 0.990657
O O11 0.736141 0.586894 0.174047
O O12 0.500813 0.300384 0.187561
O O13 0.500000 0.000000 0.500000
O O14 0.044224 0.086869 0.771746
O O15 0.000000 0.000000 0.000000
#
# Coordination Sequence:
#
# PCOD9079652 Si02
#       7
#     2   2   2   2   2   2   2
#     4  11  22  40  63  91 121 160 204 256 302 352
#     4  10  18  37  62  93 118 152 204 255 299 354
#     4  10  21  38  62  87 119 164 200 245 306 354
#     4  10  22  43  61  84 127 165 201 246 307 367
#     4  12  24  39  60  91 125 162 203 248 305 367
#     4  10  21  36  61  93 122 154 199 253 304 356
#     4   9  21  38  65  85 123 157 207 248 299 359
#
# _framework density 24.740095
#
# number of rings (size 3 to 8) (size 9 to 14) (size 15 to 20)
#    0.857    0.857    2.857    2.143    0.000    1.714 
#    5.143    2.143    0.000    0.000    0.000    0.000 
#    0.000    0.000    0.000    0.000    0.000    0.000 
#
# Total GULP energy -78185.520586 kJ/mol
# GULP energy per Si atom -5584.680042 kJ/mol
# Density = 2.468379 g / cm^3
# Si number density = 24.740095 Si / 1000 Ang^3
#
#
#
# Elastic Constant Matrix: (Units=GPa)
#
#
# Indices 1 2 3 4 5 6 
#
# 1 44.4950 5.4687 13.2305 -6.4944 4.4646 0.8926
# 2 5.4687 152.0342 24.9088 -31.1632 10.5061 -28.5759
# 3 13.2305 24.9088 95.6890 -23.9337 8.9082 -4.7488
# 4 -6.4944 -31.1632 -23.9337 40.5496 -10.9769 12.6251
# 5 4.4646 10.5061 8.9082 -10.9769 39.8444 -12.8968
# 6 0.8926 -28.5759 -4.7488 12.6251 -12.8968 19.5953
#
#
#
# Elastic Compliance Matrix: (Units=1/GPa)
#
#
# Indices 1 2 3 4 5 6 
#
# 1 0.024249 -0.001007 -0.002364 0.003084 -0.003475 -0.007421
# 2 -0.001007 0.009939 -0.001252 0.003155 0.003293 0.014371
# 3 -0.002364 -0.001252 0.012827 0.007111 -0.001711 -0.004318
# 4 0.003084 0.003155 0.007111 0.037525 0.002219 -0.016533
# 5 -0.003475 0.003293 -0.001711 0.002219 0.033828 0.025380
# 6 -0.007421 0.014371 -0.004318 -0.016533 0.025380 0.098638
#
#
# Mechanical properties :
#
#
# Convention : Reuss Voigt Hill
#
# Bulk Modulus (GPa) = 26.47757 42.15937 34.31847
# Shear Modulus (GPa) = 20.93432 36.57186 28.75309
#
# Velocity S-wave (km/s) = 2.91206 3.84896 3.41281
# Velocity P-wave (km/s) = 4.69386 6.06882 5.42507
#
# Compressibility (1/GPa) = 0.03776781
#
# Stress axis : x y z
#
# Youngs Moduli (GPa) = 41.23903 100.61187 77.96070
#
# Poissons Ratio (x) = 0.10136 0.18429
# Poissons Ratio (y) = 0.04155 0.09762
# Poissons Ratio (z) = 0.09749 0.12599
#
# Static dielectric constant tensor:
#      x y z
#    x 2.075410 0.005920 -0.044460 
#    y 0.005920 1.975470 -0.001360 
#    z -0.044460 -0.001360 1.890570 
# 
# From -- ./inp_files/499201.got.cif
#   From: 2010.05.17/outbox.cif.g08.bks.cpg/sg2_250_cif.got.tgz:499201.got - 2010.06.03 11:33:40.
