data_PCOD9079390
_publ_section_title
;
Structure prediction by ZEFSAII (Michael W. Deem and Ramdas Pophale) SiO2 
 PCOD9079390
Probable space group: P -1
;
_chemical_formula_sum "Si O2"
_cell_formula_units_Z 16
_cell_length_a 14.197515
_cell_length_b 5.233916
_cell_length_c 20.662439
_cell_angle_alpha 80.045705
_cell_angle_beta 24.650642
_cell_angle_gamma 72.085520
_cell_volume 586.904404
_symmetry_space_group_name_H-M "P -1"
_symmetry_group_IT_number 2
_symmetry_cell_setting 'triclinic'
loop_
_space_group_symop_operation_xyz
x,y,z
-x,-y,-z
loop_
_atom_site_type_symbol
_atom_site_label
_atom_site_fract_x
_atom_site_fract_y
_atom_site_fract_z
Si Si1 0.783272 0.792077 0.068228
Si Si2 0.840801 0.794576 0.558608
Si Si3 0.843851 0.206571 0.914559
Si Si4 0.588032 0.449793 0.519835
Si Si5 0.160654 0.245425 0.163701
Si Si6 0.447437 0.442829 0.327657
Si Si7 0.894512 0.897283 0.661805
Si Si8 0.204929 0.234455 0.790910
O O1 0.612770 0.603535 0.188620
O O2 0.836176 0.854623 0.106718
O O3 0.027853 0.565822 0.892832
O O4 0.725434 0.062615 0.047102
O O5 0.609080 0.790561 0.666634
O O6 0.000000 0.500000 0.500000
O O7 0.782057 0.954905 0.657508
O O8 0.025616 0.840630 0.388943
O O9 0.746396 0.534854 0.940846
O O10 0.100086 0.149397 0.794717
O O11 0.828174 0.031140 0.869120
O O12 0.500000 0.500000 0.500000
O O13 0.869492 0.400694 0.345037
O O14 0.479549 0.650080 0.640317
O O15 0.483311 0.210316 0.613595
O O16 0.245866 0.170457 0.188411
O O17 0.172040 0.673442 0.493509
#
# Coordination Sequence:
#
# PCOD9079390 Si02
#       8
#     2   2   2   2   2   2   2   2
#     4  10  21  39  58  85 122 163 223 249 293 353
#     4   9  18  36  63  91 120 150 194 250 320 366
#     4  12  22  41  57  85 119 172 203 254 298 357
#     4  10  18  37  54  89 125 160 205 251 304 361
#     4  11  25  37  63  89 127 161 204 250 315 366
#     4   9  20  34  60  90 119 163 199 254 301 360
#     4   9  20  37  59  98 120 150 194 256 314 376
#     4  10  21  38  58  84 118 168 212 263 294 344
#
# _framework density 27.261680999999999
#
# number of rings (size 3 to 8) (size 9 to 14) (size 15 to 20)
#    0.000    2.000    2.500    0.375    5.250    1.500 
#    2.250    5.000    0.000    1.500    0.000    0.000 
#    0.000    0.000    0.000    0.000    0.000    0.000 
#
# Total GULP energy -89200.065462 kJ/mol
# GULP energy per Si atom -5575.004091 kJ/mol
# Density = 2.719963 g / cm^3
# Si number density = 27.261681 Si / 1000 Ang^3
#
#
#
# Elastic Constant Matrix: (Units=GPa)
#
#
# Indices 1 2 3 4 5 6 
#
# 1 170.6714 41.9731 33.4707 -28.1382 27.4408 10.3590
# 2 41.9731 91.6320 25.6795 -42.1489 15.2994 4.5758
# 3 33.4707 25.6795 87.1258 -31.3419 13.0138 5.9279
# 4 -28.1382 -42.1489 -31.3419 37.7642 -8.1365 -3.5062
# 5 27.4408 15.2994 13.0138 -8.1365 47.0937 -12.7028
# 6 10.3590 4.5758 5.9279 -3.5062 -12.7028 46.3764
#
#
#
# Elastic Compliance Matrix: (Units=1/GPa)
#
#
# Indices 1 2 3 4 5 6 
#
# 1 0.007522 -0.001399 -0.000942 0.002202 -0.003916 -0.002328
# 2 -0.001399 0.024208 0.004369 0.028667 -0.003704 -0.001482
# 3 -0.000942 0.004369 0.017607 0.017918 -0.003176 -0.001986
# 4 0.002202 0.028667 0.017918 0.074282 -0.002929 -0.000797
# 5 -0.003916 -0.003704 -0.003176 -0.002929 0.027507 0.008959
# 6 -0.002328 -0.001482 -0.001986 -0.000797 0.008959 0.024876
#
#
# Mechanical properties :
#
#
# Convention : Reuss Voigt Hill
#
# Bulk Modulus (GPa) = 18.72904 61.29733 40.01318
# Shear Modulus (GPa) = 26.35123 42.80058 34.57590
#
# Velocity S-wave (km/s) = 3.11240 3.96661 3.56518
# Velocity P-wave (km/s) = 4.44984 6.59638 5.62642
#
# Compressibility (1/GPa) = 0.05339301
#
# Stress axis : x y z
#
# Youngs Moduli (GPa) = 132.94734 41.30838 56.79500
#
# Poissons Ratio (x) = 0.05777 0.05350
# Poissons Ratio (y) = 0.18594 -0.24811
# Poissons Ratio (z) = 0.12524 -0.18046
#
# Static dielectric constant tensor:
#      x y z
#    x 2.221320 0.098680 0.024880 
#    y 0.098680 2.593950 0.086520 
#    z 0.024880 0.086520 2.187850 
# 
# From -- ./inp_files/596566.got.cif
#   From: 2010.05.17/outbox.cif.g08.bks.cpg/sg2_299_cif.got.tgz:596566.got - 2010.06.03 11:33:40.
