data_PCOD9079613
_publ_section_title
;
Structure prediction by ZEFSAII (Michael W. Deem and Ramdas Pophale) SiO2 
 PCOD9079613
Probable space group: P -1
;
_chemical_formula_sum "Si O2"
_cell_formula_units_Z 16
_cell_length_a 10.013595
_cell_length_b 11.844803
_cell_length_c 20.537986
_cell_angle_alpha 153.037216
_cell_angle_beta 65.200668
_cell_angle_gamma 125.139908
_cell_volume 873.975614
_symmetry_space_group_name_H-M "P -1"
_symmetry_group_IT_number 2
_symmetry_cell_setting 'triclinic'
loop_
_space_group_symop_operation_xyz
x,y,z
-x,-y,-z
loop_
_atom_site_type_symbol
_atom_site_label
_atom_site_fract_x
_atom_site_fract_y
_atom_site_fract_z
Si Si1 0.183764 0.761792 0.177309
Si Si2 0.253276 0.035176 0.665493
Si Si3 0.412525 0.169626 0.570947
Si Si4 0.771866 0.545383 0.671128
Si Si5 0.025575 0.887597 0.159038
Si Si6 0.122962 0.335395 0.140631
Si Si7 0.432883 0.648988 0.140492
Si Si8 0.898280 0.147819 0.623193
O O1 0.167548 0.892254 0.180212
O O2 0.362130 0.812089 0.193501
O O3 0.116752 0.875209 0.308111
O O4 0.068054 0.419189 0.014976
O O5 0.311073 0.196917 0.667095
O O6 0.415924 0.157618 0.742341
O O7 0.112580 0.084276 0.754233
O O8 0.194983 0.703200 0.492425
O O9 0.573941 0.445994 0.651894
O O10 0.500000 0.000000 0.500000
O O11 0.282473 0.002723 0.454292
O O12 0.800650 0.563289 0.751503
O O13 0.892518 0.848421 0.770645
O O14 0.273278 0.431229 0.105975
O O15 0.030188 0.517672 0.235271
O O16 0.000000 0.000000 0.000000
O O17 0.500000 0.500000 0.000000
O O18 0.000000 0.000000 0.500000
#
# Coordination Sequence:
#
# PCOD9079613 Si02
#       8
#     2   2   2   2   2   2   2   2
#     4  10  22  39  57  84 122 164 196 239 313 362
#     4  11  20  37  61  88 114 159 205 242 297 363
#     4  10  18  37  62  86 115 158 201 250 298 357
#     4  11  20  37  61  91 116 155 208 250 293 353
#     4  11  23  38  59  84 125 161 196 247 301 363
#     4  11  22  38  64  93 123 155 202 262 302 351
#     4  11  21  40  62  89 117 159 204 246 298 370
#     4  11  21  39  64  91 120 159 206 250 306 370
#
# _framework density 18.307148000000002
#
# number of rings (size 3 to 8) (size 9 to 14) (size 15 to 20)
#    0.000    1.250    5.000    4.875    0.000    0.000 
#    0.000    3.750    0.000    5.250    0.000    0.000 
#    0.000    0.000    0.000    0.000    0.000    0.000 
#
# Total GULP energy -89234.349878 kJ/mol
# GULP energy per Si atom -5577.146867 kJ/mol
# Density = 1.826548 g / cm^3
# Si number density = 18.307148 Si / 1000 Ang^3
#
#
#
# Elastic Constant Matrix: (Units=GPa)
#
#
# Indices 1 2 3 4 5 6 
#
# 1 65.0334 14.1901 16.9626 -8.9188 3.9018 -3.8668
# 2 14.1901 74.5879 24.4402 -18.6960 -11.7164 8.6215
# 3 16.9626 24.4402 89.2747 -20.2914 -2.1773 1.4428
# 4 -8.9188 -18.6960 -20.2914 33.0671 -0.1864 4.3454
# 5 3.9018 -11.7164 -2.1773 -0.1864 34.5841 -12.8828
# 6 -3.8668 8.6215 1.4428 4.3454 -12.8828 24.1206
#
#
#
# Elastic Compliance Matrix: (Units=1/GPa)
#
#
# Indices 1 2 3 4 5 6 
#
# 1 0.017028 -0.002792 -0.002272 0.001275 -0.002059 0.002534
# 2 -0.002792 0.018315 -0.002214 0.009098 0.004073 -0.006325
# 3 -0.002272 -0.002214 0.013818 0.006845 -0.000243 -0.001762
# 4 0.001275 0.009098 0.006845 0.041402 -0.000592 -0.011231
# 5 -0.002059 0.004073 -0.000243 -0.000592 0.037312 0.018263
# 6 0.002534 -0.006325 -0.001762 -0.011231 0.018263 0.056008
#
#
# Mechanical properties :
#
#
# Convention : Reuss Voigt Hill
#
# Bulk Modulus (GPa) = 28.89850 37.78686 33.34268
# Shear Modulus (GPa) = 23.81254 29.90790 26.86022
#
# Velocity S-wave (km/s) = 3.61047 4.04626 3.83456
# Velocity P-wave (km/s) = 5.76197 6.52035 6.15285
#
# Compressibility (1/GPa) = 0.03460387
#
# Stress axis : x y z
#
# Youngs Moduli (GPa) = 58.72808 54.60037 72.37162
#
# Poissons Ratio (x) = 0.15242 0.16446
# Poissons Ratio (y) = 0.16394 0.16024
# Poissons Ratio (z) = 0.13346 0.12089
#
# Static dielectric constant tensor:
#      x y z
#    x 1.646380 0.017450 0.005450 
#    y 0.017450 1.638880 -0.010950 
#    z 0.005450 -0.010950 1.656950 
# 
# From -- ./inp_files/588763.got.cif
#   From: 2010.05.17/outbox.cif.g08.bks.cpg/sg2_295_cif.got.tgz:588763.got - 2010.06.03 11:33:40.
