data_PCOD9079829
_publ_section_title
;
Structure prediction by ZEFSAII (Michael W. Deem and Ramdas Pophale) SiO2 
 PCOD9079829
Probable space group: P -1
;
_chemical_formula_sum "Si O2"
_cell_formula_units_Z 16
_cell_length_a 15.487297
_cell_length_b 9.496451
_cell_length_c 9.136494
_cell_angle_alpha 63.219812
_cell_angle_beta 52.383107
_cell_angle_gamma 35.790626
_cell_volume 619.598757
_symmetry_space_group_name_H-M "P -1"
_symmetry_group_IT_number 2
_symmetry_cell_setting 'triclinic'
loop_
_space_group_symop_operation_xyz
x,y,z
-x,-y,-z
loop_
_atom_site_type_symbol
_atom_site_label
_atom_site_fract_x
_atom_site_fract_y
_atom_site_fract_z
Si Si1 0.068696 0.045893 0.194582
Si Si2 0.564944 0.861135 0.256294
Si Si3 0.068941 0.499432 0.280887
Si Si4 0.676280 0.013881 0.896357
Si Si5 0.275148 0.193866 0.584310
Si Si6 0.191380 0.648628 0.930531
Si Si7 0.499608 0.489924 0.681029
Si Si8 0.223297 0.601828 0.425843
O O1 0.211998 0.020770 0.079669
O O2 0.968394 0.138047 0.104545
O O3 0.920226 0.244963 0.372610
O O4 0.155933 0.793225 0.283665
O O5 0.646741 0.851275 0.319372
O O6 0.687662 0.599192 0.178772
O O7 0.394775 0.977463 0.444998
O O8 0.545932 0.031009 0.088412
O O9 0.195574 0.233630 0.209980
O O10 0.000000 0.500000 0.500000
O O11 0.902086 0.690331 0.265389
O O12 0.144738 0.588791 0.142084
O O13 0.594438 0.234378 0.773605
O O14 0.250631 0.394410 0.446521
O O15 0.306702 0.671963 0.837714
O O16 0.500000 0.500000 0.500000
O O17 0.604762 0.517497 0.629030
#
# Coordination Sequence:
#
# PCOD9079829 Si02
#       8
#     2   2   2   2   2   2   2   2
#     4  10  18  37  66  92 117 165 217 252 298 369
#     4  10  22  37  65  95 125 162 202 270 315 369
#     4  11  25  39  63  92 130 166 203 266 316 372
#     4  10  22  39  65  90 122 166 216 251 312 379
#     4  11  21  40  63  96 129 161 210 260 316 368
#     4  11  22  40  67  97 125 162 214 256 320 378
#     4  11  22  37  63  96 126 164 204 261 309 376
#     4  10  20  37  63  95 123 166 209 254 304 373
#
# _framework density 25.823163999999998
#
# number of rings (size 3 to 8) (size 9 to 14) (size 15 to 20)
#    0.000    1.500    3.750    0.750    3.500    3.000 
#    0.000    2.500    2.750    1.500    0.000    0.000 
#    0.000    0.000    0.000    0.000    0.000    0.000 
#
# Total GULP energy -89626.750231 kJ/mol
# GULP energy per Si atom -5601.671889 kJ/mol
# Density = 2.576439 g / cm^3
# Si number density = 25.823164 Si / 1000 Ang^3
#
#
#
# Elastic Constant Matrix: (Units=GPa)
#
#
# Indices 1 2 3 4 5 6 
#
# 1 116.9607 37.9546 24.7181 4.9991 -3.7836 -32.8520
# 2 37.9546 109.8886 36.4026 -11.3814 -2.7465 -14.6801
# 3 24.7181 36.4026 95.8597 -8.1341 -5.4244 -6.5625
# 4 4.9991 -11.3814 -8.1341 44.8252 0.1083 1.8319
# 5 -3.7836 -2.7465 -5.4244 0.1083 37.2948 3.6329
# 6 -32.8520 -14.6801 -6.5625 1.8319 3.6329 43.4832
#
#
#
# Elastic Compliance Matrix: (Units=1/GPa)
#
#
# Indices 1 2 3 4 5 6 
#
# 1 0.012248 -0.002846 -0.001753 -0.002739 -0.000007 0.008144
# 2 -0.002846 0.011628 -0.003384 0.002608 -0.000045 0.001159
# 3 -0.001753 -0.003384 0.012332 0.001603 0.001439 -0.000793
# 4 -0.002739 0.002608 0.001603 0.023647 0.000270 -0.001966
# 5 -0.000007 -0.000045 0.001439 0.000270 0.027221 -0.002089
# 6 0.008144 0.001159 -0.000793 -0.001966 -0.002089 0.029679
#
#
# Mechanical properties :
#
#
# Convention : Reuss Voigt Hill
#
# Bulk Modulus (GPa) = 49.39884 57.87330 53.63607
# Shear Modulus (GPa) = 35.85035 40.02957 37.93996
#
# Velocity S-wave (km/s) = 3.73003 3.94146 3.83720
# Velocity P-wave (km/s) = 6.14183 6.57065 6.35986
#
# Compressibility (1/GPa) = 0.02024339
#
# Stress axis : x y z
#
# Youngs Moduli (GPa) = 81.64435 86.00115 81.08952
#
# Poissons Ratio (x) = 0.24473 0.14215
# Poissons Ratio (y) = 0.23233 0.27439
# Poissons Ratio (z) = 0.14312 0.29100
#
# Static dielectric constant tensor:
#      x y z
#    x 2.026110 -0.064400 0.008030 
#    y -0.064400 2.048220 0.004560 
#    z 0.008030 0.004560 2.017420 
# 
# From -- ./inp_files/333016.got.cif
#   From: 2010.05.17/outbox.cif.g08.bks.cpg/sg2_167_cif.got.tgz:333016.got - 2010.06.03 11:33:40.
