data_PCOD9079077
_publ_section_title
;
Structure prediction by ZEFSAII (Michael W. Deem and Ramdas Pophale) SiO2 
 PCOD9079077
Probable space group: P -1
;
_chemical_formula_sum "Si O2"
_cell_formula_units_Z 15
_cell_length_a 5.482826
_cell_length_b 24.766593
_cell_length_c 15.042081
_cell_angle_alpha 162.190654
_cell_angle_beta 106.276759
_cell_angle_gamma 77.691198
_cell_volume 589.580653
_symmetry_space_group_name_H-M "P -1"
_symmetry_group_IT_number 2
_symmetry_cell_setting 'triclinic'
loop_
_space_group_symop_operation_xyz
x,y,z
-x,-y,-z
loop_
_atom_site_type_symbol
_atom_site_label
_atom_site_fract_x
_atom_site_fract_y
_atom_site_fract_z
Si Si1 0.862795 0.526591 0.776691
Si Si2 0.132368 0.834930 0.028072
Si Si3 0.096179 0.910476 0.477245
Si Si4 0.761543 0.895655 0.938567
Si Si5 0.496881 0.898253 0.641522
Si Si6 0.320065 0.593146 0.795807
Si Si7 0.500000 0.000000 0.500000
Si Si8 0.865784 0.745285 0.530615
O O1 0.562141 0.490298 0.662029
O O2 0.050688 0.514108 0.692871
O O3 0.950134 0.397024 0.657320
O O4 0.944198 0.727712 0.135991
O O5 0.241476 0.662900 0.801300
O O6 0.875520 0.808646 0.900691
O O7 0.329568 0.968711 0.199122
O O8 0.093378 0.952470 0.297337
O O9 0.307688 0.008583 0.583768
O O10 0.225941 0.858237 0.500296
O O11 0.745896 0.773759 0.659593
O O12 0.523014 0.978736 0.080873
O O13 0.961521 0.072902 0.204453
O O14 0.622231 0.727350 0.411193
O O15 0.428852 0.778369 0.150152
#
# Coordination Sequence:
#
# PCOD9079077 Si02
#       8
#     2   2   2   2   2   2   1   2
#     4  11  26  38  62  94 138 168 207 253 330 379
#     4  10  20  38  63  95 125 159 219 261 307 374
#     4  10  21  37  60  99 127 169 204 259 316 374
#     4   9  21  41  70  88 114 163 224 270 315 361
#     4  10  20  38  66  92 119 162 217 269 305 371
#     4  11  22  39  60  93 130 173 203 258 309 383
#     4  10  18  36  62  86 128 166 212 242 294 380
#     4  10  22  43  63  91 120 167 216 267 316 381
#
# _framework density 25.441811000000001
#
# number of rings (size 3 to 8) (size 9 to 14) (size 15 to 20)
#    0.000    1.867    1.333    2.000    5.600    2.667 
#    0.000    7.333    0.000    0.000    0.000    0.000 
#    0.000    0.000    0.000    0.000    0.000    0.000 
#
# Total GULP energy -83660.899347 kJ/mol
# GULP energy per Si atom -5577.393290 kJ/mol
# Density = 2.538390 g / cm^3
# Si number density = 25.441811 Si / 1000 Ang^3
#
#
#
# Elastic Constant Matrix: (Units=GPa)
#
#
# Indices 1 2 3 4 5 6 
#
# 1 151.0865 59.7051 35.3137 16.1279 -32.0011 1.2097
# 2 59.7051 140.0231 26.4911 34.7404 -23.7671 -22.1516
# 3 35.3137 26.4911 48.8851 3.7070 -10.8358 -12.0399
# 4 16.1279 34.7404 3.7070 41.0189 -6.7660 -23.8687
# 5 -32.0011 -23.7671 -10.8358 -6.7660 33.1993 8.1092
# 6 1.2097 -22.1516 -12.0399 -23.8687 8.1092 60.4423
#
#
#
# Elastic Compliance Matrix: (Units=1/GPa)
#
#
# Indices 1 2 3 4 5 6 
#
# 1 0.010770 -0.002127 -0.005839 -0.003273 0.007370 -0.004440
# 2 -0.002127 0.011138 -0.003183 -0.007778 0.003305 -0.000025
# 3 -0.005839 -0.003183 0.027802 0.006702 0.000817 0.007025
# 4 -0.003273 -0.007778 0.006702 0.039771 -0.001977 0.014521
# 5 0.007370 0.003305 0.000817 -0.001977 0.040680 -0.005012
# 6 -0.004440 -0.000025 0.007025 0.014521 -0.005012 0.024431
#
#
# Mechanical properties :
#
#
# Convention : Reuss Voigt Hill
#
# Bulk Modulus (GPa) = 36.47968 64.77939 50.62953
# Shear Modulus (GPa) = 26.87799 41.49776 34.18787
#
# Velocity S-wave (km/s) = 3.25383 4.04305 3.66972
# Velocity P-wave (km/s) = 5.33724 6.87838 6.15623
#
# Compressibility (1/GPa) = 0.02741252
#
# Stress axis : x y z
#
# Youngs Moduli (GPa) = 92.85100 89.78594 35.96855
#
# Poissons Ratio (x) = 0.19096 0.21002
# Poissons Ratio (y) = 0.19747 0.11448
# Poissons Ratio (z) = 0.54216 0.28577
#
# Static dielectric constant tensor:
#      x y z
#    x 1.675750 0.120040 -0.249190 
#    y 0.120040 1.945720 0.101890 
#    z -0.249190 0.101890 1.885110 
# 
# From -- ./inp_files/485868.got.cif
#   From: 2010.05.17/outbox.cif.g08.bks.cpg/sg2_243_cif.got.tgz:485868.got - 2010.06.03 11:33:40.
