data_PCOD9079314
_publ_section_title
;
Structure prediction by ZEFSAII (Michael W. Deem and Ramdas Pophale) SiO2 
 PCOD9079314
Probable space group: P -1
;
_chemical_formula_sum "Si O2"
_cell_formula_units_Z 16
_cell_length_a 9.017167
_cell_length_b 9.043098
_cell_length_c 14.522689
_cell_angle_alpha 108.233191
_cell_angle_beta 50.568680
_cell_angle_gamma 88.689411
_cell_volume 828.170674
_symmetry_space_group_name_H-M "P -1"
_symmetry_group_IT_number 2
_symmetry_cell_setting 'triclinic'
loop_
_space_group_symop_operation_xyz
x,y,z
-x,-y,-z
loop_
_atom_site_type_symbol
_atom_site_label
_atom_site_fract_x
_atom_site_fract_y
_atom_site_fract_z
Si Si1 0.058347 0.234006 0.777437
Si Si2 0.159306 0.558814 0.249991
Si Si3 0.088823 0.821678 0.975064
Si Si4 0.083341 0.664817 0.757932
Si Si5 0.921943 0.692050 0.542844
Si Si6 0.161666 0.869340 0.614918
Si Si7 0.413805 0.387534 0.626933
Si Si8 0.539871 0.634981 0.760584
O O1 0.235336 0.319183 0.720646
O O2 0.865075 0.347001 0.818918
O O3 0.127442 0.060518 0.664278
O O4 0.011807 0.204469 0.895306
O O5 0.360192 0.477608 0.213146
O O6 0.087925 0.401601 0.226714
O O7 0.995648 0.682883 0.406427
O O8 0.063580 0.699275 0.880454
O O9 0.328370 0.770197 0.888863
O O10 0.000000 0.000000 0.000000
O O11 0.086395 0.824543 0.734257
O O12 0.289601 0.519158 0.626416
O O13 0.690162 0.724017 0.670345
O O14 0.000000 0.500000 0.500000
O O15 0.036200 0.798513 0.575770
O O16 0.396261 0.766457 0.499057
O O17 0.496735 0.502073 0.683087
#
# Coordination Sequence:
#
# PCOD9079314 Si02
#       8
#     2   2   2   2   2   2   2   2
#     4  11  26  39  58  90 135 164 199 257 309 360
#     4  10  20  41  63  97 122 158 204 252 315 366
#     4  11  24  44  60  88 126 164 214 257 295 362
#     4  10  20  36  69  85 120 163 211 251 296 362
#     4  10  18  36  66  94 124 149 207 257 299 371
#     4  12  19  38  63  94 128 158 201 255 315 364
#     4  10  21  37  61  96 121 161 208 249 315 364
#     4  10  20  40  70  90 119 168 208 249 304 365
#
# _framework density 19.319689
#
# number of rings (size 3 to 8) (size 9 to 14) (size 15 to 20)
#    0.000    1.500    6.250    0.750    0.000    8.500 
#    2.250    2.500    0.000    0.000    0.000    0.000 
#    0.000    0.000    0.000    0.000    0.000    0.000 
#
# Total GULP energy -89110.487570 kJ/mol
# GULP energy per Si atom -5569.405473 kJ/mol
# Density = 1.927572 g / cm^3
# Si number density = 19.319689 Si / 1000 Ang^3
#
#
#
# Elastic Constant Matrix: (Units=GPa)
#
#
# Indices 1 2 3 4 5 6 
#
# 1 88.5320 25.3169 17.3952 0.1002 6.0924 -0.3248
# 2 25.3169 85.5460 25.6438 -0.1335 -4.2534 -12.1181
# 3 17.3952 25.6438 58.8636 -0.0506 8.1139 1.2626
# 4 0.1002 -0.1335 -0.0506 26.4133 -10.0258 3.9690
# 5 6.0924 -4.2534 8.1139 -10.0258 28.2947 -0.5712
# 6 -0.3248 -12.1181 1.2626 3.9690 -0.5712 35.0953
#
#
#
# Elastic Compliance Matrix: (Units=1/GPa)
#
#
# Indices 1 2 3 4 5 6 
#
# 1 0.012890 -0.003580 -0.001784 -0.001149 -0.003229 -0.000975
# 2 -0.003580 0.015856 -0.006755 0.001400 0.005701 0.005619
# 3 -0.001784 -0.006755 0.021590 -0.002486 -0.007763 -0.002971
# 4 -0.001149 0.001400 -0.002486 0.044964 0.017017 -0.004246
# 5 -0.003229 0.005701 -0.007763 0.017017 0.045171 0.001029
# 6 -0.000975 0.005619 -0.002971 -0.004246 0.001029 0.031029
#
#
# Mechanical properties :
#
#
# Convention : Reuss Voigt Hill
#
# Bulk Modulus (GPa) = 38.31870 41.07259 39.69565
# Shear Modulus (GPa) = 24.45746 28.93306 26.69526
#
# Velocity S-wave (km/s) = 3.56186 3.87407 3.72124
# Velocity P-wave (km/s) = 6.06571 6.42782 6.24939
#
# Compressibility (1/GPa) = 0.02609692
#
# Stress axis : x y z
#
# Youngs Moduli (GPa) = 77.58136 63.06926 46.31756
#
# Poissons Ratio (x) = 0.22580 0.08265
# Poissons Ratio (y) = 0.27776 0.31286
# Poissons Ratio (z) = 0.13844 0.42601
#
# Static dielectric constant tensor:
#      x y z
#    x 1.692690 -0.020240 -0.005970 
#    y -0.020240 1.664610 -0.016530 
#    z -0.005970 -0.016530 1.749800 
# 
# From -- ./inp_files/201457.got.cif
#   From: 2010.05.17/outbox.cif.g08.bks.cpg/sg2_101_cif.got.tgz:201457.got - 2010.06.03 11:33:40.
