data_PCOD9079098
_publ_section_title
;
Structure prediction by ZEFSAII (Michael W. Deem and Ramdas Pophale) SiO2 
 PCOD9079098
Probable space group: P -1
;
_chemical_formula_sum "Si O2"
_cell_formula_units_Z 14
_cell_length_a 6.453978
_cell_length_b 13.670982
_cell_length_c 15.433954
_cell_angle_alpha 29.439804
_cell_angle_beta 119.800289
_cell_angle_gamma 105.597740
_cell_volume 536.204114
_symmetry_space_group_name_H-M "P -1"
_symmetry_group_IT_number 2
_symmetry_cell_setting 'triclinic'
loop_
_space_group_symop_operation_xyz
x,y,z
-x,-y,-z
loop_
_atom_site_type_symbol
_atom_site_label
_atom_site_fract_x
_atom_site_fract_y
_atom_site_fract_z
Si Si1 0.994244 0.733605 0.439127
Si Si2 0.554989 0.141773 0.827057
Si Si3 0.822920 0.074975 0.282676
Si Si4 0.736422 0.782085 0.693016
Si Si5 0.502538 0.513207 0.188836
Si Si6 0.042299 0.109154 0.040070
Si Si7 0.302927 0.329700 0.042928
O O1 0.264190 0.531855 0.661272
O O2 0.731123 0.704090 0.382396
O O3 0.719533 0.986916 0.903556
O O4 0.037189 0.902473 0.251146
O O5 0.767124 0.223539 0.847275
O O6 0.500000 0.000000 0.000000
O O7 0.570443 0.117291 0.254407
O O8 0.019447 0.151798 0.316307
O O9 0.702009 0.243901 0.047375
O O10 0.948371 0.850760 0.433259
O O11 0.636661 0.653608 0.702491
O O12 0.787538 0.638834 0.902565
O O13 0.500000 0.000000 0.500000
O O14 0.623320 0.495462 0.129151
O O15 0.102539 0.273865 0.986561
#
# Coordination Sequence:
#
# PCOD9079098 Si02
#       7
#     2   2   2   2   2   2   2
#     4  11  19  41  59  87 119 156 194 239 292 346
#     4   9  19  33  63  91 116 149 195 241 289 349
#     4  10  22  37  59  81 121 152 193 241 291 331
#     4  12  21  40  60  85 117 159 201 241 286 346
#     4  10  23  39  57  86 122 153 199 242 286 346
#     4  10  18  36  62  89 115 155 195 237 294 350
#     4  10  22  37  58  86 119 155 195 239 294 343
#
# _framework density 26.109459000000001
#
# number of rings (size 3 to 8) (size 9 to 14) (size 15 to 20)
#    0.857    0.857    4.286    0.857    0.000    0.571 
#    2.571    0.714    0.000   29.143    0.000    0.000 
#    0.000    0.000    0.000    0.000    0.000    0.000 
#
# Total GULP energy -78311.729993 kJ/mol
# GULP energy per Si atom -5593.694999 kJ/mol
# Density = 2.605003 g / cm^3
# Si number density = 26.109459 Si / 1000 Ang^3
#
#
#
# Elastic Constant Matrix: (Units=GPa)
#
#
# Indices 1 2 3 4 5 6 
#
# 1 124.9490 36.4413 20.5613 13.4388 -8.6159 5.9961
# 2 36.4413 101.4049 30.1497 32.2006 16.5367 40.2905
# 3 20.5613 30.1497 98.5890 10.8273 20.1314 15.4862
# 4 13.4388 32.2006 10.8273 35.1998 11.6423 13.8016
# 5 -8.6159 16.5367 20.1314 11.6423 46.1750 11.4400
# 6 5.9961 40.2905 15.4862 13.8016 11.4400 40.7805
#
#
#
# Elastic Compliance Matrix: (Units=1/GPa)
#
#
# Indices 1 2 3 4 5 6 
#
# 1 0.009853 -0.004244 -0.001816 -0.001753 0.003863 0.002943
# 2 -0.004244 0.022305 -0.001882 -0.011383 -0.000984 -0.016569
# 3 -0.001816 -0.001882 0.012222 0.000820 -0.004845 -0.001433
# 4 -0.001753 -0.011383 0.000820 0.041944 -0.006921 -0.001062
# 5 0.003863 -0.000984 -0.004845 -0.006921 0.027352 -0.003087
# 6 0.002943 -0.016569 -0.001433 -0.001062 -0.003087 0.042228
#
#
# Mechanical properties :
#
#
# Convention : Reuss Voigt Hill
#
# Bulk Modulus (GPa) = 35.09250 55.47195 45.28222
# Shear Modulus (GPa) = 27.58064 40.28377 33.93220
#
# Velocity S-wave (km/s) = 3.25367 3.93221 3.60893
# Velocity P-wave (km/s) = 5.25213 6.47367 5.89463
#
# Compressibility (1/GPa) = 0.02849612
#
# Stress axis : x y z
#
# Youngs Moduli (GPa) = 101.48769 44.83392 81.82133
#
# Poissons Ratio (x) = 0.19027 0.14857
# Poissons Ratio (y) = 0.43070 0.15400
# Poissons Ratio (z) = 0.18428 0.08439
#
# Static dielectric constant tensor:
#      x y z
#    x 2.058790 0.006400 -0.019530 
#    y 0.006400 1.986040 0.056270 
#    z -0.019530 0.056270 2.086330 
# 
# From -- ./inp_files/591631.got.cif
#   From: 2010.05.17/outbox.cif.g08.bks.cpg/sg2_296_cif.got.tgz:591631.got - 2010.06.03 11:33:40.
