data_PCOD9079205
_publ_section_title
;
Structure prediction by ZEFSAII (Michael W. Deem and Ramdas Pophale) SiO2 
 PCOD9079205
Probable space group: P -1
;
_chemical_formula_sum "Si O2"
_cell_formula_units_Z 15
_cell_length_a 17.240979
_cell_length_b 10.685976
_cell_length_c 7.988585
_cell_angle_alpha 81.230652
_cell_angle_beta 67.010306
_cell_angle_gamma 137.581044
_cell_volume 643.751846
_symmetry_space_group_name_H-M "P -1"
_symmetry_group_IT_number 2
_symmetry_cell_setting 'triclinic'
loop_
_space_group_symop_operation_xyz
x,y,z
-x,-y,-z
loop_
_atom_site_type_symbol
_atom_site_label
_atom_site_fract_x
_atom_site_fract_y
_atom_site_fract_z
Si Si1 0.941115 0.343701 0.419660
Si Si2 0.303745 0.309603 0.509688
Si Si3 0.500000 0.500000 0.000000
Si Si4 0.948541 0.918160 0.755754
Si Si5 0.346443 0.880350 0.503196
Si Si6 0.739462 0.391114 0.071763
Si Si7 0.397085 0.178687 0.640130
Si Si8 0.210623 0.043750 0.122212
O O1 0.805693 0.254169 0.450517
O O2 0.832030 0.082150 0.642611
O O3 0.000000 0.500000 0.500000
O O4 0.108419 0.500806 0.154463
O O5 0.375475 0.425950 0.237877
O O6 0.333915 0.204824 0.562211
O O7 0.413727 0.536920 0.502232
O O8 0.100901 0.066267 0.714472
O O9 0.372287 0.345190 0.976330
O O10 0.924162 0.031325 0.811145
O O11 0.798907 0.613951 0.952920
O O12 0.000000 0.000000 0.500000
O O13 0.276695 0.667904 0.706896
O O14 0.542060 0.113755 0.216905
O O15 0.385634 0.033581 0.584999
O O16 0.266595 0.018048 0.941153
#
# Coordination Sequence:
#
# PCOD9079205 Si02
#       8
#     2   2   1   2   2   2   2   2
#     4  12  26  48  75 102 136 183 234 291 348 418
#     4  10  22  38  64 102 138 182 233 281 347 406
#     4  10  18  36  64  88 136 178 226 272 324 416
#     4  12  23  42  67 105 145 174 227 297 342 408
#     4  11  26  50  74  97 144 186 232 291 344 423
#     4  11  26  46  73 106 135 190 233 280 358 411
#     4  10  23  43  66 100 138 187 232 276 347 420
#     4  11  24  40  68 106 136 183 229 279 357 405
#
# _framework density 23.300905
#
# number of rings (size 3 to 8) (size 9 to 14) (size 15 to 20)
#    0.000    1.067    2.667    2.800    7.467    2.133 
#    7.200    0.000    0.000    0.000    0.000    0.000 
#    0.000    0.000    0.000    0.000    0.000    0.000 
#
# Total GULP energy -83542.020958 kJ/mol
# GULP energy per Si atom -5569.468064 kJ/mol
# Density = 2.324787 g / cm^3
# Si number density = 23.300905 Si / 1000 Ang^3
#
#
#
# Elastic Constant Matrix: (Units=GPa)
#
#
# Indices 1 2 3 4 5 6 
#
# 1 121.6448 37.1954 58.5689 -7.6052 5.1076 12.2359
# 2 37.1954 51.6566 3.4800 11.5684 -9.5605 12.0909
# 3 58.5689 3.4800 102.9384 -0.5862 -1.0723 20.6113
# 4 -7.6052 11.5684 -0.5862 17.2030 -5.4302 -0.5900
# 5 5.1076 -9.5605 -1.0723 -5.4302 39.9881 -10.5008
# 6 12.2359 12.0909 20.6113 -0.5900 -10.5008 25.5207
#
#
#
# Elastic Compliance Matrix: (Units=1/GPa)
#
#
# Indices 1 2 3 4 5 6 
#
# 1 0.023774 -0.025460 -0.015005 0.026699 -0.002670 0.012300
# 2 -0.025460 0.054065 0.017987 -0.047013 0.002977 -0.027796
# 3 -0.015005 0.017987 0.021416 -0.018944 -0.000882 -0.019425
# 4 0.026699 -0.047013 -0.018944 0.104094 0.006855 0.029999
# 5 -0.002670 0.002977 -0.000882 0.006855 0.030452 0.013271
# 6 0.012300 -0.027796 -0.019425 0.029999 0.013271 0.068298
#
#
# Mechanical properties :
#
#
# Convention : Reuss Voigt Hill
#
# Bulk Modulus (GPa) = 18.41628 52.74762 35.58195
# Shear Modulus (GPa) = 13.69286 28.34208 21.01747
#
# Velocity S-wave (km/s) = 2.42679 3.49141 3.00659
# Velocity P-wave (km/s) = 3.97155 6.24019 5.23035
#
# Compressibility (1/GPa) = 0.05429979
#
# Stress axis : x y z
#
# Youngs Moduli (GPa) = 42.06268 18.49631 46.69392
#
# Poissons Ratio (x) = 0.47092 0.70063
# Poissons Ratio (y) = 1.07092 -0.83989
# Poissons Ratio (z) = 0.63114 -0.33270
#
# Static dielectric constant tensor:
#      x y z
#    x 1.835630 -0.028790 -0.112460 
#    y -0.028790 1.886120 -0.048400 
#    z -0.112460 -0.048400 2.126020 
# 
# From -- ./inp_files/331932.got.cif
#   From: 2010.05.17/outbox.cif.g08.bks.cpg/sg2_166_cif.got.tgz:331932.got - 2010.06.03 11:33:40.
