data_PCOD9079645
_publ_section_title
;
Structure prediction by ZEFSAII (Michael W. Deem and Ramdas Pophale) SiO2 
 PCOD9079645
Probable space group: P -1
;
_chemical_formula_sum "Si O2"
_cell_formula_units_Z 14
_cell_length_a 9.525097
_cell_length_b 14.455057
_cell_length_c 8.566086
_cell_angle_alpha 130.103797
_cell_angle_beta 129.511426
_cell_angle_gamma 81.604748
_cell_volume 622.540890
_symmetry_space_group_name_H-M "P -1"
_symmetry_group_IT_number 2
_symmetry_cell_setting 'triclinic'
loop_
_space_group_symop_operation_xyz
x,y,z
-x,-y,-z
loop_
_atom_site_type_symbol
_atom_site_label
_atom_site_fract_x
_atom_site_fract_y
_atom_site_fract_z
Si Si1 0.045801 0.411218 0.595116
Si Si2 0.622775 0.373124 0.092194
Si Si3 0.371278 0.103710 0.060334
Si Si4 0.204897 0.817844 0.639833
Si Si5 0.919584 0.336741 0.903467
Si Si6 0.647356 0.646170 0.826260
Si Si7 0.549418 0.128309 0.562842
O O1 0.835904 0.378889 0.317545
O O2 0.977133 0.266641 0.466764
O O3 0.265244 0.475281 0.736706
O O4 0.069800 0.531319 0.862645
O O5 0.456529 0.349413 0.079139
O O6 0.528534 0.249235 0.771054
O O7 0.554988 0.123106 0.089939
O O8 0.331146 0.230158 0.132862
O O9 0.428948 0.100442 0.281617
O O10 0.195358 0.954564 0.732406
O O11 0.200174 0.706610 0.390443
O O12 0.790639 0.205175 0.774504
O O13 0.134403 0.350643 0.018375
O O14 0.500000 0.500000 0.500000
O O15 0.500000 0.000000 0.500000
#
# Coordination Sequence:
#
# PCOD9079645 Si02
#       7
#     2   2   2   2   2   2   2
#     4  10  18  37  62  92 114 162 215 258 298 359
#     4  10  21  35  65  87 121 162 207 250 309 358
#     4  10  22  38  63  91 122 164 208 251 310 365
#     4  10  19  37  62  91 118 160 215 258 293 372
#     4  10  22  36  64  92 122 162 205 253 314 365
#     4  12  23  42  62  92 132 163 200 258 312 368
#     4  10  22  42  65  92 122 163 212 257 299 369
#
# _framework density 22.488484
#
# number of rings (size 3 to 8) (size 9 to 14) (size 15 to 20)
#    0.000    1.714    2.857    1.286    4.000    2.857 
#    0.000    3.571    0.000    0.000    0.000    0.000 
#    0.000    0.000    0.000    0.000    0.000    0.000 
#
# Total GULP energy -77943.890789 kJ/mol
# GULP energy per Si atom -5567.420771 kJ/mol
# Density = 2.243730 g / cm^3
# Si number density = 22.488484 Si / 1000 Ang^3
#
#
#
# Elastic Constant Matrix: (Units=GPa)
#
#
# Indices 1 2 3 4 5 6 
#
# 1 99.0047 21.0375 21.9241 1.0361 9.6124 24.7489
# 2 21.0375 89.2455 27.4925 43.1973 16.5320 26.0707
# 3 21.9241 27.4925 87.0133 20.4922 -11.2760 13.1697
# 4 1.0361 43.1973 20.4922 33.0025 10.9058 11.3072
# 5 9.6124 16.5320 -11.2760 10.9058 42.4318 10.7252
# 6 24.7489 26.0707 13.1697 11.3072 10.7252 33.2738
#
#
#
# Elastic Compliance Matrix: (Units=1/GPa)
#
#
# Indices 1 2 3 4 5 6 
#
# 1 0.014485 -0.005583 -0.004324 0.013531 -0.003686 -0.008098
# 2 -0.005583 0.037462 0.002741 -0.047625 0.002385 -0.010869
# 3 -0.004324 0.002741 0.017257 -0.016163 0.009493 -0.003328
# 4 0.013531 -0.047625 -0.016163 0.106905 -0.016989 0.002795
# 5 -0.003686 0.002385 0.009493 -0.016989 0.032260 -0.007510
# 6 -0.008098 -0.010869 -0.003328 0.002795 -0.007510 0.047381
#
#
# Mechanical properties :
#
#
# Convention : Reuss Voigt Hill
#
# Bulk Modulus (GPa) = 18.22510 46.24128 32.23319
# Shear Modulus (GPa) = 17.33859 35.39558 26.36708
#
# Velocity S-wave (km/s) = 2.77970 3.97160 3.42785
# Velocity P-wave (km/s) = 4.29233 6.45277 5.48007
#
# Compressibility (1/GPa) = 0.05486938
#
# Stress axis : x y z
#
# Youngs Moduli (GPa) = 69.03657 26.69379 57.94840
#
# Poissons Ratio (x) = 0.14904 0.25059
# Poissons Ratio (y) = 0.38546 -0.15881
# Poissons Ratio (z) = 0.29853 -0.07316
#
# Static dielectric constant tensor:
#      x y z
#    x 1.484530 0.140300 -0.751510 
#    y 0.140300 2.026690 0.089040 
#    z -0.751510 0.089040 0.573440 
# 
# From -- ./inp_files/157869.got.cif
#   From: 2010.05.17/outbox.cif.g08.bks.cpg/sg2_79_cif.got.tgz:157869.got - 2010.06.03 11:33:40.
