data_PCOD9079520
_publ_section_title
;
Structure prediction by ZEFSAII (Michael W. Deem and Ramdas Pophale) SiO2 
 PCOD9079520
Probable space group: P -1
;
_chemical_formula_sum "Si O2"
_cell_formula_units_Z 14
_cell_length_a 12.111781
_cell_length_b 10.053595
_cell_length_c 7.612786
_cell_angle_alpha 115.346701
_cell_angle_beta 131.935131
_cell_angle_gamma 48.932474
_cell_volume 519.805076
_symmetry_space_group_name_H-M "P -1"
_symmetry_group_IT_number 2
_symmetry_cell_setting 'triclinic'
loop_
_space_group_symop_operation_xyz
x,y,z
-x,-y,-z
loop_
_atom_site_type_symbol
_atom_site_label
_atom_site_fract_x
_atom_site_fract_y
_atom_site_fract_z
Si Si1 0.536994 0.282667 0.641580
Si Si2 0.493509 0.116896 0.832914
Si Si3 0.109901 0.960125 0.334225
Si Si4 0.806373 0.843961 0.227934
Si Si5 0.335165 0.484468 0.955462
Si Si6 0.005004 0.247771 0.086246
Si Si7 0.164983 0.471381 0.396546
O O1 0.525541 0.148572 0.684490
O O2 0.693010 0.179447 0.611069
O O3 0.338359 0.416215 0.435437
O O4 0.586471 0.395427 0.879390
O O5 0.307464 0.147476 0.715510
O O6 0.482737 0.278463 0.017968
O O7 0.655179 0.932060 0.969656
O O8 0.128917 0.029811 0.577210
O O9 0.000745 0.868866 0.141216
O O10 0.024656 0.129132 0.208548
O O11 0.976866 0.650374 0.262325
O O12 0.184870 0.569750 0.991946
O O13 0.229058 0.493556 0.670496
O O14 0.137417 0.311499 0.266196
#
# Coordination Sequence:
#
# PCOD9079520 Si02
#       7
#     2   2   2   2   2   2   2
#     4  10  23  37  63  91 124 149 201 251 303 337
#     4  10  21  37  61  90 122 153 200 247 294 353
#     4  10  21  38  59  93 118 154 197 254 297 340
#     4  11  22  37  64  91 119 156 202 243 295 356
#     4  10  18  37  60  91 111 158 201 252 272 358
#     4  10  19  33  62  85 119 151 211 238 285 352
#     4  11  19  35  64  89 111 162 206 239 282 364
#
# _framework density 26.933174999999999
#
# number of rings (size 3 to 8) (size 9 to 14) (size 15 to 20)
#    0.000    1.714    2.857    3.857    0.000    2.286 
#    0.000    5.714    3.143    2.571    0.000    0.000 
#    0.000    0.000    0.000    0.000    0.000    0.000 
#
# Total GULP energy -78390.448385 kJ/mol
# GULP energy per Si atom -5599.317742 kJ/mol
# Density = 2.687187 g / cm^3
# Si number density = 26.933175 Si / 1000 Ang^3
#
#
#
# Elastic Constant Matrix: (Units=GPa)
#
#
# Indices 1 2 3 4 5 6 
#
# 1 79.4133 34.4769 59.1784 4.3979 17.5348 -0.8163
# 2 34.4769 155.9973 77.2342 3.9845 13.0913 -17.4121
# 3 59.1784 77.2342 122.7003 6.4781 25.3959 10.5199
# 4 4.3979 3.9845 6.4781 69.4857 4.5679 6.3726
# 5 17.5348 13.0913 25.3959 4.5679 50.4469 6.5625
# 6 -0.8163 -17.4121 10.5199 6.3726 6.5625 32.2640
#
#
#
# Elastic Compliance Matrix: (Units=1/GPa)
#
#
# Indices 1 2 3 4 5 6 
#
# 1 0.020731 0.001749 -0.010971 -0.000733 -0.002820 0.005764
# 2 0.001749 0.011424 -0.008722 -0.000782 -0.000317 0.009272
# 3 -0.010971 -0.008722 0.020445 0.000498 -0.002806 -0.011179
# 4 -0.000733 -0.000782 0.000498 0.014792 -0.000692 -0.003384
# 5 -0.002820 -0.000317 -0.002806 -0.000692 0.022860 -0.003840
# 6 0.005764 0.009272 -0.011179 -0.003384 -0.003840 0.041239
#
#
# Mechanical properties :
#
#
# Convention : Reuss Voigt Hill
#
# Bulk Modulus (GPa) = 59.84389 77.76553 68.80471
# Shear Modulus (GPa) = 28.90999 42.92074 35.91536
#
# Velocity S-wave (km/s) = 3.27983 3.99632 3.65567
# Velocity P-wave (km/s) = 6.05067 7.08734 6.58942
#
# Compressibility (1/GPa) = 0.01671014
#
# Stress axis : x y z
#
# Youngs Moduli (GPa) = 48.23586 87.53649 48.91257
#
# Poissons Ratio (x) = -0.15309 0.53664
# Poissons Ratio (y) = -0.08436 0.42663
# Poissons Ratio (z) = 0.52921 0.76352
#
# Static dielectric constant tensor:
#      x y z
#    x 2.195400 0.023360 -0.005680 
#    y 0.023360 2.085850 -0.005040 
#    z -0.005680 -0.005040 2.101230 
# 
# From -- ./inp_files/464054.got.cif
#   From: 2010.05.17/outbox.cif.g08.bks.cpg/sg2_233_cif.got.tgz:464054.got - 2010.06.03 11:33:40.
