data_PCOD9079985
_publ_section_title
;
Structure prediction by ZEFSAII (Michael W. Deem and Ramdas Pophale) SiO2 
 PCOD9079985
Probable space group: P -1
;
_chemical_formula_sum "Si O2"
_cell_formula_units_Z 16
_cell_length_a 16.025197
_cell_length_b 5.625130
_cell_length_c 7.998456
_cell_angle_alpha 68.145252
_cell_angle_beta 85.012672
_cell_angle_gamma 87.524953
_cell_volume 666.613396
_symmetry_space_group_name_H-M "P -1"
_symmetry_group_IT_number 2
_symmetry_cell_setting 'triclinic'
loop_
_space_group_symop_operation_xyz
x,y,z
-x,-y,-z
loop_
_atom_site_type_symbol
_atom_site_label
_atom_site_fract_x
_atom_site_fract_y
_atom_site_fract_z
Si Si1 0.943247 0.395824 0.285556
Si Si2 0.196814 0.004987 0.655867
Si Si3 0.233057 0.825841 0.223306
Si Si4 0.309831 0.638488 0.609214
Si Si5 0.889829 0.583316 0.604788
Si Si6 0.819149 0.736762 0.078004
Si Si7 0.441876 0.340691 0.814223
Si Si8 0.607129 0.259400 0.985802
O O1 0.878494 0.165328 0.359561
O O2 0.927226 0.554905 0.418015
O O3 0.905685 0.576858 0.098981
O O4 0.039504 0.316890 0.309048
O O5 0.289881 0.887184 0.661480
O O6 0.190901 0.244935 0.470514
O O7 0.171451 0.044559 0.841023
O O8 0.274110 0.739580 0.413716
O O9 0.144405 0.687296 0.260005
O O10 0.298880 0.732714 0.097850
O O11 0.216151 0.127150 0.114864
O O12 0.248513 0.438387 0.767059
O O13 0.399611 0.502410 0.629071
O O14 0.540956 0.326071 0.831283
O O15 0.409247 0.522514 0.927698
O O16 0.412473 0.043197 0.893449
#
# Coordination Sequence:
#
# PCOD9079985 Si02
#       8
#     2   2   2   2   2   2   2   2
#     4   9  19  38  59  80 121 168 203 263 328 378
#     4  10  18  38  60  85 119 167 209 261 324 386
#     4  12  22  39  63  96 122 164 217 269 314 387
#     4  11  22  39  63  90 127 169 206 263 323 380
#     4  10  20  36  58  89 119 158 215 262 322 382
#     4  10  21  39  57  88 124 161 210 265 323 380
#     4  10  22  45  69  95 136 175 208 261 331 390
#     4  10  23  42  70 100 131 172 213 265 324 387
#
# _framework density 24.001916999999999
#
# number of rings (size 3 to 8) (size 9 to 14) (size 15 to 20)
#    0.000    1.750    5.000    1.125    0.000    2.000 
#    4.500    0.625    0.000    5.250    0.000    0.000 
#    0.000    0.000    0.000    0.000    0.000    0.000 
#
# Total GULP energy -89174.544573 kJ/mol
# GULP energy per Si atom -5573.409036 kJ/mol
# Density = 2.394729 g / cm^3
# Si number density = 24.001917 Si / 1000 Ang^3
#
#
#
# Elastic Constant Matrix: (Units=GPa)
#
#
# Indices 1 2 3 4 5 6 
#
# 1 81.8866 6.3031 27.0972 -12.7114 31.5631 -12.5343
# 2 6.3031 63.2347 25.0497 -10.2262 17.9004 -2.5853
# 3 27.0972 25.0497 118.1853 -21.5115 27.1925 -7.3598
# 4 -12.7114 -10.2262 -21.5115 30.5870 -11.3638 13.7787
# 5 31.5631 17.9004 27.1925 -11.3638 27.6686 -5.3673
# 6 -12.5343 -2.5853 -7.3598 13.7787 -5.3673 31.7510
#
#
#
# Elastic Compliance Matrix: (Units=1/GPa)
#
#
# Indices 1 2 3 4 5 6 
#
# 1 0.024629 0.006464 0.000446 -0.001889 -0.032386 0.005698
# 2 0.006464 0.021411 -0.001263 0.001827 -0.019242 -0.000043
# 3 0.000446 -0.001263 0.011588 0.004894 -0.009250 -0.000928
# 4 -0.001889 0.001827 0.004894 0.049063 0.012704 -0.018606
# 5 -0.032386 -0.019242 -0.009250 0.012704 0.098815 -0.005305
# 6 0.005698 -0.000043 -0.000928 -0.018606 -0.005305 0.040703
#
#
# Mechanical properties :
#
#
# Convention : Reuss Voigt Hill
#
# Bulk Modulus (GPa) = 14.50935 42.24518 28.37727
# Shear Modulus (GPa) = 19.38808 31.65841 25.52325
#
# Velocity S-wave (km/s) = 2.84522 3.63574 3.26449
# Velocity P-wave (km/s) = 4.10510 5.93833 5.10469
#
# Compressibility (1/GPa) = 0.06892106
#
# Stress axis : x y z
#
# Youngs Moduli (GPa) = 40.60240 46.70517 86.29543
#
# Poissons Ratio (x) = -0.30189 -0.03845
# Poissons Ratio (y) = -0.26245 0.10898
# Poissons Ratio (z) = -0.01809 0.05898
#
# Static dielectric constant tensor:
#      x y z
#    x 1.927530 -0.041220 0.054700 
#    y -0.041220 2.077220 0.008920 
#    z 0.054700 0.008920 1.974500 
# 
# From -- ./inp_files/56098.got.cif
#   From: 2010.05.17/outbox.cif.g08.bks.cpg/sg2_29_cif.got.tgz:56098.got - 2010.06.03 11:33:40.
