data_PCOD9079152
_publ_section_title
;
Structure prediction by ZEFSAII (Michael W. Deem and Ramdas Pophale) SiO2 
 PCOD9079152
Probable space group: P -1
;
_chemical_formula_sum "Si O2"
_cell_formula_units_Z 16
_cell_length_a 19.674578
_cell_length_b 5.268034
_cell_length_c 19.259464
_cell_angle_alpha 46.676808
_cell_angle_beta 26.727220
_cell_angle_gamma 49.496941
_cell_volume 649.002510
_symmetry_space_group_name_H-M "P -1"
_symmetry_group_IT_number 2
_symmetry_cell_setting 'triclinic'
loop_
_space_group_symop_operation_xyz
x,y,z
-x,-y,-z
loop_
_atom_site_type_symbol
_atom_site_label
_atom_site_fract_x
_atom_site_fract_y
_atom_site_fract_z
Si Si1 0.836380 0.003716 0.073772
Si Si2 0.655601 0.470408 0.571454
Si Si3 0.366343 0.226843 0.236901
Si Si4 0.596838 0.661145 0.441097
Si Si5 0.398895 0.692099 0.873128
Si Si6 0.336755 0.953396 0.078974
Si Si7 0.098816 0.263071 0.136225
Si Si8 0.075388 0.121199 0.743245
O O1 0.734728 0.042660 0.088069
O O2 0.753204 0.769120 0.245606
O O3 0.835690 0.408468 0.024070
O O4 0.010546 0.912847 0.906895
O O5 0.633376 0.421529 0.519404
O O6 0.497614 0.562338 0.739111
O O7 0.752892 0.798113 0.428739
O O8 0.728021 0.102766 0.607828
O O9 0.479139 0.197529 0.205342
O O10 0.289711 0.624708 0.226578
O O11 0.483503 0.147906 0.080904
O O12 0.500000 0.500000 0.500000
O O13 0.500000 0.000000 0.500000
O O14 0.330767 0.356289 0.032164
O O15 0.233415 0.000291 0.095272
O O16 0.011525 0.489299 0.235612
O O17 0.982514 0.064503 0.236062
#
# Coordination Sequence:
#
# PCOD9079152 Si02
#       8
#     2   2   2   2   2   2   2   2
#     4   9  21  39  65  88 120 164 202 249 302 370
#     4  11  25  39  59  94 122 162 199 261 305 364
#     4  10  20  35  61  89 126 157 206 259 311 357
#     4  12  26  41  66  96 126 156 205 255 311 364
#     4  10  18  36  63  86 124 154 206 253 312 358
#     4   9  19  35  59  94 117 161 211 255 303 366
#     4   9  21  40  64  86 121 164 206 248 297 367
#     4  10  23  40  65  86 129 161 209 244 308 360
#
# _framework density 24.653216
#
# number of rings (size 3 to 8) (size 9 to 14) (size 15 to 20)
#    0.750    1.250    1.250    1.875    3.500    0.500 
#    0.000    1.875    0.000    0.000    0.000    0.000 
#    0.000    0.000    0.000    0.000    0.000    0.000 
#
# Total GULP energy -89325.023150 kJ/mol
# GULP energy per Si atom -5582.813947 kJ/mol
# Density = 2.459710 g / cm^3
# Si number density = 24.653216 Si / 1000 Ang^3
#
#
#
# Elastic Constant Matrix: (Units=GPa)
#
#
# Indices 1 2 3 4 5 6 
#
# 1 106.1398 20.3206 28.2450 -14.4849 -14.2468 15.9933
# 2 20.3206 75.2689 26.1596 -7.1634 1.1128 11.0494
# 3 28.2450 26.1596 117.0802 -23.9314 -8.2077 -3.0222
# 4 -14.4849 -7.1634 -23.9314 30.9661 -0.9811 -0.1708
# 5 -14.2468 1.1128 -8.2077 -0.9811 32.4930 -14.1608
# 6 15.9933 11.0494 -3.0222 -0.1708 -14.1608 38.8376
#
#
#
# Elastic Compliance Matrix: (Units=1/GPa)
#
#
# Indices 1 2 3 4 5 6 
#
# 1 0.011645 -0.001887 -0.001387 0.004037 0.003622 -0.003028
# 2 -0.001887 0.015967 -0.003639 -0.000187 -0.004832 -0.005811
# 3 -0.001387 -0.003639 0.011692 0.007712 0.004535 0.004204
# 4 0.004037 -0.000187 0.007712 0.040277 0.005443 0.001152
# 5 0.003622 -0.004832 0.004535 0.005443 0.040367 0.014978
# 6 -0.003028 -0.005811 0.004204 0.001152 0.014978 0.034442
#
#
# Mechanical properties :
#
#
# Convention : Reuss Voigt Hill
#
# Bulk Modulus (GPa) = 39.24958 49.77102 44.51030
# Shear Modulus (GPa) = 28.29532 35.37693 31.83612
#
# Velocity S-wave (km/s) = 3.39150 3.79223 3.59745
# Velocity P-wave (km/s) = 5.59389 6.27749 5.94552
#
# Compressibility (1/GPa) = 0.02547798
#
# Stress axis : x y z
#
# Youngs Moduli (GPa) = 85.87180 62.63069 85.53203
#
# Poissons Ratio (x) = 0.11817 0.11862
# Poissons Ratio (y) = 0.16202 0.31126
# Poissons Ratio (z) = 0.11909 0.22792
#
# Static dielectric constant tensor:
#      x y z
#    x 1.979360 0.016960 0.010360 
#    y 0.016960 2.063630 0.039950 
#    z 0.010360 0.039950 1.991660 
# 
# From -- ./inp_files/600728.got.cif
#   From: 2010.05.17/outbox.cif.g08.bks.cpg/sg2_301_cif.got.tgz:600728.got - 2010.06.03 11:33:40.
