data_PCOD9079351
_publ_section_title
;
Structure prediction by ZEFSAII (Michael W. Deem and Ramdas Pophale) SiO2 
 PCOD9079351
Probable space group: P -1
;
_chemical_formula_sum "Si O2"
_cell_formula_units_Z 13
_cell_length_a 9.421198
_cell_length_b 7.987598
_cell_length_c 8.567874
_cell_angle_alpha 101.270634
_cell_angle_beta 48.044318
_cell_angle_gamma 94.868355
_cell_volume 469.305800
_symmetry_space_group_name_H-M "P -1"
_symmetry_group_IT_number 2
_symmetry_cell_setting 'triclinic'
loop_
_space_group_symop_operation_xyz
x,y,z
-x,-y,-z
loop_
_atom_site_type_symbol
_atom_site_label
_atom_site_fract_x
_atom_site_fract_y
_atom_site_fract_z
Si Si1 0.640212 0.317334 0.307766
Si Si2 0.941347 0.543548 0.228235
Si Si3 0.389410 0.843954 0.254004
Si Si4 0.177684 0.252584 0.187179
Si Si5 0.396828 0.481222 0.242690
Si Si6 0.500000 0.000000 0.500000
Si Si7 0.870051 0.113313 0.851830
O O1 0.442378 0.590465 0.770209
O O2 0.513675 0.207241 0.492659
O O3 0.733120 0.467711 0.364612
O O4 0.783247 0.167151 0.096386
O O5 0.075293 0.412874 0.206045
O O6 0.987364 0.738516 0.257578
O O7 0.000000 0.500000 0.000000
O O8 0.302525 0.671817 0.348013
O O9 0.289711 0.883758 0.168364
O O10 0.380278 0.982995 0.420733
O O11 0.620599 0.811886 0.054538
O O12 0.245611 0.335897 0.312939
O O13 0.057786 0.085254 0.241422
O O14 0.500000 0.500000 0.000000
#
# Coordination Sequence:
#
# PCOD9079351 Si02
#       7
#     2   2   2   2   2   1   2
#     4  11  22  41  59  96 130 163 203 260 316 374
#     4  10  22  37  60  99 127 152 207 275 313 351
#     4  11  20  38  63  96 121 165 209 262 305 367
#     4  11  19  35  67  95 117 156 214 266 306 360
#     4  10  18  36  68  91 116 157 218 265 299 355
#     4  12  26  38  58  90 140 168 200 248 320 388
#     4  11  19  38  67  93 118 163 217 260 306 354
#
# _framework density 27.700489000000001
#
# number of rings (size 3 to 8) (size 9 to 14) (size 15 to 20)
#    0.000    1.231    6.154    4.154    0.000    3.077 
#    2.769    0.769    0.000    1.846    0.000    0.000 
#    0.000    0.000    0.000    0.000    0.000    0.000 
#
# Total GULP energy -72506.475995 kJ/mol
# GULP energy per Si atom -5577.421230 kJ/mol
# Density = 2.763744 g / cm^3
# Si number density = 27.700489 Si / 1000 Ang^3
#
#
#
# Elastic Constant Matrix: (Units=GPa)
#
#
# Indices 1 2 3 4 5 6 
#
# 1 106.3353 47.2489 13.5176 12.6113 25.6264 13.8192
# 2 47.2489 258.3191 16.7745 27.4107 0.1688 30.6597
# 3 13.5176 16.7745 46.9958 -1.7625 -1.9231 8.0604
# 4 12.6113 27.4107 -1.7625 48.1659 4.3022 19.2169
# 5 25.6264 0.1688 -1.9231 4.3022 32.7693 7.2762
# 6 13.8192 30.6597 8.0604 19.2169 7.2762 56.1272
#
#
#
# Elastic Compliance Matrix: (Units=1/GPa)
#
#
# Indices 1 2 3 4 5 6 
#
# 1 0.013519 -0.002084 -0.003690 -0.001652 -0.010624 0.000283
# 2 -0.002084 0.004673 -0.000764 -0.001682 0.002144 -0.001632
# 3 -0.003690 -0.000764 0.023586 0.003371 0.004680 -0.003822
# 4 -0.001652 -0.001682 0.003371 0.025414 -0.000095 -0.007847
# 5 -0.010624 0.002144 0.004680 -0.000095 0.040076 -0.004390
# 6 0.000283 -0.001632 -0.003822 -0.007847 -0.004390 0.022443
#
#
# Mechanical properties :
#
#
# Convention : Reuss Voigt Hill
#
# Bulk Modulus (GPa) = 34.84116 62.97024 48.90570
# Shear Modulus (GPa) = 32.81831 49.68642 41.25237
#
# Velocity S-wave (km/s) = 3.44576 4.23981 3.86324
# Velocity P-wave (km/s) = 5.33256 6.83739 6.13131
#
# Compressibility (1/GPa) = 0.02870168
#
# Stress axis : x y z
#
# Youngs Moduli (GPa) = 73.96997 214.00518 42.39814
#
# Poissons Ratio (x) = 0.44608 0.15644
# Poissons Ratio (y) = 0.15419 0.03238
# Poissons Ratio (z) = 0.27293 0.16345
#
# Static dielectric constant tensor:
#      x y z
#    x 2.254890 0.064800 -0.125540 
#    y 0.064800 2.246020 -0.016820 
#    z -0.125540 -0.016820 2.483880 
# 
# From -- ./inp_files/232287.got.cif
#   From: 2010.05.17/outbox.cif.g08.bks.cpg/sg2_117_cif.got.tgz:232287.got - 2010.06.03 11:33:40.
