data_PCOD9079047
_publ_section_title
;
Structure prediction by ZEFSAII (Michael W. Deem and Ramdas Pophale) SiO2 
 PCOD9079047
Probable space group: P -1
;
_chemical_formula_sum "Si O2"
_cell_formula_units_Z 16
_cell_length_a 9.317761
_cell_length_b 15.871824
_cell_length_c 9.579253
_cell_angle_alpha 92.156465
_cell_angle_beta 42.935494
_cell_angle_gamma 106.715590
_cell_volume 891.159231
_symmetry_space_group_name_H-M "P -1"
_symmetry_group_IT_number 2
_symmetry_cell_setting 'triclinic'
loop_
_space_group_symop_operation_xyz
x,y,z
-x,-y,-z
loop_
_atom_site_type_symbol
_atom_site_label
_atom_site_fract_x
_atom_site_fract_y
_atom_site_fract_z
Si Si1 0.795198 0.795487 0.361836
Si Si2 0.835666 0.254661 0.812315
Si Si3 0.381249 0.279721 0.816792
Si Si4 0.590613 0.132335 0.737232
Si Si5 0.852825 0.394368 0.584141
Si Si6 0.681053 0.201046 0.231720
Si Si7 0.043547 0.740267 0.697172
Si Si8 0.164056 0.956736 0.957663
O O1 0.723583 0.737940 0.264583
O O2 0.583109 0.815967 0.569725
O O3 0.908201 0.743407 0.377974
O O4 0.999175 0.891170 0.186747
O O5 0.673582 0.165891 0.835881
O O6 0.816132 0.340878 0.754414
O O7 0.768271 0.244185 0.021513
O O8 0.469040 0.198355 0.772427
O O9 0.604199 0.370402 0.690130
O O10 0.192293 0.268499 0.067308
O O11 0.817900 0.165732 0.480498
O O12 0.398073 0.033086 0.851109
O O13 0.973058 0.341259 0.399790
O O14 0.000000 0.500000 0.500000
O O15 0.803507 0.263215 0.279145
O O16 0.750860 0.112951 0.192649
O O17 0.000000 0.000000 0.000000
#
# Coordination Sequence:
#
# PCOD9079047 Si02
#       8
#     2   2   2   2   2   2   2   2
#     4  11  20  36  56  85 115 161 193 239 282 339
#     4   9  22  38  58  81 120 147 190 237 303 341
#     4  10  18  37  61  80 115 154 193 230 286 350
#     4  10  21  36  53  88 120 156 196 247 276 330
#     4  10  23  42  63  90 115 140 186 246 295 356
#     4  11  20  35  59  84 115 162 193 237 286 336
#     4  10  18  36  62  81 112 157 191 230 292 345
#     4  11  20  34  56  88 121 154 211 240 271 329
#
# _framework density 17.954141
#
# number of rings (size 3 to 8) (size 9 to 14) (size 15 to 20)
#    0.000    2.000    6.250    0.000    0.000    9.500 
#    0.000    2.500    0.000    0.000    0.000    0.000 
#    0.000    0.000    0.000    0.000    0.000    0.000 
#
# Total GULP energy -89103.922991 kJ/mol
# GULP energy per Si atom -5568.995187 kJ/mol
# Density = 1.791328 g / cm^3
# Si number density = 17.954141 Si / 1000 Ang^3
#
#
#
# Elastic Constant Matrix: (Units=GPa)
#
#
# Indices 1 2 3 4 5 6 
#
# 1 81.9382 32.3308 16.7105 -8.3905 4.5264 10.9089
# 2 32.3308 89.3293 38.1231 -19.7000 -1.5932 17.1161
# 3 16.7105 38.1231 96.3344 4.7377 -12.7913 4.6713
# 4 -8.3905 -19.7000 4.7377 22.3114 2.1024 -7.8183
# 5 4.5264 -1.5932 -12.7913 2.1024 41.1050 3.8423
# 6 10.9089 17.1161 4.6713 -7.8183 3.8423 20.5336
#
#
#
# Elastic Compliance Matrix: (Units=1/GPa)
#
#
# Indices 1 2 3 4 5 6 
#
# 1 0.014674 -0.003920 -0.001138 0.001270 -0.001866 -0.003437
# 2 -0.003920 0.021202 -0.008399 0.016715 -0.001559 -0.007024
# 3 -0.001138 -0.008399 0.015273 -0.012102 0.005309 -0.001471
# 4 0.001270 0.016715 -0.012102 0.069002 -0.008280 0.015968
# 5 -0.001866 -0.001559 0.005309 -0.008280 0.027218 -0.007163
# 6 -0.003437 -0.007024 -0.001471 0.015968 -0.007163 0.064136
#
#
# Mechanical properties :
#
#
# Convention : Reuss Voigt Hill
#
# Bulk Modulus (GPa) = 41.26132 49.10343 45.18238
# Shear Modulus (GPa) = 20.28430 28.81916 24.55173
#
# Velocity S-wave (km/s) = 3.36487 4.01078 3.70194
# Velocity P-wave (km/s) = 6.17478 6.98980 6.59489
#
# Compressibility (1/GPa) = 0.02423577
#
# Stress axis : x y z
#
# Youngs Moduli (GPa) = 68.14903 47.16559 65.47519
#
# Poissons Ratio (x) = 0.18489 0.07448
# Poissons Ratio (y) = 0.26715 0.54991
# Poissons Ratio (z) = 0.07752 0.39613
#
# Static dielectric constant tensor:
#      x y z
#    x 1.655590 0.013660 -0.019820 
#    y 0.013660 1.618490 0.003380 
#    z -0.019820 0.003380 1.652750 
# 
# From -- ./inp_files/212145.got.cif
#   From: 2010.05.17/outbox.cif.g08.bks.cpg/sg2_107_cif.got.tgz:212145.got - 2010.06.03 11:33:40.
