data_PCOD9079002
_publ_section_title
;
Structure prediction by ZEFSAII (Michael W. Deem and Ramdas Pophale) SiO2 
 PCOD9079002
Probable space group: P -1
;
_chemical_formula_sum "Si O2"
_cell_formula_units_Z 16
_cell_length_a 10.308193
_cell_length_b 9.714034
_cell_length_c 17.754857
_cell_angle_alpha 67.889134
_cell_angle_beta 122.431278
_cell_angle_gamma 64.744395
_cell_volume 827.106496
_symmetry_space_group_name_H-M "P -1"
_symmetry_group_IT_number 2
_symmetry_cell_setting 'triclinic'
loop_
_space_group_symop_operation_xyz
x,y,z
-x,-y,-z
loop_
_atom_site_type_symbol
_atom_site_label
_atom_site_fract_x
_atom_site_fract_y
_atom_site_fract_z
Si Si1 0.766869 0.746505 0.927346
Si Si2 0.722861 0.567820 0.094975
Si Si3 0.435823 0.075219 0.622034
Si Si4 0.847572 0.986393 0.156929
Si Si5 0.982154 0.555589 0.300016
Si Si6 0.583211 0.691887 0.636210
Si Si7 0.814296 0.016211 0.675318
Si Si8 0.999642 0.836276 0.064721
O O1 0.516394 0.955766 0.753762
O O2 0.741942 0.665289 0.010294
O O3 0.000000 0.500000 0.000000
O O4 0.848774 0.844586 0.960854
O O5 0.774536 0.616309 0.179228
O O6 0.433445 0.730983 0.971211
O O7 0.945585 0.273886 0.213672
O O8 0.142956 0.353156 0.458196
O O9 0.627676 0.062624 0.661468
O O10 0.497153 0.894024 0.620364
O O11 0.877203 0.798647 0.239782
O O12 0.072528 0.923673 0.264493
O O13 0.869875 0.941667 0.084269
O O14 0.198174 0.415918 0.330633
O O15 0.352205 0.819170 0.484715
O O16 0.719151 0.456457 0.774244
O O17 0.000000 0.000000 0.000000
#
# Coordination Sequence:
#
# PCOD9079002 Si02
#       8
#     2   2   2   2   2   2   2   2
#     4  12  21  36  61  91 115 151 200 244 285 343
#     4  12  21  40  63  83 121 162 200 230 286 363
#     4  11  19  35  64  88 113 149 205 248 284 337
#     4  11  25  37  57  91 123 155 194 240 293 356
#     4  10  19  37  60  83 113 159 194 241 288 338
#     4  10  18  36  61  88 113 150 203 246 282 347
#     4  11  20  36  62  87 117 154 201 243 288 342
#     4  11  23  38  59  90 121 150 189 251 305 332
#
# _framework density 19.344546000000001
#
# number of rings (size 3 to 8) (size 9 to 14) (size 15 to 20)
#    0.000    1.000    7.500    2.250    0.000    5.500 
#    0.000    0.625    2.750    1.500    0.000    0.000 
#    0.000    0.000    0.000    0.000    0.000    0.000 
#
# Total GULP energy -89384.094526 kJ/mol
# GULP energy per Si atom -5586.505908 kJ/mol
# Density = 1.930052 g / cm^3
# Si number density = 19.344546 Si / 1000 Ang^3
#
#
#
# Elastic Constant Matrix: (Units=GPa)
#
#
# Indices 1 2 3 4 5 6 
#
# 1 20.1355 6.5231 15.4520 2.6375 0.7053 4.4477
# 2 6.5231 61.2433 10.9562 17.0974 4.0615 12.5286
# 3 15.4520 10.9562 118.5623 12.0731 -13.4472 -3.1810
# 4 2.6375 17.0974 12.0731 35.6122 8.7043 2.6372
# 5 0.7053 4.0615 -13.4472 8.7043 29.9131 -2.5422
# 6 4.4477 12.5286 -3.1810 2.6372 -2.5422 14.7920
#
#
#
# Elastic Compliance Matrix: (Units=1/GPa)
#
#
# Indices 1 2 3 4 5 6 
#
# 1 0.062339 -0.000464 -0.009935 0.002733 -0.008576 -0.022449
# 2 -0.000464 0.023149 -0.002143 -0.008123 -0.003351 -0.019056
# 3 -0.009935 -0.002143 0.011571 -0.004801 0.007932 0.009510
# 4 0.002733 -0.008123 -0.004801 0.036623 -0.012081 -0.003580
# 5 -0.008576 -0.003351 0.007932 -0.012081 0.042579 0.016595
# 6 -0.022449 -0.019056 0.009510 -0.003580 0.016595 0.096030
#
#
# Mechanical properties :
#
#
# Convention : Reuss Voigt Hill
#
# Bulk Modulus (GPa) = 13.89368 29.53374 21.71371
# Shear Modulus (GPa) = 15.55852 27.19744 21.37798
#
# Velocity S-wave (km/s) = 2.83907 3.75367 3.32794
# Velocity P-wave (km/s) = 4.23614 5.83841 5.10059
#
# Compressibility (1/GPa) = 0.07197516
#
# Stress axis : x y z
#
# Youngs Moduli (GPa) = 16.04134 43.19758 86.42397
#
# Poissons Ratio (x) = 0.02006 0.85860
# Poissons Ratio (y) = 0.00745 0.18520
# Poissons Ratio (z) = 0.15937 0.09257
#
# Static dielectric constant tensor:
#      x y z
#    x 1.670450 0.004660 -0.011450 
#    y 0.004660 1.669370 -0.012660 
#    z -0.011450 -0.012660 1.710450 
# 
# From -- ./inp_files/259093.got.cif
#   From: 2010.05.17/outbox.cif.g08.bks.cpg/sg2_130_cif.got.tgz:259093.got - 2010.06.03 11:33:40.
