data_PCOD9079394
_publ_section_title
;
Structure prediction by ZEFSAII (Michael W. Deem and Ramdas Pophale) SiO2 
 PCOD9079394
Probable space group: P -1
;
_chemical_formula_sum "Si O2"
_cell_formula_units_Z 16
_cell_length_a 11.298482
_cell_length_b 9.163829
_cell_length_c 19.391536
_cell_angle_alpha 132.286132
_cell_angle_beta 26.198693
_cell_angle_gamma 126.657985
_cell_volume 655.610168
_symmetry_space_group_name_H-M "P -1"
_symmetry_group_IT_number 2
_symmetry_cell_setting 'triclinic'
loop_
_space_group_symop_operation_xyz
x,y,z
-x,-y,-z
loop_
_atom_site_type_symbol
_atom_site_label
_atom_site_fract_x
_atom_site_fract_y
_atom_site_fract_z
Si Si1 0.279884 0.152123 0.693428
Si Si2 0.758812 0.541495 0.426658
Si Si3 0.092292 0.911180 0.350281
Si Si4 0.538082 0.589972 0.837959
Si Si5 0.037175 0.204887 0.252054
Si Si6 0.249473 0.770933 0.446558
Si Si7 0.489722 0.780722 0.770139
Si Si8 0.034137 0.531397 0.909733
O O1 0.432331 0.208074 0.701059
O O2 0.229932 0.341847 0.732638
O O3 0.500000 0.000000 0.500000
O O4 0.016205 0.026514 0.800955
O O5 0.500000 0.500000 0.500000
O O6 0.899557 0.332666 0.305062
O O7 0.657188 0.655151 0.585339
O O8 0.993070 0.688087 0.324407
O O9 0.392359 0.999777 0.216628
O O10 0.000000 0.000000 0.500000
O O11 0.907678 0.036013 0.433467
O O12 0.749685 0.406062 0.664119
O O13 0.524690 0.681045 0.796198
O O14 0.658318 0.746142 0.876617
O O15 0.251099 0.513391 0.987043
O O16 0.882451 0.273584 0.425207
O O17 0.188550 0.734365 0.886719
O O18 0.000000 0.500000 0.000000
#
# Coordination Sequence:
#
# PCOD9079394 Si02
#       8
#     2   2   2   2   2   2   2   2
#     4  10  20  33  54  89 124 151 195 250 311 353
#     4  11  22  38  58  88 124 166 199 255 308 363
#     4  10  21  32  55  86 121 153 200 248 305 355
#     4  11  19  34  62  89 122 158 199 257 311 361
#     4  11  21  34  60  89 124 153 206 260 307 349
#     4  11  18  34  58  87 120 153 201 257 296 355
#     4  10  18  37  55  84 120 153 200 249 296 358
#     4  10  20  36  59  92 127 158 197 255 314 364
#
# _framework density 24.404745999999999
#
# number of rings (size 3 to 8) (size 9 to 14) (size 15 to 20)
#    0.000    1.500    5.000    3.375    0.000    1.500 
#    0.000    0.000    0.000    7.500    0.000    0.000 
#    0.000    0.000    0.000    0.000    0.000    0.000 
#
# Total GULP energy -89291.915236 kJ/mol
# GULP energy per Si atom -5580.744702 kJ/mol
# Density = 2.434920 g / cm^3
# Si number density = 24.404746 Si / 1000 Ang^3
#
#
#
# Elastic Constant Matrix: (Units=GPa)
#
#
# Indices 1 2 3 4 5 6 
#
# 1 97.7039 42.6676 15.8579 -14.4465 -21.6319 20.8268
# 2 42.6676 152.9050 28.2227 -31.7704 -22.1391 28.6129
# 3 15.8579 28.2227 57.3842 -9.4098 -0.0573 16.5968
# 4 -14.4465 -31.7704 -9.4098 41.0242 20.7378 -14.4095
# 5 -21.6319 -22.1391 -0.0573 20.7378 34.1389 -13.7053
# 6 20.8268 28.6129 16.5968 -14.4095 -13.7053 44.0993
#
#
#
# Elastic Compliance Matrix: (Units=1/GPa)
#
#
# Indices 1 2 3 4 5 6 
#
# 1 0.013412 -0.002247 -0.002230 -0.002091 0.007327 -0.002443
# 2 -0.002247 0.009088 -0.002489 0.004470 0.000881 -0.002164
# 3 -0.002230 -0.002489 0.021886 0.004059 -0.008180 -0.006785
# 4 -0.002091 0.004470 0.004059 0.039928 -0.021499 0.002924
# 5 0.007327 0.000881 -0.008180 -0.021499 0.050671 0.007770
# 6 -0.002443 -0.002164 -0.006785 0.002924 0.007770 0.031157
#
#
# Mechanical properties :
#
#
# Convention : Reuss Voigt Hill
#
# Bulk Modulus (GPa) = 32.83640 53.49881 43.16761
# Shear Modulus (GPa) = 26.28449 38.60213 32.44331
#
# Velocity S-wave (km/s) = 3.28536 3.98143 3.65003
# Velocity P-wave (km/s) = 5.27974 6.56543 5.95737
#
# Compressibility (1/GPa) = 0.03045401
#
# Stress axis : x y z
#
# Youngs Moduli (GPa) = 74.55934 110.03736 45.69029
#
# Poissons Ratio (x) = 0.24730 0.10189
# Poissons Ratio (y) = 0.16757 0.11371
# Poissons Ratio (z) = 0.16627 0.27386
#
# Static dielectric constant tensor:
#      x y z
#    x 2.259560 0.107900 0.029140 
#    y 0.107900 2.059270 -0.034840 
#    z 0.029140 -0.034840 2.073060 
# 
# From -- ./inp_files/448101.got.cif
#   From: 2010.05.17/outbox.cif.g08.bks.cpg/sg2_225_cif.got.tgz:448101.got - 2010.06.03 11:33:40.
