data_PCOD9079336
_publ_section_title
;
Structure prediction by ZEFSAII (Michael W. Deem and Ramdas Pophale) SiO2 
 PCOD9079336
Probable space group: P -1
;
_chemical_formula_sum "Si O2"
_cell_formula_units_Z 13
_cell_length_a 18.173296
_cell_length_b 11.659690
_cell_length_c 13.585560
_cell_angle_alpha 145.946559
_cell_angle_beta 22.041853
_cell_angle_gamma 150.242760
_cell_volume 531.791128
_symmetry_space_group_name_H-M "P -1"
_symmetry_group_IT_number 2
_symmetry_cell_setting 'triclinic'
loop_
_space_group_symop_operation_xyz
x,y,z
-x,-y,-z
loop_
_atom_site_type_symbol
_atom_site_label
_atom_site_fract_x
_atom_site_fract_y
_atom_site_fract_z
Si Si1 0.728448 0.235631 0.366223
Si Si2 0.725774 0.032090 0.571507
Si Si3 0.736017 0.207929 0.116201
Si Si4 0.800195 0.637879 0.440203
Si Si5 0.969208 0.752816 0.826507
Si Si6 0.500000 0.500000 0.500000
Si Si7 0.593417 0.310937 0.060629
O O1 0.727083 0.474782 0.510161
O O2 0.879201 0.288983 0.312087
O O3 0.500000 0.000000 0.500000
O O4 0.803788 0.191505 0.132883
O O5 0.938223 0.207133 0.370107
O O6 0.701733 0.778076 0.429752
O O7 0.694749 0.144184 0.789061
O O8 0.505676 0.991271 0.752867
O O9 0.939182 0.244076 0.821354
O O10 0.700772 0.444207 0.334079
O O11 0.667542 0.780275 0.703338
O O12 0.725154 0.541222 0.993646
O O13 0.000000 0.000000 0.000000
O O14 0.621006 0.395619 0.197945
#
# Coordination Sequence:
#
# PCOD9079336 Si02
#       7
#     2   2   2   2   2   1   2
#     4  10  18  36  67  96 120 181 223 258 333 395
#     4  12  25  44  67 101 132 180 226 280 328 402
#     4   9  19  38  66  90 130 173 224 268 327 392
#     4   9  20  39  63  93 131 176 217 271 330 391
#     4  12  23  42  71  97 142 177 218 277 338 399
#     4  12  24  46  64  96 136 180 218 276 342 394
#     4  12  26  42  70 101 136 172 227 277 339 396
#
# _framework density 24.445688000000001
#
# number of rings (size 3 to 8) (size 9 to 14) (size 15 to 20)
#    0.923    0.308    4.615    1.846    4.308    0.615 
#    0.000    0.769    3.385    0.000    0.000    0.000 
#    0.000    0.000    0.000    0.000    0.000    0.000 
#
# Total GULP energy -72431.014451 kJ/mol
# GULP energy per Si atom -5571.616496 kJ/mol
# Density = 2.439005 g / cm^3
# Si number density = 24.445688 Si / 1000 Ang^3
#
#
#
# Elastic Constant Matrix: (Units=GPa)
#
#
# Indices 1 2 3 4 5 6 
#
# 1 69.7284 23.1114 36.5749 9.5048 15.7810 -20.0329
# 2 23.1114 92.8817 34.9506 -3.6815 4.7269 -18.7533
# 3 36.5749 34.9506 104.4732 1.0704 12.8912 -5.6678
# 4 9.5048 -3.6815 1.0704 48.7855 4.9179 4.3555
# 5 15.7810 4.7269 12.8912 4.9179 36.4714 1.1009
# 6 -20.0329 -18.7533 -5.6678 4.3555 1.1009 40.9417
#
#
#
# Elastic Compliance Matrix: (Units=1/GPa)
#
#
# Indices 1 2 3 4 5 6 
#
# 1 0.023436 -0.001094 -0.006283 -0.004722 -0.007467 0.010800
# 2 -0.001094 0.013557 -0.003864 0.000889 -0.000190 0.005050
# 3 -0.006283 -0.003864 0.013063 0.001070 -0.001448 -0.003111
# 4 -0.004722 0.000889 0.001070 0.021953 -0.001288 -0.004056
# 5 -0.007467 -0.000190 -0.001448 -0.001288 0.031500 -0.004651
# 6 0.010800 0.005050 -0.003111 -0.004056 -0.004651 0.032148
#
#
# Mechanical properties :
#
#
# Convention : Reuss Voigt Hill
#
# Bulk Modulus (GPa) = 36.26576 50.70634 43.48605
# Shear Modulus (GPa) = 29.88067 36.73613 33.30840
#
# Velocity S-wave (km/s) = 3.49997 3.88076 3.69527
# Velocity P-wave (km/s) = 5.58574 6.39280 6.00285
#
# Compressibility (1/GPa) = 0.02757422
#
# Stress axis : x y z
#
# Youngs Moduli (GPa) = 42.66942 73.76143 76.55120
#
# Poissons Ratio (x) = 0.08069 0.48098
# Poissons Ratio (y) = 0.04667 0.29581
# Poissons Ratio (z) = 0.26809 0.28503
#
# Static dielectric constant tensor:
#      x y z
#    x 1.686420 0.062690 0.089170 
#    y 0.062690 1.988210 0.014680 
#    z 0.089170 0.014680 1.929860 
# 
# From -- ./inp_files/541150.got.cif
#   From: 2010.05.17/outbox.cif.g08.bks.cpg/sg2_271_cif.got.tgz:541150.got - 2010.06.03 11:33:40.
