data_PCOD9079472
_publ_section_title
;
Structure prediction by ZEFSAII (Michael W. Deem and Ramdas Pophale) SiO2 
 PCOD9079472
Probable space group: P -1
;
_chemical_formula_sum "Si O2"
_cell_formula_units_Z 14
_cell_length_a 11.970392
_cell_length_b 11.726140
_cell_length_c 12.034985
_cell_angle_alpha 143.300825
_cell_angle_beta 126.356425
_cell_angle_gamma 37.067322
_cell_volume 603.318553
_symmetry_space_group_name_H-M "P -1"
_symmetry_group_IT_number 2
_symmetry_cell_setting 'triclinic'
loop_
_space_group_symop_operation_xyz
x,y,z
-x,-y,-z
loop_
_atom_site_type_symbol
_atom_site_label
_atom_site_fract_x
_atom_site_fract_y
_atom_site_fract_z
Si Si1 0.738500 0.597249 0.868327
Si Si2 0.078876 0.111774 0.076221
Si Si3 0.504620 0.307917 0.014606
Si Si4 0.403201 0.826384 0.417926
Si Si5 0.308144 0.118169 0.378145
Si Si6 0.217764 0.832672 0.528582
Si Si7 0.087802 0.192995 0.917733
O O1 0.591927 0.743488 0.995435
O O2 0.690216 0.459580 0.657857
O O3 0.929930 0.380731 0.879624
O O4 0.780859 0.745377 0.940284
O O5 0.127591 0.234789 0.287754
O O6 0.977273 0.257466 0.016841
O O7 0.281798 0.863743 0.956580
O O8 0.000000 0.000000 0.000000
O O9 0.414983 0.600491 0.197990
O O10 0.534158 0.173262 0.809573
O O11 0.285751 0.066765 0.450750
O O12 0.310589 0.882818 0.528658
O O13 0.602115 0.755398 0.482474
O O14 0.212341 0.919545 0.716443
O O15 0.000000 0.000000 0.500000
#
# Coordination Sequence:
#
# PCOD9079472 Si02
#       7
#     2   2   2   2   2   2   2
#     4   9  19  36  61  85 104 152 196 231 271 331
#     4  10  24  39  57  84 120 154 178 236 302 330
#     4   9  20  36  58  84 109 150 190 232 282 331
#     4  10  18  37  59  85 111 145 205 227 268 341
#     4   9  21  35  58  83 112 152 187 238 277 329
#     4   9  19  32  57  85 110 143 185 239 274 322
#     4  10  20  38  57  83 118 145 187 235 283 335
#
# _framework density 23.204989000000001
#
# number of rings (size 3 to 8) (size 9 to 14) (size 15 to 20)
#    0.857    1.714    0.000    1.286    6.000    0.571 
#    2.571    5.000    0.000    0.000    0.000    0.000 
#    0.000    0.000    0.000    0.000    0.000    0.000 
#
# Total GULP energy -78018.043820 kJ/mol
# GULP energy per Si atom -5572.717416 kJ/mol
# Density = 2.315217 g / cm^3
# Si number density = 23.204989 Si / 1000 Ang^3
#
#
#
# Elastic Constant Matrix: (Units=GPa)
#
#
# Indices 1 2 3 4 5 6 
#
# 1 105.5814 -4.2322 34.9815 -4.1603 16.9420 23.8641
# 2 -4.2322 17.7295 22.0395 -8.7637 7.2387 11.0287
# 3 34.9815 22.0395 91.8236 -22.9963 9.5959 19.7654
# 4 -4.1603 -8.7637 -22.9963 15.8872 1.9352 -8.4697
# 5 16.9420 7.2387 9.5959 1.9352 29.6222 -0.3880
# 6 23.8641 11.0287 19.7654 -8.4697 -0.3880 31.4137
#
#
#
# Elastic Compliance Matrix: (Units=1/GPa)
#
#
# Indices 1 2 3 4 5 6 
#
# 1 0.027024 0.054239 -0.012777 0.005383 -0.025321 -0.030393
# 2 0.054239 0.222657 -0.034925 0.050919 -0.078553 -0.084641
# 3 -0.012777 -0.034925 0.026268 0.020560 0.006134 0.011059
# 4 0.005383 0.050919 0.020560 0.125071 -0.030373 -0.001556
# 5 -0.025321 -0.078553 0.006134 -0.030373 0.067900 0.035604
# 6 -0.030393 -0.084641 0.011059 -0.001556 0.035604 0.077700
#
#
# Mechanical properties :
#
#
# Convention : Reuss Voigt Hill
#
# Bulk Modulus (GPa) = 3.45993 35.63468 19.54731
# Shear Modulus (GPa) = 7.93794 26.20767 17.07280
#
# Velocity S-wave (km/s) = 1.85154 3.36430 2.71539
# Velocity P-wave (km/s) = 2.46277 5.52097 4.27471
#
# Compressibility (1/GPa) = 0.28902343
#
# Stress axis : x y z
#
# Youngs Moduli (GPa) = 37.00459 4.49121 38.06905
#
# Poissons Ratio (x) = -0.24360 0.48640
# Poissons Ratio (y) = -2.00708 1.32955
# Poissons Ratio (z) = 0.47280 0.15685
#
# Static dielectric constant tensor:
#      x y z
#    x 1.486160 -0.179690 0.040380 
#    y -0.179690 1.902080 0.005820 
#    z 0.040380 0.005820 1.926080 
# 
# From -- ./inp_files/427003.got.cif
#   From: 2010.05.17/outbox.cif.g08.bks.cpg/sg2_214_cif.got.tgz:427003.got - 2010.06.03 11:33:40.
