data_PCOD9079455
_publ_section_title
;
Structure prediction by ZEFSAII (Michael W. Deem and Ramdas Pophale) SiO2 
 PCOD9079455
Probable space group: P -1
;
_chemical_formula_sum "Si O2"
_cell_formula_units_Z 16
_cell_length_a 15.611828
_cell_length_b 26.932133
_cell_length_c 8.841295
_cell_angle_alpha 142.070804
_cell_angle_beta 135.983241
_cell_angle_gamma 14.998909
_cell_volume 569.605600
_symmetry_space_group_name_H-M "P -1"
_symmetry_group_IT_number 2
_symmetry_cell_setting 'triclinic'
loop_
_space_group_symop_operation_xyz
x,y,z
-x,-y,-z
loop_
_atom_site_type_symbol
_atom_site_label
_atom_site_fract_x
_atom_site_fract_y
_atom_site_fract_z
Si Si1 0.495225 0.041564 0.929806
Si Si2 0.364550 0.382761 0.391624
Si Si3 0.833101 0.994494 0.273744
Si Si4 0.756383 0.943468 0.584310
Si Si5 0.408117 0.473529 0.904918
Si Si6 0.916618 0.001087 0.727188
Si Si7 0.636378 0.530786 0.815550
Si Si8 0.148003 0.354765 0.026593
O O1 0.421102 0.016005 0.652431
O O2 0.198730 0.289814 0.107571
O O3 0.808095 0.914137 0.021257
O O4 0.500000 0.000000 0.000000
O O5 0.210930 0.537340 0.690298
O O6 0.587349 0.184775 0.298852
O O7 0.087931 0.486088 0.234253
O O8 0.665302 0.244199 0.346381
O O9 0.210905 0.796040 0.246137
O O10 0.768306 0.056089 0.513254
O O11 0.816201 0.991164 0.690008
O O12 0.489873 0.120059 0.805417
O O13 0.137183 0.677703 0.482656
O O14 0.290282 0.546045 0.102463
O O15 0.500000 0.500000 0.000000
O O16 0.741751 0.195843 0.002450
O O17 0.836770 0.487515 0.906342
#
# Coordination Sequence:
#
# PCOD9079455 Si02
#       8
#     2   2   2   2   2   2   2   2
#     4  10  19  36  65  91 117 165 211 253 318 374
#     4  10  20  41  61  89 128 168 203 256 330 373
#     4  10  18  37  58  92 126 159 198 264 331 361
#     4  11  24  44  64  90 134 171 209 260 320 377
#     4  11  21  34  61  95 131 156 204 274 320 368
#     4  11  20  38  69  88 126 169 208 261 321 376
#     4  11  21  40  65  94 123 167 219 257 314 376
#     4  10  25  42  63  87 135 173 206 260 319 374
#
# _framework density 28.089614000000001
#
# number of rings (size 3 to 8) (size 9 to 14) (size 15 to 20)
#    0.000    1.500    3.750    3.750    1.750    1.500 
#    4.500    0.625    5.500    0.000    0.000    0.000 
#    0.000    0.000    0.000    0.000    0.000    0.000 
#
# Total GULP energy -89352.627563 kJ/mol
# GULP energy per Si atom -5584.539223 kJ/mol
# Density = 2.802568 g / cm^3
# Si number density = 28.089614 Si / 1000 Ang^3
#
#
#
# Elastic Constant Matrix: (Units=GPa)
#
#
# Indices 1 2 3 4 5 6 
#
# 1 187.7107 15.4086 28.9699 -16.2484 12.9889 -13.2198
# 2 15.4086 65.3192 36.0963 8.3994 3.7975 -3.9384
# 3 28.9699 36.0963 116.1687 -12.4616 13.4016 0.2732
# 4 -16.2484 8.3994 -12.4616 49.6708 3.9237 -2.5086
# 5 12.9889 3.7975 13.4016 3.9237 45.7109 7.6122
# 6 -13.2198 -3.9384 0.2732 -2.5086 7.6122 31.6415
#
#
#
# Elastic Compliance Matrix: (Units=1/GPa)
#
#
# Indices 1 2 3 4 5 6 
#
# 1 0.006091 -0.001029 -0.000709 0.002317 -0.002157 0.003125
# 2 -0.001029 0.019935 -0.006606 -0.005351 0.000783 0.001496
# 3 -0.000709 -0.006606 0.011612 0.004023 -0.002969 -0.000186
# 4 0.002317 -0.005351 0.004023 0.023267 -0.003898 0.003050
# 5 -0.002157 0.000783 -0.002969 -0.003898 0.024804 -0.007054
# 6 0.003125 0.001496 -0.000186 0.003050 -0.007054 0.035037
#
#
# Mechanical properties :
#
#
# Convention : Reuss Voigt Hill
#
# Bulk Modulus (GPa) = 47.73112 58.90537 53.31825
# Shear Modulus (GPa) = 34.62185 44.65290 39.63738
#
# Velocity S-wave (km/s) = 3.51458 3.99138 3.76054
# Velocity P-wave (km/s) = 5.78783 6.50058 6.15453
#
# Compressibility (1/GPa) = 0.02095069
#
# Stress axis : x y z
#
# Youngs Moduli (GPa) = 164.17165 50.16220 86.11724
#
# Poissons Ratio (x) = 0.05162 0.06108
# Poissons Ratio (y) = 0.16894 0.56886
# Poissons Ratio (z) = 0.11644 0.33135
#
# Static dielectric constant tensor:
#      x y z
#    x 2.170640 0.036890 0.093590 
#    y 0.036890 2.549910 -0.220550 
#    z 0.093590 -0.220550 2.511720 
# 
# From -- ./inp_files/320759.got.cif
#   From: 2010.05.17/outbox.cif.g08.bks.cpg/sg2_161_cif.got.tgz:320759.got - 2010.06.03 11:33:40.
