data_PCOD9079345
_publ_section_title
;
Structure prediction by ZEFSAII (Michael W. Deem and Ramdas Pophale) SiO2 
 PCOD9079345
Probable space group: P -1
;
_chemical_formula_sum "Si O2"
_cell_formula_units_Z 13
_cell_length_a 9.543525
_cell_length_b 11.613902
_cell_length_c 7.765872
_cell_angle_alpha 77.531878
_cell_angle_beta 109.157814
_cell_angle_gamma 49.013486
_cell_volume 488.867045
_symmetry_space_group_name_H-M "P -1"
_symmetry_group_IT_number 2
_symmetry_cell_setting 'triclinic'
loop_
_space_group_symop_operation_xyz
x,y,z
-x,-y,-z
loop_
_atom_site_type_symbol
_atom_site_label
_atom_site_fract_x
_atom_site_fract_y
_atom_site_fract_z
Si Si1 0.982251 0.712810 0.105114
Si Si2 0.232483 0.508657 0.582711
Si Si3 0.500000 0.000000 0.000000
Si Si4 0.413577 0.290591 0.288757
Si Si5 0.112888 0.993192 0.214336
Si Si6 0.387669 0.696742 0.940577
Si Si7 0.781684 0.741459 0.517078
O O1 0.143420 0.655836 0.354102
O O2 0.171806 0.519870 0.135155
O O3 0.761014 0.791876 0.089827
O O4 0.872019 0.884115 0.891681
O O5 0.216405 0.391834 0.521918
O O6 0.049509 0.623894 0.633642
O O7 0.499769 0.354006 0.809303
O O8 0.616373 0.919657 0.266339
O O9 0.519976 0.254798 0.157261
O O10 0.323298 0.221294 0.348934
O O11 0.632445 0.195203 0.534391
O O12 0.898785 0.123783 0.225470
O O13 0.000000 0.000000 0.000000
O O14 0.500000 0.500000 0.000000
#
# Coordination Sequence:
#
# PCOD9079345 Si02
#       7
#     2   2   1   2   2   2   2
#     4  10  21  40  68  96 128 169 230 283 320 389
#     4   9  21  39  66  95 125 177 217 276 328 388
#     4  10  18  36  68 102 124 156 220 290 326 378
#     4  11  23  43  65  95 137 178 214 279 341 393
#     4  12  25  42  69  97 128 184 234 272 320 400
#     4  12  26  43  65  98 146 181 215 269 343 408
#     4   9  18  39  67  97 124 164 232 277 323 382
#
# _framework density 26.592099000000001
#
# number of rings (size 3 to 8) (size 9 to 14) (size 15 to 20)
#    0.000    1.538    3.077    3.231    2.154    1.846 
#    0.000    0.000    0.000    3.692    0.000    0.000 
#    0.000    0.000    0.000    0.000    0.000    0.000 
#
# Total GULP energy -72449.241521 kJ/mol
# GULP energy per Si atom -5573.018579 kJ/mol
# Density = 2.653157 g / cm^3
# Si number density = 26.592099 Si / 1000 Ang^3
#
#
#
# Elastic Constant Matrix: (Units=GPa)
#
#
# Indices 1 2 3 4 5 6 
#
# 1 86.9738 37.7975 11.3409 -4.8327 1.6638 -26.2091
# 2 37.7975 81.2611 13.0134 -15.5891 7.1340 -27.4937
# 3 11.3409 13.0134 142.7006 -13.2396 15.6123 -3.1432
# 4 -4.8327 -15.5891 -13.2396 41.6099 -20.8807 2.1831
# 5 1.6638 7.1340 15.6123 -20.8807 49.7555 -2.2331
# 6 -26.2091 -27.4937 -3.1432 2.1831 -2.2331 49.7070
#
#
#
# Elastic Compliance Matrix: (Units=1/GPa)
#
#
# Indices 1 2 3 4 5 6 
#
# 1 0.015487 -0.005495 -0.000720 -0.000499 0.000517 0.005126
# 2 -0.005495 0.018433 -0.000595 0.005989 0.000556 0.007023
# 3 -0.000720 -0.000595 0.007412 0.001204 -0.001727 -0.000370
# 4 -0.000499 0.005989 0.001204 0.032838 0.012662 0.002253
# 5 0.000517 0.000556 -0.001727 0.012662 0.025906 0.001078
# 6 0.005126 0.007023 -0.000370 0.002253 0.001078 0.026631
#
#
# Mechanical properties :
#
#
# Convention : Reuss Voigt Hill
#
# Bulk Modulus (GPa) = 36.08386 48.35990 42.22188
# Shear Modulus (GPa) = 33.43089 44.80006 39.11548
#
# Velocity S-wave (km/s) = 3.54951 4.10898 3.83945
# Velocity P-wave (km/s) = 5.51340 6.38255 5.96383
#
# Compressibility (1/GPa) = 0.02771323
#
# Stress axis : x y z
#
# Youngs Moduli (GPa) = 64.57186 54.24952 134.92201
#
# Poissons Ratio (x) = 0.29809 0.09708
# Poissons Ratio (y) = 0.35481 0.08025
# Poissons Ratio (z) = 0.04646 0.03227
#
# Static dielectric constant tensor:
#      x y z
#    x 2.185100 0.091510 0.019420 
#    y 0.091510 2.214520 0.109270 
#    z 0.019420 0.109270 2.092800 
# 
# From -- ./inp_files/236177.got.cif
#   From: 2010.05.17/outbox.cif.g08.bks.cpg/sg2_119_cif.got.tgz:236177.got - 2010.06.03 11:33:40.
