data_PCOD9079265
_publ_section_title
;
Structure prediction by ZEFSAII (Michael W. Deem and Ramdas Pophale) SiO2 
 PCOD9079265
Probable space group: P -1
;
_chemical_formula_sum "Si O2"
_cell_formula_units_Z 16
_cell_length_a 11.464958
_cell_length_b 9.048111
_cell_length_c 8.589374
_cell_angle_alpha 81.929016
_cell_angle_beta 65.215221
_cell_angle_gamma 75.742925
_cell_volume 783.340578
_symmetry_space_group_name_H-M "P -1"
_symmetry_group_IT_number 2
_symmetry_cell_setting 'triclinic'
loop_
_space_group_symop_operation_xyz
x,y,z
-x,-y,-z
loop_
_atom_site_type_symbol
_atom_site_label
_atom_site_fract_x
_atom_site_fract_y
_atom_site_fract_z
Si Si1 0.158295 0.135442 0.436513
Si Si2 0.105971 0.440365 0.587468
Si Si3 0.688331 0.692286 0.112090
Si Si4 0.657096 0.459004 0.416796
Si Si5 0.602601 0.000548 0.303410
Si Si6 0.815862 0.131266 0.324633
Si Si7 0.565085 0.857657 0.875690
Si Si8 0.031997 0.297271 0.173938
O O1 0.134899 0.259974 0.570354
O O2 0.306285 0.113083 0.290261
O O3 0.071635 0.210047 0.328788
O O4 0.135846 0.977479 0.539851
O O5 0.251545 0.482053 0.510499
O O6 0.000000 0.500000 0.500000
O O7 0.035715 0.529862 0.764333
O O8 0.688970 0.539060 0.227411
O O9 0.622930 0.836425 0.233554
O O10 0.612017 0.715780 0.985901
O O11 0.836265 0.707310 0.991931
O O12 0.500000 0.500000 0.500000
O O13 0.707642 0.277985 0.416084
O O14 0.740887 0.031895 0.274834
O O15 0.541143 0.137593 0.199810
O O16 0.500000 0.000000 0.500000
O O17 0.929079 0.205145 0.174436
O O18 0.500000 0.000000 0.000000
#
# Coordination Sequence:
#
# PCOD9079265 Si02
#       8
#     2   2   2   2   2   2   2   2
#     4  10  18  36  65  89 118 159 209 249 298 374
#     4   9  20  39  64  90 120 170 208 249 300 382
#     4  10  22  42  62  84 123 172 198 253 311 376
#     4  11  24  38  62  92 127 162 210 256 316 369
#     4  11  20  36  63  92 122 158 209 249 308 374
#     4  11  22  34  59  94 122 155 206 265 298 363
#     4   9  20  35  61  87 120 159 199 245 307 366
#     4   9  21  40  60  88 124 160 207 248 320 360
#
# _framework density 20.425341
#
# number of rings (size 3 to 8) (size 9 to 14) (size 15 to 20)
#    0.000    2.000    1.250    1.875    3.500    2.500 
#    0.000    1.875    2.750    0.000    0.000    0.000 
#    0.000    0.000    0.000    0.000    0.000    0.000 
#
# Total GULP energy -89148.373814 kJ/mol
# GULP energy per Si atom -5571.773363 kJ/mol
# Density = 2.037885 g / cm^3
# Si number density = 20.425341 Si / 1000 Ang^3
#
#
#
# Elastic Constant Matrix: (Units=GPa)
#
#
# Indices 1 2 3 4 5 6 
#
# 1 110.1604 13.8743 27.6720 -6.8237 3.1662 -15.0594
# 2 13.8743 105.3490 37.6162 -7.2904 -3.4244 -21.2277
# 3 27.6720 37.6162 87.6848 -2.7175 -7.5049 -7.2896
# 4 -6.8237 -7.2904 -2.7175 24.9131 -11.7468 -0.8381
# 5 3.1662 -3.4244 -7.5049 -11.7468 31.2969 1.4295
# 6 -15.0594 -21.2277 -7.2896 -0.8381 1.4295 25.3800
#
#
#
# Elastic Compliance Matrix: (Units=1/GPa)
#
#
# Indices 1 2 3 4 5 6 
#
# 1 0.010896 0.001301 -0.003447 0.002707 -0.001077 0.006713
# 2 0.001301 0.013721 -0.005117 0.004875 0.001476 0.010856
# 3 -0.003447 -0.005117 0.014852 0.000889 0.003786 -0.002243
# 4 0.002707 0.004875 0.000889 0.051889 0.019650 0.006545
# 5 -0.001077 0.001476 0.003786 0.019650 0.040503 0.000051
# 6 0.006713 0.010856 -0.002243 0.006545 0.000051 0.052033
#
#
# Mechanical properties :
#
#
# Convention : Reuss Voigt Hill
#
# Bulk Modulus (GPa) = 40.09019 51.27990 45.68504
# Shear Modulus (GPa) = 24.18551 31.25347 27.71949
#
# Velocity S-wave (km/s) = 3.44480 3.91593 3.68790
# Velocity P-wave (km/s) = 5.95756 6.75326 6.36785
#
# Compressibility (1/GPa) = 0.02494376
#
# Stress axis : x y z
#
# Youngs Moduli (GPa) = 91.77633 72.88254 67.32901
#
# Poissons Ratio (x) = -0.09480 0.23207
# Poissons Ratio (y) = -0.11938 0.34450
# Poissons Ratio (z) = 0.31634 0.37291
#
# Static dielectric constant tensor:
#      x y z
#    x 1.834550 -0.001330 0.062320 
#    y -0.001330 1.745700 0.024310 
#    z 0.062320 0.024310 1.742860 
# 
# From -- ./inp_files/238229.got.cif
#   From: 2010.05.17/outbox.cif.g08.bks.cpg/sg2_120_cif.got.tgz:238229.got - 2010.06.03 11:33:40.
