data_PCOD9079228
_publ_section_title
;
Structure prediction by ZEFSAII (Michael W. Deem and Ramdas Pophale) SiO2 
 PCOD9079228
Probable space group: P -1
;
_chemical_formula_sum "Si O2"
_cell_formula_units_Z 16
_cell_length_a 5.506824
_cell_length_b 9.383169
_cell_length_c 23.701899
_cell_angle_alpha 58.079674
_cell_angle_beta 65.682945
_cell_angle_gamma 100.188932
_cell_volume 814.728714
_symmetry_space_group_name_H-M "P -1"
_symmetry_group_IT_number 2
_symmetry_cell_setting 'triclinic'
loop_
_space_group_symop_operation_xyz
x,y,z
-x,-y,-z
loop_
_atom_site_type_symbol
_atom_site_label
_atom_site_fract_x
_atom_site_fract_y
_atom_site_fract_z
Si Si1 0.735903 0.517141 0.091641
Si Si2 0.116003 0.981022 0.339073
Si Si3 0.642595 0.383873 0.244321
Si Si4 0.971115 0.813293 0.788404
Si Si5 0.365033 0.855670 0.240095
Si Si6 0.680456 0.615929 0.300301
Si Si7 0.247973 0.425714 0.489044
Si Si8 0.066981 0.772331 0.909697
O O1 0.734406 0.547207 0.152351
O O2 0.391084 0.341628 0.150611
O O3 0.938290 0.417419 0.076857
O O4 0.842375 0.693993 0.001075
O O5 0.328814 0.927640 0.291020
O O6 0.939197 0.807818 0.435779
O O7 0.305248 0.192653 0.305671
O O8 0.921154 0.005941 0.302200
O O9 0.682598 0.471822 0.283179
O O10 0.859184 0.296439 0.227358
O O11 0.000884 0.860065 0.841984
O O12 0.533352 0.731822 0.258957
O O13 0.027097 0.738128 0.268109
O O14 0.592404 0.053997 0.142761
O O15 0.442631 0.499834 0.397810
O O16 0.500000 0.500000 0.500000
O O17 0.000000 0.500000 0.500000
#
# Coordination Sequence:
#
# PCOD9079228 Si02
#       8
#     2   2   2   2   2   2   2   2
#     4   9  19  35  61  94 129 161 226 264 327 365
#     4  11  22  40  69  94 125 171 219 268 316 386
#     4  10  24  41  64  90 136 171 214 264 333 386
#     4  10  18  36  64  92 130 167 217 270 318 375
#     4  12  23  42  68  94 131 169 223 259 329 383
#     4  12  27  45  65  97 133 176 206 272 335 387
#     4  12  25  43  69 100 131 163 219 273 319 384
#     4  10  19  34  62  99 120 170 219 280 304 384
#
# _framework density 19.638439000000002
#
# number of rings (size 3 to 8) (size 9 to 14) (size 15 to 20)
#    0.000    1.250    6.250    1.125    5.250    0.500 
#    0.000    1.875    0.000    0.000    0.000    0.000 
#    0.000    0.000    0.000    0.000    0.000    0.000 
#
# Total GULP energy -89136.417375 kJ/mol
# GULP energy per Si atom -5571.026086 kJ/mol
# Density = 1.959374 g / cm^3
# Si number density = 19.638439 Si / 1000 Ang^3
#
#
#
# Elastic Constant Matrix: (Units=GPa)
#
#
# Indices 1 2 3 4 5 6 
#
# 1 74.5906 17.6972 28.4003 4.0225 17.1696 1.5868
# 2 17.6972 85.3081 52.1738 10.9665 8.0969 12.6872
# 3 28.4003 52.1738 142.5467 2.0058 8.7997 5.8703
# 4 4.0225 10.9665 2.0058 24.7490 -0.5485 4.3289
# 5 17.1696 8.0969 8.7997 -0.5485 20.3510 -4.5554
# 6 1.5868 12.6872 5.8703 4.3289 -4.5554 24.8365
#
#
#
# Elastic Compliance Matrix: (Units=1/GPa)
#
#
# Indices 1 2 3 4 5 6 
#
# 1 0.017960 -0.000060 -0.002496 -0.002529 -0.014742 -0.002790
# 2 -0.000060 0.017794 -0.005689 -0.006184 -0.006493 -0.007854
# 3 -0.002496 -0.005689 0.009517 0.002071 0.000429 0.000534
# 4 -0.002529 -0.006184 0.002071 0.044202 0.003961 -0.004147
# 5 -0.014742 -0.006493 0.000429 0.003961 0.067633 0.015872
# 6 -0.002790 -0.007854 0.000534 -0.004147 0.015872 0.047962
#
#
# Mechanical properties :
#
#
# Convention : Reuss Voigt Hill
#
# Bulk Modulus (GPa) = 34.74585 55.44310 45.09447
# Shear Modulus (GPa) = 21.63083 27.59888 24.61486
#
# Velocity S-wave (km/s) = 3.32242 3.75287 3.54418
# Velocity P-wave (km/s) = 5.69641 6.86090 6.30559
#
# Compressibility (1/GPa) = 0.02878042
#
# Stress axis : x y z
#
# Youngs Moduli (GPa) = 55.67868 56.19997 105.07275
#
# Poissons Ratio (x) = 0.00338 0.26223
# Poissons Ratio (y) = 0.00335 0.59780
# Poissons Ratio (z) = 0.13896 0.31974
#
# Static dielectric constant tensor:
#      x y z
#    x 1.805610 0.010610 0.033620 
#    y 0.010610 1.689250 -0.038300 
#    z 0.033620 -0.038300 1.709770 
# 
# From -- ./inp_files/45547.got.cif
#   From: 2010.05.17/outbox.cif.g08.bks.cpg/sg2_23_cif.got.tgz:45547.got - 2010.06.03 11:33:40.
