data_PCOD9079287
_publ_section_title
;
Structure prediction by ZEFSAII (Michael W. Deem and Ramdas Pophale) SiO2 
 PCOD9079287
Probable space group: P -1
;
_chemical_formula_sum "Si O2"
_cell_formula_units_Z 16
_cell_length_a 12.245029
_cell_length_b 10.285984
_cell_length_c 15.158821
_cell_angle_alpha 43.734453
_cell_angle_beta 141.856202
_cell_angle_gamma 132.222206
_cell_volume 790.802055
_symmetry_space_group_name_H-M "P -1"
_symmetry_group_IT_number 2
_symmetry_cell_setting 'triclinic'
loop_
_space_group_symop_operation_xyz
x,y,z
-x,-y,-z
loop_
_atom_site_type_symbol
_atom_site_label
_atom_site_fract_x
_atom_site_fract_y
_atom_site_fract_z
Si Si1 0.613459 0.241884 0.228410
Si Si2 0.894368 0.013474 0.516010
Si Si3 0.888786 0.663325 0.370637
Si Si4 0.880255 0.322437 0.906437
Si Si5 0.218743 0.123973 0.970148
Si Si6 0.498467 0.391794 0.258277
Si Si7 0.213440 0.331216 0.247690
Si Si8 0.825009 0.572336 0.086135
O O1 0.562052 0.256637 0.291170
O O2 0.759218 0.434570 0.194682
O O3 0.703388 0.067616 0.350581
O O4 0.432222 0.227236 0.064078
O O5 0.848847 0.819410 0.639790
O O6 0.000000 0.000000 0.500000
O O7 0.010425 0.189907 0.562630
O O8 0.871373 0.796650 0.209480
O O9 0.682037 0.551240 0.319117
O O10 0.000000 0.500000 0.500000
O O11 0.751087 0.447282 0.804205
O O12 0.992787 0.445065 0.837369
O O13 0.038510 0.307391 0.084051
O O14 0.795647 0.103245 0.931954
O O15 0.141178 0.206702 0.967262
O O16 0.385902 0.298049 0.318442
O O17 0.343052 0.469526 0.068722
#
# Coordination Sequence:
#
# PCOD9079287 Si02
#       8
#     2   2   2   2   2   2   2   2
#     4  11  21  40  65  97 129 167 204 268 327 376
#     4  12  26  44  64  93 134 171 214 265 329 380
#     4  12  22  42  68  98 126 165 220 266 313 387
#     4  10  21  38  61  94 126 170 211 261 315 381
#     4  11  20  38  65  97 124 161 222 257 314 391
#     4  10  20  39  65  93 129 161 213 265 319 376
#     4  10  23  41  61  88 131 171 213 262 322 375
#     4  10  18  36  65  96 132 155 207 267 321 372
#
# _framework density 20.232621999999999
#
# number of rings (size 3 to 8) (size 9 to 14) (size 15 to 20)
#    0.000    1.250    5.000    1.875    0.000    1.500 
#    0.000    5.000    0.000    0.000    0.000    0.000 
#    0.000    0.000    0.000    0.000    0.000    0.000 
#
# Total GULP energy -89269.373192 kJ/mol
# GULP energy per Si atom -5579.335825 kJ/mol
# Density = 2.018657 g / cm^3
# Si number density = 20.232622 Si / 1000 Ang^3
#
#
#
# Elastic Constant Matrix: (Units=GPa)
#
#
# Indices 1 2 3 4 5 6 
#
# 1 133.8181 20.7115 33.6148 -20.9369 -11.2669 3.4416
# 2 20.7115 82.8389 19.2339 -16.0646 -13.4864 -1.8665
# 3 33.6148 19.2339 61.0299 -4.1284 -0.5961 -3.6111
# 4 -20.9369 -16.0646 -4.1284 27.5526 -4.1884 0.4616
# 5 -11.2669 -13.4864 -0.5961 -4.1884 15.0748 -2.5616
# 6 3.4416 -1.8665 -3.6111 0.4616 -2.5616 24.9173
#
#
#
# Elastic Compliance Matrix: (Units=1/GPa)
#
#
# Indices 1 2 3 4 5 6 
#
# 1 0.011797 0.003326 -0.006642 0.012166 0.014732 -0.001054
# 2 0.003326 0.020372 -0.006691 0.017262 0.025654 0.002414
# 3 -0.006642 -0.006691 0.021675 -0.007530 -0.011763 0.002488
# 4 0.012166 0.017262 -0.007530 0.060741 0.041396 0.001652
# 5 0.014732 0.025654 -0.011763 0.041396 0.112866 0.009018
# 6 -0.001054 0.002414 0.002488 0.001652 0.009018 0.041716
#
#
# Mechanical properties :
#
#
# Convention : Reuss Voigt Hill
#
# Bulk Modulus (GPa) = 29.55828 47.20084 38.37956
# Shear Modulus (GPa) = 16.64126 27.11738 21.87932
#
# Velocity S-wave (km/s) = 2.87103 3.66496 3.29201
# Velocity P-wave (km/s) = 5.06274 6.42565 5.78447
#
# Compressibility (1/GPa) = 0.03383147
#
# Stress axis : x y z
#
# Youngs Moduli (GPa) = 84.76517 49.08670 46.13535
#
# Poissons Ratio (x) = -0.16329 0.30642
# Poissons Ratio (y) = -0.28197 0.30871
# Poissons Ratio (z) = 0.56298 0.32846
#
# Static dielectric constant tensor:
#      x y z
#    x 1.735060 -0.006930 -0.013880 
#    y -0.006930 1.736090 -0.007960 
#    z -0.013880 -0.007960 1.713760 
# 
# From -- ./inp_files/206443.got.cif
#   From: 2010.05.17/outbox.cif.g08.bks.cpg/sg2_104_cif.got.tgz:206443.got - 2010.06.03 11:33:40.
