data_PCOD9079569
_publ_section_title
;
Structure prediction by ZEFSAII (Michael W. Deem and Ramdas Pophale) SiO2 
 PCOD9079569
Probable space group: P -1
;
_chemical_formula_sum "Si O2"
_cell_formula_units_Z 16
_cell_length_a 11.934551
_cell_length_b 13.876844
_cell_length_c 9.248045
_cell_angle_alpha 72.219609
_cell_angle_beta 39.199721
_cell_angle_gamma 54.370912
_cell_volume 754.331486
_symmetry_space_group_name_H-M "P -1"
_symmetry_group_IT_number 2
_symmetry_cell_setting 'triclinic'
loop_
_space_group_symop_operation_xyz
x,y,z
-x,-y,-z
loop_
_atom_site_type_symbol
_atom_site_label
_atom_site_fract_x
_atom_site_fract_y
_atom_site_fract_z
Si Si1 0.475984 0.638878 0.718460
Si Si2 0.083211 0.059037 0.280797
Si Si3 0.121470 0.910579 0.056768
Si Si4 0.555418 0.393773 0.849186
Si Si5 0.064931 0.191768 0.504712
Si Si6 0.814795 0.628044 0.700901
Si Si7 0.282863 0.677901 0.578912
Si Si8 0.071996 0.534755 0.770885
O O1 0.383009 0.641617 0.652207
O O2 0.725890 0.583246 0.461548
O O3 0.321410 0.777462 0.864706
O O4 0.472290 0.537085 0.864835
O O5 0.167029 0.114420 0.288184
O O6 0.884562 0.176375 0.341934
O O7 0.203935 0.962969 0.073173
O O8 0.000000 0.000000 0.500000
O O9 0.956489 0.888300 0.316388
O O10 0.000000 0.000000 0.000000
O O11 0.545752 0.367451 0.700611
O O12 0.810937 0.302110 0.672994
O O13 0.406659 0.361429 0.092911
O O14 0.177251 0.258622 0.410990
O O15 0.000000 0.500000 0.500000
O O16 0.884391 0.610442 0.807355
O O17 0.158647 0.615008 0.697867
O O18 0.000000 0.500000 0.000000
#
# Coordination Sequence:
#
# PCOD9079569 Si02
#       8
#     2   2   2   2   2   2   2   2
#     4  11  20  35  63  96 129 154 209 259 309 374
#     4   9  18  37  60  83 114 165 213 241 297 360
#     4  11  22  36  65  91 119 170 212 256 307 355
#     4  10  21  38  63  93 124 159 201 246 327 378
#     4  10  22  42  64  90 126 163 207 259 305 381
#     4  12  23  36  60  99 129 156 196 255 327 375
#     4  10  18  37  61  89 123 158 204 254 303 375
#     4  11  22  38  59  92 129 163 198 252 321 379
#
# _framework density 21.210834999999999
#
# number of rings (size 3 to 8) (size 9 to 14) (size 15 to 20)
#    0.000    1.500    5.000    3.750    1.750    1.000 
#    0.000    0.000    0.000   24.750    0.000    0.000 
#    0.000    0.000    0.000    0.000    0.000    0.000 
#
# Total GULP energy -89357.104186 kJ/mol
# GULP energy per Si atom -5584.819012 kJ/mol
# Density = 2.116256 g / cm^3
# Si number density = 21.210835 Si / 1000 Ang^3
#
#
#
# Elastic Constant Matrix: (Units=GPa)
#
#
# Indices 1 2 3 4 5 6 
#
# 1 93.0050 39.4439 29.1597 -3.7325 9.8906 3.9180
# 2 39.4439 130.6808 50.1072 -3.7203 11.6283 1.2297
# 3 29.1597 50.1072 99.5618 -8.7693 3.4662 12.5282
# 4 -3.7325 -3.7203 -8.7693 42.8599 3.6238 13.6616
# 5 9.8906 11.6283 3.4662 3.6238 31.6448 -4.2023
# 6 3.9180 1.2297 12.5282 13.6616 -4.2023 49.2583
#
#
#
# Elastic Compliance Matrix: (Units=1/GPa)
#
#
# Indices 1 2 3 4 5 6 
#
# 1 0.013005 -0.002823 -0.002067 0.001037 -0.003051 -0.000986
# 2 -0.002823 0.010409 -0.004497 -0.000397 -0.002269 0.001025
# 3 -0.002067 -0.004497 0.013772 0.003616 -0.000188 -0.004245
# 4 0.001037 -0.000397 0.003616 0.027416 -0.004911 -0.009015
# 5 -0.003051 -0.002269 -0.000188 -0.004911 0.034590 0.004660
# 6 -0.000986 0.001025 -0.004245 -0.009015 0.004660 0.024332
#
#
# Mechanical properties :
#
#
# Convention : Reuss Voigt Hill
#
# Bulk Modulus (GPa) = 54.30874 62.29658 58.30266
# Shear Modulus (GPa) = 33.68493 38.38838 36.03665
#
# Velocity S-wave (km/s) = 3.98942 4.25885 4.12633
# Velocity P-wave (km/s) = 6.84693 7.32241 7.08866
#
# Compressibility (1/GPa) = 0.01841324
#
# Stress axis : x y z
#
# Youngs Moduli (GPa) = 76.89508 96.06641 72.61175
#
# Poissons Ratio (x) = 0.27116 0.15006
# Poissons Ratio (y) = 0.21704 0.32655
# Poissons Ratio (z) = 0.15891 0.43203
#
# Static dielectric constant tensor:
#      x y z
#    x 1.825020 0.021430 0.053200 
#    y 0.021430 1.802310 -0.012690 
#    z 0.053200 -0.012690 1.847750 
# 
# From -- ./inp_files/272784.got.cif
#   From: 2010.05.17/outbox.cif.g08.bks.cpg/sg2_137_cif.got.tgz:272784.got - 2010.06.03 11:33:40.
