data_PCOD9079920
_publ_section_title
;
Structure prediction by ZEFSAII (Michael W. Deem and Ramdas Pophale) SiO2 
 PCOD9079920
Probable space group: P -1
;
_chemical_formula_sum "Si O2"
_cell_formula_units_Z 16
_cell_length_a 13.495682
_cell_length_b 8.876870
_cell_length_c 12.926925
_cell_angle_alpha 134.957995
_cell_angle_beta 55.729968
_cell_angle_gamma 144.189296
_cell_volume 641.010867
_symmetry_space_group_name_H-M "P -1"
_symmetry_group_IT_number 2
_symmetry_cell_setting 'triclinic'
loop_
_space_group_symop_operation_xyz
x,y,z
-x,-y,-z
loop_
_atom_site_type_symbol
_atom_site_label
_atom_site_fract_x
_atom_site_fract_y
_atom_site_fract_z
Si Si1 0.083025 0.701996 0.395524
Si Si2 0.260961 0.792800 0.036010
Si Si3 0.967461 0.896891 0.713993
Si Si4 0.931772 0.561807 0.207281
Si Si5 0.280874 0.528067 0.200561
Si Si6 0.729392 0.641086 0.094465
Si Si7 0.517203 0.557172 0.697465
Si Si8 0.473436 0.179503 0.377925
O O1 0.943992 0.578527 0.330643
O O2 0.124077 0.502179 0.272249
O O3 0.025329 0.750190 0.555302
O O4 0.276220 0.019633 0.410451
O O5 0.077107 0.580124 0.094514
O O6 0.346565 0.118117 0.174256
O O7 0.338578 0.680838 0.989003
O O8 0.231024 0.720087 0.897105
O O9 0.773131 0.646587 0.745230
O O10 0.013067 0.139208 0.723376
O O11 0.084373 0.103771 0.843986
O O12 0.441227 0.888351 0.273086
O O13 0.281664 0.369092 0.026805
O O14 0.617445 0.657975 0.237638
O O15 0.558410 0.396648 0.531957
O O16 0.447661 0.627329 0.679482
#
# Coordination Sequence:
#
# PCOD9079920 Si02
#       8
#     2   2   2   2   2   2   2   2
#     4  10  18  38  52  83 112 139 182 226 270 318
#     4  10  19  32  54  81 111 141 173 231 272 308
#     4  11  22  33  57  82 113 146 179 222 277 325
#     4  10  20  35  53  81 115 141 183 220 271 330
#     4  10  20  36  53  85 113 140 180 229 274 315
#     4  11  19  33  55  87 108 138 187 226 272 317
#     4  11  18  34  57  87 106 140 182 239 262 315
#     4   9  20  32  56  84 111 135 179 228 279 308
#
# _framework density 24.960574000000001
#
# number of rings (size 3 to 8) (size 9 to 14) (size 15 to 20)
#    0.750    1.000    5.000    1.500    0.000    0.000 
#    0.000    0.000    0.000    1.500    0.000    0.000 
#    0.000    0.000    0.000    0.000    0.000    0.000 
#
# Total GULP energy -89283.276631 kJ/mol
# GULP energy per Si atom -5580.204789 kJ/mol
# Density = 2.490376 g / cm^3
# Si number density = 24.960574 Si / 1000 Ang^3
#
#
#
# Elastic Constant Matrix: (Units=GPa)
#
#
# Indices 1 2 3 4 5 6 
#
# 1 32.2436 3.4740 22.1548 9.4000 -4.8464 -7.2255
# 2 3.4740 53.5338 36.3692 -0.5377 0.4964 -9.2115
# 3 22.1548 36.3692 147.3682 2.4680 5.8189 -2.7111
# 4 9.4000 -0.5377 2.4680 42.2861 8.1737 -8.4926
# 5 -4.8464 0.4964 5.8189 8.1737 22.3558 -0.9446
# 6 -7.2255 -9.2115 -2.7111 -8.4926 -0.9446 25.5590
#
#
#
# Elastic Compliance Matrix: (Units=1/GPa)
#
#
# Indices 1 2 3 4 5 6 
#
# 1 0.043464 0.003946 -0.007764 -0.010124 0.015484 0.010094
# 2 0.003946 0.024579 -0.006578 0.001421 0.001917 0.009819
# 3 -0.007764 -0.006578 0.009679 0.001325 -0.004679 -0.003272
# 4 -0.010124 0.001421 0.001325 0.029836 -0.013175 0.007217
# 5 0.015484 0.001917 -0.004679 -0.013175 0.054173 0.002197
# 6 0.010094 0.009819 -0.003272 0.007217 0.002197 0.047650
#
#
# Mechanical properties :
#
#
# Convention : Reuss Voigt Hill
#
# Bulk Modulus (GPa) = 17.56565 39.68239 28.62402
# Shear Modulus (GPa) = 20.06832 29.45002 24.75917
#
# Velocity S-wave (km/s) = 2.83857 3.43864 3.15291
# Velocity P-wave (km/s) = 4.21852 5.63011 4.97464
#
# Compressibility (1/GPa) = 0.05692930
#
# Stress axis : x y z
#
# Youngs Moduli (GPa) = 23.00732 40.68590 103.31978
#
# Poissons Ratio (x) = -0.16054 0.80220
# Poissons Ratio (y) = -0.09078 0.67962
# Poissons Ratio (z) = 0.17863 0.26763
#
# Static dielectric constant tensor:
#      x y z
#    x 2.054380 0.015410 0.009390 
#    y 0.015410 2.056560 -0.006000 
#    z 0.009390 -0.006000 1.961640 
# 
# From -- ./inp_files/464008.got.cif
#   From: 2010.05.17/outbox.cif.g08.bks.cpg/sg2_233_cif.got.tgz:464008.got - 2010.06.03 11:33:40.
