data_PCOD9079863
_publ_section_title
;
Structure prediction by ZEFSAII (Michael W. Deem and Ramdas Pophale) SiO2 
 PCOD9079863
Probable space group: P -1
;
_chemical_formula_sum "Si O2"
_cell_formula_units_Z 16
_cell_length_a 9.796959
_cell_length_b 17.003518
_cell_length_c 9.748169
_cell_angle_alpha 57.506688
_cell_angle_beta 76.244350
_cell_angle_gamma 125.073509
_cell_volume 684.877567
_symmetry_space_group_name_H-M "P -1"
_symmetry_group_IT_number 2
_symmetry_cell_setting 'triclinic'
loop_
_space_group_symop_operation_xyz
x,y,z
-x,-y,-z
loop_
_atom_site_type_symbol
_atom_site_label
_atom_site_fract_x
_atom_site_fract_y
_atom_site_fract_z
Si Si1 0.600824 0.409490 0.742155
Si Si2 0.689836 0.807195 0.472527
Si Si3 0.202385 0.862898 0.654564
Si Si4 0.929733 0.792176 0.039197
Si Si5 0.940671 0.298991 0.439550
Si Si6 0.300451 0.128818 0.302751
Si Si7 0.351992 0.679993 0.428074
Si Si8 0.873491 0.094040 0.814958
O O1 0.761610 0.449872 0.543629
O O2 0.779719 0.557921 0.678647
O O3 0.377140 0.348952 0.783140
O O4 0.444037 0.241758 0.025099
O O5 0.563294 0.750113 0.706648
O O6 0.462287 0.681884 0.526898
O O7 0.891540 0.834264 0.382103
O O8 0.880838 0.007653 0.216074
O O9 0.071342 0.725963 0.695451
O O10 0.019810 0.772375 0.918105
O O11 0.500000 0.000000 0.500000
O O12 0.257900 0.995725 0.452421
O O13 0.996510 0.798782 0.171063
O O14 0.840289 0.345800 0.452773
O O15 0.233101 0.881516 0.275240
O O16 0.000000 0.000000 0.500000
O O17 0.623822 0.884793 0.111397
#
# Coordination Sequence:
#
# PCOD9079863 Si02
#       8
#     2   2   2   2   2   2   2   2
#     4  12  23  41  62  91 130 162 206 252 306 370
#     4  10  18  37  67  92 110 158 221 252 285 369
#     4  11  23  43  64  94 125 157 207 260 306 361
#     4  10  20  38  65  90 122 163 203 254 302 361
#     4  12  27  38  60  97 129 159 199 262 318 352
#     4  11  20  39  68  90 117 168 213 242 297 373
#     4  11  21  43  63  86 123 165 207 250 303 372
#     4  11  20  39  67  94 115 158 217 256 295 360
#
# _framework density 23.361840000000001
#
# number of rings (size 3 to 8) (size 9 to 14) (size 15 to 20)
#    0.000    1.000    5.000    5.250    0.000    2.000 
#    0.000    2.500    0.000    0.000    0.000    0.000 
#    0.000    0.000    0.000    0.000    0.000    0.000 
#
# Total GULP energy -89524.789520 kJ/mol
# GULP energy per Si atom -5595.299345 kJ/mol
# Density = 2.330867 g / cm^3
# Si number density = 23.361840 Si / 1000 Ang^3
#
#
#
# Elastic Constant Matrix: (Units=GPa)
#
#
# Indices 1 2 3 4 5 6 
#
# 1 68.7613 7.9925 9.4057 1.2611 -21.9156 -5.3167
# 2 7.9925 166.4250 32.0184 32.3941 -16.2451 -4.6064
# 3 9.4057 32.0184 29.9484 24.5324 -6.2508 -9.7606
# 4 1.2611 32.3941 24.5324 38.0189 -9.0274 -8.4477
# 5 -21.9156 -16.2451 -6.2508 -9.0274 26.3805 7.4210
# 6 -5.3167 -4.6064 -9.7606 -8.4477 7.4210 28.6914
#
#
#
# Elastic Compliance Matrix: (Units=1/GPa)
#
#
# Indices 1 2 3 4 5 6 
#
# 1 0.022745 0.001423 -0.015106 0.012221 0.021093 -0.002553
# 2 0.001423 0.008102 -0.007936 -0.001342 0.004597 -0.002720
# 3 -0.015106 -0.007936 0.090663 -0.051985 -0.018299 0.016197
# 4 0.012221 -0.001342 -0.051985 0.064897 0.019671 -0.001616
# 5 0.021093 0.004597 -0.018299 0.019671 0.064137 -0.012376
# 6 -0.002553 -0.002720 0.016197 -0.001616 -0.012376 0.042179
#
#
# Mechanical properties :
#
#
# Convention : Reuss Voigt Hill
#
# Bulk Modulus (GPa) = 12.77583 40.44087 26.60835
# Shear Modulus (GPa) = 13.81014 32.99935 23.40475
#
# Velocity S-wave (km/s) = 2.43398 3.76244 3.16861
# Velocity P-wave (km/s) = 3.65781 6.01854 4.98008
#
# Compressibility (1/GPa) = 0.07827278
#
# Stress axis : x y z
#
# Youngs Moduli (GPa) = 43.96543 123.42781 11.02983
#
# Poissons Ratio (x) = -0.17567 0.16661
# Poissons Ratio (y) = -0.06258 0.08754
# Poissons Ratio (z) = 0.66413 0.97956
#
# Static dielectric constant tensor:
#      x y z
#    x 1.857940 -0.031690 0.051340 
#    y -0.031690 1.951690 -0.026180 
#    z 0.051340 -0.026180 1.900280 
# 
# From -- ./inp_files/319009.got.cif
#   From: 2010.05.17/outbox.cif.g08.bks.cpg/sg2_160_cif.got.tgz:319009.got - 2010.06.03 11:33:40.
