data_PCOD9079924
_publ_section_title
;
Structure prediction by ZEFSAII (Michael W. Deem and Ramdas Pophale) SiO2 
 PCOD9079924
Probable space group: P -1
;
_chemical_formula_sum "Si O2"
_cell_formula_units_Z 12
_cell_length_a 5.508455
_cell_length_b 14.298201
_cell_length_c 8.911273
_cell_angle_alpha 52.240253
_cell_angle_beta 82.832491
_cell_angle_gamma 89.539541
_cell_volume 548.449736
_symmetry_space_group_name_H-M "P -1"
_symmetry_group_IT_number 2
_symmetry_cell_setting 'triclinic'
loop_
_space_group_symop_operation_xyz
x,y,z
-x,-y,-z
loop_
_atom_site_type_symbol
_atom_site_label
_atom_site_fract_x
_atom_site_fract_y
_atom_site_fract_z
Si Si1 0.341580 0.338982 0.258833
Si Si2 0.700960 0.704181 0.345243
Si Si3 0.794018 0.234983 0.633388
Si Si4 0.000506 0.866457 0.581742
Si Si5 0.864653 0.512159 0.342766
Si Si6 0.880097 0.359909 0.076310
O O1 0.790768 0.374880 0.445411
O O2 0.270505 0.198982 0.367486
O O3 0.116620 0.393506 0.134897
O O4 0.607961 0.379984 0.134394
O O5 0.482671 0.789444 0.263347
O O6 0.684756 0.650210 0.570498
O O7 0.979390 0.766362 0.267028
O O8 0.667772 0.604344 0.315754
O O9 0.852707 0.159094 0.557739
O O10 0.110086 0.783102 0.781086
O O11 0.000000 0.000000 0.500000
O O12 0.000000 0.500000 0.500000
O O13 0.042814 0.582077 0.143168
#
# Coordination Sequence:
#
# PCOD9079924 Si02
#       6
#     2   2   2   2   2   2
#     4   9  19  38  57  89 114 145 196 241 280 340
#     4  10  18  38  55  83 116 155 184 230 288 348
#     4  10  20  36  55  87 110 152 193 229 283 342
#     4   9  20  38  62  85 114 149 196 246 283 328
#     4  10  23  38  60  85 125 156 184 232 295 353
#     4  10  21  38  57  90 117 147 194 239 284 341
#
# _framework density 21.879852
#
# number of rings (size 3 to 8) (size 9 to 14) (size 15 to 20)
#    1.000    1.333    1.667    0.500    0.000    6.667 
#    0.000    5.000    0.000   10.000    0.000    0.000 
#    0.000    0.000    0.000    0.000    0.000    0.000 
#
# Total GULP energy -66817.272201 kJ/mol
# GULP energy per Si atom -5568.106017 kJ/mol
# Density = 2.183005 g / cm^3
# Si number density = 21.879852 Si / 1000 Ang^3
#
#
#
# Elastic Constant Matrix: (Units=GPa)
#
#
# Indices 1 2 3 4 5 6 
#
# 1 153.4177 33.4555 14.3287 2.0603 -10.5860 -23.9935
# 2 33.4555 173.0444 28.8153 -9.8320 -15.8446 -2.1808
# 3 14.3287 28.8153 45.8242 8.1588 -4.2939 -4.1680
# 4 2.0603 -9.8320 8.1588 28.8373 -3.0909 -3.8872
# 5 -10.5860 -15.8446 -4.2939 -3.0909 20.6589 1.3469
# 6 -23.9935 -2.1808 -4.1680 -3.8872 1.3469 20.4492
#
#
#
# Elastic Compliance Matrix: (Units=1/GPa)
#
#
# Indices 1 2 3 4 5 6 
#
# 1 0.008543 -0.001041 -0.001034 0.000942 0.002874 0.009692
# 2 -0.001041 0.007460 -0.004765 0.004373 0.004910 -0.000889
# 3 -0.001034 -0.004765 0.026909 -0.008890 -0.000057 0.002077
# 4 0.000942 0.004373 -0.008890 0.040362 0.007575 0.006933
# 5 0.002874 0.004910 -0.000057 0.007575 0.054653 0.001724
# 6 0.009692 -0.000889 0.002077 0.006933 0.001724 0.061806
#
#
# Mechanical properties :
#
#
# Convention : Reuss Voigt Hill
#
# Bulk Modulus (GPa) = 34.20813 58.38725 46.29769
# Shear Modulus (GPa) = 22.40574 33.70154 28.05364
#
# Velocity S-wave (km/s) = 3.20353 3.92892 3.58462
# Velocity P-wave (km/s) = 5.41774 6.87933 6.19182
#
# Compressibility (1/GPa) = 0.02923282
#
# Stress axis : x y z
#
# Youngs Moduli (GPa) = 117.05469 134.04097 37.16290
#
# Poissons Ratio (x) = 0.13951 0.03842
# Poissons Ratio (y) = 0.12183 0.17708
# Poissons Ratio (z) = 0.12100 0.63872
#
# Static dielectric constant tensor:
#      x y z
#    x 1.933090 -0.027680 -0.018550 
#    y -0.027680 1.889480 -0.010160 
#    z -0.018550 -0.010160 1.810610 
# 
# From -- ./inp_files/367404.got.cif
#   From: 2010.05.17/outbox.cif.g08.bks.cpg/sg2_184_cif.got.tgz:367404.got - 2010.06.03 11:33:40.
