data_PCOD9079078
_publ_section_title
;
Structure prediction by ZEFSAII (Michael W. Deem and Ramdas Pophale) SiO2 
 PCOD9079078
Probable space group: P -1
;
_chemical_formula_sum "Si O2"
_cell_formula_units_Z 14
_cell_length_a 9.358152
_cell_length_b 11.780169
_cell_length_c 15.515228
_cell_angle_alpha 135.957986
_cell_angle_beta 80.372917
_cell_angle_gamma 131.409293
_cell_volume 719.282501
_symmetry_space_group_name_H-M "P -1"
_symmetry_group_IT_number 2
_symmetry_cell_setting 'triclinic'
loop_
_space_group_symop_operation_xyz
x,y,z
-x,-y,-z
loop_
_atom_site_type_symbol
_atom_site_label
_atom_site_fract_x
_atom_site_fract_y
_atom_site_fract_z
Si Si1 0.597513 0.300585 0.087963
Si Si2 0.868680 0.743214 0.627077
Si Si3 0.898755 0.121559 0.159963
Si Si4 0.664608 0.666313 0.160090
Si Si5 0.217287 0.373279 0.105941
Si Si6 0.519299 0.707042 0.708607
Si Si7 0.900404 0.308513 0.984894
O O1 0.681753 0.517654 0.133050
O O2 0.537302 0.311335 0.195293
O O3 0.792903 0.334850 0.081688
O O4 0.348103 0.018618 0.918999
O O5 0.682588 0.691595 0.670236
O O6 0.717001 0.524172 0.448700
O O7 0.999308 0.746049 0.685073
O O8 0.080061 0.038466 0.726792
O O9 0.094293 0.321990 0.177263
O O10 0.843626 0.875237 0.031469
O O11 0.498626 0.637347 0.218029
O O12 0.500000 0.500000 0.000000
O O13 0.097873 0.367673 0.038155
O O14 0.681585 0.996842 0.813874
O O15 0.000000 0.500000 0.000000
#
# Coordination Sequence:
#
# PCOD9079078 Si02
#       7
#     2   2   2   2   2   2   2
#     4  11  22  36  64  87 121 156 204 237 298 355
#     4  11  21  37  63  88 123 149 201 252 300 337
#     4  10  18  36  62  87 108 158 200 249 278 350
#     4  11  19  34  61  91 112 154 204 250 282 345
#     4  10  19  34  61  86 116 145 212 239 287 337
#     4  11  23  39  57  92 121 157 191 253 302 350
#     4  12  23  38  62  91 121 158 197 247 293 363
#
# _framework density 19.463840999999999
#
# number of rings (size 3 to 8) (size 9 to 14) (size 15 to 20)
#    0.000    1.143    5.714    3.857    0.000    0.571 
#    0.000    2.143    0.000    1.714    0.000    0.000 
#    0.000    0.000    0.000    0.000    0.000    0.000 
#
# Total GULP energy -78154.853017 kJ/mol
# GULP energy per Si atom -5582.489501 kJ/mol
# Density = 1.941954 g / cm^3
# Si number density = 19.463841 Si / 1000 Ang^3
#
#
#
# Elastic Constant Matrix: (Units=GPa)
#
#
# Indices 1 2 3 4 5 6 
#
# 1 74.1362 12.7990 10.9606 -2.2336 5.6972 8.3238
# 2 12.7990 101.5531 29.2355 7.5318 5.3040 -6.0650
# 3 10.9606 29.2355 82.1135 -1.5826 22.6520 -7.4969
# 4 -2.2336 7.5318 -1.5826 21.9620 -2.5077 2.7127
# 5 5.6972 5.3040 22.6520 -2.5077 22.0283 3.5077
# 6 8.3238 -6.0650 -7.4969 2.7127 3.5077 34.7217
#
#
#
# Elastic Compliance Matrix: (Units=1/GPa)
#
#
# Indices 1 2 3 4 5 6 
#
# 1 0.014628 -0.001830 -0.001365 0.002424 -0.000993 -0.004210
# 2 -0.001830 0.011659 -0.004132 -0.004582 0.001102 0.001830
# 3 -0.001365 -0.004132 0.019921 -0.000321 -0.020124 0.005965
# 4 0.002424 -0.004582 -0.000321 0.048908 0.007331 -0.006012
# 5 -0.000993 0.001102 -0.020124 0.007331 0.068736 -0.011431
# 6 -0.004210 0.001830 0.005965 -0.006012 -0.011431 0.033042
#
#
# Mechanical properties :
#
#
# Convention : Reuss Voigt Hill
#
# Bulk Modulus (GPa) = 31.69079 40.42145 36.05612
# Shear Modulus (GPa) = 22.51576 29.39624 25.95600
#
# Velocity S-wave (km/s) = 3.40487 3.89047 3.65574
# Velocity P-wave (km/s) = 5.63691 6.40262 6.03193
#
# Compressibility (1/GPa) = 0.03155491
#
# Stress axis : x y z
#
# Youngs Moduli (GPa) = 68.35992 85.77196 50.19727
#
# Poissons Ratio (x) = 0.15697 0.06851
# Poissons Ratio (y) = 0.12511 0.20741
# Poissons Ratio (z) = 0.09330 0.35441
#
# Static dielectric constant tensor:
#      x y z
#    x 1.715650 0.014670 -0.009510 
#    y 0.014670 1.721740 -0.006150 
#    z -0.009510 -0.006150 1.666100 
# 
# From -- ./inp_files/239916.got.cif
#   From: 2010.05.17/outbox.cif.g08.bks.cpg/sg2_120_cif.got.tgz:239916.got - 2010.06.03 11:33:40.
