data_PCOD9079312
_publ_section_title
;
Structure prediction by ZEFSAII (Michael W. Deem and Ramdas Pophale) SiO2 
 PCOD9079312
Probable space group: P -1
;
_chemical_formula_sum "Si O2"
_cell_formula_units_Z 16
_cell_length_a 14.468322
_cell_length_b 11.103137
_cell_length_c 15.585193
_cell_angle_alpha 55.520092
_cell_angle_beta 36.988083
_cell_angle_gamma 29.186633
_cell_volume 656.996088
_symmetry_space_group_name_H-M "P -1"
_symmetry_group_IT_number 2
_symmetry_cell_setting 'triclinic'
loop_
_space_group_symop_operation_xyz
x,y,z
-x,-y,-z
loop_
_atom_site_type_symbol
_atom_site_label
_atom_site_fract_x
_atom_site_fract_y
_atom_site_fract_z
Si Si1 0.955884 0.360461 0.578616
Si Si2 0.409572 0.795369 0.714050
Si Si3 0.766712 0.325484 0.226759
Si Si4 0.762365 0.733379 0.007626
Si Si5 0.741533 0.025665 0.654467
Si Si6 0.930378 0.251839 0.309654
Si Si7 0.080174 0.243103 0.888788
Si Si8 0.516694 0.833953 0.452232
O O1 0.613315 0.609859 0.720836
O O2 0.000000 0.500000 0.500000
O O3 0.078405 0.176355 0.477843
O O4 0.169547 0.121347 0.587684
O O5 0.352113 0.700415 0.738388
O O6 0.577340 0.770617 0.534316
O O7 0.111941 0.104339 0.844409
O O8 0.508701 0.651456 0.302954
O O9 0.852986 0.209105 0.305800
O O10 0.031456 0.189171 0.033510
O O11 0.444794 0.967583 0.184193
O O12 0.000000 0.500000 0.000000
O O13 0.839965 0.823616 0.873503
O O14 0.813453 0.570040 0.961928
O O15 0.936869 0.916559 0.634000
O O16 0.668880 0.570499 0.402895
O O17 0.346709 0.139862 0.712342
#
# Coordination Sequence:
#
# PCOD9079312 Si02
#       8
#     2   2   2   2   2   2   2   2
#     4  12  25  40  68  98 132 173 215 279 331 387
#     4  12  26  43  66 100 133 179 218 262 336 399
#     4  11  25  44  67  94 139 177 214 273 326 396
#     4  10  18  36  66  93 127 165 216 278 320 370
#     4  11  22  41  62 100 131 172 223 269 327 392
#     4  11  21  39  67  96 129 175 220 270 327 383
#     4  10  21  42  70  94 130 169 218 275 326 380
#     4  11  23  44  68  96 130 169 226 273 323 384
#
# _framework density 24.353266000000001
#
# number of rings (size 3 to 8) (size 9 to 14) (size 15 to 20)
#    0.000    1.000    6.250    1.875    0.000    2.000 
#    0.000    2.500    0.000    5.250    0.000    0.000 
#    0.000    0.000    0.000    0.000    0.000    0.000 
#
# Total GULP energy -89327.249577 kJ/mol
# GULP energy per Si atom -5582.953099 kJ/mol
# Density = 2.429784 g / cm^3
# Si number density = 24.353266 Si / 1000 Ang^3
#
#
#
# Elastic Constant Matrix: (Units=GPa)
#
#
# Indices 1 2 3 4 5 6 
#
# 1 118.2668 32.3260 13.6625 -0.5576 17.7856 -2.3067
# 2 32.3260 70.1150 13.2816 2.8316 8.8596 -9.9285
# 3 13.6625 13.2816 89.0275 -7.0410 10.2324 1.1491
# 4 -0.5576 2.8316 -7.0410 26.0727 5.3974 5.4923
# 5 17.7856 8.8596 10.2324 5.3974 36.8052 4.7403
# 6 -2.3067 -9.9285 1.1491 5.4923 4.7403 46.7259
#
#
#
# Elastic Compliance Matrix: (Units=1/GPa)
#
#
# Indices 1 2 3 4 5 6 
#
# 1 0.010265 -0.004233 -0.000364 0.001446 -0.004034 -0.000144
# 2 -0.004233 0.017521 -0.002067 -0.003068 -0.001675 0.004095
# 3 -0.000364 -0.002067 0.012337 0.004428 -0.003283 -0.000948
# 4 0.001446 -0.003068 0.004428 0.042364 -0.006762 -0.004983
# 5 -0.004034 -0.001675 -0.003283 -0.006762 0.031801 -0.002906
# 6 -0.000144 0.004095 -0.000948 -0.004983 -0.002906 0.023168
#
#
# Mechanical properties :
#
#
# Convention : Reuss Voigt Hill
#
# Bulk Modulus (GPa) = 37.32122 43.99438 40.65780
# Shear Modulus (GPa) = 31.30576 36.46340 33.88458
#
# Velocity S-wave (km/s) = 3.58926 3.87365 3.73416
# Velocity P-wave (km/s) = 5.70396 6.17343 5.94333
#
# Compressibility (1/GPa) = 0.02679441
#
# Stress axis : x y z
#
# Youngs Moduli (GPa) = 97.41739 57.07491 81.06003
#
# Poissons Ratio (x) = 0.24159 0.02950
# Poissons Ratio (y) = 0.41235 0.16757
# Poissons Ratio (z) = 0.03545 0.11799
#
# Static dielectric constant tensor:
#      x y z
#    x 1.989820 0.001260 -0.059210 
#    y 0.001260 1.959740 -0.049780 
#    z -0.059210 -0.049780 1.972710 
# 
# From -- ./inp_files/532468.got.cif
#   From: 2010.05.17/outbox.cif.g08.bks.cpg/sg2_267_cif.got.tgz:532468.got - 2010.06.03 11:33:40.
