data_PCOD9079931
_publ_section_title
;
Structure prediction by ZEFSAII (Michael W. Deem and Ramdas Pophale) SiO2 
 PCOD9079931
Probable space group: P -1
;
_chemical_formula_sum "Si O2"
_cell_formula_units_Z 16
_cell_length_a 22.372352
_cell_length_b 4.967197
_cell_length_c 11.469310
_cell_angle_alpha 60.928308
_cell_angle_beta 145.762213
_cell_angle_gamma 115.989326
_cell_volume 625.028735
_symmetry_space_group_name_H-M "P -1"
_symmetry_group_IT_number 2
_symmetry_cell_setting 'triclinic'
loop_
_space_group_symop_operation_xyz
x,y,z
-x,-y,-z
loop_
_atom_site_type_symbol
_atom_site_label
_atom_site_fract_x
_atom_site_fract_y
_atom_site_fract_z
Si Si1 0.574949 0.808185 0.581525
Si Si2 0.949716 0.178705 0.035271
Si Si3 0.923644 0.501365 0.144910
Si Si4 0.750673 0.866041 0.686215
Si Si5 0.161835 0.688552 0.721953
Si Si6 0.262104 0.109149 0.610532
Si Si7 0.708996 0.846615 0.010548
Si Si8 0.606342 0.448697 0.112726
O O1 0.500000 0.500000 0.500000
O O2 0.630779 0.897999 0.529328
O O3 0.677209 0.838079 0.826704
O O4 0.500000 0.000000 0.500000
O O5 0.952481 0.225743 0.168184
O O6 0.829562 0.145860 0.800127
O O7 0.000000 0.500000 0.000000
O O8 0.014804 0.167058 0.858316
O O9 0.804136 0.579366 0.895140
O O10 0.926839 0.403716 0.304598
O O11 0.763923 0.834510 0.576700
O O12 0.170378 0.930645 0.578473
O O13 0.193897 0.373010 0.781855
O O14 0.256072 0.847285 0.925748
O O15 0.300574 0.413814 0.679475
O O16 0.360578 0.883187 0.807566
O O17 0.612833 0.668560 0.963784
O O18 0.500000 0.500000 0.000000
#
# Coordination Sequence:
#
# PCOD9079931 Si02
#       8
#     2   2   2   2   2   2   2   2
#     4  12  26  35  54  83 120 157 198 245 290 341
#     4  10  22  39  67  96 117 149 193 244 301 363
#     4  10  20  36  66  84 121 148 196 235 299 354
#     4  10  25  38  62  87 123 154 196 247 306 342
#     4  10  18  38  57  80 108 156 195 231 285 343
#     4  10  23  35  57  81 112 153 200 244 296 337
#     4  10  20  36  52  73 106 153 204 239 272 337
#     4  10  22  36  53  71 109 154 204 245 284 339
#
# _framework density 25.598822999999999
#
# number of rings (size 3 to 8) (size 9 to 14) (size 15 to 20)
#    0.750    1.000    1.250    3.000    7.000    0.000 
#    0.000    0.000    0.000    1.500    0.000    0.000 
#    0.000    0.000    0.000    0.000    0.000    0.000 
#
# Total GULP energy -89299.315233 kJ/mol
# GULP energy per Si atom -5581.207202 kJ/mol
# Density = 2.554056 g / cm^3
# Si number density = 25.598823 Si / 1000 Ang^3
#
#
#
# Elastic Constant Matrix: (Units=GPa)
#
#
# Indices 1 2 3 4 5 6 
#
# 1 140.7588 33.8115 23.5696 2.5951 -34.9809 5.9753
# 2 33.8115 89.8552 13.3017 27.2255 -1.6005 -10.9623
# 3 23.5696 13.3017 62.4647 3.5075 -15.4070 6.4705
# 4 2.5951 27.2255 3.5075 20.2289 -2.5309 -1.8940
# 5 -34.9809 -1.6005 -15.4070 -2.5309 45.1005 -3.6394
# 6 5.9753 -10.9623 6.4705 -1.8940 -3.6394 58.3723
#
#
#
# Elastic Compliance Matrix: (Units=1/GPa)
#
#
# Indices 1 2 3 4 5 6 
#
# 1 0.010749 -0.006464 -0.000999 0.008377 0.008121 -0.001425
# 2 -0.006464 0.023809 -0.002925 -0.031154 -0.006591 0.004035
# 3 -0.000999 -0.002925 0.018469 0.001332 0.005335 -0.002119
# 4 0.008377 -0.031154 0.001332 0.091093 0.010698 -0.003233
# 5 0.008121 -0.006591 0.005335 0.010698 0.030628 -0.000404
# 6 -0.001425 0.004035 -0.002119 -0.003233 -0.000404 0.018140
#
#
# Mechanical properties :
#
#
# Convention : Reuss Voigt Hill
#
# Bulk Modulus (GPa) = 31.00737 48.27162 39.63949
# Shear Modulus (GPa) = 22.28017 39.56672 30.92345
#
# Velocity S-wave (km/s) = 2.95339 3.93574 3.47940
# Velocity P-wave (km/s) = 4.87536 6.28898 5.62674
#
# Compressibility (1/GPa) = 0.03225040
#
# Stress axis : x y z
#
# Youngs Moduli (GPa) = 93.03445 42.00135 54.14390
#
# Poissons Ratio (x) = 0.27150 0.05408
# Poissons Ratio (y) = 0.60138 0.15838
# Poissons Ratio (z) = 0.09293 0.12286
#
# Static dielectric constant tensor:
#      x y z
#    x 2.001990 0.063280 0.023310 
#    y 0.063280 2.008770 -0.059070 
#    z 0.023310 -0.059070 2.087810 
# 
# From -- ./inp_files/468064.got.cif
#   From: 2010.05.17/outbox.cif.g08.bks.cpg/sg2_235_cif.got.tgz:468064.got - 2010.06.03 11:33:40.
