data_PCOD9079797
_publ_section_title
;
Structure prediction by ZEFSAII (Michael W. Deem and Ramdas Pophale) SiO2 
 PCOD9079797
Probable space group: P -1
;
_chemical_formula_sum "Si O2"
_cell_formula_units_Z 14
_cell_length_a 8.156290
_cell_length_b 14.992942
_cell_length_c 7.843154
_cell_angle_alpha 115.830939
_cell_angle_beta 92.569209
_cell_angle_gamma 127.543907
_cell_volume 616.380233
_symmetry_space_group_name_H-M "P -1"
_symmetry_group_IT_number 2
_symmetry_cell_setting 'triclinic'
loop_
_space_group_symop_operation_xyz
x,y,z
-x,-y,-z
loop_
_atom_site_type_symbol
_atom_site_label
_atom_site_fract_x
_atom_site_fract_y
_atom_site_fract_z
Si Si1 0.820122 0.165086 0.460143
Si Si2 0.842595 0.708681 0.691474
Si Si3 0.664230 0.422008 0.496599
Si Si4 0.660563 0.895624 0.236686
Si Si5 0.770905 0.357525 0.790695
Si Si6 0.462113 0.834685 0.804041
Si Si7 0.057164 0.956929 0.131459
O O1 0.829255 0.270738 0.652993
O O2 0.685756 0.140528 0.260462
O O3 0.055047 0.226736 0.436918
O O4 0.715421 0.025377 0.432618
O O5 0.823191 0.582477 0.601575
O O6 0.589438 0.649093 0.628988
O O7 0.982640 0.817114 0.944261
O O8 0.694181 0.399466 0.672384
O O9 0.691943 0.329282 0.325749
O O10 0.450218 0.749959 0.189658
O O11 0.888516 0.925309 0.243891
O O12 0.575692 0.891067 0.039678
O O13 0.000000 0.500000 0.000000
O O14 0.669323 0.913692 0.739108
O O15 0.000000 0.000000 0.000000
#
# Coordination Sequence:
#
# PCOD9079797 Si02
#       7
#     2   2   2   2   2   2   2
#     4  11  23  39  66  94 123 163 211 256 309 360
#     4  11  21  39  68  93 121 159 217 263 295 362
#     4  10  23  41  62  92 124 166 211 252 310 362
#     4  11  21  41  64  91 129 160 199 258 313 372
#     4  11  28  43  59  89 136 169 201 247 319 380
#     4  10  20  37  67  97 121 154 214 262 305 355
#     4  10  18  37  65  95 119 154 208 263 300 358
#
# _framework density 22.713253000000002
#
# number of rings (size 3 to 8) (size 9 to 14) (size 15 to 20)
#    0.000    1.429    5.714    0.857    4.000    1.143 
#    0.000   10.714    0.000    0.000    0.000    0.000 
#    0.000    0.000    0.000    0.000    0.000    0.000 
#
# Total GULP energy -78152.281559 kJ/mol
# GULP energy per Si atom -5582.305826 kJ/mol
# Density = 2.266156 g / cm^3
# Si number density = 22.713253 Si / 1000 Ang^3
#
#
#
# Elastic Constant Matrix: (Units=GPa)
#
#
# Indices 1 2 3 4 5 6 
#
# 1 51.6033 12.0749 14.1722 9.7566 -15.4534 3.6609
# 2 12.0749 99.1584 34.4057 31.1310 -12.0948 0.1119
# 3 14.1722 34.4057 86.4889 23.9484 -11.4708 -9.8197
# 4 9.7566 31.1310 23.9484 39.3819 -7.5089 -10.5641
# 5 -15.4534 -12.0948 -11.4708 -7.5089 25.7157 -0.4575
# 6 3.6609 0.1119 -9.8197 -10.5641 -0.4575 33.1052
#
#
#
# Elastic Compliance Matrix: (Units=1/GPa)
#
#
# Indices 1 2 3 4 5 6 
#
# 1 0.024763 0.000525 -0.001911 -0.004099 0.013000 -0.004435
# 2 0.000525 0.014763 -0.003185 -0.010524 0.002687 -0.004374
# 3 -0.001911 -0.003185 0.015226 -0.004874 0.002780 0.003222
# 4 -0.004099 -0.010524 -0.004874 0.041525 0.002757 0.012332
# 5 0.013000 0.002687 0.002780 0.002757 0.050025 0.000949
# 6 -0.004435 -0.004374 0.003222 0.012332 0.000949 0.035616
#
#
# Mechanical properties :
#
#
# Convention : Reuss Voigt Hill
#
# Bulk Modulus (GPa) = 21.92472 39.83960 30.88216
# Shear Modulus (GPa) = 24.24094 31.41375 27.82734
#
# Velocity S-wave (km/s) = 3.27044 3.72298 3.50402
# Velocity P-wave (km/s) = 4.89232 6.00493 5.47695
#
# Compressibility (1/GPa) = 0.04561061
#
# Stress axis : x y z
#
# Youngs Moduli (GPa) = 40.38254 67.73789 65.67580
#
# Poissons Ratio (x) = -0.03557 0.12551
# Poissons Ratio (y) = -0.02121 0.20917
# Poissons Ratio (z) = 0.07718 0.21574
#
# Static dielectric constant tensor:
#      x y z
#    x 1.857820 0.039160 -0.015260 
#    y 0.039160 1.856120 0.023760 
#    z -0.015260 0.023760 1.905510 
# 
# From -- ./inp_files/154754.got.cif
#   From: 2010.05.17/outbox.cif.g08.bks.cpg/sg2_78_cif.got.tgz:154754.got - 2010.06.03 11:33:40.
