data_PCOD9079820
_publ_section_title
;
Structure prediction by ZEFSAII (Michael W. Deem and Ramdas Pophale) SiO2 
 PCOD9079820
Probable space group: P -1
;
_chemical_formula_sum "Si O2"
_cell_formula_units_Z 12
_cell_length_a 15.522017
_cell_length_b 13.768532
_cell_length_c 11.603811
_cell_angle_alpha 148.962790
_cell_angle_beta 26.529148
_cell_angle_gamma 153.521512
_cell_volume 473.951133
_symmetry_space_group_name_H-M "P -1"
_symmetry_group_IT_number 2
_symmetry_cell_setting 'triclinic'
loop_
_space_group_symop_operation_xyz
x,y,z
-x,-y,-z
loop_
_atom_site_type_symbol
_atom_site_label
_atom_site_fract_x
_atom_site_fract_y
_atom_site_fract_z
Si Si1 0.585633 0.346494 0.194403
Si Si2 0.428987 0.588467 0.987636
Si Si3 0.672142 0.885147 0.414579
Si Si4 0.744434 0.157983 0.987856
Si Si5 0.759912 0.198240 0.428334
Si Si6 0.074286 0.929263 0.110562
O O1 0.500000 0.500000 0.500000
O O2 0.644408 0.403324 0.047502
O O3 0.769809 0.336079 0.044243
O O4 0.370353 0.083376 0.182077
O O5 0.416970 0.358243 0.781832
O O6 0.690818 0.815450 0.914727
O O7 0.264207 0.605245 0.293236
O O8 0.451091 0.870077 0.717291
O O9 0.854902 0.932786 0.342617
O O10 0.804193 0.084849 0.367329
O O11 0.939449 0.178958 0.859446
O O12 0.500000 0.000000 0.500000
O O13 0.904301 0.216111 0.163354
#
# Coordination Sequence:
#
# PCOD9079820 Si02
#       6
#     2   2   2   2   2   2
#     4  10  18  37  66  83 119 165 192 246 308 340
#     4  10  22  40  63  90 120 160 202 243 303 355
#     4  12  21  40  65  88 123 161 196 246 306 353
#     4  10  21  39  61  88 125 153 198 257 288 353
#     4  10  20  41  61  88 127 154 198 254 291 355
#     4  10  23  42  60  92 123 157 202 246 299 358
#
# _framework density 25.319065999999999
#
# number of rings (size 3 to 8) (size 9 to 14) (size 15 to 20)
#    0.000    1.667    6.667    0.500    0.000    3.333 
#    3.000    8.333    0.000    0.000    0.000    0.000 
#    0.000    0.000    0.000    0.000    0.000    0.000 
#
# Total GULP energy -67213.949700 kJ/mol
# GULP energy per Si atom -5601.162475 kJ/mol
# Density = 2.526144 g / cm^3
# Si number density = 25.319066 Si / 1000 Ang^3
#
#
#
# Elastic Constant Matrix: (Units=GPa)
#
#
# Indices 1 2 3 4 5 6 
#
# 1 130.8283 14.1837 30.8953 7.5886 -15.8015 23.1294
# 2 14.1837 114.3006 43.4210 23.8747 -3.5155 -8.4813
# 3 30.8953 43.4210 134.1836 38.6171 4.5788 6.4941
# 4 7.5886 23.8747 38.6171 48.1392 1.5818 -9.9554
# 5 -15.8015 -3.5155 4.5788 1.5818 47.5578 -1.4689
# 6 23.1294 -8.4813 6.4941 -9.9554 -1.4689 23.7442
#
#
#
# Elastic Compliance Matrix: (Units=1/GPa)
#
#
# Indices 1 2 3 4 5 6 
#
# 1 0.010548 -0.001159 -0.000749 -0.002979 0.003234 -0.011533
# 2 -0.001159 0.010809 -0.003015 -0.001725 0.000921 0.005148
# 3 -0.000749 -0.003015 0.011682 -0.009264 -0.001521 -0.007521
# 4 -0.002979 -0.001725 -0.009264 0.033441 -0.000757 0.018794
# 5 0.003234 0.000921 -0.001521 -0.000757 0.022300 -0.001344
# 6 -0.011533 0.005148 -0.007521 0.018794 -0.001344 0.065042
#
#
# Mechanical properties :
#
#
# Convention : Reuss Voigt Hill
#
# Bulk Modulus (GPa) = 43.11279 61.81250 52.46264
# Shear Modulus (GPa) = 29.17176 43.27572 36.22374
#
# Velocity S-wave (km/s) = 3.39804 4.13875 3.78655
# Velocity P-wave (km/s) = 5.69740 6.87789 6.31529
#
# Compressibility (1/GPa) = 0.02319498
#
# Stress axis : x y z
#
# Youngs Moduli (GPa) = 94.80081 92.51928 85.59919
#
# Poissons Ratio (x) = 0.10720 0.06408
# Poissons Ratio (y) = 0.10984 0.25807
# Poissons Ratio (z) = 0.07097 0.27894
#
# Static dielectric constant tensor:
#      x y z
#    x 2.077010 -0.042360 0.043110 
#    y -0.042360 2.146570 -0.051390 
#    z 0.043110 -0.051390 1.967570 
# 
# From -- ./inp_files/312673.got.cif
#   From: 2010.05.17/outbox.cif.g08.bks.cpg/sg2_157_cif.got.tgz:312673.got - 2010.06.03 11:33:40.
