data_PCOD9079023
_publ_section_title
;
Structure prediction by ZEFSAII (Michael W. Deem and Ramdas Pophale) SiO2 
 PCOD9079023
Probable space group: P -1
;
_chemical_formula_sum "Si O2"
_cell_formula_units_Z 12
_cell_length_a 13.308691
_cell_length_b 7.063948
_cell_length_c 8.626069
_cell_angle_alpha 131.163890
_cell_angle_beta 52.043020
_cell_angle_gamma 122.446887
_cell_volume 469.378231
_symmetry_space_group_name_H-M "P -1"
_symmetry_group_IT_number 2
_symmetry_cell_setting 'triclinic'
loop_
_space_group_symop_operation_xyz
x,y,z
-x,-y,-z
loop_
_atom_site_type_symbol
_atom_site_label
_atom_site_fract_x
_atom_site_fract_y
_atom_site_fract_z
Si Si1 0.991936 0.962166 0.669343
Si Si2 0.221967 0.859457 0.572688
Si Si3 0.250528 0.931888 0.929601
Si Si4 0.571710 0.660321 0.664671
Si Si5 0.209384 0.388850 0.758897
Si Si6 0.459239 0.802517 0.138825
O O1 0.092264 0.801518 0.557699
O O2 0.057997 0.250247 0.825566
O O3 0.000000 0.000000 0.500000
O O4 0.844437 0.889794 0.827695
O O5 0.264231 0.176869 0.692237
O O6 0.196308 0.817484 0.754501
O O7 0.337278 0.732990 0.332607
O O8 0.239413 0.690053 0.928391
O O9 0.401470 0.071926 0.848016
O O10 0.500000 0.500000 0.500000
O O11 0.718481 0.627228 0.483787
O O12 0.580381 0.960671 0.787339
O O13 0.494999 0.608408 0.871689
#
# Coordination Sequence:
#
# PCOD9079023 Si02
#       6
#     2   2   2   2   2   2
#     4  10  22  39  61  86 125 165 204 252 309 363
#     4   9  23  39  60  92 126 156 208 256 305 362
#     4  12  20  39  67  86 122 167 203 255 308 364
#     4  10  18  36  61  90 124 161 203 253 305 363
#     4   9  21  36  61  88 118 159 208 244 308 359
#     4  10  21  35  64  91 123 163 205 252 310 361
#
# _framework density 25.565736999999999
#
# number of rings (size 3 to 8) (size 9 to 14) (size 15 to 20)
#    1.000    1.000    1.667    2.500    2.333    0.000 
#    0.000    1.667   11.000    0.000    0.000    0.000 
#    0.000    0.000    0.000    0.000    0.000    0.000 
#
# Total GULP energy -66918.439718 kJ/mol
# GULP energy per Si atom -5576.536643 kJ/mol
# Density = 2.550755 g / cm^3
# Si number density = 25.565737 Si / 1000 Ang^3
#
#
#
# Elastic Constant Matrix: (Units=GPa)
#
#
# Indices 1 2 3 4 5 6 
#
# 1 118.2021 17.3956 50.1955 -1.4355 -23.2879 -1.9377
# 2 17.3956 74.2939 2.0533 7.3378 -11.1020 -1.8444
# 3 50.1955 2.0533 117.2060 -25.0427 -19.9278 -0.0104
# 4 -1.4355 7.3378 -25.0427 32.4874 7.1060 -5.0101
# 5 -23.2879 -11.1020 -19.9278 7.1060 51.0974 -2.9147
# 6 -1.9377 -1.8444 -0.0104 -5.0101 -2.9147 31.0543
#
#
#
# Elastic Compliance Matrix: (Units=1/GPa)
#
#
# Indices 1 2 3 4 5 6 
#
# 1 0.011516 -0.001662 -0.005124 -0.003765 0.003432 0.000333
# 2 -0.001662 0.014696 0.000144 -0.003884 0.003056 0.000429
# 3 -0.005124 0.000144 0.013052 0.009685 0.001519 0.001398
# 4 -0.003765 -0.003884 0.009685 0.040742 -0.004122 0.005724
# 5 0.003432 0.003056 0.001519 -0.004122 0.023072 0.001897
# 6 0.000333 0.000429 0.001398 0.005724 0.001897 0.033350
#
#
# Mechanical properties :
#
#
# Convention : Reuss Voigt Hill
#
# Bulk Modulus (GPa) = 38.48983 49.88785 44.18884
# Shear Modulus (GPa) = 31.57116 38.93167 35.25142
#
# Velocity S-wave (km/s) = 3.51793 3.90655 3.71732
# Velocity P-wave (km/s) = 5.62041 6.31697 5.97884
#
# Compressibility (1/GPa) = 0.02598089
#
# Stress axis : x y z
#
# Youngs Moduli (GPa) = 86.83243 68.04463 76.61888
#
# Poissons Ratio (x) = 0.11309 0.39258
# Poissons Ratio (y) = 0.14431 -0.01105
# Poissons Ratio (z) = 0.44492 -0.00981
#
# Static dielectric constant tensor:
#      x y z
#    x 2.015980 0.008160 0.010430 
#    y 0.008160 2.085310 -0.012600 
#    z 0.010430 -0.012600 2.043440 
# 
# From -- ./inp_files/203855.got.cif
#   From: 2010.05.17/outbox.cif.g08.bks.cpg/sg2_102_cif.got.tgz:203855.got - 2010.06.03 11:33:40.
