data_PCOD9079581
_publ_section_title
;
Structure prediction by ZEFSAII (Michael W. Deem and Ramdas Pophale) SiO2 
 PCOD9079581
Probable space group: P -1
;
_chemical_formula_sum "Si O2"
_cell_formula_units_Z 14
_cell_length_a 6.965510
_cell_length_b 9.285594
_cell_length_c 14.730749
_cell_angle_alpha 137.004591
_cell_angle_beta 96.740868
_cell_angle_gamma 104.697471
_cell_volume 558.267601
_symmetry_space_group_name_H-M "P -1"
_symmetry_group_IT_number 2
_symmetry_cell_setting 'triclinic'
loop_
_space_group_symop_operation_xyz
x,y,z
-x,-y,-z
loop_
_atom_site_type_symbol
_atom_site_label
_atom_site_fract_x
_atom_site_fract_y
_atom_site_fract_z
Si Si1 0.742382 0.910354 0.966493
Si Si2 0.987806 0.898817 0.351718
Si Si3 0.981762 0.330853 0.504179
Si Si4 0.192024 0.377362 0.028393
Si Si5 0.714017 0.124582 0.784345
Si Si6 0.060339 0.552636 0.790800
Si Si7 0.476300 0.644208 0.651095
O O1 0.694237 0.772116 0.996631
O O2 0.626498 0.750520 0.797679
O O3 0.749285 0.170204 0.091794
O O4 0.000000 0.000000 0.000000
O O5 0.891370 0.044771 0.357009
O O6 0.852436 0.609002 0.227382
O O7 0.000000 0.000000 0.500000
O O8 0.221495 0.946727 0.342033
O O9 0.914490 0.413235 0.629648
O O10 0.244620 0.445981 0.589901
O O11 0.000000 0.500000 0.500000
O O12 0.320147 0.641995 0.110453
O O13 0.111880 0.444494 0.147171
O O14 0.955699 0.213631 0.887941
O O15 0.518815 0.891925 0.716855
O O16 0.500000 0.500000 0.500000
#
# Coordination Sequence:
#
# PCOD9079581 Si02
#       7
#     2   2   2   2   2   2   2
#     4  10  20  38  64  93 119 158 209 252 309 363
#     4   9  19  37  58  88 120 165 199 250 312 367
#     4  11  25  38  60  91 128 167 202 254 314 362
#     4   9  19  34  66  91 119 158 206 254 306 362
#     4  10  18  37  61  92 121 159 206 254 303 369
#     4   9  19  37  61  85 119 163 208 244 306 368
#     4  12  24  39  62  94 128 160 208 258 305 368
#
# _framework density 25.077579
#
# number of rings (size 3 to 8) (size 9 to 14) (size 15 to 20)
#    0.000    2.000    4.286    0.000    6.000    0.571 
#    0.000    5.000    0.000    1.714    0.000    0.000 
#    0.000    0.000    0.000    0.000    0.000    0.000 
#
# Total GULP energy -77983.279602 kJ/mol
# GULP energy per Si atom -5570.234257 kJ/mol
# Density = 2.502050 g / cm^3
# Si number density = 25.077579 Si / 1000 Ang^3
#
#
#
# Elastic Constant Matrix: (Units=GPa)
#
#
# Indices 1 2 3 4 5 6 
#
# 1 14.2209 13.5040 15.7725 4.3638 -5.0913 -4.1579
# 2 13.5040 172.4484 45.6222 39.1818 -12.2834 -42.4726
# 3 15.7725 45.6222 71.6298 12.6908 -22.3843 -31.2239
# 4 4.3638 39.1818 12.6908 59.0791 1.0747 -20.3575
# 5 -5.0913 -12.2834 -22.3843 1.0747 24.4082 3.1567
# 6 -4.1579 -42.4726 -31.2239 -20.3575 3.1567 47.7377
#
#
#
# Elastic Compliance Matrix: (Units=1/GPa)
#
#
# Indices 1 2 3 4 5 6 
#
# 1 0.097723 -0.003411 -0.024638 -0.003797 -0.002194 -0.012113
# 2 -0.003411 0.008539 -0.001428 -0.003499 0.001815 0.004754
# 3 -0.024638 -0.001428 0.036154 0.001121 0.024783 0.019070
# 4 -0.003797 -0.003499 0.001121 0.021675 -0.003353 0.006754
# 5 -0.002194 0.001815 0.024783 -0.003353 0.062742 0.012055
# 6 -0.012113 0.004754 0.019070 0.006754 0.012055 0.038678
#
#
# Mechanical properties :
#
#
# Convention : Reuss Voigt Hill
#
# Bulk Modulus (GPa) = 11.98167 45.34405 28.66286
# Shear Modulus (GPa) = 14.19300 38.47169 26.33235
#
# Velocity S-wave (km/s) = 2.38158 3.92102 3.24394
# Velocity P-wave (km/s) = 3.51437 6.21449 5.04830
#
# Compressibility (1/GPa) = 0.08346081
#
# Stress axis : x y z
#
# Youngs Moduli (GPa) = 10.23305 117.11074 27.65932
#
# Poissons Ratio (x) = 0.39946 0.68148
# Poissons Ratio (y) = 0.03490 0.03950
# Poissons Ratio (z) = 0.25213 0.16725
#
# Static dielectric constant tensor:
#      x y z
#    x 1.186040 1.033140 -1.582800 
#    y 1.033140 0.716570 1.754320 
#    z -1.582800 1.754320 0.139230 
# 
# From -- ./inp_files/495738.got.cif
#   From: 2010.05.17/outbox.cif.g08.bks.cpg/sg2_248_cif.got.tgz:495738.got - 2010.06.03 11:33:40.
