data_PCOD9079404
_publ_section_title
;
Structure prediction by ZEFSAII (Michael W. Deem and Ramdas Pophale) SiO2 
 PCOD9079404
Probable space group: P -1
;
_chemical_formula_sum "Si O2"
_cell_formula_units_Z 14
_cell_length_a 11.998195
_cell_length_b 20.862674
_cell_length_c 12.901741
_cell_angle_alpha 21.804563
_cell_angle_beta 30.729736
_cell_angle_gamma 29.358345
_cell_volume 565.166190
_symmetry_space_group_name_H-M "P -1"
_symmetry_group_IT_number 2
_symmetry_cell_setting 'triclinic'
loop_
_space_group_symop_operation_xyz
x,y,z
-x,-y,-z
loop_
_atom_site_type_symbol
_atom_site_label
_atom_site_fract_x
_atom_site_fract_y
_atom_site_fract_z
Si Si1 0.858721 0.621428 0.526128
Si Si2 0.234702 0.724183 0.167675
Si Si3 0.840885 0.699754 0.920962
Si Si4 0.323674 0.548004 0.898749
Si Si5 0.192951 0.672027 0.511302
Si Si6 0.080626 0.044983 0.093864
Si Si7 0.780705 0.084797 0.470095
O O1 0.690120 0.558815 0.824277
O O2 0.000000 0.500000 0.500000
O O3 0.065166 0.612336 0.454355
O O4 0.769634 0.833155 0.238196
O O5 0.228430 0.751103 0.253640
O O6 0.483710 0.594860 0.115491
O O7 0.107813 0.907490 0.923119
O O8 0.935929 0.705100 0.719427
O O9 0.715721 0.911315 0.744861
O O10 0.711247 0.553097 0.242002
O O11 0.075723 0.616732 0.930913
O O12 0.380009 0.725363 0.626874
O O13 0.236306 0.826883 0.317061
O O14 0.906630 0.132588 0.197515
O O15 0.000000 0.000000 0.500000
#
# Coordination Sequence:
#
# PCOD9079404 Si02
#       7
#     2   2   2   2   2   2   2
#     4  10  20  35  57  81 111 144 176 224 283 326
#     4  10  22  33  59  84 115 140 181 231 274 328
#     4   9  19  34  61  77 109 156 183 223 269 326
#     4  11  19  37  57  86 112 142 182 230 279 320
#     4  10  18  37  56  81 112 149 189 219 271 325
#     4   9  19  34  55  82 109 146 179 229 270 327
#     4   9  18  32  57  80 106 144 187 221 274 325
#
# _framework density 24.771474999999999
#
# number of rings (size 3 to 8) (size 9 to 14) (size 15 to 20)
#    0.857    1.429    2.857    0.429    0.000    2.857 
#    0.000    3.571    0.000    6.857    0.000    0.000 
#    0.000    0.000    0.000    0.000    0.000    0.000 
#
# Total GULP energy -77942.933296 kJ/mol
# GULP energy per Si atom -5567.352378 kJ/mol
# Density = 2.471509 g / cm^3
# Si number density = 24.771475 Si / 1000 Ang^3
#
#
#
# Elastic Constant Matrix: (Units=GPa)
#
#
# Indices 1 2 3 4 5 6 
#
# 1 69.8939 32.4515 20.4929 -1.2012 5.4609 11.3319
# 2 32.4515 129.5755 49.7306 -28.2774 7.3548 17.9605
# 3 20.4929 49.7306 154.5176 -12.5808 -8.1319 11.0271
# 4 -1.2012 -28.2774 -12.5808 34.5614 19.4842 -2.1898
# 5 5.4609 7.3548 -8.1319 19.4842 44.8753 2.1083
# 6 11.3319 17.9605 11.0271 -2.1898 2.1083 40.0470
#
#
#
# Elastic Compliance Matrix: (Units=1/GPa)
#
#
# Indices 1 2 3 4 5 6 
#
# 1 0.016951 -0.004251 -0.000956 -0.003472 0.000101 -0.002822
# 2 -0.004251 0.014138 -0.003004 0.015063 -0.008742 -0.003027
# 3 -0.000956 -0.003004 0.007652 -0.001182 0.002541 -0.000688
# 4 -0.003472 0.015063 -0.001182 0.055465 -0.026294 -0.001030
# 5 0.000101 -0.008742 0.002541 -0.026294 0.035587 -0.000119
# 6 -0.002822 -0.003027 -0.000688 -0.001030 -0.000119 0.027266
#
#
# Mechanical properties :
#
#
# Convention : Reuss Voigt Hill
#
# Bulk Modulus (GPa) = 44.80427 62.14857 53.47642
# Shear Modulus (GPa) = 27.63639 40.65089 34.14364
#
# Velocity S-wave (km/s) = 3.34376 4.05537 3.71663
# Velocity P-wave (km/s) = 5.74752 6.86085 6.32871
#
# Compressibility (1/GPa) = 0.02231930
#
# Stress axis : x y z
#
# Youngs Moduli (GPa) = 58.99241 70.73172 130.68502
#
# Poissons Ratio (x) = 0.30066 0.12495
# Poissons Ratio (y) = 0.25076 0.39259
# Poissons Ratio (z) = 0.05640 0.21249
#
# Static dielectric constant tensor:
#      x y z
#    x 1.923050 -0.140830 -0.032650 
#    y -0.140830 1.635590 -0.120680 
#    z -0.032650 -0.120680 1.991900 
# 
# From -- ./inp_files/535357.got.cif
#   From: 2010.05.17/outbox.cif.g08.bks.cpg/sg2_268_cif.got.tgz:535357.got - 2010.06.03 11:33:40.
