data_PCOD9079417
_publ_section_title
;
Structure prediction by ZEFSAII (Michael W. Deem and Ramdas Pophale) SiO2 
 PCOD9079417
Probable space group: P -1
;
_chemical_formula_sum "Si O2"
_cell_formula_units_Z 14
_cell_length_a 8.484785
_cell_length_b 8.383969
_cell_length_c 11.199516
_cell_angle_alpha 131.827915
_cell_angle_beta 78.218517
_cell_angle_gamma 104.604541
_cell_volume 573.756171
_symmetry_space_group_name_H-M "P -1"
_symmetry_group_IT_number 2
_symmetry_cell_setting 'triclinic'
loop_
_space_group_symop_operation_xyz
x,y,z
-x,-y,-z
loop_
_atom_site_type_symbol
_atom_site_label
_atom_site_fract_x
_atom_site_fract_y
_atom_site_fract_z
Si Si1 0.454400 0.197750 0.765081
Si Si2 0.054389 0.601553 0.280061
Si Si3 0.218151 0.186947 0.997161
Si Si4 0.227925 0.819227 0.149693
Si Si5 0.394404 0.262035 0.258776
Si Si6 0.224601 0.718359 0.820953
Si Si7 0.362290 0.714986 0.449453
O O1 0.304935 0.248690 0.889264
O O2 0.614923 0.253681 0.848732
O O3 0.502852 0.304048 0.683852
O O4 0.418093 0.940846 0.616962
O O5 0.079831 0.740791 0.223951
O O6 0.188178 0.712374 0.409607
O O7 0.873781 0.518443 0.314049
O O8 0.105679 0.366325 0.126730
O O9 0.157535 0.927777 0.878219
O O10 0.341051 0.217417 0.106149
O O11 0.280831 0.077183 0.257761
O O12 0.210909 0.734541 0.975377
O O13 0.585164 0.248916 0.226326
O O14 0.357886 0.498016 0.415837
#
# Coordination Sequence:
#
# PCOD9079417 Si02
#       7
#     2   2   2   2   2   2   2
#     4  10  18  37  57  80 103 139 196 215 253 315
#     4  10  22  34  57  79 115 140 177 213 281 312
#     4  10  19  35  58  79 104 147 183 219 256 325
#     4  10  19  34  56  83 104 139 178 227 259 317
#     4  10  19  35  58  82 106 136 186 221 270 305
#     4  11  19  35  53  87 112 134 171 235 269 314
#     4   9  22  35  57  77 108 146 179 222 259 323
#
# _framework density 24.40061
#
# number of rings (size 3 to 8) (size 9 to 14) (size 15 to 20)
#    0.000    2.000    2.857    1.714    2.000    2.286 
#    0.000    0.714    3.143    2.571    0.000    0.000 
#    0.000    0.000    0.000    0.000    0.000    0.000 
#
# Total GULP energy -78292.551479 kJ/mol
# GULP energy per Si atom -5592.325106 kJ/mol
# Density = 2.434507 g / cm^3
# Si number density = 24.400610 Si / 1000 Ang^3
#
#
#
# Elastic Constant Matrix: (Units=GPa)
#
#
# Indices 1 2 3 4 5 6 
#
# 1 42.1825 33.3215 14.7463 -2.3331 15.3737 16.7158
# 2 33.3215 165.4270 38.3678 18.8369 6.8393 26.2632
# 3 14.7463 38.3678 55.9597 -2.9878 15.3981 9.0797
# 4 -2.3331 18.8369 -2.9878 32.3259 2.8840 10.2583
# 5 15.3737 6.8393 15.3981 2.8840 19.0484 7.2865
# 6 16.7158 26.2632 9.0797 10.2583 7.2865 31.7933
#
#
#
# Elastic Compliance Matrix: (Units=1/GPa)
#
#
# Indices 1 2 3 4 5 6 
#
# 1 0.052314 -0.010187 0.008718 0.020110 -0.041563 -0.018543
# 2 -0.010187 0.010699 -0.008476 -0.008501 0.013017 -0.001302
# 3 0.008718 -0.008476 0.030658 0.012138 -0.029256 -0.003549
# 4 0.020110 -0.008501 0.012138 0.045765 -0.023661 -0.016361
# 5 -0.041563 0.013017 -0.029256 -0.023661 0.107679 0.002411
# 6 -0.018543 -0.001302 -0.003549 -0.016361 0.002411 0.048018
#
#
# Mechanical properties :
#
#
# Convention : Reuss Voigt Hill
#
# Bulk Modulus (GPa) = 13.55349 48.49338 31.02344
# Shear Modulus (GPa) = 14.72248 28.44244 21.58246
#
# Velocity S-wave (km/s) = 2.45901 3.41786 2.97729
# Velocity P-wave (km/s) = 3.69174 5.95757 4.95589
#
# Compressibility (1/GPa) = 0.07378171
#
# Stress axis : x y z
#
# Youngs Moduli (GPa) = 19.11521 93.46406 32.61797
#
# Poissons Ratio (x) = 0.95214 -0.28436
# Poissons Ratio (y) = 0.19473 0.27646
# Poissons Ratio (z) = -0.16665 0.79218
#
# Static dielectric constant tensor:
#      x y z
#    x 1.978870 0.019660 0.002380 
#    y 0.019660 1.972900 0.002860 
#    z 0.002380 0.002860 1.937290 
# 
# From -- ./inp_files/157462.got.cif
#   From: 2010.05.17/outbox.cif.g08.bks.cpg/sg2_79_cif.got.tgz:157462.got - 2010.06.03 11:33:40.
