data_PCOD9079335
_publ_section_title
;
Structure prediction by ZEFSAII (Michael W. Deem and Ramdas Pophale) SiO2 
 PCOD9079335
Probable space group: P -1
;
_chemical_formula_sum "Si O2"
_cell_formula_units_Z 16
_cell_length_a 9.390836
_cell_length_b 15.564382
_cell_length_c 19.156709
_cell_angle_alpha 151.521024
_cell_angle_beta 29.884313
_cell_angle_gamma 145.627523
_cell_volume 641.211141
_symmetry_space_group_name_H-M "P -1"
_symmetry_group_IT_number 2
_symmetry_cell_setting 'triclinic'
loop_
_space_group_symop_operation_xyz
x,y,z
-x,-y,-z
loop_
_atom_site_type_symbol
_atom_site_label
_atom_site_fract_x
_atom_site_fract_y
_atom_site_fract_z
Si Si1 0.400852 0.151521 0.721204
Si Si2 0.147935 0.219359 0.598862
Si Si3 0.422303 0.065176 0.002606
Si Si4 0.895460 0.721405 0.935848
Si Si5 0.056121 0.257540 0.373894
Si Si6 0.635173 0.294652 0.954492
Si Si7 0.503536 0.649519 0.322681
Si Si8 0.072182 0.334277 0.572409
O O1 0.394475 0.212732 0.687859
O O2 0.748761 0.185229 0.612885
O O3 0.185813 0.945319 0.673178
O O4 0.281820 0.283061 0.918890
O O5 0.892991 0.309772 0.800026
O O6 0.260380 0.306895 0.539151
O O7 0.395168 0.263249 0.583756
O O8 0.000000 0.000000 0.500000
O O9 0.287080 0.239583 0.204565
O O10 0.655130 0.144828 0.899167
O O11 0.500000 0.000000 0.000000
O O12 0.176996 0.897432 0.951990
O O13 0.997983 0.533910 0.746887
O O14 0.674665 0.752409 0.990710
O O15 0.853903 0.400733 0.559912
O O16 0.196955 0.287019 0.412102
O O17 0.647053 0.485137 0.124688
#
# Coordination Sequence:
#
# PCOD9079335 Si02
#       8
#     2   2   2   2   2   2   2   2
#     4  10  18  36  67  95 133 163 209 253 332 390
#     4  12  26  38  67 106 140 161 209 278 329 382
#     4  11  29  46  68  89 130 180 222 264 320 386
#     4  11  22  43  68  93 125 175 220 266 319 391
#     4  10  22  43  68  93 131 178 214 254 322 397
#     4  12  25  46  65  96 134 174 219 263 325 390
#     4  11  23  40  68 102 131 171 211 271 327 384
#     4  11  20  39  67 100 128 162 213 271 330 374
#
# _framework density 24.952777999999999
#
# number of rings (size 3 to 8) (size 9 to 14) (size 15 to 20)
#    0.000    1.000    3.750    4.875    8.750    0.500 
#    0.000    0.625    0.000    0.000    0.000    0.000 
#    0.000    0.000    0.000    0.000    0.000    0.000 
#
# Total GULP energy -89587.893308 kJ/mol
# GULP energy per Si atom -5599.243332 kJ/mol
# Density = 2.489598 g / cm^3
# Si number density = 24.952778 Si / 1000 Ang^3
#
#
#
# Elastic Constant Matrix: (Units=GPa)
#
#
# Indices 1 2 3 4 5 6 
#
# 1 157.9790 6.0648 7.3901 9.5530 21.1053 -10.2567
# 2 6.0648 25.6998 5.6908 -8.9923 6.4363 -8.3356
# 3 7.3901 5.6908 107.4865 9.9530 22.8383 -2.4679
# 4 9.5530 -8.9923 9.9530 19.1414 -1.5481 -1.9027
# 5 21.1053 6.4363 22.8383 -1.5481 43.0898 3.3002
# 6 -10.2567 -8.3356 -2.4679 -1.9027 3.3002 21.1215
#
#
#
# Elastic Compliance Matrix: (Units=1/GPa)
#
#
# Indices 1 2 3 4 5 6 
#
# 1 0.007452 -0.001547 0.001049 -0.005013 -0.004413 0.003368
# 2 -0.001547 0.063408 -0.004288 0.034986 -0.007334 0.028069
# 3 0.001049 -0.004288 0.011671 -0.009089 -0.006414 0.000364
# 4 -0.005013 0.034986 -0.009089 0.077861 0.003560 0.016769
# 5 -0.004413 -0.007334 -0.006414 0.003560 0.030778 -0.010275
# 6 0.003368 0.028069 0.000364 0.016769 -0.010275 0.063217
#
#
# Mechanical properties :
#
#
# Convention : Reuss Voigt Hill
#
# Bulk Modulus (GPa) = 13.70649 36.60629 25.15639
# Shear Modulus (GPa) = 17.34435 34.80518 26.07477
#
# Velocity S-wave (km/s) = 2.63931 3.73881 3.23610
# Velocity P-wave (km/s) = 3.84615 5.77411 4.90577
#
# Compressibility (1/GPa) = 0.07295815
#
# Stress axis : x y z
#
# Youngs Moduli (GPa) = 134.19878 15.77095 85.68186
#
# Poissons Ratio (x) = 0.02440 -0.08986
# Poissons Ratio (y) = 0.20763 0.36738
# Poissons Ratio (z) = -0.14074 0.06762
#
# Static dielectric constant tensor:
#      x y z
#    x 1.990800 -0.012840 -0.048410 
#    y -0.012840 1.971420 0.027490 
#    z -0.048410 0.027490 1.963340 
# 
# From -- ./inp_files/271815.got.cif
#   From: 2010.05.17/outbox.cif.g08.bks.cpg/sg2_136_cif.got.tgz:271815.got - 2010.06.03 11:33:40.
