data_PCOD9079686
_publ_section_title
;
Structure prediction by ZEFSAII (Michael W. Deem and Ramdas Pophale) SiO2 
 PCOD9079686
Probable space group: P -1
;
_chemical_formula_sum "Si O2"
_cell_formula_units_Z 16
_cell_length_a 8.821180
_cell_length_b 13.607282
_cell_length_c 16.605732
_cell_angle_alpha 154.938721
_cell_angle_beta 82.583485
_cell_angle_gamma 89.451454
_cell_volume 798.369290
_symmetry_space_group_name_H-M "P -1"
_symmetry_group_IT_number 2
_symmetry_cell_setting 'triclinic'
loop_
_space_group_symop_operation_xyz
x,y,z
-x,-y,-z
loop_
_atom_site_type_symbol
_atom_site_label
_atom_site_fract_x
_atom_site_fract_y
_atom_site_fract_z
Si Si1 0.838315 0.723827 0.661839
Si Si2 0.019487 0.608134 0.818856
Si Si3 0.327351 0.536600 0.631885
Si Si4 0.523806 0.556656 0.781414
Si Si5 0.157374 0.750659 0.385604
Si Si6 0.197833 0.796557 0.075220
Si Si7 0.063015 0.717283 0.188428
Si Si8 0.287994 0.073835 0.004783
O O1 0.700078 0.629490 0.561262
O O2 0.779187 0.850488 0.844818
O O3 0.000000 0.500000 0.500000
O O4 0.860782 0.930219 0.753417
O O5 0.157966 0.596145 0.736016
O O6 0.962278 0.369496 0.648359
O O7 0.863117 0.826425 0.969569
O O8 0.087880 0.654412 0.933924
O O9 0.460583 0.447625 0.626055
O O10 0.348327 0.785519 0.782074
O O11 0.669488 0.361389 0.670078
O O12 0.587253 0.780458 0.915522
O O13 0.375687 0.668852 0.934669
O O14 0.151070 0.671864 0.234720
O O15 0.087436 0.039947 0.610493
O O16 0.176552 0.777155 0.156822
O O17 0.000000 0.500000 0.000000
#
# Coordination Sequence:
#
# PCOD9079686 Si02
#       8
#     2   2   2   2   2   2   2   2
#     4  12  23  36  64  96 123 174 222 252 299 370
#     4  10  18  37  63  88 125 166 207 256 304 366
#     4  11  21  37  59  88 132 169 208 255 311 365
#     4  10  24  43  60  92 136 167 199 266 328 368
#     4  10  23  44  69  94 124 159 207 266 321 377
#     4  11  23  41  66  94 130 165 211 262 317 374
#     4  11  23  44  72  96 119 160 217 263 314 381
#     4  11  21  39  58  88 132 170 211 255 303 369
#
# _framework density 20.040851
#
# number of rings (size 3 to 8) (size 9 to 14) (size 15 to 20)
#    0.000    1.250    5.000    2.250    1.750    1.000 
#    2.250    0.625    0.000    0.000    0.000    0.000 
#    0.000    0.000    0.000    0.000    0.000    0.000 
#
# Total GULP energy -89440.677259 kJ/mol
# GULP energy per Si atom -5590.042329 kJ/mol
# Density = 1.999524 g / cm^3
# Si number density = 20.040851 Si / 1000 Ang^3
#
#
#
# Elastic Constant Matrix: (Units=GPa)
#
#
# Indices 1 2 3 4 5 6 
#
# 1 119.9818 41.0508 27.3760 7.8353 3.1477 -16.9444
# 2 41.0508 79.7774 11.7608 2.9218 -2.9154 1.6876
# 3 27.3760 11.7608 65.3213 12.3073 14.7006 -7.6455
# 4 7.8353 2.9218 12.3073 27.7790 -2.1954 -9.9743
# 5 3.1477 -2.9154 14.7006 -2.1954 16.7559 -5.0566
# 6 -16.9444 1.6876 -7.6455 -9.9743 -5.0566 28.2738
#
#
#
# Elastic Compliance Matrix: (Units=1/GPa)
#
#
# Indices 1 2 3 4 5 6 
#
# 1 0.012148 -0.005758 -0.004219 0.002073 0.003030 0.007756
# 2 -0.005758 0.016023 -0.001803 -0.000499 0.004076 -0.004342
# 3 -0.004219 -0.001803 0.024864 -0.013286 -0.024515 -0.004769
# 4 0.002073 -0.000499 -0.013286 0.050284 0.023700 0.019657
# 5 0.003030 0.004076 -0.024515 0.023700 0.090305 0.019455
# 6 0.007756 -0.004342 -0.004769 0.019657 0.019455 0.049400
#
#
# Mechanical properties :
#
#
# Convention : Reuss Voigt Hill
#
# Bulk Modulus (GPa) = 33.92785 47.27287 40.60036
# Shear Modulus (GPa) = 18.08920 26.88792 22.48856
#
# Velocity S-wave (km/s) = 3.00762 3.66684 3.35346
# Velocity P-wave (km/s) = 5.38768 6.44725 5.94113
#
# Compressibility (1/GPa) = 0.02947431
#
# Stress axis : x y z
#
# Youngs Moduli (GPa) = 82.31898 62.41143 40.21889
#
# Poissons Ratio (x) = 0.35938 0.16968
# Poissons Ratio (y) = 0.47401 0.07251
# Poissons Ratio (z) = 0.34730 0.11252
#
# Static dielectric constant tensor:
#      x y z
#    x 1.701200 0.006900 0.010100 
#    y 0.006900 1.712350 -0.005680 
#    z 0.010100 -0.005680 1.710260 
# 
# From -- ./inp_files/299887.got.cif
#   From: 2010.05.17/outbox.cif.g08.bks.cpg/sg2_150_cif.got.tgz:299887.got - 2010.06.03 11:33:40.
