data_PCOD9079659
_publ_section_title
;
Structure prediction by ZEFSAII (Michael W. Deem and Ramdas Pophale) SiO2 
 PCOD9079659
Probable space group: P -1
;
_chemical_formula_sum "Si O2"
_cell_formula_units_Z 14
_cell_length_a 13.594157
_cell_length_b 21.513020
_cell_length_c 6.434748
_cell_angle_alpha 86.941522
_cell_angle_beta 103.786088
_cell_angle_gamma 157.418514
_cell_volume 627.817845
_symmetry_space_group_name_H-M "P -1"
_symmetry_group_IT_number 2
_symmetry_cell_setting 'triclinic'
loop_
_space_group_symop_operation_xyz
x,y,z
-x,-y,-z
loop_
_atom_site_type_symbol
_atom_site_label
_atom_site_fract_x
_atom_site_fract_y
_atom_site_fract_z
Si Si1 0.432456 0.356699 0.736512
Si Si2 0.647409 0.147698 0.959693
Si Si3 0.575957 0.810423 0.745439
Si Si4 0.169997 0.474568 0.454269
Si Si5 0.121606 0.064300 0.784957
Si Si6 0.055288 0.316993 0.803670
Si Si7 0.807325 0.052153 0.520063
O O1 0.601645 0.421816 0.619630
O O2 0.342887 0.250577 0.871137
O O3 0.120397 0.208529 0.561027
O O4 0.660063 0.532802 0.937567
O O5 0.853091 0.244077 0.856785
O O6 0.402615 0.049906 0.754320
O O7 0.856886 0.299203 0.210831
O O8 0.500000 0.000000 0.000000
O O9 0.275282 0.601374 0.578809
O O10 0.651156 0.912012 0.618646
O O11 0.682005 0.877493 0.027187
O O12 0.816789 0.897752 0.779973
O O13 0.140712 0.405876 0.629195
O O14 0.000000 0.000000 0.500000
O O15 0.884217 0.157159 0.675669
#
# Coordination Sequence:
#
# PCOD9079659 Si02
#       7
#     2   2   2   2   2   2   2
#     4  10  22  39  67 102 126 168 223 271 322 388
#     4  11  25  47  67  91 128 186 223 261 332 396
#     4  10  22  38  63  99 131 172 214 265 329 387
#     4  11  22  42  72  92 134 179 212 266 335 393
#     4  10  18  37  62  94 135 171 201 257 338 391
#     4  11  23  45  68  90 133 175 221 269 335 390
#     4  11  24  43  65 100 135 170 225 274 318 385
#
# _framework density 22.299461000000001
#
# number of rings (size 3 to 8) (size 9 to 14) (size 15 to 20)
#    0.000    1.429    4.286    0.857    0.000    1.143 
#    7.714    0.714    0.000    0.000    0.000    0.000 
#    0.000    0.000    0.000    0.000    0.000    0.000 
#
# Total GULP energy -78139.288794 kJ/mol
# GULP energy per Si atom -5581.377771 kJ/mol
# Density = 2.224871 g / cm^3
# Si number density = 22.299461 Si / 1000 Ang^3
#
#
#
# Elastic Constant Matrix: (Units=GPa)
#
#
# Indices 1 2 3 4 5 6 
#
# 1 57.9302 28.9077 59.1900 15.7021 8.4004 -15.4885
# 2 28.9077 97.1494 61.4883 6.6184 9.0566 -20.5998
# 3 59.1900 61.4883 180.8043 29.2200 24.6847 -22.7408
# 4 15.7021 6.6184 29.2200 42.1584 -3.6766 -7.7605
# 5 8.4004 9.0566 24.6847 -3.6766 38.2131 7.2291
# 6 -15.4885 -20.5998 -22.7408 -7.7605 7.2291 43.9654
#
#
#
# Elastic Compliance Matrix: (Units=1/GPa)
#
#
# Indices 1 2 3 4 5 6 
#
# 1 0.028369 -0.002623 -0.006605 -0.004908 -0.002754 0.004935
# 2 -0.002623 0.014261 -0.003594 0.001946 -0.001132 0.004428
# 3 -0.006605 -0.003594 0.010538 -0.004457 -0.005218 0.001511
# 4 -0.004908 0.001946 -0.004457 0.029048 0.006102 0.001002
# 5 -0.002754 -0.001132 -0.005218 0.006102 0.032606 -0.008484
# 6 0.004935 0.004428 0.001511 0.001002 -0.008484 0.028912
#
#
# Mechanical properties :
#
#
# Convention : Reuss Voigt Hill
#
# Bulk Modulus (GPa) = 36.33329 70.56177 53.44753
# Shear Modulus (GPa) = 28.00289 37.28723 32.64506
#
# Velocity S-wave (km/s) = 3.54752 4.09358 3.83030
# Velocity P-wave (km/s) = 5.75401 7.35219 6.60164
#
# Compressibility (1/GPa) = 0.02752297
#
# Stress axis : x y z
#
# Youngs Moduli (GPa) = 35.24954 70.12295 94.89318
#
# Poissons Ratio (x) = 0.18396 0.62679
# Poissons Ratio (y) = 0.09247 0.34103
# Poissons Ratio (z) = 0.23283 0.25201
#
# Static dielectric constant tensor:
#      x y z
#    x 1.864880 0.019660 -0.060720 
#    y 0.019660 1.846250 -0.011190 
#    z -0.060720 -0.011190 1.998720 
# 
# From -- ./inp_files/101111.got.cif
#   From: 2010.05.17/outbox.cif.g08.bks.cpg/sg2_51_cif.got.tgz:101111.got - 2010.06.03 11:33:40.
