data_PCOD9079275
_publ_section_title
;
Structure prediction by ZEFSAII (Michael W. Deem and Ramdas Pophale) SiO2 
 PCOD9079275
Probable space group: P -1
;
_chemical_formula_sum "Si O2"
_cell_formula_units_Z 14
_cell_length_a 8.864729
_cell_length_b 17.256340
_cell_length_c 10.709989
_cell_angle_alpha 152.150362
_cell_angle_beta 126.327218
_cell_angle_gamma 62.965426
_cell_volume 606.075758
_symmetry_space_group_name_H-M "P -1"
_symmetry_group_IT_number 2
_symmetry_cell_setting 'triclinic'
loop_
_space_group_symop_operation_xyz
x,y,z
-x,-y,-z
loop_
_atom_site_type_symbol
_atom_site_label
_atom_site_fract_x
_atom_site_fract_y
_atom_site_fract_z
Si Si1 0.400759 0.089496 0.404331
Si Si2 0.126459 0.972971 0.710418
Si Si3 0.833466 0.372239 0.812551
Si Si4 0.217688 0.832812 0.138532
Si Si5 0.979148 0.822965 0.667595
Si Si6 0.579421 0.757504 0.634794
Si Si7 0.841728 0.520779 0.301701
O O1 0.599179 0.142730 0.646695
O O2 0.242446 0.203973 0.523731
O O3 0.426099 0.117453 0.309068
O O4 0.308915 0.908914 0.160763
O O5 0.117788 0.812571 0.387930
O O6 0.306429 0.125217 0.033717
O O7 0.112975 0.862072 0.672739
O O8 0.939664 0.057526 0.741285
O O9 0.636405 0.334896 0.584911
O O10 0.785774 0.449182 0.032301
O O11 0.000000 0.500000 0.000000
O O12 0.124335 0.637664 0.827913
O O13 0.006758 0.674305 0.559528
O O14 0.000000 0.000000 0.000000
O O15 0.697757 0.617859 0.444074
#
# Coordination Sequence:
#
# PCOD9079275 Si02
#       7
#     2   2   2   2   2   2   2
#     4   9  19  36  62  94 122 165 212 257 311 372
#     4  11  23  41  62  93 134 164 206 259 333 371
#     4  12  25  39  67  97 126 164 219 267 308 375
#     4  10  22  36  62  98 129 162 204 269 319 372
#     4  10  18  36  65  92 122 166 212 261 303 368
#     4  11  23  43  70  91 121 172 220 260 305 380
#     4  11  22  39  68  95 123 163 223 259 303 377
#
# _framework density 23.099421
#
# number of rings (size 3 to 8) (size 9 to 14) (size 15 to 20)
#    0.000    1.429    5.714    0.857    2.000    2.286 
#    0.000    0.000    0.000    0.857    0.000    0.000 
#    0.000    0.000    0.000    0.000    0.000    0.000 
#
# Total GULP energy -78019.465791 kJ/mol
# GULP energy per Si atom -5572.818985 kJ/mol
# Density = 2.304685 g / cm^3
# Si number density = 23.099421 Si / 1000 Ang^3
#
#
#
# Elastic Constant Matrix: (Units=GPa)
#
#
# Indices 1 2 3 4 5 6 
#
# 1 71.3369 11.8239 49.3127 0.8020 5.1992 -12.3689
# 2 11.8239 83.5541 46.4832 7.7551 9.4859 -4.8197
# 3 49.3127 46.4832 183.3235 20.2342 5.3072 -14.0416
# 4 0.8020 7.7551 20.2342 45.8695 -3.5868 16.5249
# 5 5.1992 9.4859 5.3072 -3.5868 48.5358 5.9686
# 6 -12.3689 -4.8197 -14.0416 16.5249 5.9686 33.5716
#
#
#
# Elastic Compliance Matrix: (Units=1/GPa)
#
#
# Indices 1 2 3 4 5 6 
#
# 1 0.018159 0.000557 -0.004454 -0.000661 -0.002310 0.005643
# 2 0.000557 0.014397 -0.003293 -0.002111 -0.002972 0.002462
# 3 -0.004454 -0.003293 0.008255 -0.004335 -0.000541 0.003569
# 4 -0.000661 -0.002111 -0.004335 0.031270 0.005573 -0.018742
# 5 -0.002310 -0.002972 -0.000541 0.005573 0.022926 -0.008323
# 6 0.005643 0.002462 0.003569 -0.018742 -0.008323 0.044418
#
#
# Mechanical properties :
#
#
# Convention : Reuss Voigt Hill
#
# Bulk Modulus (GPa) = 37.83285 61.49492 49.66388
# Shear Modulus (GPa) = 30.74769 40.96835 35.85802
#
# Velocity S-wave (km/s) = 3.65239 4.21594 3.94424
# Velocity P-wave (km/s) = 5.84811 7.09778 6.50303
#
# Compressibility (1/GPa) = 0.02643206
#
# Stress axis : x y z
#
# Youngs Moduli (GPa) = 55.07025 69.46091 121.13376
#
# Poissons Ratio (x) = -0.03870 0.53950
# Poissons Ratio (y) = -0.03068 0.39885
# Poissons Ratio (z) = 0.24527 0.22871
#
# Static dielectric constant tensor:
#      x y z
#    x 1.974680 0.025720 -0.079590 
#    y 0.025720 1.929480 -0.088740 
#    z -0.079590 -0.088740 2.075610 
# 
# From -- ./inp_files/329146.got.cif
#   From: 2010.05.17/outbox.cif.g08.bks.cpg/sg2_165_cif.got.tgz:329146.got - 2010.06.03 11:33:40.
