data_PCOD9079882
_publ_section_title
;
Structure prediction by ZEFSAII (Michael W. Deem and Ramdas Pophale) SiO2 
 PCOD9079882
Probable space group: P -1
;
_chemical_formula_sum "Si O2"
_cell_formula_units_Z 14
_cell_length_a 8.962958
_cell_length_b 8.679366
_cell_length_c 11.661041
_cell_angle_alpha 42.773798
_cell_angle_beta 69.106489
_cell_angle_gamma 67.933657
_cell_volume 566.188871
_symmetry_space_group_name_H-M "P -1"
_symmetry_group_IT_number 2
_symmetry_cell_setting 'triclinic'
loop_
_space_group_symop_operation_xyz
x,y,z
-x,-y,-z
loop_
_atom_site_type_symbol
_atom_site_label
_atom_site_fract_x
_atom_site_fract_y
_atom_site_fract_z
Si Si1 0.697930 0.862444 0.740025
Si Si2 0.139796 0.369022 0.393133
Si Si3 0.050271 0.866309 0.743958
Si Si4 0.838354 0.106619 0.052772
Si Si5 0.525129 0.227755 0.944004
Si Si6 0.785321 0.625390 0.383592
Si Si7 0.337653 0.648989 0.624634
O O1 0.627647 0.103511 0.562127
O O2 0.758026 0.682396 0.721222
O O3 0.573767 0.786304 0.903684
O O4 0.861955 0.879801 0.757527
O O5 0.225275 0.432269 0.449722
O O6 0.971010 0.543979 0.335284
O O7 0.085215 0.124022 0.573940
O O8 0.106076 0.789907 0.899806
O O9 0.165849 0.710971 0.706095
O O10 0.710358 0.228593 0.928794
O O11 0.749310 0.896921 0.229702
O O12 0.000000 0.000000 0.000000
O O13 0.451196 0.467422 0.772074
O O14 0.500000 0.000000 0.000000
O O15 0.680754 0.490587 0.408694
#
# Coordination Sequence:
#
# PCOD9079882 Si02
#       7
#     2   2   2   2   2   2   2
#     4  11  22  43  73 101 139 180 222 281 339 395
#     4   9  18  36  65 105 135 175 231 271 324 404
#     4  10  20  39  69 100 136 180 225 272 333 404
#     4  11  25  45  64  93 137 181 226 287 340 402
#     4  12  27  45  67 101 138 176 231 284 341 404
#     4  10  18  37  68 101 133 178 231 270 324 407
#     4  11  22  43  72 101 141 176 224 278 337 405
#
# _framework density 24.726731999999998
#
# number of rings (size 3 to 8) (size 9 to 14) (size 15 to 20)
#    0.000    1.429    4.286    1.714    0.000    2.857 
#    0.000    7.857    0.000    0.000    0.000    0.000 
#    0.000    0.000    0.000    0.000    0.000    0.000 
#
# Total GULP energy -78413.597430 kJ/mol
# GULP energy per Si atom -5600.971245 kJ/mol
# Density = 2.467045 g / cm^3
# Si number density = 24.726732 Si / 1000 Ang^3
#
#
#
# Elastic Constant Matrix: (Units=GPa)
#
#
# Indices 1 2 3 4 5 6 
#
# 1 111.1168 65.2367 76.8008 7.3903 23.3468 -22.6543
# 2 65.2367 97.9618 66.0036 25.3143 14.2597 5.9933
# 3 76.8008 66.0036 142.3284 0.1891 28.1432 -9.1082
# 4 7.3903 25.3143 0.1891 57.9306 -10.5431 9.2362
# 5 23.3468 14.2597 28.1432 -10.5431 41.0710 5.0589
# 6 -22.6543 5.9933 -9.1082 9.2362 5.0589 40.6639
#
#
#
# Elastic Compliance Matrix: (Units=1/GPa)
#
#
# Indices 1 2 3 4 5 6 
#
# 1 0.025173 -0.012671 -0.004860 -0.001923 -0.009090 0.016371
# 2 -0.012671 0.024642 -0.005657 -0.007076 0.002013 -0.010601
# 3 -0.004860 -0.005657 0.013088 0.002192 -0.003806 0.001033
# 4 -0.001923 -0.007076 0.002192 0.023113 0.008704 -0.005870
# 5 -0.009090 0.002013 -0.003806 0.008704 0.035207 -0.012571
# 6 0.016371 -0.010601 0.001033 -0.005870 -0.012571 0.038403
#
#
# Mechanical properties :
#
#
# Convention : Reuss Voigt Hill
#
# Bulk Modulus (GPa) = 60.50734 85.27660 72.89197
# Shear Modulus (GPa) = 23.63942 37.49083 30.56512
#
# Velocity S-wave (km/s) = 3.09532 3.89807 3.51966
# Velocity P-wave (km/s) = 6.10723 7.40422 6.78678
#
# Compressibility (1/GPa) = 0.01652692
#
# Stress axis : x y z
#
# Youngs Moduli (GPa) = 39.72489 40.58118 76.40730
#
# Poissons Ratio (x) = 0.51419 0.37133
# Poissons Ratio (y) = 0.50334 0.43227
# Poissons Ratio (z) = 0.19306 0.22958
#
# Static dielectric constant tensor:
#      x y z
#    x 1.986680 -0.005250 0.023310 
#    y -0.005250 1.915070 -0.047180 
#    z 0.023310 -0.047180 2.007360 
# 
# From -- ./inp_files/380972.got.cif
#   From: 2010.05.17/outbox.cif.g08.bks.cpg/sg2_191_cif.got.tgz:380972.got - 2010.06.03 11:33:40.
