data_PCOD9079263
_publ_section_title
;
Structure prediction by ZEFSAII (Michael W. Deem and Ramdas Pophale) SiO2 
 PCOD9079263
Probable space group: P -1
;
_chemical_formula_sum "Si O2"
_cell_formula_units_Z 14
_cell_length_a 21.126530
_cell_length_b 19.770932
_cell_length_c 7.332413
_cell_angle_alpha 46.371206
_cell_angle_beta 141.732771
_cell_angle_gamma 160.933708
_cell_volume 598.737514
_symmetry_space_group_name_H-M "P -1"
_symmetry_group_IT_number 2
_symmetry_cell_setting 'triclinic'
loop_
_space_group_symop_operation_xyz
x,y,z
-x,-y,-z
loop_
_atom_site_type_symbol
_atom_site_label
_atom_site_fract_x
_atom_site_fract_y
_atom_site_fract_z
Si Si1 0.592532 0.184287 0.727282
Si Si2 0.108524 0.290029 0.883139
Si Si3 0.319717 0.935428 0.234515
Si Si4 0.611915 0.802544 0.728174
Si Si5 0.268303 0.232565 0.231204
Si Si6 0.515015 0.725353 0.078462
Si Si7 0.953438 0.332419 0.220297
O O1 0.519318 0.214326 0.624955
O O2 0.817105 0.415028 0.696065
O O3 0.357069 0.979647 0.453083
O O4 0.721423 0.191535 0.045949
O O5 0.005568 0.273699 0.526808
O O6 0.286069 0.355153 0.095921
O O7 0.252084 0.476026 0.996097
O O8 0.886884 0.053020 0.900974
O O9 0.500000 0.000000 0.500000
O O10 0.097613 0.721816 0.010589
O O11 0.413420 0.108980 0.037029
O O12 0.583663 0.689674 0.745203
O O13 0.528687 0.723079 0.894651
O O14 0.317475 0.206137 0.562184
O O15 0.000000 0.000000 0.000000
#
# Coordination Sequence:
#
# PCOD9079263 Si02
#       7
#     2   2   2   2   2   2   2
#     4   9  19  37  60  94 125 169 213 260 324 382
#     4  11  22  39  64  94 127 171 214 266 320 380
#     4   9  17  32  61  89 118 167 208 251 321 374
#     4  10  22  42  64  94 126 169 221 254 328 387
#     4  10  23  41  64  95 127 169 219 263 319 386
#     4  11  22  44  62  90 137 166 209 279 315 376
#     4  10  18  36  65  88 130 168 208 268 322 373
#
# _framework density 23.382534
#
# number of rings (size 3 to 8) (size 9 to 14) (size 15 to 20)
#    0.000    2.000    2.857    2.143    0.000    3.429 
#    5.143    1.429    0.000    5.143    0.000    0.000 
#    0.000    0.000    0.000    0.000    0.000    0.000 
#
# Total GULP energy -77949.624398 kJ/mol
# GULP energy per Si atom -5567.830314 kJ/mol
# Density = 2.332931 g / cm^3
# Si number density = 23.382534 Si / 1000 Ang^3
#
#
#
# Elastic Constant Matrix: (Units=GPa)
#
#
# Indices 1 2 3 4 5 6 
#
# 1 74.3199 10.6350 34.9968 -8.0180 23.4040 -9.0435
# 2 10.6350 68.8500 22.3456 -4.5925 -1.2579 -18.7802
# 3 34.9968 22.3456 175.0013 -13.9387 10.0741 -12.7974
# 4 -8.0180 -4.5925 -13.9387 41.9799 -12.3667 7.9165
# 5 23.4040 -1.2579 10.0741 -12.3667 46.7115 -6.1255
# 6 -9.0435 -18.7802 -12.7974 7.9165 -6.1255 23.8001
#
#
#
# Elastic Compliance Matrix: (Units=1/GPa)
#
#
# Indices 1 2 3 4 5 6 
#
# 1 0.017756 -0.001427 -0.002778 -0.000511 -0.008184 0.002191
# 2 -0.001427 0.019290 -0.001310 -0.000431 0.003368 0.014985
# 3 -0.002778 -0.001310 0.006606 0.001448 0.000459 0.001100
# 4 -0.000511 -0.000431 0.001448 0.027358 0.006224 -0.007254
# 5 -0.008184 0.003368 0.000459 0.006224 0.027787 0.004876
# 6 0.002191 0.014985 0.001100 -0.007254 0.004876 0.058933
#
#
# Mechanical properties :
#
#
# Convention : Reuss Voigt Hill
#
# Bulk Modulus (GPa) = 30.65394 50.45844 40.55619
# Shear Modulus (GPa) = 27.83407 39.17788 33.50598
#
# Velocity S-wave (km/s) = 3.45393 4.09775 3.78954
# Velocity P-wave (km/s) = 5.38928 6.63439 6.04399
#
# Compressibility (1/GPa) = 0.03262224
#
# Stress axis : x y z
#
# Youngs Moduli (GPa) = 56.31790 51.83968 151.36937
#
# Poissons Ratio (x) = 0.07398 0.42052
# Poissons Ratio (y) = 0.08037 0.19831
# Poissons Ratio (z) = 0.15646 0.06792
#
# Static dielectric constant tensor:
#      x y z
#    x 2.037450 -0.037420 0.039260 
#    y -0.037420 1.932410 -0.017060 
#    z 0.039260 -0.017060 1.918050 
# 
# From -- ./inp_files/355278.got.cif
#   From: 2010.05.17/outbox.cif.g08.bks.cpg/sg2_178_cif.got.tgz:355278.got - 2010.06.03 11:33:40.
