data_PCOD9079592
_publ_section_title
;
Structure prediction by ZEFSAII (Michael W. Deem and Ramdas Pophale) SiO2 
 PCOD9079592
Probable space group: P -1
;
_chemical_formula_sum "Si O2"
_cell_formula_units_Z 16
_cell_length_a 9.537674
_cell_length_b 14.786653
_cell_length_c 8.651009
_cell_angle_alpha 100.389690
_cell_angle_beta 83.389528
_cell_angle_gamma 46.113572
_cell_volume 813.759670
_symmetry_space_group_name_H-M "P -1"
_symmetry_group_IT_number 2
_symmetry_cell_setting 'triclinic'
loop_
_space_group_symop_operation_xyz
x,y,z
-x,-y,-z
loop_
_atom_site_type_symbol
_atom_site_label
_atom_site_fract_x
_atom_site_fract_y
_atom_site_fract_z
Si Si1 0.620307 0.006702 0.366294
Si Si2 0.969568 0.401121 0.215310
Si Si3 0.776248 0.532070 0.763072
Si Si4 0.895969 0.706772 0.174636
Si Si5 0.389794 0.138937 0.129888
Si Si6 0.458637 0.410743 0.498099
Si Si7 0.441616 0.264030 0.895255
Si Si8 0.755358 0.128635 0.549091
O O1 0.791839 0.855902 0.228035
O O2 0.500000 0.000000 0.500000
O O3 0.476470 0.110800 0.279515
O O4 0.696310 0.060043 0.458886
O O5 0.740115 0.504627 0.338217
O O6 0.080498 0.444552 0.260513
O O7 0.142124 0.247445 0.207330
O O8 0.984555 0.376489 0.023118
O O9 0.627850 0.586722 0.654127
O O10 0.948570 0.372981 0.726045
O O11 0.645850 0.607570 0.960610
O O12 0.718859 0.711083 0.194175
O O13 0.452140 0.187907 0.014113
O O14 0.500000 0.000000 0.000000
O O15 0.500000 0.500000 0.500000
O O16 0.650519 0.260498 0.498962
O O17 0.643936 0.187518 0.748444
O O18 0.000000 0.000000 0.500000
#
# Coordination Sequence:
#
# PCOD9079592 Si02
#       8
#     2   2   2   2   2   2   2   2
#     4  12  23  38  68 103 138 168 221 268 333 396
#     4  10  21  39  70  95 128 169 214 275 326 388
#     4  10  21  40  70  94 126 164 218 273 337 383
#     4  10  19  37  67 103 124 167 211 271 331 390
#     4  10  18  37  62 104 131 165 210 269 331 388
#     4  12  28  46  63  96 136 176 227 275 328 397
#     4  10  20  42  67  95 132 166 216 280 324 396
#     4  12  27  47  64  95 134 183 223 274 331 392
#
# _framework density 19.661826000000001
#
# number of rings (size 3 to 8) (size 9 to 14) (size 15 to 20)
#    0.000    1.500    3.750    4.875    3.500    1.000 
#    2.250    2.500    0.000    0.000    0.000    0.000 
#    0.000    0.000    0.000    0.000    0.000    0.000 
#
# Total GULP energy -89174.640061 kJ/mol
# GULP energy per Si atom -5573.415004 kJ/mol
# Density = 1.961708 g / cm^3
# Si number density = 19.661826 Si / 1000 Ang^3
#
#
#
# Elastic Constant Matrix: (Units=GPa)
#
#
# Indices 1 2 3 4 5 6 
#
# 1 88.3684 54.6485 48.9974 -0.7261 -3.3857 -3.9548
# 2 54.6485 157.6014 43.4199 -4.4216 -4.6602 -20.1959
# 3 48.9974 43.4199 90.6660 3.3787 -7.2608 -17.5076
# 4 -0.7261 -4.4216 3.3787 35.0980 -4.4288 2.8509
# 5 -3.3857 -4.6602 -7.2608 -4.4288 23.4323 7.4690
# 6 -3.9548 -20.1959 -17.5076 2.8509 7.4690 31.8384
#
#
#
# Elastic Compliance Matrix: (Units=1/GPa)
#
#
# Indices 1 2 3 4 5 6 
#
# 1 0.019183 -0.004833 -0.009191 0.001318 0.001165 -0.006129
# 2 -0.004833 0.008835 -0.000791 0.000644 -0.000543 0.004639
# 3 -0.009191 -0.000791 0.018162 -0.002590 0.000994 0.008343
# 4 0.001318 0.000644 -0.002590 0.030133 0.006855 -0.005159
# 5 0.001165 -0.000543 0.000994 0.006855 0.048016 -0.011531
# 6 -0.006129 0.004639 0.008343 -0.005159 -0.011531 0.041345
#
#
# Mechanical properties :
#
#
# Convention : Reuss Voigt Hill
#
# Bulk Modulus (GPa) = 60.42443 70.08526 65.25485
# Shear Modulus (GPa) = 24.89770 30.71176 27.80473
#
# Velocity S-wave (km/s) = 3.56237 3.95650 3.76460
# Velocity P-wave (km/s) = 6.90791 7.52294 7.22197
#
# Compressibility (1/GPa) = 0.01654960
#
# Stress axis : x y z
#
# Youngs Moduli (GPa) = 52.13043 113.18011 55.05866
#
# Poissons Ratio (x) = 0.54704 0.50605
# Poissons Ratio (y) = 0.25196 0.04355
# Poissons Ratio (z) = 0.47914 0.08953
#
# Static dielectric constant tensor:
#      x y z
#    x 2.031340 0.064220 1.010820 
#    y 0.064220 1.883400 0.213620 
#    z 1.010820 0.213620 4.609260 
# 
# From -- ./inp_files/202544.got.cif
#   From: 2010.05.17/outbox.cif.g08.bks.cpg/sg2_102_cif.got.tgz:202544.got - 2010.06.03 11:33:40.
