data_PCOD9079445
_publ_section_title
;
Structure prediction by ZEFSAII (Michael W. Deem and Ramdas Pophale) SiO2 
 PCOD9079445
Probable space group: P -1
;
_chemical_formula_sum "Si O2"
_cell_formula_units_Z 11
_cell_length_a 4.870284
_cell_length_b 14.845147
_cell_length_c 9.143965
_cell_angle_alpha 115.147585
_cell_angle_beta 65.589830
_cell_angle_gamma 76.966672
_cell_volume 476.071893
_symmetry_space_group_name_H-M "P -1"
_symmetry_group_IT_number 2
_symmetry_cell_setting 'triclinic'
loop_
_space_group_symop_operation_xyz
x,y,z
-x,-y,-z
loop_
_atom_site_type_symbol
_atom_site_label
_atom_site_fract_x
_atom_site_fract_y
_atom_site_fract_z
Si Si1 0.286704 0.079721 0.734015
Si Si2 0.976809 0.329135 0.997207
Si Si3 0.256729 0.520837 0.270245
Si Si4 0.000000 0.500000 0.000000
Si Si5 0.883551 0.673537 0.709416
Si Si6 0.361358 0.922778 0.050348
O O1 0.531540 0.087019 0.809219
O O2 0.042016 0.036671 0.833208
O O3 0.500000 0.000000 0.500000
O O4 0.037838 0.212504 0.835576
O O5 0.671247 0.458645 0.103922
O O6 0.942261 0.321341 0.172862
O O7 0.263120 0.363696 0.914826
O O8 0.239463 0.417914 0.287363
O O9 0.132927 0.623279 0.482284
O O10 0.022441 0.551611 0.201945
O O11 0.567293 0.798590 0.845794
O O12 0.500000 0.000000 0.000000
#
# Coordination Sequence:
#
# PCOD9079445 Si02
#       6
#     2   2   2   1   2   2
#     4  11  24  44  68  92 130 177 215 264 333 383
#     4  10  20  38  59  82 127 159 212 257 315 381
#     4  10  18  37  58  85 123 155 208 248 326 375
#     4  10  22  34  54  92 120 162 198 262 308 384
#     4   9  20  35  61  86 114 166 204 256 320 376
#     4  11  23  44  66  97 129 165 224 276 313 383
#
# _framework density 23.105756
#
# number of rings (size 3 to 8) (size 9 to 14) (size 15 to 20)
#    0.000    1.818    1.818    2.182    0.000    1.455 
#    3.273    0.000    0.000    0.000    0.000    0.000 
#    0.000    0.000    0.000    0.000    0.000    0.000 
#
# Total GULP energy -61239.969736 kJ/mol
# GULP energy per Si atom -5567.269976 kJ/mol
# Density = 2.305317 g / cm^3
# Si number density = 23.105756 Si / 1000 Ang^3
#
#
#
# Elastic Constant Matrix: (Units=GPa)
#
#
# Indices 1 2 3 4 5 6 
#
# 1 84.3707 7.4061 39.7641 5.0538 0.4342 0.9305
# 2 7.4061 79.9706 62.3135 -4.6962 8.6966 17.4877
# 3 39.7641 62.3135 194.9680 20.4273 13.4520 11.3018
# 4 5.0538 -4.6962 20.4273 22.6324 7.6774 1.7193
# 5 0.4342 8.6966 13.4520 7.6774 29.0069 -4.3044
# 6 0.9305 17.4877 11.3018 1.7193 -4.3044 39.2009
#
#
#
# Elastic Compliance Matrix: (Units=1/GPa)
#
#
# Indices 1 2 3 4 5 6 
#
# 1 0.013221 0.000953 -0.003051 -0.000387 0.001074 0.000276
# 2 0.000953 0.022314 -0.007775 0.015012 -0.008455 -0.009322
# 3 -0.003051 -0.007775 0.009092 -0.009553 0.000902 0.001438
# 4 -0.000387 0.015012 -0.009553 0.062758 -0.017960 -0.008658
# 5 0.001074 -0.008455 0.000902 -0.017960 0.042658 0.008958
# 6 0.000276 -0.009322 0.001438 -0.008658 0.008958 0.030611
#
#
# Mechanical properties :
#
#
# Convention : Reuss Voigt Hill
#
# Bulk Modulus (GPa) = 40.19105 64.25297 52.22201
# Shear Modulus (GPa) = 23.95859 34.82309 29.39084
#
# Velocity S-wave (km/s) = 3.22360 3.88637 3.57040
# Velocity P-wave (km/s) = 5.59353 6.92872 6.29662
#
# Compressibility (1/GPa) = 0.02488116
#
# Stress axis : x y z
#
# Youngs Moduli (GPa) = 75.63629 44.81394 109.99199
#
# Poissons Ratio (x) = -0.04270 0.33554
# Poissons Ratio (y) = -0.07207 0.85522
# Poissons Ratio (z) = 0.23074 0.34844
#
# Static dielectric constant tensor:
#      x y z
#    x 2.008210 0.013190 -0.077480 
#    y 0.013190 1.959850 -0.006770 
#    z -0.077480 -0.006770 1.887120 
# 
# From -- ./inp_files/18806.got.cif
#   From: 2010.05.17/outbox.cif.g08.bks.cpg/sg2_10_cif.got.tgz:18806.got - 2010.06.03 11:33:40.
