data_PCOD9079577
_publ_section_title
;
Structure prediction by ZEFSAII (Michael W. Deem and Ramdas Pophale) SiO2 
 PCOD9079577
Probable space group: P -1
;
_chemical_formula_sum "Si O2"
_cell_formula_units_Z 16
_cell_length_a 12.500737
_cell_length_b 12.284000
_cell_length_c 9.160521
_cell_angle_alpha 49.837045
_cell_angle_beta 61.600787
_cell_angle_gamma 91.195955
_cell_volume 825.728057
_symmetry_space_group_name_H-M "P -1"
_symmetry_group_IT_number 2
_symmetry_cell_setting 'triclinic'
loop_
_space_group_symop_operation_xyz
x,y,z
-x,-y,-z
loop_
_atom_site_type_symbol
_atom_site_label
_atom_site_fract_x
_atom_site_fract_y
_atom_site_fract_z
Si Si1 0.765973 0.365686 0.316746
Si Si2 0.083543 0.132187 0.611837
Si Si3 0.604626 0.627774 0.704298
Si Si4 0.975024 0.183633 0.941588
Si Si5 0.264702 0.493307 0.503725
Si Si6 0.441216 0.817537 0.636937
Si Si7 0.969784 0.654340 0.726798
Si Si8 0.815930 0.383821 0.827331
O O1 0.693417 0.404302 0.464738
O O2 0.654582 0.225433 0.407337
O O3 0.883337 0.323574 0.334696
O O4 0.853147 0.532894 0.021746
O O5 0.241090 0.274426 0.412827
O O6 0.030690 0.180372 0.459268
O O7 0.992872 0.129658 0.813831
O O8 0.080438 0.960759 0.779921
O O9 0.622980 0.538267 0.627383
O O10 0.554546 0.758983 0.587482
O O11 0.500000 0.500000 0.000000
O O12 0.875912 0.262086 0.921181
O O13 0.128854 0.319452 0.773052
O O14 0.206251 0.577530 0.355297
O O15 0.500000 0.000000 0.500000
O O16 0.334421 0.695672 0.931808
O O17 0.921905 0.548930 0.699203
#
# Coordination Sequence:
#
# PCOD9079577 Si02
#       8
#     2   2   2   2   2   2   2   2
#     4  10  22  36  63  94 124 162 210 263 304 368
#     4  10  20  34  57  93 125 157 194 265 311 367
#     4  11  20  39  63  88 120 170 221 241 291 383
#     4  10  19  31  58  95 123 146 203 258 321 356
#     4  11  20  36  65  96 121 159 211 264 306 368
#     4  11  24  41  61  85 123 171 211 248 307 373
#     4  10  18  37  61  91 127 157 206 249 319 375
#     4  11  18  36  65  89 116 163 203 254 299 386
#
# _framework density 19.376837999999999
#
# number of rings (size 3 to 8) (size 9 to 14) (size 15 to 20)
#    0.000    1.500    5.000    2.625    0.000    0.500 
#    0.000    1.250    2.750    0.000    0.000    0.000 
#    0.000    0.000    0.000    0.000    0.000    0.000 
#
# Total GULP energy -89313.428729 kJ/mol
# GULP energy per Si atom -5582.089296 kJ/mol
# Density = 1.933274 g / cm^3
# Si number density = 19.376838 Si / 1000 Ang^3
#
#
#
# Elastic Constant Matrix: (Units=GPa)
#
#
# Indices 1 2 3 4 5 6 
#
# 1 105.0817 54.5412 43.0483 -5.4431 13.9312 -16.4057
# 2 54.5412 108.3468 39.9379 2.8165 4.1829 -4.0566
# 3 43.0483 39.9379 80.7821 -1.9722 15.9641 -4.8063
# 4 -5.4431 2.8165 -1.9722 27.0923 -10.3969 1.7000
# 5 13.9312 4.1829 15.9641 -10.3969 29.5134 -1.2249
# 6 -16.4057 -4.0566 -4.8063 1.7000 -1.2249 40.7168
#
#
#
# Elastic Compliance Matrix: (Units=1/GPa)
#
#
# Indices 1 2 3 4 5 6 
#
# 1 0.015800 -0.006055 -0.004420 0.001885 -0.003335 0.005062
# 2 -0.006055 0.013717 -0.004166 -0.001924 0.002431 -0.001411
# 3 -0.004420 -0.004166 0.018312 -0.002182 -0.008004 -0.000184
# 4 0.001885 -0.001924 -0.002182 0.043472 0.015835 -0.001029
# 5 -0.003335 0.002431 -0.008004 0.015835 0.044964 -0.001355
# 6 0.005062 -0.001411 -0.000184 -0.001029 -0.001355 0.026439
#
#
# Mechanical properties :
#
#
# Convention : Reuss Voigt Hill
#
# Bulk Modulus (GPa) = 53.91941 63.25172 58.58556
# Shear Modulus (GPa) = 25.23108 29.91005 27.57056
#
# Velocity S-wave (km/s) = 3.61241 3.93313 3.77618
# Velocity P-wave (km/s) = 6.72952 7.30341 7.02233
#
# Compressibility (1/GPa) = 0.01854620
#
# Stress axis : x y z
#
# Youngs Moduli (GPa) = 63.29114 72.90374 54.61027
#
# Poissons Ratio (x) = 0.44144 0.24137
# Poissons Ratio (y) = 0.38324 0.22751
# Poissons Ratio (z) = 0.27974 0.30372
#
# Static dielectric constant tensor:
#      x y z
#    x 1.683220 -0.045900 0.028400 
#    y -0.045900 1.755000 -0.019040 
#    z 0.028400 -0.019040 1.698400 
# 
# From -- ./inp_files/258280.got.cif
#   From: 2010.05.17/outbox.cif.g08.bks.cpg/sg2_130_cif.got.tgz:258280.got - 2010.06.03 11:33:40.
