data_PCOD9079459
_publ_section_title
;
Structure prediction by ZEFSAII (Michael W. Deem and Ramdas Pophale) SiO2 
 PCOD9079459
Probable space group: P -1
;
_chemical_formula_sum "Si O2"
_cell_formula_units_Z 14
_cell_length_a 17.098416
_cell_length_b 11.526942
_cell_length_c 7.861474
_cell_angle_alpha 71.762030
_cell_angle_beta 39.101182
_cell_angle_gamma 44.663402
_cell_volume 578.573046
_symmetry_space_group_name_H-M "P -1"
_symmetry_group_IT_number 2
_symmetry_cell_setting 'triclinic'
loop_
_space_group_symop_operation_xyz
x,y,z
-x,-y,-z
loop_
_atom_site_type_symbol
_atom_site_label
_atom_site_fract_x
_atom_site_fract_y
_atom_site_fract_z
Si Si1 0.595641 0.773982 0.857030
Si Si2 0.761870 0.072784 0.493986
Si Si3 0.880424 0.356210 0.390604
Si Si4 0.867114 0.227827 0.800014
Si Si5 0.849567 0.520436 0.833145
Si Si6 0.446343 0.524701 0.280696
Si Si7 0.857462 0.772684 0.253019
O O1 0.733898 0.563487 0.636450
O O2 0.646489 0.726339 0.996110
O O3 0.674099 0.833899 0.603823
O O4 0.365220 0.916207 0.167125
O O5 0.621018 0.296752 0.603099
O O6 0.821355 0.938109 0.303703
O O7 0.960084 0.968750 0.297466
O O8 0.923612 0.214976 0.515772
O O9 0.746104 0.411302 0.435240
O O10 0.081432 0.263522 0.028947
O O11 0.857260 0.371995 0.832514
O O12 0.652051 0.330040 0.111917
O O13 0.000000 0.500000 0.500000
O O14 0.946513 0.439457 0.892716
O O15 0.500000 0.500000 0.000000
#
# Coordination Sequence:
#
# PCOD9079459 Si02
#       7
#     2   2   2   2   2   2   2
#     4  10  18  37  59  79 113 150 187 221 272 343
#     4  11  20  36  61  84 105 148 193 222 272 330
#     4  10  20  37  55  82 117 145 180 234 280 320
#     4   9  19  35  58  82 107 147 192 219 268 337
#     4   8  15  31  54  77 105 144 180 216 266 328
#     4  10  19  37  59  79 112 148 191 221 268 338
#     4  10  21  33  57  89 112 139 184 239 282 313
#
# _framework density 24.197462999999999
#
# number of rings (size 3 to 8) (size 9 to 14) (size 15 to 20)
#    0.000    2.286    4.286    0.857    0.000    2.857 
#    0.000    5.000    0.000    0.000    0.000    0.000 
#    0.000    0.000    0.000    0.000    0.000    0.000 
#
# Total GULP energy -78044.945695 kJ/mol
# GULP energy per Si atom -5574.638978 kJ/mol
# Density = 2.414239 g / cm^3
# Si number density = 24.197463 Si / 1000 Ang^3
#
#
#
# Elastic Constant Matrix: (Units=GPa)
#
#
# Indices 1 2 3 4 5 6 
#
# 1 46.8393 2.5681 7.9714 11.2973 -15.2136 11.0550
# 2 2.5681 40.0785 22.1419 4.6206 8.7489 6.6284
# 3 7.9714 22.1419 68.7527 12.9417 0.0018 -11.2885
# 4 11.2973 4.6206 12.9417 31.6570 -0.6386 0.5935
# 5 -15.2136 8.7489 0.0018 -0.6386 36.4502 9.0104
# 6 11.0550 6.6284 -11.2885 0.5935 9.0104 27.8737
#
#
#
# Elastic Compliance Matrix: (Units=1/GPa)
#
#
# Indices 1 2 3 4 5 6 
#
# 1 0.037682 0.002335 -0.007392 -0.009867 0.021209 -0.025140
# 2 0.002335 0.035751 -0.014011 -0.000151 -0.004213 -0.013737
# 3 -0.007392 -0.014011 0.023787 -0.005449 -0.004105 0.017340
# 4 -0.009867 -0.000151 -0.005449 0.037237 -0.003982 0.002237
# 5 0.021209 -0.004213 -0.004105 -0.003982 0.042877 -0.022848
# 6 -0.025140 -0.013737 0.017340 0.002237 -0.022848 0.063474
#
#
# Mechanical properties :
#
#
# Convention : Reuss Voigt Hill
#
# Bulk Modulus (GPa) = 16.92530 24.55926 20.74228
# Shear Modulus (GPa) = 16.74255 27.39546 22.06901
#
# Velocity S-wave (km/s) = 2.63328 3.36841 3.02327
# Velocity P-wave (km/s) = 4.03180 5.02989 4.55825
#
# Compressibility (1/GPa) = 0.05908314
#
# Stress axis : x y z
#
# Youngs Moduli (GPa) = 26.53799 27.97110 42.03931
#
# Poissons Ratio (x) = -0.06530 0.31074
# Poissons Ratio (y) = -0.06195 0.58903
# Poissons Ratio (z) = 0.19616 0.39191
#
# Static dielectric constant tensor:
#      x y z
#    x 2.015170 -0.001600 -0.017240 
#    y -0.001600 1.973450 -0.020620 
#    z -0.017240 -0.020620 1.927620 
# 
# From -- ./inp_files/178461.got.cif
#   From: 2010.05.17/outbox.cif.g08.bks.cpg/sg2_90_cif.got.tgz:178461.got - 2010.06.03 11:33:40.
