data_PCOD9079764
_publ_section_title
;
Structure prediction by ZEFSAII (Michael W. Deem and Ramdas Pophale) SiO2 
 PCOD9079764
Probable space group: P -1
;
_chemical_formula_sum "Si O2"
_cell_formula_units_Z 12
_cell_length_a 9.187109
_cell_length_b 12.422579
_cell_length_c 12.345509
_cell_angle_alpha 146.724869
_cell_angle_beta 55.494085
_cell_angle_gamma 141.114953
_cell_volume 470.527411
_symmetry_space_group_name_H-M "P -1"
_symmetry_group_IT_number 2
_symmetry_cell_setting 'triclinic'
loop_
_space_group_symop_operation_xyz
x,y,z
-x,-y,-z
loop_
_atom_site_type_symbol
_atom_site_label
_atom_site_fract_x
_atom_site_fract_y
_atom_site_fract_z
Si Si1 0.113754 0.501180 0.790461
Si Si2 0.245001 0.728765 0.448968
Si Si3 0.606770 0.676495 0.211697
Si Si4 0.504083 0.500317 0.346664
Si Si5 0.894093 0.104328 0.754683
Si Si6 0.987183 0.800848 0.762243
O O1 0.366021 0.588754 0.732451
O O2 0.922605 0.365895 0.662735
O O3 0.998966 0.282181 0.750450
O O4 0.157062 0.752251 0.025593
O O5 0.497219 0.813002 0.386032
O O6 0.108453 0.450214 0.336374
O O7 0.220779 0.896684 0.681378
O O8 0.520580 0.498465 0.206916
O O9 0.891546 0.863823 0.257285
O O10 0.500000 0.500000 0.000000
O O11 0.226091 0.316919 0.332165
O O12 0.665243 0.806150 0.568798
O O13 0.000000 0.000000 0.000000
#
# Coordination Sequence:
#
# PCOD9079764 Si02
#       6
#     2   2   2   2   2   2
#     4  10  20  37  66  97 130 169 209 256 332 390
#     4  10  22  41  68  97 124 170 226 260 319 386
#     4  10  18  37  64  92 129 165 202 258 320 382
#     4  10  23  41  61  93 134 171 211 269 317 379
#     4  10  21  40  62  98 142 165 202 262 328 392
#     4  10  24  47  66  87 130 175 224 273 316 374
#
# _framework density 25.503295000000001
#
# number of rings (size 3 to 8) (size 9 to 14) (size 15 to 20)
#    0.000    2.000    1.667    2.000    0.000    6.000 
#    6.000   12.500    0.000    0.000    0.000    0.000 
#    0.000    0.000    0.000    0.000    0.000    0.000 
#
# Total GULP energy -67252.292833 kJ/mol
# GULP energy per Si atom -5604.357736 kJ/mol
# Density = 2.544525 g / cm^3
# Si number density = 25.503295 Si / 1000 Ang^3
#
#
#
# Elastic Constant Matrix: (Units=GPa)
#
#
# Indices 1 2 3 4 5 6 
#
# 1 177.1636 47.1336 71.2398 -17.0641 -6.1116 34.9919
# 2 47.1336 105.1986 58.6899 -4.6696 0.3682 17.0437
# 3 71.2398 58.6899 221.1154 -14.0579 -6.1167 23.3332
# 4 -17.0641 -4.6696 -14.0579 25.2547 3.5463 9.3707
# 5 -6.1116 0.3682 -6.1167 3.5463 51.2239 -8.6612
# 6 34.9919 17.0437 23.3332 9.3707 -8.6612 29.7254
#
#
#
# Elastic Compliance Matrix: (Units=1/GPa)
#
#
# Indices 1 2 3 4 5 6 
#
# 1 0.010507 -0.001199 -0.000646 0.012747 -0.002384 -0.015887
# 2 -0.001199 0.012197 -0.002222 0.002270 -0.001497 -0.004990
# 3 -0.000646 -0.002222 0.005993 0.004026 -0.000305 -0.004028
# 4 0.012747 0.002270 0.004026 0.068667 -0.010224 -0.044093
# 5 -0.002384 -0.001497 -0.000305 -0.010224 0.022220 0.013601
# 6 -0.015887 -0.004990 -0.004028 -0.044093 0.013601 0.076228
#
#
# Mechanical properties :
#
#
# Convention : Reuss Voigt Hill
#
# Bulk Modulus (GPa) = 48.63034 95.28935 71.95984
# Shear Modulus (GPa) = 23.71928 43.00176 33.36052
#
# Velocity S-wave (km/s) = 3.05298 4.11070 3.62067
# Velocity P-wave (km/s) = 5.61580 7.74436 6.76433
#
# Compressibility (1/GPa) = 0.02056330
#
# Stress axis : x y z
#
# Youngs Moduli (GPa) = 95.17872 81.98805 166.86387
#
# Poissons Ratio (x) = 0.09831 0.10777
# Poissons Ratio (y) = 0.11412 0.37071
# Poissons Ratio (z) = 0.06147 0.18215
#
# Static dielectric constant tensor:
#      x y z
#    x 1.996580 -0.047650 -0.038160 
#    y -0.047650 2.130270 -0.028530 
#    z -0.038160 -0.028530 1.982470 
# 
# From -- ./inp_files/503360.got.cif
#   From: 2010.05.17/outbox.cif.g08.bks.cpg/sg2_252_cif.got.tgz:503360.got - 2010.06.03 11:33:40.
