data_PCOD9079630
_publ_section_title
;
Structure prediction by ZEFSAII (Michael W. Deem and Ramdas Pophale) SiO2 
 PCOD9079630
Probable space group: P -1
;
_chemical_formula_sum "Si O2"
_cell_formula_units_Z 14
_cell_length_a 16.352376
_cell_length_b 11.555916
_cell_length_c 7.035820
_cell_angle_alpha 105.333471
_cell_angle_beta 83.617252
_cell_angle_gamma 32.723124
_cell_volume 532.607651
_symmetry_space_group_name_H-M "P -1"
_symmetry_group_IT_number 2
_symmetry_cell_setting 'triclinic'
loop_
_space_group_symop_operation_xyz
x,y,z
-x,-y,-z
loop_
_atom_site_type_symbol
_atom_site_label
_atom_site_fract_x
_atom_site_fract_y
_atom_site_fract_z
Si Si1 0.173006 0.736684 0.693533
Si Si2 0.613769 0.188557 0.455490
Si Si3 0.344204 0.946595 0.198799
Si Si4 0.953043 0.832190 0.653175
Si Si5 0.305260 0.177877 0.624760
Si Si6 0.029928 0.717150 0.148195
Si Si7 0.765871 0.323639 0.782078
O O1 0.388270 0.498469 0.586984
O O2 0.135703 0.642305 0.641832
O O3 0.831607 0.348223 0.909769
O O4 0.000000 0.000000 0.000000
O O5 0.612178 0.195333 0.688461
O O6 0.668278 0.976817 0.320280
O O7 0.799099 0.025974 0.278746
O O8 0.167883 0.117359 0.209249
O O9 0.289165 0.144141 0.400036
O O10 0.549514 0.657016 0.917757
O O11 0.022387 0.698953 0.368365
O O12 0.804090 0.144482 0.794935
O O13 0.500000 0.000000 0.500000
O O14 0.132340 0.480175 0.896893
O O15 0.138403 0.816673 0.514278
#
# Coordination Sequence:
#
# PCOD9079630 Si02
#       7
#     2   2   2   2   2   2   2
#     4  11  23  40  59  88 129 161 198 258 308 353
#     4   9  21  36  61  91 117 157 199 258 304 341
#     4   9  20  39  64  87 122 154 214 241 301 356
#     4  10  22  38  62  88 124 166 200 249 300 368
#     4  10  19  36  69  90 115 157 213 250 290 362
#     4  10  18  37  62  89 117 157 206 243 294 364
#     4  11  21  39  63  91 121 165 206 241 305 374
#
# _framework density 26.285764
#
# number of rings (size 3 to 8) (size 9 to 14) (size 15 to 20)
#    0.857    1.143    1.429    3.429    0.000    2.286 
#    0.000   19.286    0.000    1.714    0.000    0.000 
#    0.000    0.000    0.000    0.000    0.000    0.000 
#
# Total GULP energy -78082.021135 kJ/mol
# GULP energy per Si atom -5577.287224 kJ/mol
# Density = 2.622594 g / cm^3
# Si number density = 26.285764 Si / 1000 Ang^3
#
#
#
# Elastic Constant Matrix: (Units=GPa)
#
#
# Indices 1 2 3 4 5 6 
#
# 1 145.4614 33.8574 38.8584 16.0475 11.6748 -42.2171
# 2 33.8574 98.9845 40.9177 -0.8597 -0.9819 -25.3153
# 3 38.8584 40.9177 152.1695 16.1188 30.1760 -14.3230
# 4 16.0475 -0.8597 16.1188 40.9286 -8.9835 -4.6720
# 5 11.6748 -0.9819 30.1760 -8.9835 30.3401 7.0320
# 6 -42.2171 -25.3153 -14.3230 -4.6720 7.0320 50.9247
#
#
#
# Elastic Compliance Matrix: (Units=1/GPa)
#
#
# Indices 1 2 3 4 5 6 
#
# 1 0.011133 -0.001993 0.000998 -0.005761 -0.009193 0.009260
# 2 -0.001993 0.013659 -0.004607 0.004672 0.006389 0.003388
# 3 0.000998 -0.004607 0.011776 -0.008138 -0.015404 0.003230
# 4 -0.005761 0.004672 -0.008138 0.034225 0.021660 -0.004593
# 5 -0.009193 0.006389 -0.015404 0.021660 0.061996 -0.015351
# 6 0.009260 0.003388 0.003230 -0.004593 -0.015351 0.031605
#
#
# Mechanical properties :
#
#
# Convention : Reuss Voigt Hill
#
# Bulk Modulus (GPa) = 39.42643 69.32026 54.37334
# Shear Modulus (GPa) = 27.16614 43.30415 35.23514
#
# Velocity S-wave (km/s) = 3.21829 4.06327 3.66521
# Velocity P-wave (km/s) = 5.37043 6.96007 6.21627
#
# Compressibility (1/GPa) = 0.02536370
#
# Stress axis : x y z
#
# Youngs Moduli (GPa) = 89.82356 73.21026 84.91649
#
# Poissons Ratio (x) = 0.14594 -0.08474
# Poissons Ratio (y) = 0.17906 0.39119
# Poissons Ratio (z) = -0.08963 0.33726
#
# Static dielectric constant tensor:
#      x y z
#    x 2.249520 0.004010 -0.111630 
#    y 0.004010 2.236970 0.062170 
#    z -0.111630 0.062170 2.140250 
# 
# From -- ./inp_files/335491.got.cif
#   From: 2010.05.17/outbox.cif.g08.bks.cpg/sg2_168_cif.got.tgz:335491.got - 2010.06.03 11:33:40.
