data_PCOD9079330
_publ_section_title
;
Structure prediction by ZEFSAII (Michael W. Deem and Ramdas Pophale) SiO2 
 PCOD9079330
Probable space group: P -1
;
_chemical_formula_sum "Si O2"
_cell_formula_units_Z 16
_cell_length_a 7.854778
_cell_length_b 14.087826
_cell_length_c 12.360121
_cell_angle_alpha 136.896563
_cell_angle_beta 95.379942
_cell_angle_gamma 55.371041
_cell_volume 631.255534
_symmetry_space_group_name_H-M "P -1"
_symmetry_group_IT_number 2
_symmetry_cell_setting 'triclinic'
loop_
_space_group_symop_operation_xyz
x,y,z
-x,-y,-z
loop_
_atom_site_type_symbol
_atom_site_label
_atom_site_fract_x
_atom_site_fract_y
_atom_site_fract_z
Si Si1 0.030865 0.009590 0.231960
Si Si2 0.647311 0.116801 0.458792
Si Si3 0.818127 0.648200 0.711357
Si Si4 0.477197 0.417754 0.032377
Si Si5 0.867394 0.557052 0.226741
Si Si6 0.639930 0.819406 0.142999
Si Si7 0.691167 0.033985 0.971042
Si Si8 0.046604 0.188895 0.586527
O O1 0.092522 0.096187 0.394202
O O2 0.779406 0.097656 0.343708
O O3 0.250321 0.763959 0.050255
O O4 0.069541 0.038257 0.135507
O O5 0.400671 0.343234 0.673588
O O6 0.553075 0.017688 0.346145
O O7 0.841464 0.978081 0.453385
O O8 0.000000 0.500000 0.500000
O O9 0.972358 0.509534 0.710130
O O10 0.786039 0.834687 0.862997
O O11 0.525054 0.769318 0.800161
O O12 0.398818 0.305074 0.903901
O O13 0.500000 0.500000 0.000000
O O14 0.251990 0.610095 0.251760
O O15 0.841076 0.725387 0.313402
O O16 0.058957 0.349030 0.997542
O O17 0.490479 0.889187 0.079253
#
# Coordination Sequence:
#
# PCOD9079330 Si02
#       8
#     2   2   2   2   2   2   2   2
#     4  11  23  39  57  85 121 153 199 241 287 346
#     4  12  23  36  56  85 121 164 190 236 291 342
#     4  10  18  36  67  90 106 142 195 244 292 346
#     4  10  20  37  56  77 108 153 199 241 278 329
#     4  10  22  37  58  87 116 148 195 242 292 345
#     4   9  21  38  56  83 119 149 195 242 286 344
#     4   9  20  38  62  86 112 147 190 245 291 343
#     4  11  23  39  57  82 116 165 202 237 281 338
#
# _framework density 25.346314
#
# number of rings (size 3 to 8) (size 9 to 14) (size 15 to 20)
#    0.000    1.750    1.250    4.500    0.000    4.000 
#    0.000    0.625    0.000   10.500    0.000    0.000 
#    0.000    0.000    0.000    0.000    0.000    0.000 
#
# Total GULP energy -89463.611998 kJ/mol
# GULP energy per Si atom -5591.475750 kJ/mol
# Density = 2.528862 g / cm^3
# Si number density = 25.346314 Si / 1000 Ang^3
#
#
#
# Elastic Constant Matrix: (Units=GPa)
#
#
# Indices 1 2 3 4 5 6 
#
# 1 90.3678 26.6755 31.3714 -1.6848 -25.7824 22.2180
# 2 26.6755 76.9326 8.1332 -6.8573 -1.8431 26.8118
# 3 31.3714 8.1332 154.8122 -11.4220 -47.7843 3.9821
# 4 -1.6848 -6.8573 -11.4220 39.8467 2.1744 -3.8437
# 5 -25.7824 -1.8431 -47.7843 2.1744 55.8673 -14.3543
# 6 22.2180 26.8118 3.9821 -3.8437 -14.3543 36.6886
#
#
#
# Elastic Compliance Matrix: (Units=1/GPa)
#
#
# Indices 1 2 3 4 5 6 
#
# 1 0.014978 -0.003318 -0.001481 -0.001071 0.004316 -0.004908
# 2 -0.003318 0.019228 -0.001719 0.001651 -0.006041 -0.014046
# 3 -0.001481 -0.001719 0.009537 0.002364 0.008534 0.004705
# 4 -0.001071 0.001651 0.002364 0.026179 0.001176 0.002389
# 5 0.004316 -0.006041 0.008534 0.001176 0.030242 0.012830
# 6 -0.004908 -0.014046 0.004705 0.002389 0.012830 0.045253
#
#
# Mechanical properties :
#
#
# Convention : Reuss Voigt Hill
#
# Bulk Modulus (GPa) = 32.56705 50.49699 41.53202
# Shear Modulus (GPa) = 29.64005 43.54269 36.59137
#
# Velocity S-wave (km/s) = 3.42336 4.14926 3.80367
# Velocity P-wave (km/s) = 5.33878 6.55143 5.97595
#
# Compressibility (1/GPa) = 0.03070588
#
# Stress axis : x y z
#
# Youngs Moduli (GPa) = 66.76508 52.00621 104.85030
#
# Poissons Ratio (x) = 0.17258 0.15532
# Poissons Ratio (y) = 0.22156 0.18026
# Poissons Ratio (z) = 0.09890 0.08941
#
# Static dielectric constant tensor:
#      x y z
#    x 2.139760 0.012530 -0.038130 
#    y 0.012530 1.995020 -0.053020 
#    z -0.038130 -0.053020 2.004330 
# 
# From -- ./inp_files/505569.got.cif
#   From: 2010.05.17/outbox.cif.g08.bks.cpg/sg2_253_cif.got.tgz:505569.got - 2010.06.03 11:33:40.
