data_PCOD9079200
_publ_section_title
;
Structure prediction by ZEFSAII (Michael W. Deem and Ramdas Pophale) SiO2 
 PCOD9079200
Probable space group: P -1
;
_chemical_formula_sum "Si O2"
_cell_formula_units_Z 16
_cell_length_a 7.144303
_cell_length_b 8.317437
_cell_length_c 14.601112
_cell_angle_alpha 119.906512
_cell_angle_beta 112.735977
_cell_angle_gamma 69.151208
_cell_volume 679.049193
_symmetry_space_group_name_H-M "P -1"
_symmetry_group_IT_number 2
_symmetry_cell_setting 'triclinic'
loop_
_space_group_symop_operation_xyz
x,y,z
-x,-y,-z
loop_
_atom_site_type_symbol
_atom_site_label
_atom_site_fract_x
_atom_site_fract_y
_atom_site_fract_z
Si Si1 0.021504 0.655008 0.715707
Si Si2 0.458852 0.707716 0.777696
Si Si3 0.241300 0.977017 0.513964
Si Si4 0.180785 0.977830 0.310082
Si Si5 0.147945 0.502624 0.893131
Si Si6 0.282982 0.578446 0.130368
Si Si7 0.288600 0.079509 0.753937
Si Si8 0.316676 0.544369 0.406908
O O1 0.235113 0.655070 0.703690
O O2 0.085975 0.623143 0.824478
O O3 0.906573 0.490078 0.614655
O O4 0.867190 0.854285 0.724821
O O5 0.546390 0.607160 0.860525
O O6 0.620600 0.595540 0.704874
O O7 0.420767 0.929963 0.807888
O O8 0.263652 0.064425 0.442916
O O9 0.306006 0.757713 0.438930
O O10 0.341036 0.025952 0.641925
O O11 0.000000 0.000000 0.500000
O O12 0.302942 0.778330 0.236059
O O13 0.950935 0.940763 0.281543
O O14 0.285581 0.298629 0.833571
O O15 0.933990 0.461924 0.882910
O O16 0.255759 0.594841 0.020958
O O17 0.500000 0.500000 0.500000
#
# Coordination Sequence:
#
# PCOD9079200 Si02
#       8
#     2   2   2   2   2   2   2   2
#     4  11  24  42  63  94 130 169 209 264 321 373
#     4  11  22  41  65  95 130 163 214 266 313 377
#     4  10  18  36  64  87 129 171 198 264 314 369
#     4   9  19  37  60  93 130 161 215 262 312 377
#     4  10  21  41  66  93 127 173 213 260 327 369
#     4  10  20  40  70  92 126 170 214 268 313 379
#     4   9  19  37  59  91 130 167 207 260 317 376
#     4  12  23  43  65  93 131 170 211 257 317 383
#
# _framework density 23.562356999999999
#
# number of rings (size 3 to 8) (size 9 to 14) (size 15 to 20)
#    0.000    1.750    3.750    1.500    0.000    2.000 
#    4.500    0.625    0.000    0.000    0.000    0.000 
#    0.000    0.000    0.000    0.000    0.000    0.000 
#
# Total GULP energy -89387.497063 kJ/mol
# GULP energy per Si atom -5586.718566 kJ/mol
# Density = 2.350873 g / cm^3
# Si number density = 23.562357 Si / 1000 Ang^3
#
#
#
# Elastic Constant Matrix: (Units=GPa)
#
#
# Indices 1 2 3 4 5 6 
#
# 1 72.7695 12.0887 18.1995 2.1359 5.3681 1.6703
# 2 12.0887 150.9769 71.3356 -33.6345 -15.5834 -4.3559
# 3 18.1995 71.3356 119.5339 -22.8969 -5.8654 7.5088
# 4 2.1359 -33.6345 -22.8969 33.2277 -2.4724 1.0328
# 5 5.3681 -15.5834 -5.8654 -2.4724 27.0176 -3.0455
# 6 1.6703 -4.3559 7.5088 1.0328 -3.0455 30.1266
#
#
#
# Elastic Compliance Matrix: (Units=1/GPa)
#
#
# Indices 1 2 3 4 5 6 
#
# 1 0.015142 -0.001653 -0.002403 -0.004649 -0.005002 -0.000826
# 2 -0.001653 0.012077 -0.005028 0.009311 0.007452 0.003525
# 3 -0.002403 -0.005028 0.012755 0.003996 0.000275 -0.003882
# 4 -0.004649 0.009311 0.003996 0.043395 0.011161 0.000249
# 5 -0.005002 0.007452 0.000275 0.011161 0.043989 0.005351
# 6 -0.000826 0.003525 -0.003882 0.000249 0.005351 0.035249
#
#
# Mechanical properties :
#
#
# Convention : Reuss Voigt Hill
#
# Bulk Modulus (GPa) = 45.85831 60.72533 53.29182
# Shear Modulus (GPa) = 26.58976 34.18481 30.38728
#
# Velocity S-wave (km/s) = 3.36294 3.81310 3.59507
# Velocity P-wave (km/s) = 5.88081 6.72417 6.31658
#
# Compressibility (1/GPa) = 0.02180630
#
# Stress axis : x y z
#
# Youngs Moduli (GPa) = 66.04149 82.80470 78.40156
#
# Poissons Ratio (x) = 0.13685 0.18841
# Poissons Ratio (y) = 0.10915 0.39418
# Poissons Ratio (z) = 0.15871 0.41632
#
# Static dielectric constant tensor:
#      x y z
#    x 1.945550 -0.018910 0.013650 
#    y -0.018910 1.773090 0.013730 
#    z 0.013650 0.013730 1.854780 
# 
# From -- ./inp_files/495637.got.cif
#   From: 2010.05.17/outbox.cif.g08.bks.cpg/sg2_248_cif.got.tgz:495637.got - 2010.06.03 11:33:40.
