data_PCOD9079960
_publ_section_title
;
Structure prediction by ZEFSAII (Michael W. Deem and Ramdas Pophale) SiO2 
 PCOD9079960
Probable space group: P -1
;
_chemical_formula_sum "Si O2"
_cell_formula_units_Z 14
_cell_length_a 7.359954
_cell_length_b 7.478945
_cell_length_c 10.919134
_cell_angle_alpha 90.608824
_cell_angle_beta 98.715798
_cell_angle_gamma 62.301017
_cell_volume 524.787094
_symmetry_space_group_name_H-M "P -1"
_symmetry_group_IT_number 2
_symmetry_cell_setting 'triclinic'
loop_
_space_group_symop_operation_xyz
x,y,z
-x,-y,-z
loop_
_atom_site_type_symbol
_atom_site_label
_atom_site_fract_x
_atom_site_fract_y
_atom_site_fract_z
Si Si1 0.679949 0.691403 0.674420
Si Si2 0.894455 0.059265 0.123070
Si Si3 0.509285 0.781406 0.027426
Si Si4 0.907293 0.640142 0.191684
Si Si5 0.686695 0.064028 0.740303
Si Si6 0.295413 0.765635 0.516032
Si Si7 0.122768 0.230478 0.549569
O O1 0.857156 0.534476 0.779139
O O2 0.501201 0.637853 0.614412
O O3 0.587555 0.912821 0.726749
O O4 0.777586 0.729704 0.560025
O O5 0.063170 0.085632 0.221812
O O6 0.904433 0.851969 0.167876
O O7 0.654223 0.228884 0.085594
O O8 0.000000 0.000000 0.000000
O O9 0.750140 0.625152 0.077025
O O10 0.401119 0.801035 0.148292
O O11 0.500000 0.000000 0.000000
O O12 0.832787 0.670522 0.326006
O O13 0.654007 0.187746 0.614792
O O14 0.124142 0.690203 0.491115
O O15 0.199983 0.990477 0.567792
#
# Coordination Sequence:
#
# PCOD9079960 Si02
#       7
#     2   2   2   2   2   2   2
#     4  11  23  35  55  92 122 146 182 234 289 335
#     4   9  19  37  58  78 101 148 199 231 272 341
#     4   9  19  35  60  80 101 147 198 234 277 336
#     4  11  20  37  56  85 117 145 184 242 289 322
#     4  10  18  38  59  79 114 152 189 230 278 342
#     4  10  20  36  58  86 117 156 190 218 275 353
#     4  10  20  36  58  85 120 153 191 219 272 357
#
# _framework density 26.677485000000001
#
# number of rings (size 3 to 8) (size 9 to 14) (size 15 to 20)
#    0.000    2.000    1.429    3.857    0.000    0.571 
#    5.143    7.143    0.000    0.000    0.000    0.000 
#    0.000    0.000    0.000    0.000    0.000    0.000 
#
# Total GULP energy -78351.853861 kJ/mol
# GULP energy per Si atom -5596.560990 kJ/mol
# Density = 2.661677 g / cm^3
# Si number density = 26.677485 Si / 1000 Ang^3
#
#
#
# Elastic Constant Matrix: (Units=GPa)
#
#
# Indices 1 2 3 4 5 6 
#
# 1 143.4159 5.9358 46.1092 -15.8194 64.1753 -7.7221
# 2 5.9358 62.2436 17.2023 -6.7059 15.0107 -1.7639
# 3 46.1092 17.2023 92.4622 -14.0657 18.6905 -2.8289
# 4 -15.8194 -6.7059 -14.0657 18.5486 -10.3481 10.5293
# 5 64.1753 15.0107 18.6905 -10.3481 74.9355 -4.9736
# 6 -7.7221 -1.7639 -2.8289 10.5293 -4.9736 29.2024
#
#
#
# Elastic Compliance Matrix: (Units=1/GPa)
#
#
# Indices 1 2 3 4 5 6 
#
# 1 0.013343 0.002838 -0.004633 0.002818 -0.010421 0.000460
# 2 0.002838 0.018278 -0.003209 0.004445 -0.004735 -0.000865
# 3 -0.004633 -0.003209 0.014544 0.008600 0.001986 -0.002772
# 4 0.002818 0.004445 0.008600 0.082083 0.004091 -0.027053
# 5 -0.010421 -0.004735 0.001986 0.004091 0.023263 -0.000362
# 6 0.000460 -0.000865 -0.002772 -0.027053 -0.000362 0.043737
#
#
# Mechanical properties :
#
#
# Convention : Reuss Voigt Hill
#
# Bulk Modulus (GPa) = 27.65653 48.51293 38.08473
# Shear Modulus (GPa) = 23.00861 39.79559 31.40210
#
# Velocity S-wave (km/s) = 2.93998 3.86648 3.43461
# Velocity P-wave (km/s) = 4.68125 6.17716 5.48049
#
# Compressibility (1/GPa) = 0.03615782
#
# Stress axis : x y z
#
# Youngs Moduli (GPa) = 74.94390 54.70964 68.75480
#
# Poissons Ratio (x) = -0.15524 0.31853
# Poissons Ratio (y) = -0.21266 0.22063
# Poissons Ratio (z) = 0.34720 0.17556
#
# Static dielectric constant tensor:
#      x y z
#    x 2.177940 -0.098730 0.055540 
#    y -0.098730 2.098150 0.048680 
#    z 0.055540 0.048680 2.122930 
# 
# From -- ./inp_files/374077.got.cif
#   From: 2010.05.17/outbox.cif.g08.bks.cpg/sg2_188_cif.got.tgz:374077.got - 2010.06.03 11:33:40.
