data_PCOD9079016
_publ_section_title
;
Structure prediction by ZEFSAII (Michael W. Deem and Ramdas Pophale) SiO2 
 PCOD9079016
Probable space group: P -1
;
_chemical_formula_sum "Si O2"
_cell_formula_units_Z 12
_cell_length_a 9.217705
_cell_length_b 20.197548
_cell_length_c 8.776350
_cell_angle_alpha 33.401434
_cell_angle_beta 58.778555
_cell_angle_gamma 42.640859
_cell_volume 588.876039
_symmetry_space_group_name_H-M "P -1"
_symmetry_group_IT_number 2
_symmetry_cell_setting 'triclinic'
loop_
_space_group_symop_operation_xyz
x,y,z
-x,-y,-z
loop_
_atom_site_type_symbol
_atom_site_label
_atom_site_fract_x
_atom_site_fract_y
_atom_site_fract_z
Si Si1 0.409286 0.451255 0.019402
Si Si2 0.163170 0.007219 0.999193
Si Si3 0.934695 0.598998 0.054295
Si Si4 0.751714 0.090467 0.517808
Si Si5 0.586993 0.922998 0.767237
Si Si6 0.918370 0.356465 0.414445
O O1 0.199215 0.481146 0.155088
O O2 0.587955 0.273153 0.210749
O O3 0.500000 0.500000 0.000000
O O4 0.298748 0.571478 0.706348
O O5 0.028107 0.192526 0.745775
O O6 0.387544 0.941582 0.917502
O O7 0.230623 0.918538 0.291965
O O8 0.000000 0.000000 0.000000
O O9 0.863489 0.493596 0.287889
O O10 0.913907 0.667047 0.763522
O O11 0.799055 0.741316 0.970798
O O12 0.658034 0.007908 0.661217
O O13 0.000000 0.000000 0.500000
O O14 0.500000 0.000000 0.500000
#
# Coordination Sequence:
#
# PCOD9079016 Si02
#       6
#     2   2   2   2   2   2
#     4  10  18  36  61  89 123 164 206 261 316 372
#     4  12  25  43  64  98 134 169 218 269 320 388
#     4   9  19  37  67  90 119 167 214 253 327 379
#     4  12  26  42  64  99 132 172 218 270 321 385
#     4  12  21  41  68  96 128 172 215 266 328 381
#     4   9  19  40  64  88 124 167 212 256 321 379
#
# _framework density 20.377804000000001
#
# number of rings (size 3 to 8) (size 9 to 14) (size 15 to 20)
#    1.000    0.333    1.667    5.500    0.000    0.000 
#    0.000    8.333    0.000    0.000    0.000    0.000 
#    0.000    0.000    0.000    0.000    0.000    0.000 
#
# Total GULP energy -66983.212353 kJ/mol
# GULP energy per Si atom -5581.934363 kJ/mol
# Density = 2.033142 g / cm^3
# Si number density = 20.377804 Si / 1000 Ang^3
#
#
#
# Elastic Constant Matrix: (Units=GPa)
#
#
# Indices 1 2 3 4 5 6 
#
# 1 116.4478 25.1743 -25.4318 1.1696 -12.1635 -3.0088
# 2 25.1743 99.2471 1.9796 -11.5833 -2.4197 -18.3256
# 3 -25.4318 1.9796 23.5460 -9.6236 6.4136 -8.8456
# 4 1.1696 -11.5833 -9.6236 47.6377 4.1720 -2.4400
# 5 -12.1635 -2.4197 6.4136 4.1720 31.9376 -7.4805
# 6 -3.0088 -18.3256 -8.8456 -2.4400 -7.4805 35.8450
#
#
#
# Elastic Compliance Matrix: (Units=1/GPa)
#
#
# Indices 1 2 3 4 5 6 
#
# 1 0.013009 -0.002460 0.016327 0.002416 0.002226 0.004493
# 2 -0.002460 0.012307 -0.000244 0.003236 0.001141 0.006484
# 3 0.016327 -0.000244 0.076097 0.016504 -0.006607 0.019769
# 4 0.002416 0.003236 0.016504 0.025747 -0.003904 0.006868
# 5 0.002226 0.001141 -0.006607 -0.003904 0.035556 0.006294
# 6 0.004493 0.006484 0.019769 0.006868 0.006294 0.038249
#
#
# Mechanical properties :
#
#
# Convention : Reuss Voigt Hill
#
# Bulk Modulus (GPa) = 7.77244 26.96503 17.36874
# Shear Modulus (GPa) = 23.08339 38.91866 31.00103
#
# Velocity S-wave (km/s) = 3.36932 4.37493 3.90463
# Velocity P-wave (km/s) = 4.35418 6.22746 5.37309
#
# Compressibility (1/GPa) = 0.12865979
#
# Stress axis : x y z
#
# Youngs Moduli (GPa) = 76.86764 81.25249 13.14118
#
# Poissons Ratio (x) = 0.19986 -0.21455
# Poissons Ratio (y) = 0.18908 0.00320
# Poissons Ratio (z) = -1.25500 0.01981
#
# Static dielectric constant tensor:
#      x y z
#    x 1.783880 -0.024110 0.035280 
#    y -0.024110 1.771300 0.014700 
#    z 0.035280 0.014700 1.757450 
# 
# From -- ./inp_files/214085.got.cif
#   From: 2010.05.17/outbox.cif.g08.bks.cpg/sg2_108_cif.got.tgz:214085.got - 2010.06.03 11:33:40.
