data_PCOD9079672
_publ_section_title
;
Structure prediction by ZEFSAII (Michael W. Deem and Ramdas Pophale) SiO2 
 PCOD9079672
Probable space group: P -1
;
_chemical_formula_sum "Si O2"
_cell_formula_units_Z 12
_cell_length_a 10.743333
_cell_length_b 8.769097
_cell_length_c 7.682939
_cell_angle_alpha 110.816172
_cell_angle_beta 122.819139
_cell_angle_gamma 51.701340
_cell_volume 477.160589
_symmetry_space_group_name_H-M "P -1"
_symmetry_group_IT_number 2
_symmetry_cell_setting 'triclinic'
loop_
_space_group_symop_operation_xyz
x,y,z
-x,-y,-z
loop_
_atom_site_type_symbol
_atom_site_label
_atom_site_fract_x
_atom_site_fract_y
_atom_site_fract_z
Si Si1 0.178053 0.721776 0.451860
Si Si2 0.196235 0.814239 0.042303
Si Si3 0.648154 0.894571 0.356775
Si Si4 0.209308 0.016989 0.802103
Si Si5 0.019655 0.669416 0.656919
Si Si6 0.529027 0.711429 0.448863
O O1 0.230783 0.874402 0.600830
O O2 0.096320 0.723220 0.577547
O O3 0.333243 0.499714 0.455207
O O4 0.996726 0.821153 0.247204
O O5 0.269865 0.882546 0.964699
O O6 0.150460 0.651785 0.898155
O O7 0.341772 0.739461 0.272595
O O8 0.000000 0.000000 0.000000
O O9 0.600488 0.745329 0.334779
O O10 0.815108 0.841503 0.587362
O O11 0.702512 0.881043 0.189110
O O12 0.496425 0.114508 0.379028
O O13 0.000000 0.500000 0.500000
#
# Coordination Sequence:
#
# PCOD9079672 Si02
#       6
#     2   2   2   2   2   2
#     4   9  19  36  63  92 115 171 207 247 304 392
#     4  11  23  40  63  95 127 161 207 274 309 357
#     4  10  21  39  62  94 124 171 201 255 311 390
#     4   9  21  39  61  90 130 164 205 249 324 372
#     4  10  18  37  63  85 121 168 205 238 315 384
#     4  11  22  37  67  94 127 156 218 257 309 363
#
# _framework density 25.148765999999998
#
# number of rings (size 3 to 8) (size 9 to 14) (size 15 to 20)
#    0.000    2.000    3.333    1.000    0.000    4.000 
#    0.000    0.000    0.000    8.000    0.000    0.000 
#    0.000    0.000    0.000    0.000    0.000    0.000 
#
# Total GULP energy -66860.166399 kJ/mol
# GULP energy per Si atom -5571.680533 kJ/mol
# Density = 2.509153 g / cm^3
# Si number density = 25.148766 Si / 1000 Ang^3
#
#
#
# Elastic Constant Matrix: (Units=GPa)
#
#
# Indices 1 2 3 4 5 6 
#
# 1 99.9796 14.4101 15.2975 -9.0292 -10.5236 18.4359
# 2 14.4101 155.4906 31.9761 -19.5216 3.0347 -1.5473
# 3 15.2975 31.9761 90.8852 -19.6241 4.8972 3.9340
# 4 -9.0292 -19.5216 -19.6241 28.4271 0.7522 6.4361
# 5 -10.5236 3.0347 4.8972 0.7522 32.0978 -3.7792
# 6 18.4359 -1.5473 3.9340 6.4361 -3.7792 39.2346
#
#
#
# Elastic Compliance Matrix: (Units=1/GPa)
#
#
# Indices 1 2 3 4 5 6 
#
# 1 0.012030 -0.000545 -0.000870 0.004103 0.003333 -0.005939
# 2 -0.000545 0.007300 -0.001636 0.003722 -0.000703 0.000030
# 3 -0.000870 -0.001636 0.013920 0.008914 -0.002791 -0.002783
# 4 0.004103 0.003722 0.008914 0.047700 -0.002752 -0.010765
# 5 0.003333 -0.000703 -0.002791 -0.002752 0.033078 0.002324
# 6 -0.005939 0.000030 -0.002783 -0.010765 0.002324 0.030548
#
#
# Mechanical properties :
#
#
# Convention : Reuss Voigt Hill
#
# Bulk Modulus (GPa) = 36.83489 52.19142 44.51315
# Shear Modulus (GPa) = 31.30317 38.93001 35.11659
#
# Velocity S-wave (km/s) = 3.53189 3.93872 3.74084
# Velocity P-wave (km/s) = 5.59561 6.44071 6.03298
#
# Compressibility (1/GPa) = 0.02714818
#
# Stress axis : x y z
#
# Youngs Moduli (GPa) = 83.12416 136.99457 71.83681
#
# Poissons Ratio (x) = 0.07467 0.06248
# Poissons Ratio (y) = 0.04531 0.11754
# Poissons Ratio (z) = 0.07229 0.22415
#
# Static dielectric constant tensor:
#      x y z
#    x 2.162840 0.098580 0.108990 
#    y 0.098580 2.203090 0.157020 
#    z 0.108990 0.157020 2.166490 
# 
# From -- ./inp_files/153266.got.cif
#   From: 2010.05.17/outbox.cif.g08.bks.cpg/sg2_77_cif.got.tgz:153266.got - 2010.06.03 11:33:40.
