data_PCOD9079464
_publ_section_title
;
Structure prediction by ZEFSAII (Michael W. Deem and Ramdas Pophale) SiO2 
 PCOD9079464
Probable space group: P -1
;
_chemical_formula_sum "Si O2"
_cell_formula_units_Z 16
_cell_length_a 11.697457
_cell_length_b 17.927465
_cell_length_c 10.114472
_cell_angle_alpha 62.590599
_cell_angle_beta 74.208307
_cell_angle_gamma 30.949351
_cell_volume 932.759568
_symmetry_space_group_name_H-M "P -1"
_symmetry_group_IT_number 2
_symmetry_cell_setting 'triclinic'
loop_
_space_group_symop_operation_xyz
x,y,z
-x,-y,-z
loop_
_atom_site_type_symbol
_atom_site_label
_atom_site_fract_x
_atom_site_fract_y
_atom_site_fract_z
Si Si1 0.489500 0.111692 0.057098
Si Si2 0.691531 0.183994 0.349514
Si Si3 0.356019 0.527047 0.120826
Si Si4 0.351986 0.814640 0.111150
Si Si5 0.837444 0.013278 0.691990
Si Si6 0.353051 0.622946 0.322231
Si Si7 0.827941 0.842695 0.938562
Si Si8 0.824098 0.984387 0.241400
O O1 0.269989 0.184977 0.064299
O O2 0.631403 0.035052 0.211391
O O3 0.452363 0.230996 0.924497
O O4 0.672286 0.961931 0.017303
O O5 0.470278 0.366026 0.217207
O O6 0.673309 0.162590 0.521761
O O7 0.764831 0.061421 0.336049
O O8 0.903751 0.121045 0.324135
O O9 0.373163 0.553487 0.242300
O O10 0.500000 0.500000 0.000000
O O11 0.092401 0.682294 0.030796
O O12 0.205865 0.926813 0.195712
O O13 0.424654 0.674582 0.216063
O O14 0.206193 0.924091 0.935744
O O15 0.798170 0.937891 0.768866
O O16 0.500000 0.500000 0.500000
O O17 0.082718 0.793475 0.307696
#
# Coordination Sequence:
#
# PCOD9079464 Si02
#       8
#     2   2   2   2   2   2   2   2
#     4   8  19  34  64  78  99 147 203 223 247 321
#     4  11  22  33  52  84 118 143 169 225 294 329
#     4  12  23  34  55  89 113 141 176 237 278 320
#     4   9  18  35  59  77 102 147 192 219 260 324
#     4  10  19  33  55  79 113 147 175 219 282 334
#     4  12  22  33  55  87 117 137 178 237 277 315
#     4  10  18  37  59  82 105 142 196 229 259 318
#     4  10  20  37  59  79 103 153 193 216 263 335
#
# _framework density 17.153400999999999
#
# number of rings (size 3 to 8) (size 9 to 14) (size 15 to 20)
#    0.750    1.000    3.750    1.875    1.750    0.000 
#    0.000    1.250    2.750    3.000    0.000    0.000 
#    0.000    0.000    0.000    0.000    0.000    0.000 
#
# Total GULP energy -89136.943605 kJ/mol
# GULP energy per Si atom -5571.058975 kJ/mol
# Density = 1.711436 g / cm^3
# Si number density = 17.153401 Si / 1000 Ang^3
#
#
#
# Elastic Constant Matrix: (Units=GPa)
#
#
# Indices 1 2 3 4 5 6 
#
# 1 111.5528 17.0335 23.4873 2.0496 3.4174 -13.5197
# 2 17.0335 45.6441 17.6828 -2.2764 5.1027 -2.0769
# 3 23.4873 17.6828 77.7784 -12.1300 5.6941 -12.3848
# 4 2.0496 -2.2764 -12.1300 19.4525 1.8444 4.3778
# 5 3.4174 5.1027 5.6941 1.8444 17.1708 1.8435
# 6 -13.5197 -2.0769 -12.3848 4.3778 1.8435 21.7306
#
#
#
# Elastic Compliance Matrix: (Units=1/GPa)
#
#
# Indices 1 2 3 4 5 6 
#
# 1 0.010711 -0.003002 -0.002184 -0.004129 -0.000719 0.006025
# 2 -0.003002 0.025378 -0.004549 0.001377 -0.005384 -0.001856
# 3 -0.002184 -0.004549 0.017561 0.009677 -0.005802 0.006757
# 4 -0.004129 0.001377 0.009677 0.060736 -0.008414 -0.008444
# 5 -0.000719 -0.005384 -0.005802 -0.008414 0.063665 -0.007974
# 6 0.006025 -0.001856 0.006757 -0.008444 -0.007974 0.055818
#
#
# Mechanical properties :
#
#
# Convention : Reuss Voigt Hill
#
# Bulk Modulus (GPa) = 29.25888 39.04249 34.15069
# Shear Modulus (GPa) = 18.88700 23.45558 21.17129
#
# Velocity S-wave (km/s) = 3.32183 3.70185 3.51698
# Velocity P-wave (km/s) = 5.63976 6.40951 6.03692
#
# Compressibility (1/GPa) = 0.03417766
#
# Stress axis : x y z
#
# Youngs Moduli (GPa) = 93.36450 39.40463 56.94500
#
# Poissons Ratio (x) = 0.11831 0.12436
# Poissons Ratio (y) = 0.28032 0.25907
# Poissons Ratio (z) = 0.20389 0.17927
#
# Static dielectric constant tensor:
#      x y z
#    x 1.607820 0.013610 -0.008090 
#    y 0.013610 1.581010 -0.000120 
#    z -0.008090 -0.000120 1.577810 
# 
# From -- ./inp_files/277569.got.cif
#   From: 2010.05.17/outbox.cif.g08.bks.cpg/sg2_139_cif.got.tgz:277569.got - 2010.06.03 11:33:40.
