data_PCOD9079929
_publ_section_title
;
Structure prediction by ZEFSAII (Michael W. Deem and Ramdas Pophale) SiO2 
 PCOD9079929
Probable space group: P -1
;
_chemical_formula_sum "Si O2"
_cell_formula_units_Z 16
_cell_length_a 11.492422
_cell_length_b 7.500276
_cell_length_c 17.187786
_cell_angle_alpha 86.791966
_cell_angle_beta 145.368536
_cell_angle_gamma 70.642007
_cell_volume 627.561902
_symmetry_space_group_name_H-M "P -1"
_symmetry_group_IT_number 2
_symmetry_cell_setting 'triclinic'
loop_
_space_group_symop_operation_xyz
x,y,z
-x,-y,-z
loop_
_atom_site_type_symbol
_atom_site_label
_atom_site_fract_x
_atom_site_fract_y
_atom_site_fract_z
Si Si1 0.177253 0.804079 0.415415
Si Si2 0.163522 0.123658 0.093898
Si Si3 0.461972 0.469631 0.234793
Si Si4 0.390412 0.837459 0.084243
Si Si5 0.620868 0.913901 0.463368
Si Si6 0.830002 0.080979 0.746382
Si Si7 0.375920 0.761676 0.830783
Si Si8 0.789693 0.541359 0.192928
O O1 0.394900 0.605431 0.601133
O O2 0.211315 0.737365 0.344056
O O3 0.249634 0.972069 0.450046
O O4 0.874016 0.973216 0.280974
O O5 0.225673 0.077294 0.037738
O O6 0.434602 0.057071 0.280836
O O7 0.166740 0.938808 0.155859
O O8 0.864934 0.377421 0.941525
O O9 0.509942 0.638254 0.220124
O O10 0.591350 0.268102 0.243686
O O11 0.613813 0.766982 0.148535
O O12 0.151245 0.858989 0.910855
O O13 0.392569 0.944620 0.387601
O O14 0.885614 0.630388 0.613954
O O15 0.295254 0.606691 0.818290
O O16 0.660412 0.640404 0.034344
#
# Coordination Sequence:
#
# PCOD9079929 Si02
#       8
#     2   2   2   2   2   2   2   2
#     4  11  19  33  51  84 110 132 169 217 276 310
#     4   9  21  36  52  75 109 140 177 214 247 308
#     4  10  20  31  54  82 106 136 168 221 271 296
#     4  10  18  38  57  73 104 140 189 209 243 309
#     4   9  21  31  53  81 108 135 170 218 259 313
#     4   9  18  33  53  76 103 139 170 218 247 305
#     4   9  18  31  51  79 108 131 175 215 262 313
#     4   9  17  31  57  78  96 142 176 214 257 303
#
# _framework density 25.495493
#
# number of rings (size 3 to 8) (size 9 to 14) (size 15 to 20)
#    0.750    1.750    1.250    2.250    5.250    1.000 
#    0.000    2.500    0.000    0.000    0.000    2.625 
#    0.000    0.000    0.000    0.000    0.000    0.000 
#
# Total GULP energy -89070.550372 kJ/mol
# GULP energy per Si atom -5566.909398 kJ/mol
# Density = 2.543746 g / cm^3
# Si number density = 25.495493 Si / 1000 Ang^3
#
#
#
# Elastic Constant Matrix: (Units=GPa)
#
#
# Indices 1 2 3 4 5 6 
#
# 1 37.0898 30.5422 53.7524 11.9488 -38.4005 56.5249
# 2 30.5422 30.1573 23.8852 -1.5581 3.1710 -5.4346
# 3 53.7524 23.8852 174.8640 -3.9879 -6.0095 -14.5867
# 4 11.9488 -1.5581 -3.9879 29.6393 -3.3116 -7.4520
# 5 -38.4005 3.1710 -6.0095 -3.3116 32.5104 47.4593
# 6 56.5249 -5.4346 -14.5867 -7.4520 47.4593 -45.5137
#
#
#
# Elastic Compliance Matrix: (Units=1/GPa)
#
#
# Indices 1 2 3 4 5 6 
#
# 1 0.012775 -0.008765 -0.001824 -0.002958 -0.004339 0.013457
# 2 -0.008765 0.042860 -0.004025 0.002488 0.002795 -0.012206
# 3 -0.001824 -0.004025 0.006784 0.001234 0.002257 -0.001807
# 4 -0.002958 0.002488 0.001234 0.034882 0.005850 -0.003977
# 5 -0.004339 0.002795 0.002257 0.005850 0.014742 0.007969
# 6 0.013457 -0.012206 -0.001807 -0.003977 0.007969 0.005739
#
#
# Mechanical properties :
#
#
# Convention : Reuss Voigt Hill
#
# Bulk Modulus (GPa) = 30.12935 50.94120 40.53528
# Shear Modulus (GPa) = 31.63090 12.25595 21.94343
#
# Velocity S-wave (km/s) = 3.52610 2.19489 2.93692
# Velocity P-wave (km/s) = 5.33114 5.14269 5.23776
#
# Compressibility (1/GPa) = 0.03319023
#
# Stress axis : x y z
#
# Youngs Moduli (GPa) = 78.27804 23.33195 147.40330
#
# Poissons Ratio (x) = 0.20451 0.26882
# Poissons Ratio (y) = 0.68612 0.59336
# Poissons Ratio (z) = 0.14276 0.09392
#
# Static dielectric constant tensor:
#      x y z
#    x 1.993160 0.028530 -0.009230 
#    y 0.028530 2.203920 0.110260 
#    z -0.009230 0.110260 2.208020 
# 
# From -- ./inp_files/517898.got.cif
#   From: 2010.05.17/outbox.cif.g08.bks.cpg/sg2_259_cif.got.tgz:517898.got - 2010.06.03 11:33:40.
