data_PCOD9079423
_publ_section_title
;
Structure prediction by ZEFSAII (Michael W. Deem and Ramdas Pophale) SiO2 
 PCOD9079423
Probable space group: P -1
;
_chemical_formula_sum "Si O2"
_cell_formula_units_Z 16
_cell_length_a 15.216199
_cell_length_b 12.280106
_cell_length_c 8.999840
_cell_angle_alpha 48.595767
_cell_angle_beta 71.555367
_cell_angle_gamma 50.441220
_cell_volume 956.367438
_symmetry_space_group_name_H-M "P -1"
_symmetry_group_IT_number 2
_symmetry_cell_setting 'triclinic'
loop_
_space_group_symop_operation_xyz
x,y,z
-x,-y,-z
loop_
_atom_site_type_symbol
_atom_site_label
_atom_site_fract_x
_atom_site_fract_y
_atom_site_fract_z
Si Si1 0.497500 0.778967 0.757928
Si Si2 0.646007 0.507152 0.168550
Si Si3 0.882385 0.445399 0.021474
Si Si4 0.349158 0.177219 0.579765
Si Si5 0.092041 0.403044 0.409043
Si Si6 0.648738 0.166500 0.503670
Si Si7 0.889850 0.769944 0.734666
Si Si8 0.540890 0.805822 0.213545
O O1 0.598202 0.775880 0.624491
O O2 0.412069 0.807117 0.647542
O O3 0.426782 0.959158 0.734475
O O4 0.559035 0.604255 0.986985
O O5 0.771390 0.452360 0.105187
O O6 0.655607 0.332113 0.370225
O O7 0.593991 0.656210 0.192156
O O8 0.000841 0.280595 0.182948
O O9 0.903638 0.458374 0.824181
O O10 0.860316 0.631444 0.926887
O O11 0.218237 0.263701 0.536164
O O12 0.366027 0.247900 0.658761
O O13 0.070965 0.294822 0.398284
O O14 0.000000 0.500000 0.500000
O O15 0.566039 0.171922 0.666430
O O16 0.774991 0.973822 0.616640
O O17 0.500000 0.000000 0.000000
#
# Coordination Sequence:
#
# PCOD9079423 Si02
#       8
#     2   2   2   2   2   2   2   2
#     4  10  18  37  57  84 111 147 190 231 275 347
#     4  12  22  37  57  84 121 153 183 228 290 345
#     4   9  20  37  58  80 108 148 194 234 280 324
#     4  10  19  33  60  85 109 143 193 237 284 317
#     4  10  19  33  58  85 108 133 190 249 274 314
#     4  11  23  37  57  85 119 152 184 227 289 351
#     4   9  19  38  57  82 111 143 198 233 278 327
#     4  11  23  35  58  86 116 146 189 236 277 331
#
# _framework density 16.729970999999999
#
# number of rings (size 3 to 8) (size 9 to 14) (size 15 to 20)
#    0.750    1.000    3.750    1.500    3.500    1.500 
#    0.000    0.000    0.000    0.750    0.000    0.000 
#    0.000    0.000    0.000    0.000    0.000    0.000 
#
# Total GULP energy -89173.284673 kJ/mol
# GULP energy per Si atom -5573.330292 kJ/mol
# Density = 1.669189 g / cm^3
# Si number density = 16.729971 Si / 1000 Ang^3
#
#
#
# Elastic Constant Matrix: (Units=GPa)
#
#
# Indices 1 2 3 4 5 6 
#
# 1 70.7166 45.0998 52.0604 -1.4370 5.4381 -11.1760
# 2 45.0998 78.7990 47.4122 6.6377 -5.6025 -10.1778
# 3 52.0604 47.4122 95.7416 -3.0023 -2.6461 -13.8691
# 4 -1.4370 6.6377 -3.0023 27.3119 0.9581 0.5641
# 5 5.4381 -5.6025 -2.6461 0.9581 23.7901 -11.9431
# 6 -11.1760 -10.1778 -13.8691 0.5641 -11.9431 17.4301
#
#
#
# Elastic Compliance Matrix: (Units=1/GPa)
#
#
# Indices 1 2 3 4 5 6 
#
# 1 0.031554 -0.013397 -0.012034 0.004328 -0.016049 -0.008303
# 2 -0.013397 0.026354 -0.003131 -0.008416 0.017620 0.016653
# 3 -0.012034 -0.003131 0.021179 0.001710 0.012105 0.015547
# 4 0.004328 -0.008416 0.001710 0.039523 -0.008240 -0.007704
# 5 -0.016049 0.017620 0.012105 -0.008240 0.086125 0.068910
# 6 -0.008303 0.016653 0.015547 -0.007704 0.068910 0.121610
#
#
# Mechanical properties :
#
#
# Convention : Reuss Voigt Hill
#
# Bulk Modulus (GPa) = 45.52904 59.37799 52.45352
# Shear Modulus (GPa) = 12.79456 20.41873 16.60665
#
# Velocity S-wave (km/s) = 2.76845 3.49734 3.15402
# Velocity P-wave (km/s) = 6.12309 7.20261 6.68467
#
# Compressibility (1/GPa) = 0.02196400
#
# Stress axis : x y z
#
# Youngs Moduli (GPa) = 31.69155 37.94425 47.21588
#
# Poissons Ratio (x) = 0.50833 0.56820
# Poissons Ratio (y) = 0.42457 0.14783
# Poissons Ratio (z) = 0.38138 0.11880
#
# Static dielectric constant tensor:
#      x y z
#    x 1.560860 0.018600 0.013660 
#    y 0.018600 1.541830 0.005280 
#    z 0.013660 0.005280 1.572890 
# 
# From -- ./inp_files/239317.got.cif
#   From: 2010.05.17/outbox.cif.g08.bks.cpg/sg2_120_cif.got.tgz:239317.got - 2010.06.03 11:33:40.
