data_PCOD9079230
_publ_section_title
;
Structure prediction by ZEFSAII (Michael W. Deem and Ramdas Pophale) SiO2 
 PCOD9079230
Probable space group: P -1
;
_chemical_formula_sum "Si O2"
_cell_formula_units_Z 14
_cell_length_a 18.295569
_cell_length_b 9.741352
_cell_length_c 9.472917
_cell_angle_alpha 150.393649
_cell_angle_beta 120.154973
_cell_angle_gamma 59.885430
_cell_volume 712.815162
_symmetry_space_group_name_H-M "P -1"
_symmetry_group_IT_number 2
_symmetry_cell_setting 'triclinic'
loop_
_space_group_symop_operation_xyz
x,y,z
-x,-y,-z
loop_
_atom_site_type_symbol
_atom_site_label
_atom_site_fract_x
_atom_site_fract_y
_atom_site_fract_z
Si Si1 0.806139 0.707582 0.283358
Si Si2 0.524831 0.561618 0.238453
Si Si3 0.360735 0.989411 0.151174
Si Si4 0.586178 0.429740 0.612430
Si Si5 0.940062 0.795012 0.695398
Si Si6 0.305797 0.095770 0.888792
Si Si7 0.766283 0.112495 0.830622
O O1 0.898062 0.787987 0.491143
O O2 0.780684 0.768944 0.152913
O O3 0.741215 0.931448 0.512167
O O4 0.795328 0.398221 0.054028
O O5 0.592126 0.777021 0.518834
O O6 0.443745 0.669023 0.353446
O O7 0.500000 0.500000 0.000000
O O8 0.568316 0.255266 0.059536
O O9 0.304767 0.849269 0.085067
O O10 0.305064 0.106152 0.066680
O O11 0.500000 0.500000 0.500000
O O12 0.657809 0.214153 0.409472
O O13 0.624698 0.714226 0.923449
O O14 0.000000 0.500000 0.500000
O O15 0.849311 0.899610 0.779420
O O16 0.000000 0.000000 0.000000
#
# Coordination Sequence:
#
# PCOD9079230 Si02
#       7
#     2   2   2   2   2   2   2
#     4  10  22  37  61  95 112 159 194 246 290 352
#     4  12  27  38  59  84 115 157 209 262 300 350
#     4  12  24  43  56  87 121 159 196 250 314 350
#     4  12  23  42  59  83 114 163 211 249 307 338
#     4  10  18  36  64  93 120 148 192 240 289 354
#     4  12  24  40  64  83 123 160 206 252 294 368
#     4  10  22  37  61  89 121 149 196 237 301 348
#
# _framework density 19.640435
#
# number of rings (size 3 to 8) (size 9 to 14) (size 15 to 20)
#    0.857    0.000    4.286    3.429    6.000    0.000 
#    0.000    0.000    0.000    1.714    0.000    0.000 
#    0.000    0.000    0.000    0.000    0.000    0.000 
#
# Total GULP energy -77971.437028 kJ/mol
# GULP energy per Si atom -5569.388359 kJ/mol
# Density = 1.959573 g / cm^3
# Si number density = 19.640435 Si / 1000 Ang^3
#
#
#
# Elastic Constant Matrix: (Units=GPa)
#
#
# Indices 1 2 3 4 5 6 
#
# 1 18.7127 20.4092 12.7480 -4.7998 -8.1227 -0.8448
# 2 20.4092 118.9073 38.5200 -23.3432 7.6505 -12.9480
# 3 12.7480 38.5200 115.0638 8.4642 3.0893 -1.5217
# 4 -4.7998 -23.3432 8.4642 32.6663 -2.6396 -2.8733
# 5 -8.1227 7.6505 3.0893 -2.6396 22.8675 1.0883
# 6 -0.8448 -12.9480 -1.5217 -2.8733 1.0883 27.6889
#
#
#
# Elastic Compliance Matrix: (Units=1/GPa)
#
#
# Indices 1 2 3 4 5 6 
#
# 1 0.094907 -0.015928 -0.006889 0.007157 0.041074 -0.005803
# 2 -0.015928 0.015874 -0.003914 0.009950 -0.009678 0.008135
# 3 -0.006889 -0.003914 0.011359 -0.007206 -0.003407 -0.002030
# 4 0.007157 0.009950 -0.007206 0.041772 0.004598 0.008629
# 5 0.041074 -0.009678 -0.003407 0.004598 0.062808 -0.005451
# 6 -0.005803 0.008135 -0.002030 0.008629 -0.005451 0.040741
#
#
# Mechanical properties :
#
#
# Convention : Reuss Voigt Hill
#
# Bulk Modulus (GPa) = 14.56050 44.00422 29.28236
# Shear Modulus (GPa) = 14.54273 28.71166 21.62719
#
# Velocity S-wave (km/s) = 2.72407 3.82758 3.32197
# Velocity P-wave (km/s) = 4.16218 6.47977 5.44569
#
# Compressibility (1/GPa) = 0.06867897
#
# Stress axis : x y z
#
# Youngs Moduli (GPa) = 10.53663 62.99783 88.03601
#
# Poissons Ratio (x) = 1.00342 0.60644
# Poissons Ratio (y) = 0.16783 0.34456
# Poissons Ratio (z) = 0.07258 0.24657
#
# Static dielectric constant tensor:
#      x y z
#    x 1.683210 -0.030070 -0.005300 
#    y -0.030070 1.812530 -0.026630 
#    z -0.005300 -0.026630 1.716100 
# 
# From -- ./inp_files/226033.got.cif
#   From: 2010.05.17/outbox.cif.g08.bks.cpg/sg2_114_cif.got.tgz:226033.got - 2010.06.03 11:33:40.
