data_PCOD9079770
_publ_section_title
;
Structure prediction by ZEFSAII (Michael W. Deem and Ramdas Pophale) SiO2 
 PCOD9079770
Probable space group: P -1
;
_chemical_formula_sum "Si O2"
_cell_formula_units_Z 16
_cell_length_a 12.396365
_cell_length_b 8.871104
_cell_length_c 9.248048
_cell_angle_alpha 65.381629
_cell_angle_beta 55.245288
_cell_angle_gamma 62.237933
_cell_volume 723.255519
_symmetry_space_group_name_H-M "P -1"
_symmetry_group_IT_number 2
_symmetry_cell_setting 'triclinic'
loop_
_space_group_symop_operation_xyz
x,y,z
-x,-y,-z
loop_
_atom_site_type_symbol
_atom_site_label
_atom_site_fract_x
_atom_site_fract_y
_atom_site_fract_z
Si Si1 0.353436 0.530587 0.028786
Si Si2 0.533123 0.609239 0.296138
Si Si3 0.920765 0.751578 0.330322
Si Si4 0.943434 0.968499 0.834733
Si Si5 0.135159 0.362105 0.284848
Si Si6 0.243176 0.745657 0.308612
Si Si7 0.762824 0.746998 0.186046
Si Si8 0.087976 0.641727 0.728249
O O1 0.378695 0.529384 0.836719
O O2 0.500000 0.500000 0.000000
O O3 0.286775 0.374872 0.156249
O O4 0.265998 0.672866 0.154902
O O5 0.500000 0.500000 0.500000
O O6 0.391868 0.719558 0.278949
O O7 0.618323 0.736001 0.239197
O O8 0.880938 0.757650 0.525010
O O9 0.786087 0.763528 0.333812
O O10 0.030853 0.559835 0.302547
O O11 0.997259 0.893365 0.182608
O O12 0.080606 0.805035 0.767930
O O13 0.868683 0.068295 0.707328
O O14 0.828546 0.894032 0.023739
O O15 0.072484 0.310317 0.210689
O O16 0.172128 0.644708 0.515080
O O17 0.856776 0.546154 0.168929
#
# Coordination Sequence:
#
# PCOD9079770 Si02
#       8
#     2   2   2   2   2   2   2   2
#     4  10  21  37  66  96 125 174 225 269 322 398
#     4  11  24  44  69  96 131 182 227 278 328 405
#     4  10  21  37  67  94 140 172 214 282 334 398
#     4  12  23  40  67 105 135 171 221 287 338 383
#     4  10  18  37  64  96 127 177 225 265 332 402
#     4  11  22  43  68  97 132 175 227 271 332 397
#     4  11  24  42  63 100 139 176 223 273 345 402
#     4  11  22  40  68  99 134 178 221 278 335 403
#
# _framework density 22.122198000000001
#
# number of rings (size 3 to 8) (size 9 to 14) (size 15 to 20)
#    0.000    1.250    3.750    3.375    1.750    1.500 
#    2.250    0.000    0.000    1.500    0.000    0.000 
#    0.000    0.000    0.000    0.000    0.000    0.000 
#
# Total GULP energy -89085.336883 kJ/mol
# GULP energy per Si atom -5567.833555 kJ/mol
# Density = 2.207185 g / cm^3
# Si number density = 22.122198 Si / 1000 Ang^3
#
#
#
# Elastic Constant Matrix: (Units=GPa)
#
#
# Indices 1 2 3 4 5 6 
#
# 1 168.2855 14.2491 28.8174 -10.0627 -10.6000 19.3550
# 2 14.2491 49.2415 19.9688 -18.2286 -5.0565 15.3340
# 3 28.8174 19.9688 136.6261 -13.5629 -0.9916 15.3404
# 4 -10.0627 -18.2286 -13.5629 32.2186 4.4581 0.1506
# 5 -10.6000 -5.0565 -0.9916 4.4581 35.6101 -3.0803
# 6 19.3550 15.3340 15.3404 0.1506 -3.0803 23.6652
#
#
#
# Elastic Compliance Matrix: (Units=1/GPa)
#
#
# Indices 1 2 3 4 5 6 
#
# 1 0.006851 0.001051 -0.000730 0.002260 0.001397 -0.005643
# 2 0.001051 0.034848 -0.000774 0.019717 0.000785 -0.022961
# 3 -0.000730 -0.000774 0.008379 0.003001 -0.000856 -0.004463
# 4 0.002260 0.019717 0.003001 0.044734 -0.003542 -0.017315
# 5 0.001397 0.000785 -0.000856 -0.003542 0.029265 0.002735
# 6 -0.005643 -0.022961 -0.004463 -0.017315 0.002735 0.065109
#
#
# Mechanical properties :
#
#
# Convention : Reuss Voigt Hill
#
# Bulk Modulus (GPa) = 20.33714 53.35821 36.84768
# Shear Modulus (GPa) = 24.21521 37.70664 30.96092
#
# Velocity S-wave (km/s) = 3.31208 4.13300 3.74510
# Velocity P-wave (km/s) = 4.88258 6.85184 5.94926
#
# Compressibility (1/GPa) = 0.04917113
#
# Stress axis : x y z
#
# Youngs Moduli (GPa) = 145.97460 28.69634 119.34283
#
# Poissons Ratio (x) = -0.03016 0.08718
# Poissons Ratio (y) = -0.15344 0.09235
# Poissons Ratio (z) = 0.10663 0.02221
#
# Static dielectric constant tensor:
#      x y z
#    x 1.848920 0.028460 0.006630 
#    y 0.028460 1.935840 0.066510 
#    z 0.006630 0.066510 1.855510 
# 
# From -- ./inp_files/242439.got.cif
#   From: 2010.05.17/outbox.cif.g08.bks.cpg/sg2_122_cif.got.tgz:242439.got - 2010.06.03 11:33:40.
