data_PCOD9079513
_publ_section_title
;
Structure prediction by ZEFSAII (Michael W. Deem and Ramdas Pophale) SiO2 
 PCOD9079513
Probable space group: P -1
;
_chemical_formula_sum "Si O2"
_cell_formula_units_Z 16
_cell_length_a 8.958772
_cell_length_b 19.355389
_cell_length_c 14.658416
_cell_angle_alpha 147.784165
_cell_angle_beta 28.766571
_cell_angle_gamma 140.595320
_cell_volume 647.312987
_symmetry_space_group_name_H-M "P -1"
_symmetry_group_IT_number 2
_symmetry_cell_setting 'triclinic'
loop_
_space_group_symop_operation_xyz
x,y,z
-x,-y,-z
loop_
_atom_site_type_symbol
_atom_site_label
_atom_site_fract_x
_atom_site_fract_y
_atom_site_fract_z
Si Si1 0.904872 0.204174 0.817761
Si Si2 0.060850 0.437496 0.269534
Si Si3 0.405042 0.388500 0.348355
Si Si4 0.942513 0.168756 0.121085
Si Si5 0.128079 0.974009 0.185817
Si Si6 0.448082 0.018401 0.754973
Si Si7 0.171748 0.820707 0.523430
Si Si8 0.375065 0.360701 0.841794
O O1 0.905961 0.108905 0.797774
O O2 0.248837 0.279222 0.729820
O O3 0.772777 0.106594 0.700011
O O4 0.682086 0.318292 0.077684
O O5 0.969130 0.321171 0.258915
O O6 0.404003 0.517278 0.180967
O O7 0.798096 0.533642 0.523554
O O8 0.093936 0.390944 0.093144
O O9 0.500000 0.500000 0.500000
O O10 0.159333 0.265660 0.375351
O O11 0.638112 0.080217 0.224427
O O12 0.996212 0.115916 0.932702
O O13 0.207377 0.127231 0.000013
O O14 0.927409 0.095558 0.415636
O O15 0.500000 0.000000 0.000000
O O16 0.338786 0.927166 0.625166
O O17 0.411582 0.713946 0.286607
#
# Coordination Sequence:
#
# PCOD9079513 Si02
#       8
#     2   2   2   2   2   2   2   2
#     4  12  21  37  63  92 123 153 203 255 300 348
#     4  10  21  38  60  87 124 160 198 248 302 354
#     4  11  19  33  59  91 114 153 204 254 290 338
#     4  10  18  37  60  88 118 155 198 250 309 342
#     4  11  18  33  60  91 117 146 204 260 291 346
#     4  10  22  38  62  88 125 157 192 257 302 359
#     4  10  23  39  58  89 127 161 196 238 315 364
#     4  10  22  39  59  87 127 163 196 246 295 363
#
# _framework density 24.717565
#
# number of rings (size 3 to 8) (size 9 to 14) (size 15 to 20)
#    0.000    1.500    5.000    1.500    0.000    1.000 
#    0.000    6.250    0.000    0.000    0.000    0.000 
#    0.000    0.000    0.000    0.000    0.000    0.000 
#
# Total GULP energy -89222.549208 kJ/mol
# GULP energy per Si atom -5576.409325 kJ/mol
# Density = 2.466131 g / cm^3
# Si number density = 24.717565 Si / 1000 Ang^3
#
#
#
# Elastic Constant Matrix: (Units=GPa)
#
#
# Indices 1 2 3 4 5 6 
#
# 1 105.8773 63.0978 33.3317 16.9936 9.8896 12.3056
# 2 63.0978 143.5117 20.6460 36.9848 -4.0127 11.9288
# 3 33.3317 20.6460 122.0065 27.3082 -20.1841 -15.1160
# 4 16.9936 36.9848 27.3082 34.1344 -3.2764 -12.0869
# 5 9.8896 -4.0127 -20.1841 -3.2764 31.4598 9.0302
# 6 12.3056 11.9288 -15.1160 -12.0869 9.0302 44.2923
#
#
#
# Elastic Compliance Matrix: (Units=1/GPa)
#
#
# Indices 1 2 3 4 5 6 
#
# 1 0.015882 -0.006868 -0.005339 0.002271 -0.008473 -0.002038
# 2 -0.006868 0.014597 0.003409 -0.016911 0.006392 -0.006778
# 3 -0.005339 0.003409 0.012982 -0.010440 0.009282 0.000254
# 4 0.002271 -0.016911 -0.010440 0.060622 -0.008611 0.018659
# 5 -0.008473 0.006392 0.009282 -0.008611 0.042388 -0.007192
# 6 -0.002038 -0.006778 0.000254 0.018659 -0.007192 0.031614
#
#
# Mechanical properties :
#
#
# Convention : Reuss Voigt Hill
#
# Bulk Modulus (GPa) = 38.66105 67.28295 52.97200
# Shear Modulus (GPa) = 24.47337 38.93197 31.70267
#
# Velocity S-wave (km/s) = 3.15003 3.97302 3.58522
# Velocity P-wave (km/s) = 5.37637 6.95172 6.21417
#
# Compressibility (1/GPa) = 0.02586583
#
# Stress axis : x y z
#
# Youngs Moduli (GPa) = 62.96296 68.50497 77.02992
#
# Poissons Ratio (x) = 0.47046 0.41129
# Poissons Ratio (y) = 0.43240 -0.26258
# Poissons Ratio (z) = 0.33618 -0.23352
#
# Static dielectric constant tensor:
#      x y z
#    x 2.028240 0.080630 0.045620 
#    y 0.080630 2.025530 -0.025050 
#    z 0.045620 -0.025050 2.078610 
# 
# From -- ./inp_files/562655.got.cif
#   From: 2010.05.17/outbox.cif.g08.bks.cpg/sg2_282_cif.got.tgz:562655.got - 2010.06.03 11:33:40.
