data_PCOD9079051
_publ_section_title
;
Structure prediction by ZEFSAII (Michael W. Deem and Ramdas Pophale) SiO2 
 PCOD9079051
Probable space group: P -1
;
_chemical_formula_sum "Si O2"
_cell_formula_units_Z 16
_cell_length_a 10.668252
_cell_length_b 9.907943
_cell_length_c 10.394744
_cell_angle_alpha 81.609192
_cell_angle_beta 60.160954
_cell_angle_gamma 63.585637
_cell_volume 849.534582
_symmetry_space_group_name_H-M "P -1"
_symmetry_group_IT_number 2
_symmetry_cell_setting 'triclinic'
loop_
_space_group_symop_operation_xyz
x,y,z
-x,-y,-z
loop_
_atom_site_type_symbol
_atom_site_label
_atom_site_fract_x
_atom_site_fract_y
_atom_site_fract_z
Si Si1 0.316172 0.086543 0.119727
Si Si2 0.084096 0.960963 0.822385
Si Si3 0.687436 0.904424 0.398909
Si Si4 0.000050 0.296363 0.107871
Si Si5 0.051041 0.391478 0.790933
Si Si6 0.133916 0.601105 0.382114
Si Si7 0.213125 0.281587 0.377467
Si Si8 0.127019 0.907555 0.335916
O O1 0.182328 0.174247 0.067166
O O2 0.300194 0.215142 0.211127
O O3 0.254548 0.975130 0.238750
O O4 0.500000 0.000000 0.000000
O O5 0.108587 0.791823 0.801251
O O6 0.237505 0.994635 0.723717
O O7 0.967451 0.063029 0.755415
O O8 0.000000 0.000000 0.000000
O O9 0.770750 0.741257 0.307752
O O10 0.745358 0.850185 0.521806
O O11 0.500000 0.000000 0.500000
O O12 0.955080 0.446663 0.193655
O O13 0.990035 0.341780 0.957673
O O14 0.940462 0.397108 0.723650
O O15 0.242276 0.426068 0.383296
O O16 0.197828 0.727491 0.346284
O O17 0.978526 0.654829 0.545715
O O18 0.000000 0.000000 0.500000
#
# Coordination Sequence:
#
# PCOD9079051 Si02
#       8
#     2   2   2   2   2   2   2   2
#     4  11  23  35  56  90 122 151 185 245 301 339
#     4  11  20  37  59  89 113 154 202 239 281 349
#     4  11  23  37  60  86 120 150 191 245 299 339
#     4  10  21  35  63  82 117 152 200 233 283 352
#     4  10  19  38  58  89 109 157 197 236 285 347
#     4  10  18  36  62  82 111 147 206 238 271 345
#     4  10  20  36  57  83 113 153 191 235 289 346
#     4  11  20  36  60  89 114 153 200 241 280 350
#
# _framework density 18.833843000000002
#
# number of rings (size 3 to 8) (size 9 to 14) (size 15 to 20)
#    0.000    1.500    6.250    0.000    1.750    0.000 
#    0.000    1.250    5.500    0.000    0.000    0.000 
#    0.000    0.000    0.000    0.000    0.000    0.000 
#
# Total GULP energy -89149.285563 kJ/mol
# GULP energy per Si atom -5571.830348 kJ/mol
# Density = 1.879098 g / cm^3
# Si number density = 18.833843 Si / 1000 Ang^3
#
#
#
# Elastic Constant Matrix: (Units=GPa)
#
#
# Indices 1 2 3 4 5 6 
#
# 1 39.2168 34.5359 47.1321 2.5850 -9.7746 1.8089
# 2 34.5359 129.5079 43.0378 -12.0371 -20.9663 20.5498
# 3 47.1321 43.0378 113.8812 0.1528 -6.0402 -2.5399
# 4 2.5850 -12.0371 0.1528 37.2398 -1.7795 -0.4788
# 5 -9.7746 -20.9663 -6.0402 -1.7795 35.5642 -5.5831
# 6 1.8089 20.5498 -2.5399 -0.4788 -5.5831 19.3601
#
#
#
# Elastic Compliance Matrix: (Units=1/GPa)
#
#
# Indices 1 2 3 4 5 6 
#
# 1 0.061870 -0.009134 -0.021643 -0.006729 0.008118 0.003249
# 2 -0.009134 0.013739 -0.001514 0.005088 0.003582 -0.012770
# 3 -0.021643 -0.001514 0.018273 0.000868 -0.002875 0.005219
# 4 -0.006729 0.005088 0.000868 0.029025 0.002233 -0.003297
# 5 0.008118 0.003582 -0.002875 0.002233 0.032803 0.004577
# 6 0.003249 -0.012770 0.005219 -0.003297 0.004577 0.066827
#
#
# Mechanical properties :
#
#
# Convention : Reuss Voigt Hill
#
# Bulk Modulus (GPa) = 34.12621 59.11305 46.61963
# Shear Modulus (GPa) = 16.84146 28.95949 22.90048
#
# Velocity S-wave (km/s) = 2.99358 3.92552 3.49079
# Velocity P-wave (km/s) = 5.48705 7.21117 6.40737
#
# Compressibility (1/GPa) = 0.02930299
#
# Stress axis : x y z
#
# Youngs Moduli (GPa) = 16.16283 72.78292 54.72496
#
# Poissons Ratio (x) = 0.66477 1.18439
# Poissons Ratio (y) = 0.14762 0.08285
# Poissons Ratio (z) = 0.34980 0.11019
#
# Static dielectric constant tensor:
#      x y z
#    x 1.790550 -0.029860 0.027930 
#    y -0.029860 1.738000 -0.015000 
#    z 0.027930 -0.015000 1.661140 
# 
# From -- ./inp_files/317492.got.cif
#   From: 2010.05.17/outbox.cif.g08.bks.cpg/sg2_159_cif.got.tgz:317492.got - 2010.06.03 11:33:40.
