data_PCOD9079769
_publ_section_title
;
Structure prediction by ZEFSAII (Michael W. Deem and Ramdas Pophale) SiO2 
 PCOD9079769
Probable space group: P -1
;
_chemical_formula_sum "Si O2"
_cell_formula_units_Z 14
_cell_length_a 11.161855
_cell_length_b 11.430390
_cell_length_c 11.426680
_cell_angle_alpha 88.185461
_cell_angle_beta 37.214889
_cell_angle_gamma 113.509824
_cell_volume 627.971882
_symmetry_space_group_name_H-M "P -1"
_symmetry_group_IT_number 2
_symmetry_cell_setting 'triclinic'
loop_
_space_group_symop_operation_xyz
x,y,z
-x,-y,-z
loop_
_atom_site_type_symbol
_atom_site_label
_atom_site_fract_x
_atom_site_fract_y
_atom_site_fract_z
Si Si1 0.144296 0.079556 0.564903
Si Si2 0.102769 0.934039 0.002064
Si Si3 0.674518 0.353262 0.236980
Si Si4 0.853155 0.512428 0.716622
Si Si5 0.220699 0.244111 0.264627
Si Si6 0.341584 0.401414 0.747126
Si Si7 0.385490 0.719125 0.442961
O O1 0.472589 0.188930 0.323273
O O2 0.114014 0.146385 0.472118
O O3 0.962177 0.889176 0.692032
O O4 0.032690 0.103456 0.764228
O O5 0.431727 0.094431 0.746160
O O6 0.968554 0.765694 0.047494
O O7 0.000000 0.000000 0.000000
O O8 0.620516 0.460970 0.221716
O O9 0.581697 0.282849 0.443564
O O10 0.000000 0.500000 0.000000
O O11 0.817241 0.633170 0.707969
O O12 0.000000 0.500000 0.500000
O O13 0.069234 0.594480 0.653413
O O14 0.542050 0.341853 0.992376
O O15 0.500000 0.500000 0.500000
O O16 0.480723 0.348446 0.703547
#
# Coordination Sequence:
#
# PCOD9079769 Si02
#       7
#     2   2   2   2   2   2   2
#     4  11  21  44  65  91 141 169 216 277 330 388
#     4  10  18  37  64  96 125 167 215 265 333 394
#     4  11  22  37  61  95 128 169 204 275 335 381
#     4  11  24  46  68  95 132 174 230 272 328 394
#     4  10  26  44  66  99 130 181 222 271 328 398
#     4   9  18  35  59  90 123 159 215 257 318 400
#     4  10  21  39  62  96 121 158 228 262 329 394
#
# _framework density 22.293993
#
# number of rings (size 3 to 8) (size 9 to 14) (size 15 to 20)
#    0.000    1.714    4.286    1.714    2.000    1.143 
#    7.714    9.286    0.000    0.000    0.000    0.000 
#    0.000    0.000    0.000    0.000    0.000    0.000 
#
# Total GULP energy -78076.602453 kJ/mol
# GULP energy per Si atom -5576.900175 kJ/mol
# Density = 2.224325 g / cm^3
# Si number density = 22.293993 Si / 1000 Ang^3
#
#
#
# Elastic Constant Matrix: (Units=GPa)
#
#
# Indices 1 2 3 4 5 6 
#
# 1 65.8539 20.3530 22.0277 -4.9145 -10.6848 10.6467
# 2 20.3530 76.0845 50.2527 -24.5066 -6.3013 13.1336
# 3 22.0277 50.2527 120.9422 -30.7780 -18.3214 5.3692
# 4 -4.9145 -24.5066 -30.7780 39.1049 11.6977 -5.2355
# 5 -10.6848 -6.3013 -18.3214 11.6977 43.2617 -7.9296
# 6 10.6467 13.1336 5.3692 -5.2355 -7.9296 28.6002
#
#
#
# Elastic Compliance Matrix: (Units=1/GPa)
#
#
# Indices 1 2 3 4 5 6 
#
# 1 0.017883 -0.003457 -0.001903 -0.002930 0.003095 -0.004391
# 2 -0.003457 0.022115 -0.006721 0.008387 -0.004066 -0.007199
# 3 -0.001903 -0.006721 0.013114 0.005327 0.003253 0.003210
# 4 -0.002930 0.008387 0.005327 0.036896 -0.007031 0.001044
# 5 0.003095 -0.004066 0.003253 -0.007031 0.027760 0.006514
# 6 -0.004391 -0.007199 0.003210 0.001044 0.006514 0.041300
#
#
# Mechanical properties :
#
#
# Convention : Reuss Voigt Hill
#
# Bulk Modulus (GPa) = 34.54220 49.79416 42.16818
# Shear Modulus (GPa) = 25.92314 33.54318 29.73316
#
# Velocity S-wave (km/s) = 3.41366 3.88310 3.65593
# Velocity P-wave (km/s) = 5.57360 6.51831 6.06438
#
# Compressibility (1/GPa) = 0.02895009
#
# Stress axis : x y z
#
# Youngs Moduli (GPa) = 55.91815 45.21907 76.25706
#
# Poissons Ratio (x) = 0.15630 0.14510
# Poissons Ratio (y) = 0.19329 0.51255
# Poissons Ratio (z) = 0.10640 0.30393
#
# Static dielectric constant tensor:
#      x y z
#    x 1.812330 0.018650 -0.050690 
#    y 0.018650 1.888970 0.014250 
#    z -0.050690 0.014250 1.935790 
# 
# From -- ./inp_files/425897.got.cif
#   From: 2010.05.17/outbox.cif.g08.bks.cpg/sg2_213_cif.got.tgz:425897.got - 2010.06.03 11:33:40.
