data_PCOD9079543
_publ_section_title
;
Structure prediction by ZEFSAII (Michael W. Deem and Ramdas Pophale) SiO2 
 PCOD9079543
Probable space group: P -1
;
_chemical_formula_sum "Si O2"
_cell_formula_units_Z 12
_cell_length_a 20.940654
_cell_length_b 20.747931
_cell_length_c 11.555964
_cell_angle_alpha 30.206358
_cell_angle_beta 18.863958
_cell_angle_gamma 19.467128
_cell_volume 522.451973
_symmetry_space_group_name_H-M "P -1"
_symmetry_group_IT_number 2
_symmetry_cell_setting 'triclinic'
loop_
_space_group_symop_operation_xyz
x,y,z
-x,-y,-z
loop_
_atom_site_type_symbol
_atom_site_label
_atom_site_fract_x
_atom_site_fract_y
_atom_site_fract_z
Si Si1 0.270145 0.477706 0.173238
Si Si2 0.284233 0.098845 0.036223
Si Si3 0.333926 0.909037 0.443196
Si Si4 0.007929 0.493345 0.155952
Si Si5 0.479459 0.427212 0.263629
Si Si6 0.603388 0.842347 0.658921
O O1 0.121868 0.491385 0.523107
O O2 0.447201 0.275717 0.118642
O O3 0.972550 0.669516 0.312933
O O4 0.477706 0.493441 0.830282
O O5 0.554858 0.042836 0.727498
O O6 0.071027 0.317693 0.011865
O O7 0.428294 0.952915 0.907972
O O8 0.136692 0.081723 0.416284
O O9 0.262120 0.811169 0.782330
O O10 0.635475 0.717573 0.146754
O O11 0.815652 0.511510 0.359797
O O12 0.500000 0.500000 0.000000
O O13 0.500000 0.000000 0.500000
#
# Coordination Sequence:
#
# PCOD9079543 Si02
#       6
#     2   2   2   2   2   2
#     4  10  21  37  57  84 112 149 188 231 278 323
#     4  10  19  33  58  85 106 147 194 223 271 329
#     4  10  20  36  60  84 116 144 183 235 280 333
#     4  10  18  37  61  84 113 146 183 233 282 332
#     4   9  19  35  57  85 116 143 181 233 287 327
#     4  11  21  37  59  80 113 154 193 223 266 346
#
# _framework density 22.968620000000001
#
# number of rings (size 3 to 8) (size 9 to 14) (size 15 to 20)
#    0.000    2.000    3.333    2.000    0.000    0.000 
#    0.000   10.833    0.000    5.000    0.000    0.000 
#    0.000    0.000    0.000    0.000    0.000    0.000 
#
# Total GULP energy -67011.836608 kJ/mol
# GULP energy per Si atom -5584.319717 kJ/mol
# Density = 2.291634 g / cm^3
# Si number density = 22.968620 Si / 1000 Ang^3
#
#
#
# Elastic Constant Matrix: (Units=GPa)
#
#
# Indices 1 2 3 4 5 6 
#
# 1 133.2451 70.2889 23.1556 -19.1177 -1.5575 18.3033
# 2 70.2889 164.6511 41.9697 -29.4891 -6.4833 2.2568
# 3 23.1556 41.9697 70.0270 -24.1960 -5.1127 -2.5383
# 4 -19.1177 -29.4891 -24.1960 38.5997 0.4422 12.8633
# 5 -1.5575 -6.4833 -5.1127 0.4422 36.2171 -9.1872
# 6 18.3033 2.2568 -2.5383 12.8633 -9.1872 61.8640
#
#
#
# Elastic Compliance Matrix: (Units=1/GPa)
#
#
# Indices 1 2 3 4 5 6 
#
# 1 0.010593 -0.003834 -0.000235 0.003492 -0.001302 -0.003923
# 2 -0.003834 0.009067 -0.003029 0.003051 0.001044 0.000200
# 3 -0.000235 -0.003029 0.019827 0.010262 0.001904 -0.000857
# 4 0.003492 0.003051 0.010262 0.039409 -0.000622 -0.009010
# 5 -0.001302 0.001044 0.001904 -0.000622 0.029262 0.004900
# 6 -0.003923 0.000200 -0.000857 -0.009010 0.004900 0.019884
#
#
# Mechanical properties :
#
#
# Convention : Reuss Voigt Hill
#
# Bulk Modulus (GPa) = 39.54089 70.97241 55.25665
# Shear Modulus (GPa) = 33.18525 42.83677 38.01101
#
# Velocity S-wave (km/s) = 3.80519 4.32326 4.07247
# Velocity P-wave (km/s) = 6.04636 7.47580 6.79875
#
# Compressibility (1/GPa) = 0.02529028
#
# Stress axis : x y z
#
# Youngs Moduli (GPa) = 94.39933 110.28920 50.43644
#
# Poissons Ratio (x) = 0.42288 0.01188
# Poissons Ratio (y) = 0.36195 0.15276
# Poissons Ratio (z) = 0.02223 0.33404
#
# Static dielectric constant tensor:
#      x y z
#    x 1.851620 -0.035620 0.057080 
#    y -0.035620 1.945650 -0.006190 
#    z 0.057080 -0.006190 1.954850 
# 
# From -- ./inp_files/241960.got.cif
#   From: 2010.05.17/outbox.cif.g08.bks.cpg/sg2_121_cif.got.tgz:241960.got - 2010.06.03 11:33:40.
