data_PCOD9079570
_publ_section_title
;
Structure prediction by ZEFSAII (Michael W. Deem and Ramdas Pophale) SiO2 
 PCOD9079570
Probable space group: P -1
;
_chemical_formula_sum "Si O2"
_cell_formula_units_Z 15
_cell_length_a 8.017471
_cell_length_b 11.300353
_cell_length_c 11.224170
_cell_angle_alpha 63.135772
_cell_angle_beta 136.086637
_cell_angle_gamma 124.273441
_cell_volume 580.934988
_symmetry_space_group_name_H-M "P -1"
_symmetry_group_IT_number 2
_symmetry_cell_setting 'triclinic'
loop_
_space_group_symop_operation_xyz
x,y,z
-x,-y,-z
loop_
_atom_site_type_symbol
_atom_site_label
_atom_site_fract_x
_atom_site_fract_y
_atom_site_fract_z
Si Si1 0.300065 0.514778 0.153504
Si Si2 0.403943 0.766936 0.378553
Si Si3 0.227497 0.233167 0.636044
Si Si4 0.000000 0.000000 0.500000
Si Si5 0.375678 0.248673 0.248555
Si Si6 0.155472 0.943965 0.013228
Si Si7 0.094609 0.440264 0.321201
Si Si8 0.630883 0.179191 0.177156
O O1 0.511422 0.676667 0.200461
O O2 0.400559 0.414385 0.171650
O O3 0.295491 0.445321 0.316474
O O4 0.000000 0.500000 0.000000
O O5 0.677766 0.810047 0.425336
O O6 0.481558 0.778678 0.549673
O O7 0.283772 0.864084 0.203695
O O8 0.186563 0.606924 0.320564
O O9 0.117877 0.353856 0.489268
O O10 0.018328 0.076052 0.617160
O O11 0.820921 0.094029 0.324341
O O12 0.495537 0.196444 0.222754
O O13 0.062464 0.167100 0.130521
O O14 0.390814 0.078899 0.018725
O O15 0.000000 0.000000 0.000000
O O16 0.809568 0.345410 0.167409
#
# Coordination Sequence:
#
# PCOD9079570 Si02
#       8
#     2   2   2   1   2   2   2   2
#     4  11  21  37  64  95 124 164 217 263 309 384
#     4  11  19  39  67  90 124 169 212 262 311 382
#     4  10  18  37  61  89 123 162 205 255 316 380
#     4  10  20  38  60  90 126 176 198 254 346 368
#     4  11  22  40  67  97 121 168 225 260 310 385
#     4  10  23  42  60  92 130 169 206 262 325 377
#     4  10  20  39  62  90 123 165 204 260 324 369
#     4  10  23  40  64  88 133 167 207 269 321 379
#
# _framework density 25.820446
#
# number of rings (size 3 to 8) (size 9 to 14) (size 15 to 20)
#    0.000    1.600    4.000    2.400    0.000    2.667 
#    0.000    8.000    0.000    0.000    0.000    0.000 
#    0.000    0.000    0.000    0.000    0.000    0.000 
#
# Total GULP energy -83517.838843 kJ/mol
# GULP energy per Si atom -5567.855923 kJ/mol
# Density = 2.576168 g / cm^3
# Si number density = 25.820446 Si / 1000 Ang^3
#
#
#
# Elastic Constant Matrix: (Units=GPa)
#
#
# Indices 1 2 3 4 5 6 
#
# 1 47.8235 36.5295 15.9043 -7.3059 12.1443 0.3806
# 2 36.5295 162.2661 50.2272 19.3584 12.8622 13.4107
# 3 15.9043 50.2272 114.8458 20.2713 22.0747 3.1591
# 4 -7.3059 19.3584 20.2713 56.9314 3.7297 9.5373
# 5 12.1443 12.8622 22.0747 3.7297 31.6890 4.9835
# 6 0.3806 13.4107 3.1591 9.5373 4.9835 36.9681
#
#
#
# Elastic Compliance Matrix: (Units=1/GPa)
#
#
# Indices 1 2 3 4 5 6 
#
# 1 0.029536 -0.006654 -0.000616 0.006591 -0.009234 0.001707
# 2 -0.006654 0.008900 -0.002742 -0.002592 0.001540 -0.002465
# 3 -0.000616 -0.002742 0.011811 -0.003198 -0.006774 0.001730
# 4 0.006591 -0.002592 -0.003198 0.021202 -0.001084 -0.004178
# 5 -0.009234 0.001540 -0.006774 -0.001084 0.040105 -0.005011
# 6 0.001707 -0.002465 0.001730 -0.004178 -0.005011 0.029532
#
#
# Mechanical properties :
#
#
# Convention : Reuss Voigt Hill
#
# Bulk Modulus (GPa) = 33.08650 58.91749 46.00199
# Shear Modulus (GPa) = 29.20853 39.93600 34.57227
#
# Velocity S-wave (km/s) = 3.36701 3.93705 3.66314
# Velocity P-wave (km/s) = 5.28749 6.59810 5.97881
#
# Compressibility (1/GPa) = 0.03022381
#
# Stress axis : x y z
#
# Youngs Moduli (GPa) = 33.85744 112.35751 84.66930
#
# Poissons Ratio (x) = 0.74762 0.05213
# Poissons Ratio (y) = 0.22529 0.23214
# Poissons Ratio (z) = 0.02084 0.30805
#
# Static dielectric constant tensor:
#      x y z
#    x 1.684720 -0.608700 -0.243840 
#    y -0.608700 0.843470 -0.272890 
#    z -0.243840 -0.272890 2.189780 
# 
# From -- ./inp_files/389882.got.cif
#   From: 2010.05.17/outbox.cif.g08.bks.cpg/sg2_195_cif.got.tgz:389882.got - 2010.06.03 11:33:40.
