data_PCOD9079139
_publ_section_title
;
Structure prediction by ZEFSAII (Michael W. Deem and Ramdas Pophale) SiO2 
 PCOD9079139
Probable space group: P -1
;
_chemical_formula_sum "Si O2"
_cell_formula_units_Z 16
_cell_length_a 13.238081
_cell_length_b 9.238468
_cell_length_c 9.724589
_cell_angle_alpha 61.442816
_cell_angle_beta 127.131206
_cell_angle_gamma 119.028834
_cell_volume 799.303784
_symmetry_space_group_name_H-M "P -1"
_symmetry_group_IT_number 2
_symmetry_cell_setting 'triclinic'
loop_
_space_group_symop_operation_xyz
x,y,z
-x,-y,-z
loop_
_atom_site_type_symbol
_atom_site_label
_atom_site_fract_x
_atom_site_fract_y
_atom_site_fract_z
Si Si1 0.413657 0.525709 0.606297
Si Si2 0.910286 0.343368 0.085824
Si Si3 0.269720 0.329121 0.837353
Si Si4 0.677978 0.478497 0.762847
Si Si5 0.960326 0.986864 0.314187
Si Si6 0.102708 0.921577 0.204984
Si Si7 0.346813 0.217338 0.228260
Si Si8 0.962066 0.544690 0.298443
O O1 0.345187 0.452972 0.724279
O O2 0.523379 0.425823 0.702781
O O3 0.319034 0.505433 0.406895
O O4 0.506658 0.720818 0.615551
O O5 0.948567 0.390962 0.253209
O O6 0.934946 0.162568 0.160304
O O7 0.762089 0.354273 0.935608
O O8 0.000000 0.500000 0.000000
O O9 0.171436 0.165413 0.756605
O O10 0.176476 0.414556 0.811040
O O11 0.356743 0.274088 0.051210
O O12 0.725600 0.663312 0.795264
O O13 0.072224 0.947752 0.327762
O O14 0.000000 0.000000 0.500000
O O15 0.063531 0.717679 0.244563
O O16 0.251277 0.026891 0.244645
O O17 0.000000 0.000000 0.000000
O O18 0.000000 0.500000 0.500000
#
# Coordination Sequence:
#
# PCOD9079139 Si02
#       8
#     2   2   2   2   2   2   2   2
#     4   9  21  37  62  93 115 166 208 247 292 367
#     4  12  23  37  61  91 124 156 196 254 307 354
#     4  11  21  39  61  86 124 158 209 242 299 370
#     4   9  20  38  59  91 119 156 211 242 301 352
#     4  11  25  36  57  93 123 159 197 247 310 363
#     4  11  19  39  60  86 119 154 201 246 300 363
#     4  10  18  36  63  83 113 159 207 239 293 357
#     4  11  23  38  56  92 123 158 193 251 310 357
#
# _framework density 20.017420999999999
#
# number of rings (size 3 to 8) (size 9 to 14) (size 15 to 20)
#    0.750    0.750    3.750    3.375    5.250    0.000 
#    0.000    0.625    0.000    4.500    0.000    0.000 
#    0.000    0.000    0.000    0.000    0.000    0.000 
#
# Total GULP energy -89261.362105 kJ/mol
# GULP energy per Si atom -5578.835132 kJ/mol
# Density = 1.997186 g / cm^3
# Si number density = 20.017421 Si / 1000 Ang^3
#
#
#
# Elastic Constant Matrix: (Units=GPa)
#
#
# Indices 1 2 3 4 5 6 
#
# 1 34.2267 29.2959 3.2358 2.4271 -13.9603 11.5340
# 2 29.2959 61.1899 5.0241 -2.4576 -5.3050 11.1177
# 3 3.2358 5.0241 77.0946 21.5007 -15.1617 11.3326
# 4 2.4271 -2.4576 21.5007 32.7579 -9.0112 -8.2103
# 5 -13.9603 -5.3050 -15.1617 -9.0112 29.3666 -6.6654
# 6 11.5340 11.1177 11.3326 -8.2103 -6.6654 25.8715
#
#
#
# Elastic Compliance Matrix: (Units=1/GPa)
#
#
# Indices 1 2 3 4 5 6 
#
# 1 0.072637 -0.030007 0.010823 -0.013111 0.025735 -0.021759
# 2 -0.030007 0.030197 -0.004123 0.005081 -0.009041 0.001490
# 3 0.010823 -0.004123 0.021280 -0.017406 0.006355 -0.016261
# 4 -0.013111 0.005081 -0.017406 0.053456 0.009043 0.030580
# 5 0.025735 -0.009041 0.006355 0.009043 0.052050 0.005907
# 6 -0.021759 0.001490 -0.016261 0.030580 0.005907 0.066062
#
#
# Mechanical properties :
#
#
# Convention : Reuss Voigt Hill
#
# Bulk Modulus (GPa) = 12.90307 27.51363 20.20835
# Shear Modulus (GPa) = 13.58223 26.59624 20.08923
#
# Velocity S-wave (km/s) = 2.60767 3.64903 3.17138
# Velocity P-wave (km/s) = 3.94037 5.61503 4.85052
#
# Compressibility (1/GPa) = 0.07750096
#
# Stress axis : x y z
#
# Youngs Moduli (GPa) = 13.76707 33.11589 46.99288
#
# Poissons Ratio (x) = 0.99371 -0.50861
# Poissons Ratio (y) = 0.41311 0.19373
# Poissons Ratio (z) = -0.14900 0.13652
#
# Static dielectric constant tensor:
#      x y z
#    x 1.737800 0.000460 0.024940 
#    y 0.000460 1.713550 0.004720 
#    z 0.024940 0.004720 1.758210 
# 
# From -- ./inp_files/294583.got.cif
#   From: 2010.05.17/outbox.cif.g08.bks.cpg/sg2_148_cif.got.tgz:294583.got - 2010.06.03 11:33:40.
