data_PCOD9079192
_publ_section_title
;
Structure prediction by ZEFSAII (Michael W. Deem and Ramdas Pophale) SiO2 
 PCOD9079192
Probable space group: P -1
;
_chemical_formula_sum "Si O2"
_cell_formula_units_Z 16
_cell_length_a 12.070298
_cell_length_b 7.821061
_cell_length_c 7.281332
_cell_angle_alpha 98.480044
_cell_angle_beta 106.533614
_cell_angle_gamma 89.159841
_cell_volume 651.480813
_symmetry_space_group_name_H-M "P -1"
_symmetry_group_IT_number 2
_symmetry_cell_setting 'triclinic'
loop_
_space_group_symop_operation_xyz
x,y,z
-x,-y,-z
loop_
_atom_site_type_symbol
_atom_site_label
_atom_site_fract_x
_atom_site_fract_y
_atom_site_fract_z
Si Si1 0.822028 0.520222 0.758611
Si Si2 0.922456 0.277625 0.477654
Si Si3 0.443067 0.528445 0.281096
Si Si4 0.733270 0.994403 0.188953
Si Si5 0.577666 0.288460 0.045391
Si Si6 0.828990 0.830095 0.521834
Si Si7 0.866481 0.042409 0.915647
Si Si8 0.829696 0.423563 0.113831
O O1 0.886010 0.369296 0.659768
O O2 0.691049 0.465848 0.734109
O O3 0.816768 0.675048 0.636638
O O4 0.866708 0.556976 0.992928
O O5 0.827309 0.132234 0.343683
O O6 0.046956 0.194841 0.518593
O O7 0.909942 0.417965 0.328361
O O8 0.500000 0.500000 0.500000
O O9 0.485176 0.370023 0.149640
O O10 0.465169 0.693546 0.182331
O O11 0.621062 0.104312 0.107280
O O12 0.786629 0.940592 0.011208
O O13 0.000000 0.000000 0.000000
O O14 0.696508 0.411871 0.119349
O O15 0.734227 0.846820 0.320191
O O16 0.831628 0.992562 0.686516
O O17 0.846878 0.239660 0.991942
#
# Coordination Sequence:
#
# PCOD9079192 Si02
#       8
#     2   2   2   2   2   2   2   2
#     4  11  24  35  54  88 116 145 188 237 291 331
#     4  10  20  36  55  80 112 158 192 224 269 331
#     4  10  18  36  64  81 107 143 189 236 283 339
#     4  10  21  36  60  83 115 147 197 232 264 340
#     4   8  18  35  57  88 101 135 189 239 276 319
#     4  12  23  35  54  85 122 155 181 230 286 328
#     4  10  19  36  56  80 104 152 200 221 264 327
#     4   9  19  36  58  80 114 141 192 239 265 336
#
# _framework density 24.559432000000001
#
# number of rings (size 3 to 8) (size 9 to 14) (size 15 to 20)
#    0.000    2.250    2.500    3.000    1.750    3.500 
#    0.000    0.625    0.000    3.750    0.000    0.000 
#    0.000    0.000    0.000    0.000    0.000    0.000 
#
# Total GULP energy -89426.451300 kJ/mol
# GULP energy per Si atom -5589.153206 kJ/mol
# Density = 2.450353 g / cm^3
# Si number density = 24.559432 Si / 1000 Ang^3
#
#
#
# Elastic Constant Matrix: (Units=GPa)
#
#
# Indices 1 2 3 4 5 6 
#
# 1 99.3970 5.5672 50.0610 3.6201 -11.2825 -10.8742
# 2 5.5672 70.2796 41.0898 -20.7242 0.5460 -5.1228
# 3 50.0610 41.0898 184.1105 -33.4685 -12.1184 -19.5511
# 4 3.6201 -20.7242 -33.4685 51.1532 -15.6664 3.4130
# 5 -11.2825 0.5460 -12.1184 -15.6664 37.1469 -5.8283
# 6 -10.8742 -5.1228 -19.5511 3.4130 -5.8283 21.4185
#
#
#
# Elastic Compliance Matrix: (Units=1/GPa)
#
#
# Indices 1 2 3 4 5 6 
#
# 1 0.012567 0.000557 -0.003344 -0.002416 0.002405 0.004500
# 2 0.000557 0.017575 -0.002780 0.005661 0.001625 0.001489
# 3 -0.003344 -0.002780 0.009222 0.006481 0.005803 0.006602
# 4 -0.002416 0.005661 0.006481 0.030492 0.014983 0.005262
# 5 0.002405 0.001625 0.005803 0.014983 0.038178 0.014908
# 6 0.004500 0.001489 0.006602 0.005262 0.014908 0.058574
#
#
# Mechanical properties :
#
#
# Convention : Reuss Voigt Hill
#
# Bulk Modulus (GPa) = 35.42293 60.80256 48.11274
# Shear Modulus (GPa) = 26.71614 39.08164 32.89889
#
# Velocity S-wave (km/s) = 3.30178 3.99345 3.66397
# Velocity P-wave (km/s) = 5.38427 6.78783 6.12637
#
# Compressibility (1/GPa) = 0.02823030
#
# Stress axis : x y z
#
# Youngs Moduli (GPa) = 79.57265 56.89872 108.43063
#
# Poissons Ratio (x) = -0.03168 0.36262
# Poissons Ratio (y) = -0.04431 0.30141
# Poissons Ratio (z) = 0.26611 0.15816
#
# Static dielectric constant tensor:
#      x y z
#    x 1.948390 0.047840 0.069940 
#    y 0.047840 2.170050 -0.117900 
#    z 0.069940 -0.117900 2.023160 
# 
# From -- ./inp_files/239676.got.cif
#   From: 2010.05.17/outbox.cif.g08.bks.cpg/sg2_120_cif.got.tgz:239676.got - 2010.06.03 11:33:40.
