data_PCOD9079668
_publ_section_title
;
Structure prediction by ZEFSAII (Michael W. Deem and Ramdas Pophale) SiO2 
 PCOD9079668
Probable space group: P -1
;
_chemical_formula_sum "Si O2"
_cell_formula_units_Z 16
_cell_length_a 20.248077
_cell_length_b 18.687194
_cell_length_c 11.041166
_cell_angle_alpha 137.680052
_cell_angle_beta 149.589390
_cell_angle_gamma 20.718546
_cell_volume 693.394296
_symmetry_space_group_name_H-M "P -1"
_symmetry_group_IT_number 2
_symmetry_cell_setting 'triclinic'
loop_
_space_group_symop_operation_xyz
x,y,z
-x,-y,-z
loop_
_atom_site_type_symbol
_atom_site_label
_atom_site_fract_x
_atom_site_fract_y
_atom_site_fract_z
Si Si1 0.715121 0.674488 0.166919
Si Si2 0.120792 0.623822 0.780221
Si Si3 0.593381 0.264537 0.414607
Si Si4 0.138601 0.727249 0.174309
Si Si5 0.332835 0.977621 0.615627
Si Si6 0.712009 0.889428 0.823683
Si Si7 0.799474 0.591663 0.550551
Si Si8 0.121164 0.276590 0.862453
O O1 0.898853 0.464689 0.272943
O O2 0.901139 0.598825 0.268334
O O3 0.548072 0.872171 0.232421
O O4 0.501141 0.753010 0.857537
O O5 0.860224 0.858295 0.597055
O O6 0.293954 0.443226 0.720442
O O7 0.218211 0.641017 0.053237
O O8 0.353071 0.521028 0.346299
O O9 0.849479 0.154388 0.649005
O O10 0.626711 0.174135 0.476492
O O11 0.864733 0.861547 0.941818
O O12 0.186056 0.132574 0.695472
O O13 0.612997 0.839391 0.871658
O O14 0.663310 0.803891 0.592677
O O15 0.903348 0.735633 0.051812
O O16 0.861448 0.515120 0.690086
#
# Coordination Sequence:
#
# PCOD9079668 Si02
#       8
#     2   2   2   2   2   2   2   2
#     4  11  21  38  59  88 120 154 197 242 291 346
#     4  10  22  38  56  86 124 156 190 246 293 349
#     4  10  19  41  64  84 115 159 202 243 281 350
#     4  10  23  38  61  90 117 156 204 236 292 349
#     4  10  18  37  63  83 120 157 193 241 298 345
#     4  12  21  35  62  89 120 155 194 240 300 350
#     4  11  21  38  60  88 127 149 195 245 297 352
#     4  10  19  34  57  96 115 150 195 244 295 351
#
# _framework density 23.074894
#
# number of rings (size 3 to 8) (size 9 to 14) (size 15 to 20)
#    0.000    1.500    5.000    2.250    0.000    1.500 
#    2.250    0.000    0.000    0.750    0.000    0.000 
#    0.000    0.000    0.000    0.000    0.000    0.000 
#
# Total GULP energy -89315.111468 kJ/mol
# GULP energy per Si atom -5582.194467 kJ/mol
# Density = 2.302237 g / cm^3
# Si number density = 23.074894 Si / 1000 Ang^3
#
#
#
# Elastic Constant Matrix: (Units=GPa)
#
#
# Indices 1 2 3 4 5 6 
#
# 1 85.9238 34.0790 44.8292 -1.8765 -8.1036 21.9164
# 2 34.0790 93.2655 29.7025 5.2654 7.8764 12.4474
# 3 44.8292 29.7025 97.3879 6.0001 -11.4609 12.1635
# 4 -1.8765 5.2654 6.0001 29.7938 4.7414 -16.2875
# 5 -8.1036 7.8764 -11.4609 4.7414 33.1751 -2.5109
# 6 21.9164 12.4474 12.1635 -16.2875 -2.5109 46.6065
#
#
#
# Elastic Compliance Matrix: (Units=1/GPa)
#
#
# Indices 1 2 3 4 5 6 
#
# 1 0.018192 -0.004172 -0.005964 -0.000647 0.003016 -0.005948
# 2 -0.004172 0.013908 -0.002446 -0.002713 -0.004955 -0.002329
# 3 -0.005964 -0.002446 0.014833 -0.004668 0.004780 -0.001787
# 4 -0.000647 -0.002713 -0.004668 0.045725 -0.006308 0.017887
# 5 0.003016 -0.004955 0.004780 -0.006308 0.034481 -0.001689
# 6 -0.005948 -0.002329 -0.001787 0.017887 -0.001689 0.031501
#
#
# Mechanical properties :
#
#
# Convention : Reuss Voigt Hill
#
# Bulk Modulus (GPa) = 45.93913 54.86650 50.40282
# Shear Modulus (GPa) = 26.16958 33.11285 29.64121
#
# Velocity S-wave (km/s) = 3.37132 3.79227 3.58797
# Velocity P-wave (km/s) = 5.92506 6.55777 6.24942
#
# Compressibility (1/GPa) = 0.02176793
#
# Stress axis : x y z
#
# Youngs Moduli (GPa) = 54.96932 71.90001 67.41753
#
# Poissons Ratio (x) = 0.30000 0.40207
# Poissons Ratio (y) = 0.22936 0.16493
# Poissons Ratio (z) = 0.32783 0.17589
#
# Static dielectric constant tensor:
#      x y z
#    x 1.887500 0.018280 -0.052040 
#    y 0.018280 1.940410 0.006410 
#    z -0.052040 0.006410 1.961470 
# 
# From -- ./inp_files/475594.got.cif
#   From: 2010.05.17/outbox.cif.g08.bks.cpg/sg2_238_cif.got.tgz:475594.got - 2010.06.03 11:33:40.
