data_PCOD9079307
_publ_section_title
;
Structure prediction by ZEFSAII (Michael W. Deem and Ramdas Pophale) SiO2 
 PCOD9079307
Probable space group: P -1
;
_chemical_formula_sum "Si O2"
_cell_formula_units_Z 14
_cell_length_a 9.551678
_cell_length_b 16.399031
_cell_length_c 6.929211
_cell_angle_alpha 61.416110
_cell_angle_beta 133.451342
_cell_angle_gamma 137.471024
_cell_volume 531.727689
_symmetry_space_group_name_H-M "P -1"
_symmetry_group_IT_number 2
_symmetry_cell_setting 'triclinic'
loop_
_space_group_symop_operation_xyz
x,y,z
-x,-y,-z
loop_
_atom_site_type_symbol
_atom_site_label
_atom_site_fract_x
_atom_site_fract_y
_atom_site_fract_z
Si Si1 0.368446 0.551452 0.378715
Si Si2 0.762137 0.113069 0.218613
Si Si3 0.518012 0.618465 0.866776
Si Si4 0.056555 0.839671 0.086130
Si Si5 0.198578 0.670977 0.965181
Si Si6 0.338722 0.742167 0.454995
Si Si7 0.090178 0.022647 0.337049
O O1 0.500000 0.500000 0.500000
O O2 0.499621 0.621042 0.617038
O O3 0.384129 0.641894 0.145139
O O4 0.074939 0.437299 0.249516
O O5 0.865518 0.074736 0.521649
O O6 0.945424 0.174663 0.136309
O O7 0.718861 0.202040 0.158227
O O8 0.500000 0.000000 0.000000
O O9 0.327095 0.647806 0.689905
O O10 0.500000 0.500000 0.000000
O O11 0.795498 0.732653 0.060219
O O12 0.243098 0.814061 0.351285
O O13 0.083585 0.961245 0.973446
O O14 0.189143 0.674282 0.190134
O O15 0.630769 0.849802 0.561792
O O16 0.000000 0.000000 0.500000
#
# Coordination Sequence:
#
# PCOD9079307 Si02
#       7
#     2   2   2   2   2   2   2
#     4  10  19  34  51  70 105 138 169 209 257 306
#     4  10  15  27  46  74 109 128 159 210 260 303
#     4  10  21  34  51  74 101 137 179 215 251 300
#     4   9  17  28  45  70 101 132 161 206 261 295
#     4   9  18  29  47  72 102 137 160 205 260 302
#     4   9  16  31  45  69 106 129 166 209 252 303
#     4   9  16  23  41  70 104 132 155 201 258 306
#
# _framework density 26.329263999999998
#
# number of rings (size 3 to 8) (size 9 to 14) (size 15 to 20)
#    0.000    2.571    2.857    1.714    0.000    1.714 
#    0.000    0.000    0.000    0.000    0.000    5.000 
#    0.000    0.143    0.000    0.000    0.000    0.000 
#
# Total GULP energy -78020.398058 kJ/mol
# GULP energy per Si atom -5572.885576 kJ/mol
# Density = 2.626934 g / cm^3
# Si number density = 26.329264 Si / 1000 Ang^3
#
#
#
# Elastic Constant Matrix: (Units=GPa)
#
#
# Indices 1 2 3 4 5 6 
#
# 1 36.9547 18.0387 53.6524 -12.3864 10.5113 -2.4549
# 2 18.0387 131.6571 75.0091 -41.0213 22.8878 -19.5915
# 3 53.6524 75.0091 188.9413 -66.2630 33.2742 -13.7828
# 4 -12.3864 -41.0213 -66.2630 86.0636 -21.7315 20.5918
# 5 10.5113 22.8878 33.2742 -21.7315 60.2854 -12.3861
# 6 -2.4549 -19.5915 -13.7828 20.5918 -12.3861 30.2136
#
#
#
# Elastic Compliance Matrix: (Units=1/GPa)
#
#
# Indices 1 2 3 4 5 6 
#
# 1 0.047766 0.001014 -0.015358 -0.005003 -0.002017 0.000116
# 2 0.001014 0.010686 -0.003639 0.001210 -0.000938 0.004143
# 3 -0.015358 -0.003639 0.013531 0.006719 -0.001530 -0.002641
# 4 -0.005003 0.001210 0.006719 0.019242 0.001806 -0.008931
# 5 -0.002017 -0.000938 -0.001530 0.001806 0.019913 0.005463
# 6 0.000116 0.004143 -0.002641 -0.008931 0.005463 0.042914
#
#
# Mechanical properties :
#
#
# Convention : Reuss Voigt Hill
#
# Bulk Modulus (GPa) = 27.76265 72.32815 50.04540
# Shear Modulus (GPa) = 24.74952 49.36938 37.05945
#
# Velocity S-wave (km/s) = 3.06927 4.33491 3.75579
# Velocity P-wave (km/s) = 4.80914 7.25159 6.15278
#
# Compressibility (1/GPa) = 0.03601961
#
# Stress axis : x y z
#
# Youngs Moduli (GPa) = 20.93529 93.57983 73.90228
#
# Poissons Ratio (x) = -0.09489 1.13495
# Poissons Ratio (y) = -0.02123 0.26890
# Poissons Ratio (z) = 0.32151 0.34049
#
# Static dielectric constant tensor:
#      x y z
#    x 1.967310 0.036650 0.115130 
#    y 0.036650 2.054000 -0.129110 
#    z 0.115130 -0.129110 2.136130 
# 
# From -- ./inp_files/457096.got.cif
#   From: 2010.05.17/outbox.cif.g08.bks.cpg/sg2_229_cif.got.tgz:457096.got - 2010.06.03 11:33:40.
