data_PCOD9079007
_publ_section_title
;
Structure prediction by ZEFSAII (Michael W. Deem and Ramdas Pophale) SiO2 
 PCOD9079007
Probable space group: P -1
;
_chemical_formula_sum "Si O2"
_cell_formula_units_Z 16
_cell_length_a 11.234961
_cell_length_b 8.746447
_cell_length_c 18.331637
_cell_angle_alpha 113.354344
_cell_angle_beta 130.227176
_cell_angle_gamma 107.102951
_cell_volume 782.511241
_symmetry_space_group_name_H-M "P -1"
_symmetry_group_IT_number 2
_symmetry_cell_setting 'triclinic'
loop_
_space_group_symop_operation_xyz
x,y,z
-x,-y,-z
loop_
_atom_site_type_symbol
_atom_site_label
_atom_site_fract_x
_atom_site_fract_y
_atom_site_fract_z
Si Si1 0.032070 0.071089 0.134218
Si Si2 0.328373 0.095907 0.162864
Si Si3 0.914046 0.440977 0.037999
Si Si4 0.820394 0.950516 0.188904
Si Si5 0.367480 0.664039 0.350189
Si Si6 0.766252 0.532531 0.124294
Si Si7 0.139437 0.507502 0.496886
Si Si8 0.224269 0.781783 0.439409
O O1 0.148425 0.993571 0.140636
O O2 0.260948 0.390871 0.267379
O O3 0.946889 0.026524 0.174385
O O4 0.799372 0.918494 0.959182
O O5 0.613986 0.370615 0.347597
O O6 0.302241 0.878126 0.097060
O O7 0.822402 0.526986 0.061194
O O8 0.000000 0.500000 0.000000
O O9 0.154887 0.578497 0.203418
O O10 0.825304 0.777976 0.200285
O O11 0.524505 0.742949 0.024748
O O12 0.965290 0.219944 0.337693
O O13 0.368797 0.760267 0.446095
O O14 0.624966 0.920691 0.459415
O O15 0.949060 0.579393 0.257646
O O16 0.218223 0.705313 0.503002
O O17 0.000000 0.500000 0.500000
#
# Coordination Sequence:
#
# PCOD9079007 Si02
#       8
#     2   2   2   2   2   2   2   2
#     4  10  21  41  66  96 130 174 211 273 325 390
#     4  10  23  38  61 100 129 163 218 264 327 383
#     4  10  18  36  61  88 126 171 209 263 315 384
#     4  11  24  43  65  94 128 173 222 266 331 388
#     4   9  19  35  61  94 123 162 218 254 323 377
#     4  10  24  41  65  93 126 176 224 263 323 400
#     4  12  26  42  64 100 133 175 217 272 327 391
#     4  10  21  40  62  94 128 168 212 271 321 381
#
# _framework density 20.44699
#
# number of rings (size 3 to 8) (size 9 to 14) (size 15 to 20)
#    0.000    1.750    1.250    2.250    3.500    3.000 
#    0.000    3.125    0.000    0.000    0.000    0.000 
#    0.000    0.000    0.000    0.000    0.000    0.000 
#
# Total GULP energy -89303.516833 kJ/mol
# GULP energy per Si atom -5581.469802 kJ/mol
# Density = 2.040045 g / cm^3
# Si number density = 20.446990 Si / 1000 Ang^3
#
#
#
# Elastic Constant Matrix: (Units=GPa)
#
#
# Indices 1 2 3 4 5 6 
#
# 1 91.9656 25.7373 29.8738 5.2762 -13.5238 3.7423
# 2 25.7373 49.2514 33.9595 12.9947 -3.1611 3.3317
# 3 29.8738 33.9595 103.0604 22.5110 -0.6602 -1.4742
# 4 5.2762 12.9947 22.5110 19.5406 6.3901 -2.0760
# 5 -13.5238 -3.1611 -0.6602 6.3901 25.0733 -8.5261
# 6 3.7423 3.3317 -1.4742 -2.0760 -8.5261 28.7575
#
#
#
# Elastic Compliance Matrix: (Units=1/GPa)
#
#
# Indices 1 2 3 4 5 6 
#
# 1 0.014147 -0.005471 -0.002289 0.000220 0.007094 0.000795
# 2 -0.005471 0.031234 -0.005612 -0.014277 0.003382 -0.003222
# 3 -0.002289 -0.005612 0.015298 -0.013938 0.002513 0.001471
# 4 0.000220 -0.014277 -0.013938 0.084369 -0.023543 0.000021
# 5 0.007094 0.003382 0.002513 -0.023543 0.054740 0.013343
# 6 0.000795 -0.003222 0.001471 0.000021 0.013343 0.039076
#
#
# Mechanical properties :
#
#
# Convention : Reuss Voigt Hill
#
# Bulk Modulus (GPa) = 29.46868 47.04653 38.25761
# Shear Modulus (GPa) = 18.05583 24.98807 21.52195
#
# Velocity S-wave (km/s) = 2.97485 3.49963 3.24786
# Velocity P-wave (km/s) = 5.12281 6.27606 5.72853
#
# Compressibility (1/GPa) = 0.03393433
#
# Stress axis : x y z
#
# Youngs Moduli (GPa) = 70.68872 32.01594 65.37007
#
# Poissons Ratio (x) = 0.17514 0.14965
# Poissons Ratio (y) = 0.38670 0.36688
# Poissons Ratio (z) = 0.16182 0.17968
#
# Static dielectric constant tensor:
#      x y z
#    x 1.823150 0.222340 0.161330 
#    y 0.222340 2.235930 0.453360 
#    z 0.161330 0.453360 2.113720 
# 
# From -- ./inp_files/471232.got.cif
#   From: 2010.05.17/outbox.cif.g08.bks.cpg/sg2_236_cif.got.tgz:471232.got - 2010.06.03 11:33:40.
