data_PCOD9079604
_publ_section_title
;
Structure prediction by ZEFSAII (Michael W. Deem and Ramdas Pophale) SiO2 
 PCOD9079604
Probable space group: P -1
;
_chemical_formula_sum "Si O2"
_cell_formula_units_Z 14
_cell_length_a 8.978299
_cell_length_b 11.501632
_cell_length_c 10.842958
_cell_angle_alpha 127.288804
_cell_angle_beta 124.180183
_cell_angle_gamma 86.741980
_cell_volume 665.073739
_symmetry_space_group_name_H-M "P -1"
_symmetry_group_IT_number 2
_symmetry_cell_setting 'triclinic'
loop_
_space_group_symop_operation_xyz
x,y,z
-x,-y,-z
loop_
_atom_site_type_symbol
_atom_site_label
_atom_site_fract_x
_atom_site_fract_y
_atom_site_fract_z
Si Si1 0.367586 0.170422 0.398641
Si Si2 0.044457 0.578320 0.405605
Si Si3 0.223431 0.810204 0.426118
Si Si4 0.285310 0.942294 0.799968
Si Si5 0.293925 0.476641 0.628360
Si Si6 0.620188 0.666795 0.736131
Si Si7 0.994280 0.882105 0.149438
O O1 0.579784 0.180196 0.543364
O O2 0.330081 0.316104 0.535460
O O3 0.388085 0.204254 0.282538
O O4 0.181341 0.003977 0.236482
O O5 0.110990 0.639127 0.336972
O O6 0.153020 0.750935 0.639888
O O7 0.139448 0.470670 0.444431
O O8 0.812608 0.512181 0.288195
O O9 0.295600 0.941979 0.655213
O O10 0.078766 0.842208 0.287266
O O11 0.154794 0.034564 0.840320
O O12 0.500000 0.000000 0.000000
O O13 0.495953 0.630756 0.782141
O O14 0.500000 0.500000 0.500000
O O15 0.849593 0.719905 0.907138
#
# Coordination Sequence:
#
# PCOD9079604 Si02
#       7
#     2   2   2   2   2   2   2
#     4  11  20  38  63  88 120 163 206 248 302 364
#     4   9  19  35  60  88 118 156 201 250 300 351
#     4  10  22  37  58  96 128 156 200 251 308 364
#     4  10  20  37  60  92 120 159 202 249 296 362
#     4  10  18  37  62  84 116 159 206 254 289 353
#     4  10  22  38  61  88 117 159 209 254 294 358
#     4  12  22  39  62  90 126 163 199 251 313 360
#
# _framework density 21.050295999999999
#
# number of rings (size 3 to 8) (size 9 to 14) (size 15 to 20)
#    0.857    0.857    2.857    3.000    0.000    0.000 
#    0.000    3.571    0.000    3.429    0.000    0.000 
#    0.000    0.000    0.000    0.000    0.000    0.000 
#
# Total GULP energy -78055.763092 kJ/mol
# GULP energy per Si atom -5575.411649 kJ/mol
# Density = 2.100238 g / cm^3
# Si number density = 21.050296 Si / 1000 Ang^3
#
#
#
# Elastic Constant Matrix: (Units=GPa)
#
#
# Indices 1 2 3 4 5 6 
#
# 1 110.2856 38.1320 23.9241 7.7182 31.0543 -2.9503
# 2 38.1320 85.1575 50.3213 -11.0357 17.2131 0.9964
# 3 23.9241 50.3213 70.8864 -17.0864 10.6517 1.1018
# 4 7.7182 -11.0357 -17.0864 25.2649 -1.2285 12.6721
# 5 31.0543 17.2131 10.6517 -1.2285 31.4310 11.2449
# 6 -2.9503 0.9964 1.1018 12.6721 11.2449 39.7216
#
#
#
# Elastic Compliance Matrix: (Units=1/GPa)
#
#
# Indices 1 2 3 4 5 6 
#
# 1 0.018954 -0.003774 -0.005400 -0.018812 -0.020366 0.013419
# 2 -0.003774 0.022590 -0.013843 0.001347 -0.003982 0.000234
# 3 -0.005400 -0.013843 0.029903 0.020962 0.007022 -0.009559
# 4 -0.018812 0.001347 0.020962 0.078681 0.026172 -0.034523
# 5 -0.020366 -0.003982 0.007022 0.026172 0.062672 -0.027699
# 6 0.013419 0.000234 -0.009559 -0.034523 -0.027699 0.045286
#
#
# Mechanical properties :
#
#
# Convention : Reuss Voigt Hill
#
# Bulk Modulus (GPa) = 39.35275 54.56494 46.95884
# Shear Modulus (GPa) = 15.99533 29.54697 22.77115
#
# Velocity S-wave (km/s) = 2.75955 3.75058 3.29256
# Velocity P-wave (km/s) = 5.37482 6.68829 6.06721
#
# Compressibility (1/GPa) = 0.02541119
#
# Stress axis : x y z
#
# Youngs Moduli (GPa) = 52.75885 44.26752 33.44175
#
# Poissons Ratio (x) = 0.16708 0.18060
# Poissons Ratio (y) = 0.19913 0.46293
# Poissons Ratio (z) = 0.28492 0.61279
#
# Static dielectric constant tensor:
#      x y z
#    x 1.853360 -0.009860 -0.026720 
#    y -0.009860 1.757600 0.046310 
#    z -0.026720 0.046310 1.769190 
# 
# From -- ./inp_files/391483.got.cif
#   From: 2010.05.17/outbox.cif.g08.bks.cpg/sg2_196_cif.got.tgz:391483.got - 2010.06.03 11:33:40.
