data_PCOD9079549
_publ_section_title
;
Structure prediction by ZEFSAII (Michael W. Deem and Ramdas Pophale) SiO2 
 PCOD9079549
Probable space group: P -1
;
_chemical_formula_sum "Si O2"
_cell_formula_units_Z 16
_cell_length_a 14.697901
_cell_length_b 8.094553
_cell_length_c 9.554181
_cell_angle_alpha 120.818396
_cell_angle_beta 50.155856
_cell_angle_gamma 119.006341
_cell_volume 728.041628
_symmetry_space_group_name_H-M "P -1"
_symmetry_group_IT_number 2
_symmetry_cell_setting 'triclinic'
loop_
_space_group_symop_operation_xyz
x,y,z
-x,-y,-z
loop_
_atom_site_type_symbol
_atom_site_label
_atom_site_fract_x
_atom_site_fract_y
_atom_site_fract_z
Si Si1 0.143544 0.300505 0.245733
Si Si2 0.059915 0.220940 0.589227
Si Si3 0.392280 0.695045 0.790274
Si Si4 0.589338 0.513908 0.048909
Si Si5 0.998426 0.766905 0.903602
Si Si6 0.229140 0.272882 0.701808
Si Si7 0.429576 0.148925 0.565646
Si Si8 0.155681 0.837340 0.027209
O O1 0.111999 0.342678 0.453685
O O2 0.156128 0.070759 0.127978
O O3 0.271389 0.430543 0.119412
O O4 0.032606 0.310160 0.255185
O O5 0.169102 0.219135 0.587999
O O6 0.950075 0.271907 0.808476
O O7 0.000000 0.000000 0.500000
O O8 0.427493 0.669127 0.905434
O O9 0.332245 0.475965 0.692128
O O10 0.501759 0.787696 0.620492
O O11 0.286126 0.810877 0.931077
O O12 0.565250 0.686012 0.248608
O O13 0.500000 0.500000 0.000000
O O14 0.876955 0.683481 0.077440
O O15 0.113281 0.749518 0.876640
O O16 0.000000 0.000000 0.000000
O O17 0.287173 0.103935 0.640498
O O18 0.500000 0.000000 0.500000
#
# Coordination Sequence:
#
# PCOD9079549 Si02
#       8
#     2   2   2   2   2   2   2   2
#     4  10  18  37  61  85 120 162 197 247 305 361
#     4   9  20  36  60  88 121 159 197 243 305 364
#     4  11  23  40  64  89 124 159 206 259 306 366
#     4  11  24  42  62  90 128 161 203 257 320 356
#     4   9  17  32  61  83 114 156 202 244 299 357
#     4  10  20  39  62  86 120 159 202 252 307 351
#     4  11  24  43  66  92 118 164 217 252 300 380
#     4   9  20  38  60  89 118 156 209 243 300 367
#
# _framework density 21.976766000000001
#
# number of rings (size 3 to 8) (size 9 to 14) (size 15 to 20)
#    0.000    2.000    2.500    3.000    5.250    2.000 
#    4.500    1.875    0.000    0.000    0.000    0.000 
#    0.000    0.000    0.000    0.000    0.000    0.000 
#
# Total GULP energy -89310.855808 kJ/mol
# GULP energy per Si atom -5581.928488 kJ/mol
# Density = 2.192675 g / cm^3
# Si number density = 21.976766 Si / 1000 Ang^3
#
#
#
# Elastic Constant Matrix: (Units=GPa)
#
#
# Indices 1 2 3 4 5 6 
#
# 1 155.0174 11.9322 47.5692 6.4551 35.6482 -20.9076
# 2 11.9322 37.2307 20.5824 -10.5468 1.2624 -14.7218
# 3 47.5692 20.5824 88.0870 -20.3557 16.6050 -19.6996
# 4 6.4551 -10.5468 -20.3557 33.1177 -10.5629 -3.3061
# 5 35.6482 1.2624 16.6050 -10.5629 43.7788 1.4064
# 6 -20.9076 -14.7218 -19.6996 -3.3061 1.4064 29.2288
#
#
#
# Elastic Compliance Matrix: (Units=1/GPa)
#
#
# Indices 1 2 3 4 5 6 
#
# 1 0.010993 -0.001510 -0.005087 -0.008334 -0.009091 0.003169
# 2 -0.001510 0.040144 -0.001227 0.015468 0.003631 0.019887
# 3 -0.005087 -0.001227 0.020125 0.013916 -0.000448 0.010903
# 4 -0.008334 0.015468 0.013916 0.051031 0.012849 0.016363
# 5 -0.009091 0.003631 -0.000448 0.012849 0.033575 -0.005138
# 6 0.003169 0.019887 0.010903 0.016363 -0.005138 0.055943
#
#
# Mechanical properties :
#
#
# Convention : Reuss Voigt Hill
#
# Bulk Modulus (GPa) = 17.98116 48.94474 33.46295
# Shear Modulus (GPa) = 20.32541 34.57514 27.45027
#
# Velocity S-wave (km/s) = 3.04445 3.97074 3.53804
# Velocity P-wave (km/s) = 4.53408 6.58345 5.65242
#
# Compressibility (1/GPa) = 0.05561377
#
# Stress axis : x y z
#
# Youngs Moduli (GPa) = 90.96513 24.91004 49.69015
#
# Poissons Ratio (x) = 0.03762 0.25278
# Poissons Ratio (y) = 0.13739 0.06096
# Poissons Ratio (z) = 0.46275 0.03056
#
# Static dielectric constant tensor:
#      x y z
#    x 1.821740 -0.032230 -0.007300 
#    y -0.032230 1.926290 -0.023340 
#    z -0.007300 -0.023340 1.813870 
# 
# From -- ./inp_files/274084.got.cif
#   From: 2010.05.17/outbox.cif.g08.bks.cpg/sg2_138_cif.got.tgz:274084.got - 2010.06.03 11:33:40.
