data_PCOD9079508
_publ_section_title
;
Structure prediction by ZEFSAII (Michael W. Deem and Ramdas Pophale) SiO2 
 PCOD9079508
Probable space group: P -1
;
_chemical_formula_sum "Si O2"
_cell_formula_units_Z 14
_cell_length_a 19.532796
_cell_length_b 15.944161
_cell_length_c 9.409855
_cell_angle_alpha 37.867951
_cell_angle_beta 28.518715
_cell_angle_gamma 24.857382
_cell_volume 587.712064
_symmetry_space_group_name_H-M "P -1"
_symmetry_group_IT_number 2
_symmetry_cell_setting 'triclinic'
loop_
_space_group_symop_operation_xyz
x,y,z
-x,-y,-z
loop_
_atom_site_type_symbol
_atom_site_label
_atom_site_fract_x
_atom_site_fract_y
_atom_site_fract_z
Si Si1 0.721793 0.617994 0.208972
Si Si2 0.753326 0.641285 0.786030
Si Si3 0.165055 0.199994 0.052624
Si Si4 0.096907 0.730205 0.067646
Si Si5 0.709803 0.932763 0.310283
Si Si6 0.607191 0.283838 0.133012
Si Si7 0.910702 0.967252 0.367166
O O1 0.510255 0.694044 0.544813
O O2 0.918615 0.390970 0.207443
O O3 0.716028 0.648270 0.011317
O O4 0.761857 0.730986 0.068626
O O5 0.644697 0.851176 0.639371
O O6 0.000000 0.500000 0.500000
O O7 0.734875 0.508528 0.916605
O O8 0.186815 0.045305 0.307564
O O9 0.271082 0.133281 0.795229
O O10 0.944782 0.846665 0.328046
O O11 0.192598 0.814247 0.764867
O O12 0.942719 0.809356 0.110243
O O13 0.592049 0.159906 0.226366
O O14 0.500000 0.500000 0.000000
O O15 0.849397 0.155101 0.876582
#
# Coordination Sequence:
#
# PCOD9079508 Si02
#       7
#     2   2   2   2   2   2   2
#     4  11  23  37  62  91 121 160 202 248 301 357
#     4  10  18  37  60  87 119 153 203 252 285 352
#     4  11  21  37  65  92 112 162 214 243 286 361
#     4   9  19  36  60  89 114 159 205 242 292 351
#     4  10  22  37  64  91 121 159 201 253 298 353
#     4  11  24  41  57  91 133 156 188 254 319 350
#     4  10  21  38  63  88 124 160 198 249 300 359
#
# _framework density 23.821190000000001
#
# number of rings (size 3 to 8) (size 9 to 14) (size 15 to 20)
#    0.000    1.714    4.286    1.714    2.000    4.571 
#    0.000    0.714    0.000    0.000    0.000    0.000 
#    0.000    0.000    0.000    0.000    0.000    0.000 
#
# Total GULP energy -78228.826941 kJ/mol
# GULP energy per Si atom -5587.773353 kJ/mol
# Density = 2.376697 g / cm^3
# Si number density = 23.821190 Si / 1000 Ang^3
#
#
#
# Elastic Constant Matrix: (Units=GPa)
#
#
# Indices 1 2 3 4 5 6 
#
# 1 89.5452 28.6973 28.3037 -11.3648 4.6195 19.7422
# 2 28.6973 115.2050 15.3820 -39.1116 1.6661 30.4768
# 3 28.3037 15.3820 139.0082 -19.7386 23.8744 20.3141
# 4 -11.3648 -39.1116 -19.7386 42.0812 -1.1613 -4.3956
# 5 4.6195 1.6661 23.8744 -1.1613 39.7709 16.4895
# 6 19.7422 30.4768 20.3141 -4.3956 16.4895 34.1095
#
#
#
# Elastic Compliance Matrix: (Units=1/GPa)
#
#
# Indices 1 2 3 4 5 6 
#
# 1 0.013637 -0.000867 -0.001902 0.001319 0.002556 -0.007052
# 2 -0.000867 0.019204 0.002100 0.016811 0.006320 -0.018797
# 3 -0.001902 0.002100 0.009298 0.005296 -0.003701 -0.003841
# 4 0.001319 0.016811 0.005296 0.040717 0.003538 -0.015401
# 5 0.002556 0.006320 -0.003701 0.003538 0.035969 -0.021854
# 6 -0.007052 -0.018797 -0.003841 -0.015401 -0.021854 0.061061
#
#
# Mechanical properties :
#
#
# Convention : Reuss Voigt Hill
#
# Bulk Modulus (GPa) = 24.50900 54.28051 39.39475
# Shear Modulus (GPa) = 25.66428 41.28400 33.47414
#
# Velocity S-wave (km/s) = 3.28590 4.16754 3.75270
# Velocity P-wave (km/s) = 4.97064 6.78189 5.94564
#
# Compressibility (1/GPa) = 0.04080134
#
# Stress axis : x y z
#
# Youngs Moduli (GPa) = 73.33181 52.07248 107.55360
#
# Poissons Ratio (x) = 0.04512 0.20456
# Poissons Ratio (y) = 0.06354 -0.22585
# Poissons Ratio (z) = 0.13947 -0.10935
#
# Static dielectric constant tensor:
#      x y z
#    x 1.936930 -0.022010 -0.030450 
#    y -0.022010 2.022040 -0.006640 
#    z -0.030450 -0.006640 1.877930 
# 
# From -- ./inp_files/157474.got.cif
#   From: 2010.05.17/outbox.cif.g08.bks.cpg/sg2_79_cif.got.tgz:157474.got - 2010.06.03 11:33:40.
