data_PCOD9079045
_publ_section_title
;
Structure prediction by ZEFSAII (Michael W. Deem and Ramdas Pophale) SiO2 
 PCOD9079045
Probable space group: P -1
;
_chemical_formula_sum "Si O2"
_cell_formula_units_Z 14
_cell_length_a 8.407475
_cell_length_b 14.097103
_cell_length_c 7.515541
_cell_angle_alpha 132.668806
_cell_angle_beta 68.631307
_cell_angle_gamma 108.265412
_cell_volume 607.048822
_symmetry_space_group_name_H-M "P -1"
_symmetry_group_IT_number 2
_symmetry_cell_setting 'triclinic'
loop_
_space_group_symop_operation_xyz
x,y,z
-x,-y,-z
loop_
_atom_site_type_symbol
_atom_site_label
_atom_site_fract_x
_atom_site_fract_y
_atom_site_fract_z
Si Si1 0.260452 0.779811 0.928061
Si Si2 0.717901 0.186684 0.633829
Si Si3 0.936519 0.607737 0.901522
Si Si4 0.435847 0.376481 0.485009
Si Si5 0.205697 0.025639 0.431260
Si Si6 0.385050 0.302922 0.775046
Si Si7 0.951521 0.660906 0.394553
O O1 0.273855 0.746572 0.090356
O O2 0.076974 0.704073 0.864239
O O3 0.256643 0.934666 0.132242
O O4 0.425399 0.727876 0.710212
O O5 0.556678 0.243673 0.686910
O O6 0.895352 0.224944 0.507697
O O7 0.712813 0.036847 0.505515
O O8 0.745535 0.636535 0.960858
O O9 0.941549 0.632160 0.147207
O O10 0.985588 0.462537 0.686602
O O11 0.500000 0.500000 0.500000
O O12 0.425654 0.408438 0.738707
O O13 0.241537 0.323561 0.445739
O O14 0.272106 0.174058 0.580981
O O15 0.000000 0.000000 0.500000
#
# Coordination Sequence:
#
# PCOD9079045 Si02
#       7
#     2   2   2   2   2   2   2
#     4   9  19  35  57  81 108 139 186 223 266 322
#     4   9  21  36  55  83 111 139 182 227 270 318
#     4   9  16  31  55  79 100 144 188 216 254 324
#     4  11  21  36  57  80 111 146 182 223 269 324
#     4  10  18  36  62  81 102 143 190 223 257 325
#     4  11  21  34  57  83 111 143 179 228 272 313
#     4   9  17  33  55  75 108 143 181 219 265 323
#
# _framework density 23.062394000000001
#
# number of rings (size 3 to 8) (size 9 to 14) (size 15 to 20)
#    0.857    1.429    2.857    1.286    2.000    1.143 
#    0.000    2.143    0.000    1.714    0.000    0.000 
#    0.000    0.000    0.000    0.000    0.000    0.000 
#
# Total GULP energy -78027.863164 kJ/mol
# GULP energy per Si atom -5573.418797 kJ/mol
# Density = 2.300990 g / cm^3
# Si number density = 23.062394 Si / 1000 Ang^3
#
#
#
# Elastic Constant Matrix: (Units=GPa)
#
#
# Indices 1 2 3 4 5 6 
#
# 1 114.2016 40.5202 25.9437 -5.5204 -40.3010 7.1698
# 2 40.5202 76.8386 -8.0661 -0.2830 -7.3984 -3.0682
# 3 25.9437 -8.0661 47.4005 -7.1395 -30.4870 5.1364
# 4 -5.5204 -0.2830 -7.1395 26.7991 -1.1370 -11.0597
# 5 -40.3010 -7.3984 -30.4870 -1.1370 42.5676 -2.2394
# 6 7.1698 -3.0682 5.1364 -11.0597 -2.2394 36.0939
#
#
#
# Elastic Compliance Matrix: (Units=1/GPa)
#
#
# Indices 1 2 3 4 5 6 
#
# 1 0.016921 -0.007751 -0.000932 0.002863 0.013969 -0.002143
# 2 -0.007751 0.018413 0.009063 0.002215 0.002552 0.002652
# 3 -0.000932 0.009063 0.048171 0.014568 0.035623 0.000774
# 4 0.002863 0.002215 0.014568 0.047909 0.015503 0.013188
# 5 0.013969 0.002552 0.035623 0.015503 0.063142 0.001041
# 6 -0.002143 0.002652 0.000774 0.013188 0.001041 0.032352
#
#
# Mechanical properties :
#
#
# Convention : Reuss Voigt Hill
#
# Bulk Modulus (GPa) = 11.86745 39.47071 25.66908
# Shear Modulus (GPa) = 19.66664 33.09497 26.38080
#
# Velocity S-wave (km/s) = 2.92337 3.79227 3.38581
# Velocity P-wave (km/s) = 4.06839 6.02719 5.14193
#
# Compressibility (1/GPa) = 0.08426409
#
# Stress axis : x y z
#
# Youngs Moduli (GPa) = 59.09871 54.30993 20.75922
#
# Poissons Ratio (x) = 0.42096 0.01936
# Poissons Ratio (y) = 0.45808 -0.18814
# Poissons Ratio (z) = 0.05510 -0.49221
#
# Static dielectric constant tensor:
#      x y z
#    x 1.953150 0.000880 0.027390 
#    y 0.000880 1.841550 -0.023740 
#    z 0.027390 -0.023740 1.892120 
# 
# From -- ./inp_files/164239.got.cif
#   From: 2010.05.17/outbox.cif.g08.bks.cpg/sg2_83_cif.got.tgz:164239.got - 2010.06.03 11:33:40.
