data_PCOD9079711
_publ_section_title
;
Structure prediction by ZEFSAII (Michael W. Deem and Ramdas Pophale) SiO2 
 PCOD9079711
Probable space group: P -1
;
_chemical_formula_sum "Si O2"
_cell_formula_units_Z 16
_cell_length_a 21.461564
_cell_length_b 11.448948
_cell_length_c 11.827171
_cell_angle_alpha 56.492321
_cell_angle_beta 141.304370
_cell_angle_gamma 151.182999
_cell_volume 787.566964
_symmetry_space_group_name_H-M "P -1"
_symmetry_group_IT_number 2
_symmetry_cell_setting 'triclinic'
loop_
_space_group_symop_operation_xyz
x,y,z
-x,-y,-z
loop_
_atom_site_type_symbol
_atom_site_label
_atom_site_fract_x
_atom_site_fract_y
_atom_site_fract_z
Si Si1 0.168186 0.261972 0.308183
Si Si2 0.838403 0.221157 0.984674
Si Si3 0.250576 0.127093 0.130837
Si Si4 0.557557 0.823876 0.440670
Si Si5 0.771572 0.631050 0.395837
Si Si6 0.517775 0.058590 0.360395
Si Si7 0.844031 0.020389 0.299477
Si Si8 0.383013 0.241417 0.671697
O O1 0.343309 0.545132 0.337553
O O2 0.176174 0.310394 0.427102
O O3 0.233765 0.178656 0.445141
O O4 0.958780 0.053210 0.077899
O O5 0.698392 0.172296 0.858422
O O6 0.744572 0.997864 0.882825
O O7 0.000000 0.500000 0.000000
O O8 0.893418 0.189689 0.182919
O O9 0.306253 0.124449 0.330786
O O10 0.423767 0.443921 0.186151
O O11 0.615864 0.049108 0.440234
O O12 0.564828 0.801926 0.330462
O O13 0.725807 0.738121 0.246732
O O14 0.616143 0.324208 0.331079
O O15 0.949728 0.801493 0.478069
O O16 0.500000 0.000000 0.500000
O O17 0.726635 0.947509 0.273423
#
# Coordination Sequence:
#
# PCOD9079711 Si02
#       8
#     2   2   2   2   2   2   2   2
#     4  10  18  37  63  96 123 160 217 266 305 356
#     4  12  23  38  66  99 122 153 211 274 317 368
#     4  11  21  36  68  94 122 168 215 261 313 359
#     4  11  23  39  59  92 132 169 211 254 308 370
#     4  10  20  38  63  91 127 159 202 267 318 360
#     4  12  21  38  63  92 125 165 207 263 315 360
#     4  10  22  41  61  90 129 158 203 263 319 368
#     4  10  24  41  58  89 135 173 202 254 308 386
#
# _framework density 20.315733000000002
#
# number of rings (size 3 to 8) (size 9 to 14) (size 15 to 20)
#    0.000    1.250    3.750    4.500    0.000    4.000 
#    0.000    1.250    0.000    0.000    0.000    0.000 
#    0.000    0.000    0.000    0.000    0.000    0.000 
#
# Total GULP energy -89258.127374 kJ/mol
# GULP energy per Si atom -5578.632961 kJ/mol
# Density = 2.026949 g / cm^3
# Si number density = 20.315733 Si / 1000 Ang^3
#
#
#
# Elastic Constant Matrix: (Units=GPa)
#
#
# Indices 1 2 3 4 5 6 
#
# 1 104.4037 40.6417 14.3258 7.3615 -1.5814 10.3497
# 2 40.6417 112.9248 21.2212 -6.6341 2.8703 11.5944
# 3 14.3258 21.2212 82.2155 8.0052 21.3091 6.0801
# 4 7.3615 -6.6341 8.0052 23.9987 1.3659 2.6270
# 5 -1.5814 2.8703 21.3091 1.3659 23.5085 -0.0212
# 6 10.3497 11.5944 6.0801 2.6270 -0.0212 20.7453
#
#
#
# Elastic Compliance Matrix: (Units=1/GPa)
#
#
# Indices 1 2 3 4 5 6 
#
# 1 0.011948 -0.004134 -0.001036 -0.004298 0.002495 -0.002800
# 2 -0.004134 0.011617 -0.002601 0.005811 0.000320 -0.004404
# 3 -0.001036 -0.002601 0.017733 -0.005149 -0.015529 -0.002590
# 4 -0.004298 0.005811 -0.005149 0.046863 0.000941 -0.005528
# 5 0.002495 0.000320 -0.015529 0.000941 0.056691 0.003067
# 6 -0.002800 -0.004404 -0.002590 -0.005528 0.003067 0.053524
#
#
# Mechanical properties :
#
#
# Convention : Reuss Voigt Hill
#
# Bulk Modulus (GPa) = 38.82579 50.21349 44.51964
# Shear Modulus (GPa) = 22.47152 28.54085 25.50619
#
# Velocity S-wave (km/s) = 3.32944 3.75222 3.54713
# Velocity P-wave (km/s) = 5.82519 6.59867 6.22396
#
# Compressibility (1/GPa) = 0.02575608
#
# Stress axis : x y z
#
# Youngs Moduli (GPa) = 83.69663 86.07722 56.39203
#
# Poissons Ratio (x) = 0.35582 0.05842
# Poissons Ratio (y) = 0.34598 0.14670
# Poissons Ratio (z) = 0.08670 0.22392
#
# Static dielectric constant tensor:
#      x y z
#    x 1.730770 -0.027690 0.015480 
#    y -0.027690 1.829140 -0.048350 
#    z 0.015480 -0.048350 1.816770 
# 
# From -- ./inp_files/471187.got.cif
#   From: 2010.05.17/outbox.cif.g08.bks.cpg/sg2_236_cif.got.tgz:471187.got - 2010.06.03 11:33:40.
