data_PCOD9079101
_publ_section_title
;
Structure prediction by ZEFSAII (Michael W. Deem and Ramdas Pophale) SiO2 
 PCOD9079101
Probable space group: P -1
;
_chemical_formula_sum "Si O2"
_cell_formula_units_Z 16
_cell_length_a 11.199651
_cell_length_b 13.574773
_cell_length_c 19.546204
_cell_angle_alpha 146.461231
_cell_angle_beta 30.138769
_cell_angle_gamma 146.428733
_cell_volume 753.708157
_symmetry_space_group_name_H-M "P -1"
_symmetry_group_IT_number 2
_symmetry_cell_setting 'triclinic'
loop_
_space_group_symop_operation_xyz
x,y,z
-x,-y,-z
loop_
_atom_site_type_symbol
_atom_site_label
_atom_site_fract_x
_atom_site_fract_y
_atom_site_fract_z
Si Si1 0.396498 0.166240 0.601420
Si Si2 0.329999 0.787873 0.834042
Si Si3 0.064488 0.829686 0.661145
Si Si4 0.054975 0.030536 0.909269
Si Si5 0.611681 0.134099 0.685218
Si Si6 0.449701 0.444610 0.321568
Si Si7 0.818017 0.540084 0.395366
Si Si8 0.711283 0.892060 0.607160
O O1 0.703624 0.239905 0.511016
O O2 0.380232 0.353383 0.683343
O O3 0.192822 0.050620 0.694047
O O4 0.356215 0.994073 0.467260
O O5 0.368956 0.662478 0.803787
O O6 0.225409 0.644907 0.736977
O O7 0.626430 0.925825 0.744465
O O8 0.146365 0.901112 0.990206
O O9 0.789461 0.699816 0.689188
O O10 0.040159 0.844704 0.763851
O O11 0.355983 0.177220 0.834719
O O12 0.000000 0.000000 0.000000
O O13 0.875417 0.324026 0.671813
O O14 0.561000 0.981151 0.684143
O O15 0.306697 0.490675 0.485114
O O16 0.700609 0.675009 0.490808
O O17 0.000000 0.000000 0.500000
#
# Coordination Sequence:
#
# PCOD9079101 Si02
#       8
#     2   2   2   2   2   2   2   2
#     4  10  20  39  65  95 124 155 206 268 315 356
#     4  11  22  38  57  92 131 163 207 251 305 381
#     4  10  23  41  64  94 123 163 209 256 310 374
#     4  11  24  42  62  85 127 177 206 246 311 379
#     4  10  18  36  62  89 126 162 206 254 309 364
#     4  11  21  39  66  96 122 160 207 264 318 360
#     4  10  20  33  59  96 126 153 205 265 310 358
#     4   9  17  31  56  87 116 155 200 253 308 350
#
# _framework density 21.228376000000001
#
# number of rings (size 3 to 8) (size 9 to 14) (size 15 to 20)
#    0.000    1.750    2.500    3.375    1.750    1.000 
#    0.000    1.875    0.000    0.000    0.000    0.000 
#    0.000    0.000    0.000    0.000    0.000    0.000 
#
# Total GULP energy -89127.119765 kJ/mol
# GULP energy per Si atom -5570.444985 kJ/mol
# Density = 2.118006 g / cm^3
# Si number density = 21.228376 Si / 1000 Ang^3
#
#
#
# Elastic Constant Matrix: (Units=GPa)
#
#
# Indices 1 2 3 4 5 6 
#
# 1 78.5144 24.4844 12.5650 -2.8446 4.3525 -5.9707
# 2 24.4844 82.1085 16.2161 -10.6008 -0.4868 -4.5221
# 3 12.5650 16.2161 57.1890 -14.5878 -8.4059 -0.1908
# 4 -2.8446 -10.6008 -14.5878 16.1637 2.3706 -4.0070
# 5 4.3525 -0.4868 -8.4059 2.3706 39.0676 1.0304
# 6 -5.9707 -4.5221 -0.1908 -4.0070 1.0304 48.0233
#
#
#
# Elastic Compliance Matrix: (Units=1/GPa)
#
#
# Indices 1 2 3 4 5 6 
#
# 1 0.014592 -0.003978 -0.002915 -0.002023 -0.002214 0.001307
# 2 -0.003978 0.014764 -0.001215 0.008306 -0.000180 0.001588
# 3 -0.002915 -0.001215 0.024274 0.020274 0.004270 0.001220
# 4 -0.002023 0.008306 0.020274 0.087338 -0.000817 0.007916
# 5 -0.002214 -0.000180 0.004270 -0.000817 0.026834 -0.000919
# 6 0.001307 0.001588 0.001220 0.007916 -0.000919 0.021820
#
#
# Mechanical properties :
#
#
# Convention : Reuss Voigt Hill
#
# Bulk Modulus (GPa) = 26.72772 36.03809 31.38291
# Shear Modulus (GPa) = 22.90322 31.62068 27.26195
#
# Velocity S-wave (km/s) = 3.28822 3.86365 3.58749
# Velocity P-wave (km/s) = 5.19946 6.07593 5.65471
#
# Compressibility (1/GPa) = 0.03741434
#
# Stress axis : x y z
#
# Youngs Moduli (GPa) = 68.52871 67.73262 41.19632
#
# Poissons Ratio (x) = 0.26944 0.12010
# Poissons Ratio (y) = 0.27261 0.05004
# Poissons Ratio (z) = 0.19978 0.08227
#
# Static dielectric constant tensor:
#      x y z
#    x 2.268240 -0.223890 -0.285460 
#    y -0.223890 2.013890 0.120840 
#    z -0.285460 0.120840 1.960520 
# 
# From -- ./inp_files/595650.got.cif
#   From: 2010.05.17/outbox.cif.g08.bks.cpg/sg2_298_cif.got.tgz:595650.got - 2010.06.03 11:33:40.
