data_PCOD9079996
_publ_section_title
;
Structure prediction by ZEFSAII (Michael W. Deem and Ramdas Pophale) SiO2 
 PCOD9079996
Probable space group: P -1
;
_chemical_formula_sum "Si O2"
_cell_formula_units_Z 16
_cell_length_a 10.856529
_cell_length_b 11.284038
_cell_length_c 8.774501
_cell_angle_alpha 121.069787
_cell_angle_beta 99.373975
_cell_angle_gamma 43.706369
_cell_volume 594.706133
_symmetry_space_group_name_H-M "P -1"
_symmetry_group_IT_number 2
_symmetry_cell_setting 'triclinic'
loop_
_space_group_symop_operation_xyz
x,y,z
-x,-y,-z
loop_
_atom_site_type_symbol
_atom_site_label
_atom_site_fract_x
_atom_site_fract_y
_atom_site_fract_z
Si Si1 0.678025 0.021914 0.476433
Si Si2 0.560532 0.822958 0.718800
Si Si3 0.159026 0.766963 0.577628
Si Si4 0.230009 0.792607 0.933423
Si Si5 0.251791 0.346155 0.745656
Si Si6 0.800177 0.222833 0.743636
Si Si7 0.931257 0.403936 0.392757
Si Si8 0.496335 0.177081 0.949797
O O1 0.640888 0.053338 0.307862
O O2 0.460971 0.181097 0.599557
O O3 0.724208 0.132876 0.625116
O O4 0.793706 0.780453 0.359310
O O5 0.717597 0.587480 0.536865
O O6 0.599359 0.949492 0.761655
O O7 0.570816 0.806572 0.887644
O O8 0.284703 0.692005 0.706212
O O9 0.233414 0.669292 0.354738
O O10 0.006318 0.781189 0.624752
O O11 0.026393 0.011520 0.675394
O O12 0.268879 0.683968 0.034282
O O13 0.353407 0.826997 0.007974
O O14 0.000000 0.000000 0.000000
O O15 0.097421 0.570435 0.777630
O O16 0.306544 0.350946 0.926716
O O17 0.000000 0.500000 0.500000
#
# Coordination Sequence:
#
# PCOD9079996 Si02
#       8
#     2   2   2   2   2   2   2   2
#     4   9  15  31  58  85 109 146 205 239 289 348
#     4   9  21  34  62  92 117 158 195 261 308 348
#     4  10  23  38  56  90 120 157 206 245 306 366
#     4  10  21  35  63  91 119 159 202 253 298 355
#     4   9  18  31  57  86 111 155 195 241 296 354
#     4  10  19  37  62  85 117 159 203 256 295 355
#     4  11  23  40  60  85 123 160 197 248 315 372
#     4  10  18  38  60  91 123 148 213 252 296 360
#
# _framework density 26.904043000000001
#
# number of rings (size 3 to 8) (size 9 to 14) (size 15 to 20)
#    0.000    2.250    1.250    2.250    3.500    0.000 
#    2.250    8.125    0.000    0.000    0.000    0.000 
#    0.000    0.000    0.000    0.000    0.000    0.000 
#
# Total GULP energy -89088.589289 kJ/mol
# GULP energy per Si atom -5568.036831 kJ/mol
# Density = 2.684281 g / cm^3
# Si number density = 26.904043 Si / 1000 Ang^3
#
#
#
# Elastic Constant Matrix: (Units=GPa)
#
#
# Indices 1 2 3 4 5 6 
#
# 1 101.9758 21.4114 42.2875 -18.1868 44.2401 24.5321
# 2 21.4114 90.7433 51.8734 -42.5644 -4.7289 28.3849
# 3 42.2875 51.8734 163.3176 -68.2895 24.4627 23.9468
# 4 -18.1868 -42.5644 -68.2895 62.1259 6.6760 -10.2280
# 5 44.2401 -4.7289 24.4627 6.6760 47.6078 -2.3916
# 6 24.5321 28.3849 23.9468 -10.2280 -2.3916 28.3639
#
#
#
# Elastic Compliance Matrix: (Units=1/GPa)
#
#
# Indices 1 2 3 4 5 6 
#
# 1 0.046230 0.011761 0.017103 0.037194 -0.058696 -0.057731
# 2 0.011761 0.025775 0.006525 0.024478 -0.016865 -0.034070
# 3 0.017103 0.006525 0.023268 0.033426 -0.033483 -0.031736
# 4 0.037194 0.024478 0.033426 0.077013 -0.063244 -0.062448
# 5 -0.058696 -0.016865 -0.033483 -0.063244 0.104060 0.081881
# 6 -0.057731 -0.034070 -0.031736 -0.062448 0.081881 0.130463
#
#
# Mechanical properties :
#
#
# Convention : Reuss Voigt Hill
#
# Bulk Modulus (GPa) = 6.02227 65.24238 35.63232
# Shear Modulus (GPa) = 12.77530 43.65048 28.21289
#
# Velocity S-wave (km/s) = 2.18146 4.03234 3.24180
# Velocity P-wave (km/s) = 2.93058 6.78103 5.22353
#
# Compressibility (1/GPa) = 0.16605033
#
# Stress axis : x y z
#
# Youngs Moduli (GPa) = 21.63101 38.79715 42.97831
#
# Poissons Ratio (x) = -0.45628 -0.73507
# Poissons Ratio (y) = -0.25440 -0.28043
# Poissons Ratio (z) = -0.36996 -0.25315
#
# Static dielectric constant tensor:
#      x y z
#    x 2.197330 0.101830 -0.012440 
#    y 0.101830 2.300970 -0.076730 
#    z -0.012440 -0.076730 2.280860 
# 
# From -- ./inp_files/243624.got.cif
#   From: 2010.05.17/outbox.cif.g08.bks.cpg/sg2_122_cif.got.tgz:243624.got - 2010.06.03 11:33:40.
