data_PCOD9079241
_publ_section_title
;
Structure prediction by ZEFSAII (Michael W. Deem and Ramdas Pophale) SiO2 
 PCOD9079241
Probable space group: P -1
;
_chemical_formula_sum "Si O2"
_cell_formula_units_Z 16
_cell_length_a 8.707766
_cell_length_b 8.001640
_cell_length_c 21.692324
_cell_angle_alpha 147.399557
_cell_angle_beta 119.349232
_cell_angle_gamma 58.863939
_cell_volume 692.131138
_symmetry_space_group_name_H-M "P -1"
_symmetry_group_IT_number 2
_symmetry_cell_setting 'triclinic'
loop_
_space_group_symop_operation_xyz
x,y,z
-x,-y,-z
loop_
_atom_site_type_symbol
_atom_site_label
_atom_site_fract_x
_atom_site_fract_y
_atom_site_fract_z
Si Si1 0.508306 0.621260 0.935159
Si Si2 0.731546 0.191381 0.330645
Si Si3 0.115467 0.313756 0.021150
Si Si4 0.443295 0.101562 0.451692
Si Si5 0.591306 0.012412 0.854258
Si Si6 0.893599 0.062803 0.728781
Si Si7 0.067849 0.221453 0.217101
Si Si8 0.726223 0.734706 0.300247
O O1 0.677930 0.738051 0.976797
O O2 0.398357 0.499975 0.821471
O O3 0.578753 0.318585 0.901317
O O4 0.391732 0.878393 0.038642
O O5 0.636200 0.522085 0.445333
O O6 0.594849 0.101660 0.225449
O O7 0.757740 0.926726 0.305938
O O8 0.926379 0.170382 0.333259
O O9 0.082216 0.574654 0.149744
O O10 0.000000 0.500000 0.000000
O O11 0.034702 0.002964 0.913157
O O12 0.500000 0.000000 0.500000
O O13 0.280724 0.951234 0.348984
O O14 0.613118 0.974157 0.401527
O O15 0.757223 0.752262 0.779211
O O16 0.867876 0.946793 0.757378
O O17 0.917988 0.536400 0.299232
#
# Coordination Sequence:
#
# PCOD9079241 Si02
#       8
#     2   2   2   2   2   2   2   2
#     4  10  19  37  61  92 139 177 217 275 328 390
#     4  11  25  44  70  97 136 179 221 278 339 389
#     4  10  18  36  64  95 132 179 211 262 332 391
#     4  12  26  49  72  96 127 176 233 285 329 394
#     4  10  20  37  63  97 138 177 221 265 331 398
#     4  11  22  45  69  99 134 172 228 276 332 397
#     4  11  23  39  68 103 140 178 219 269 333 410
#     4  11  25  44  63 101 136 176 223 276 335 400
#
# _framework density 23.117007999999998
#
# number of rings (size 3 to 8) (size 9 to 14) (size 15 to 20)
#    0.000    1.250    3.750    3.750    3.500    2.000 
#    2.250    1.875    0.000    0.000    0.000    0.000 
#    0.000    0.000    0.000    0.000    0.000    0.000 
#
# Total GULP energy -89583.526735 kJ/mol
# GULP energy per Si atom -5598.970421 kJ/mol
# Density = 2.306439 g / cm^3
# Si number density = 23.117008 Si / 1000 Ang^3
#
#
#
# Elastic Constant Matrix: (Units=GPa)
#
#
# Indices 1 2 3 4 5 6 
#
# 1 73.6388 31.1229 6.8503 2.5706 -36.6260 -21.4068
# 2 31.1229 74.5192 23.2860 -12.7346 -3.0236 -13.3690
# 3 6.8503 23.2860 84.3166 -0.7998 -24.9855 -3.6209
# 4 2.5706 -12.7346 -0.7998 35.1364 -4.5116 -7.8513
# 5 -36.6260 -3.0236 -24.9855 -4.5116 46.2882 7.6562
# 6 -21.4068 -13.3690 -3.6209 -7.8513 7.6562 24.3547
#
#
#
# Elastic Compliance Matrix: (Units=1/GPa)
#
#
# Indices 1 2 3 4 5 6 
#
# 1 0.044213 -0.017688 0.013325 -0.000200 0.037830 0.019177
# 2 -0.017688 0.026157 -0.010831 0.009530 -0.018196 0.005993
# 3 0.013325 -0.010831 0.019780 -0.001442 0.020052 0.001939
# 4 -0.000200 0.009530 -0.001442 0.035568 0.000480 0.016157
# 5 0.037830 -0.018196 0.020052 0.000480 0.059971 0.007546
# 6 0.019177 0.005993 0.001939 0.016157 0.007546 0.064330
#
#
# Mechanical properties :
#
#
# Convention : Reuss Voigt Hill
#
# Bulk Modulus (GPa) = 16.73327 39.44369 28.08848
# Shear Modulus (GPa) = 16.64839 32.57020 24.60930
#
# Velocity S-wave (km/s) = 2.68653 3.75764 3.26629
# Velocity P-wave (km/s) = 4.10822 5.99384 5.13827
#
# Compressibility (1/GPa) = 0.05976118
#
# Stress axis : x y z
#
# Youngs Moduli (GPa) = 22.61759 38.23074 50.55560
#
# Poissons Ratio (x) = 0.67624 -0.67364
# Poissons Ratio (y) = 0.40007 0.54757
# Poissons Ratio (z) = -0.30137 0.41408
#
# Static dielectric constant tensor:
#      x y z
#    x 1.821000 -0.018240 0.003770 
#    y -0.018240 1.920170 0.069280 
#    z 0.003770 0.069280 1.894580 
# 
# From -- ./inp_files/333434.got.cif
#   From: 2010.05.17/outbox.cif.g08.bks.cpg/sg2_167_cif.got.tgz:333434.got - 2010.06.03 11:33:40.
