data_PCOD9079706
_publ_section_title
;
Structure prediction by ZEFSAII (Michael W. Deem and Ramdas Pophale) SiO2 
 PCOD9079706
Probable space group: P -1
;
_chemical_formula_sum "Si O2"
_cell_formula_units_Z 16
_cell_length_a 12.279055
_cell_length_b 9.083837
_cell_length_c 11.468304
_cell_angle_alpha 121.769649
_cell_angle_beta 144.759807
_cell_angle_gamma 74.052597
_cell_volume 595.249018
_symmetry_space_group_name_H-M "P -1"
_symmetry_group_IT_number 2
_symmetry_cell_setting 'triclinic'
loop_
_space_group_symop_operation_xyz
x,y,z
-x,-y,-z
loop_
_atom_site_type_symbol
_atom_site_label
_atom_site_fract_x
_atom_site_fract_y
_atom_site_fract_z
Si Si1 0.205463 0.445814 0.643953
Si Si2 0.870358 0.317503 0.932399
Si Si3 0.427065 0.777567 0.714350
Si Si4 0.562548 0.175258 0.004352
Si Si5 0.980915 0.288848 0.756128
Si Si6 0.057309 0.926605 0.696189
Si Si7 0.790056 0.986644 0.868779
Si Si8 0.317441 0.398067 0.450557
O O1 0.372303 0.626443 0.915171
O O2 0.270895 0.415166 0.555518
O O3 0.000000 0.500000 0.500000
O O4 0.146024 0.242660 0.560876
O O5 0.846995 0.516604 0.011770
O O6 0.105059 0.359019 0.184427
O O7 0.869104 0.264928 0.774269
O O8 0.745750 0.160297 0.844859
O O9 0.530858 0.809544 0.945262
O O10 0.188870 0.702397 0.476405
O O11 0.465467 0.595968 0.623235
O O12 0.466232 0.979731 0.777584
O O13 0.768296 0.149551 0.218573
O O14 0.038010 0.110270 0.704306
O O15 0.137582 0.982640 0.922210
O O16 0.636920 0.789471 0.618653
O O17 0.000000 0.000000 0.000000
#
# Coordination Sequence:
#
# PCOD9079706 Si02
#       8
#     2   2   2   2   2   2   2   2
#     4   9  16  27  48  75  95 123 169 209 234 277
#     4   9  16  27  46  76 104 130 154 203 252 303
#     4   9  19  35  50  69 103 143 161 198 251 305
#     4   9  20  35  51  69 101 138 175 197 240 300
#     4  10  18  28  51  78 102 125 165 207 257 286
#     4  11  18  30  53  84  97 121 170 220 241 284
#     4  10  15  27  50  77 101 126 159 206 250 295
#     4   9  14  27  49  72  95 127 167 196 239 296
#
# _framework density 26.879505999999999
#
# number of rings (size 3 to 8) (size 9 to 14) (size 15 to 20)
#    0.000    2.500    5.000    0.000    0.000    0.500 
#    0.000    1.250    0.000    0.750    0.000    0.000 
#    0.000    0.000    0.000    0.000    0.000    0.000 
#
# Total GULP energy -89139.715751 kJ/mol
# GULP energy per Si atom -5571.232234 kJ/mol
# Density = 2.681833 g / cm^3
# Si number density = 26.879506 Si / 1000 Ang^3
#
#
#
# Elastic Constant Matrix: (Units=GPa)
#
#
# Indices 1 2 3 4 5 6 
#
# 1 36.3152 5.1295 19.6237 5.1891 -9.5934 -4.6389
# 2 5.1295 185.3789 57.4215 75.0195 8.7749 -3.7715
# 3 19.6237 57.4215 123.4313 61.4049 -15.0538 -2.7328
# 4 5.1891 75.0195 61.4049 79.5890 3.4583 5.1780
# 5 -9.5934 8.7749 -15.0538 3.4583 29.8750 2.3752
# 6 -4.6389 -3.7715 -2.7328 5.1780 2.3752 22.7780
#
#
#
# Elastic Compliance Matrix: (Units=1/GPa)
#
#
# Indices 1 2 3 4 5 6 
#
# 1 0.032541 -0.000072 -0.004424 0.000689 0.007755 0.005119
# 2 -0.000072 0.009094 -0.000078 -0.008658 -0.002022 0.003661
# 3 -0.004424 -0.000078 0.016189 -0.012675 0.007982 0.003077
# 4 0.000689 -0.008658 -0.012675 0.031345 -0.006515 -0.009260
# 5 0.007755 -0.002022 0.007982 -0.006515 0.041384 -0.000632
# 6 0.005119 0.003661 0.003077 -0.009260 -0.000632 0.048091
#
#
# Mechanical properties :
#
#
# Convention : Reuss Voigt Hill
#
# Bulk Modulus (GPa) = 20.54369 56.60831 38.57600
# Shear Modulus (GPa) = 24.50780 43.97844 34.24312
#
# Velocity S-wave (km/s) = 3.02282 4.04930 3.57311
# Velocity P-wave (km/s) = 4.45452 6.55501 5.60406
#
# Compressibility (1/GPa) = 0.04867674
#
# Stress axis : x y z
#
# Youngs Moduli (GPa) = 30.73005 109.95928 61.77221
#
# Poissons Ratio (x) = 0.00792 0.27327
# Poissons Ratio (y) = 0.00221 0.00481
# Poissons Ratio (z) = 0.13595 0.00856
#
# Static dielectric constant tensor:
#      x y z
#    x 2.364330 -0.009370 0.088380 
#    y -0.009370 2.327030 0.085710 
#    z 0.088380 0.085710 2.150770 
# 
# From -- ./inp_files/239761.got.cif
#   From: 2010.05.17/outbox.cif.g08.bks.cpg/sg2_120_cif.got.tgz:239761.got - 2010.06.03 11:33:40.
