data_PCOD9079809
_publ_section_title
;
Structure prediction by ZEFSAII (Michael W. Deem and Ramdas Pophale) SiO2 
 PCOD9079809
Probable space group: P -1
;
_chemical_formula_sum "Si O2"
_cell_formula_units_Z 16
_cell_length_a 7.462246
_cell_length_b 9.080510
_cell_length_c 15.882173
_cell_angle_alpha 132.549675
_cell_angle_beta 64.690506
_cell_angle_gamma 90.771358
_cell_volume 652.454438
_symmetry_space_group_name_H-M "P -1"
_symmetry_group_IT_number 2
_symmetry_cell_setting 'triclinic'
loop_
_space_group_symop_operation_xyz
x,y,z
-x,-y,-z
loop_
_atom_site_type_symbol
_atom_site_label
_atom_site_fract_x
_atom_site_fract_y
_atom_site_fract_z
Si Si1 0.822395 0.434033 0.960299
Si Si2 0.177041 0.035082 0.788873
Si Si3 0.762382 0.997186 0.045917
Si Si4 0.923627 0.531797 0.794161
Si Si5 0.095227 0.249589 0.488512
Si Si6 0.747655 0.398024 0.469051
Si Si7 0.597345 0.486546 0.279654
Si Si8 0.514473 0.198904 0.727563
O O1 0.924127 0.183937 0.875635
O O2 0.846690 0.451329 0.862776
O O3 0.591569 0.602881 0.106990
O O4 0.000000 0.500000 0.000000
O O5 0.256126 0.066328 0.877788
O O6 0.335822 0.092313 0.716834
O O7 0.211154 0.786871 0.679456
O O8 0.606184 0.249981 0.157987
O O9 0.771936 0.791070 0.910171
O O10 0.000000 0.000000 0.000000
O O11 0.963339 0.372971 0.645676
O O12 0.159969 0.527208 0.767083
O O13 0.232136 0.387442 0.485997
O O14 0.931523 0.284072 0.458535
O O15 0.258103 0.998855 0.373556
O O16 0.526636 0.453560 0.584580
O O17 0.479505 0.678965 0.311660
#
# Coordination Sequence:
#
# PCOD9079809 Si02
#       8
#     2   2   2   2   2   2   2   2
#     4  10  18  37  65  98 130 155 199 263 317 369
#     4  11  20  39  67  92 124 165 203 259 311 371
#     4  10  19  33  63  97 123 153 206 259 310 361
#     4  11  20  39  68  98 125 161 207 258 316 366
#     4  11  27  45  63  86 129 175 210 258 309 375
#     4  11  26  45  61  88 130 170 217 253 311 369
#     4  11  22  37  65 100 124 159 209 266 306 375
#     4  11  22  40  66  97 128 162 205 259 320 368
#
# _framework density 24.522784999999999
#
# number of rings (size 3 to 8) (size 9 to 14) (size 15 to 20)
#    0.000    1.250    5.000    3.750    1.750    3.000 
#    0.000    1.250    5.500    0.000    0.000    0.000 
#    0.000    0.000    0.000    0.000    0.000    0.000 
#
# Total GULP energy -89556.490174 kJ/mol
# GULP energy per Si atom -5597.280636 kJ/mol
# Density = 2.446697 g / cm^3
# Si number density = 24.522785 Si / 1000 Ang^3
#
#
#
# Elastic Constant Matrix: (Units=GPa)
#
#
# Indices 1 2 3 4 5 6 
#
# 1 70.7176 8.2411 26.9349 16.4608 2.5760 -8.4668
# 2 8.2411 75.3457 26.3316 36.8644 12.7340 -17.8281
# 3 26.9349 26.3316 131.1497 27.8226 4.5451 -14.1343
# 4 16.4608 36.8644 27.8226 50.5612 -21.6044 -12.1724
# 5 2.5760 12.7340 4.5451 -21.6044 0.6413 -1.0901
# 6 -8.4668 -17.8281 -14.1343 -12.1724 -1.0901 25.1338
#
#
#
# Elastic Compliance Matrix: (Units=1/GPa)
#
#
# Indices 1 2 3 4 5 6 
#
# 1 0.015435 -0.001118 -0.002906 0.000570 0.005591 0.003291
# 2 -0.001118 0.010242 -0.002757 0.005495 0.020915 0.008906
# 3 -0.002906 -0.002757 0.008925 -0.000112 0.003094 0.002164
# 4 0.000570 0.005495 -0.000112 0.002102 -0.033720 0.003582
# 5 0.005591 0.020915 0.003094 -0.033720 -0.035318 0.000597
# 6 0.003291 0.008906 0.002164 0.003582 0.000597 0.050191
#
#
# Mechanical properties :
#
#
# Convention : Reuss Voigt Hill
#
# Bulk Modulus (GPa) = 47.52736 44.46980 45.99858
# Shear Modulus (GPa) = 69.29721 29.64760 49.47241
#
# Velocity S-wave (km/s) = 5.32162 3.48081 4.49643
# Velocity P-wave (km/s) = 7.56191 5.85903 6.76427
#
# Compressibility (1/GPa) = 0.02104051
#
# Stress axis : x y z
#
# Youngs Moduli (GPa) = 64.78604 97.63608 112.04560
#
# Poissons Ratio (x) = 0.10915 0.32556
# Poissons Ratio (y) = 0.07242 0.30896
# Poissons Ratio (z) = 0.18824 0.26923
#
# Static dielectric constant tensor:
#      x y z
#    x 1.963850 -0.021810 -0.020680 
#    y -0.021810 2.001430 0.005940 
#    z -0.020680 0.005940 1.998870 
# 
# From -- ./inp_files/557558.got.cif
#   From: 2010.05.17/outbox.cif.g08.bks.cpg/sg2_279_cif.got.tgz:557558.got - 2010.06.03 11:33:40.
