data_PCOD9079573
_publ_section_title
;
Structure prediction by ZEFSAII (Michael W. Deem and Ramdas Pophale) SiO2 
 PCOD9079573
Probable space group: P -1
;
_chemical_formula_sum "Si O2"
_cell_formula_units_Z 14
_cell_length_a 8.319546
_cell_length_b 7.950383
_cell_length_c 12.410044
_cell_angle_alpha 117.227727
_cell_angle_beta 83.088098
_cell_angle_gamma 128.484700
_cell_volume 555.178637
_symmetry_space_group_name_H-M "P -1"
_symmetry_group_IT_number 2
_symmetry_cell_setting 'triclinic'
loop_
_space_group_symop_operation_xyz
x,y,z
-x,-y,-z
loop_
_atom_site_type_symbol
_atom_site_label
_atom_site_fract_x
_atom_site_fract_y
_atom_site_fract_z
Si Si1 0.798502 0.750805 0.994879
Si Si2 0.740580 0.332852 0.275321
Si Si3 0.841631 0.428694 0.752312
Si Si4 0.632364 0.493078 0.144782
Si Si5 0.416568 0.194545 0.606326
Si Si6 0.042908 0.187509 0.455681
Si Si7 0.306109 0.072802 0.335724
O O1 0.789425 0.533065 0.881961
O O2 0.586876 0.699122 0.957444
O O3 0.785887 0.710876 0.111678
O O4 0.000000 0.000000 0.000000
O O5 0.718425 0.376267 0.164013
O O6 0.828666 0.551705 0.419560
O O7 0.496280 0.129615 0.267340
O O8 0.941882 0.344483 0.256375
O O9 0.635777 0.269498 0.646535
O O10 0.857802 0.222281 0.725868
O O11 0.588479 0.604069 0.279120
O O12 0.407426 0.194402 0.479287
O O13 0.197434 0.933524 0.588507
O O14 0.179347 0.172875 0.352496
O O15 0.000000 0.000000 0.500000
#
# Coordination Sequence:
#
# PCOD9079573 Si02
#       7
#     2   2   2   2   2   2   2
#     4  10  25  48  68  88 116 168 226 267 323 370
#     4  12  23  38  64 102 133 173 204 252 323 387
#     4  11  24  42  62  95 134 168 212 272 314 366
#     4  10  22  43  68  91 125 165 216 268 308 377
#     4  10  20  40  64  92 136 173 202 260 315 371
#     4  10  18  37  61  90 137 172 207 246 304 384
#     4  11  22  38  62  98 138 168 209 250 318 390
#
# _framework density 25.217110000000002
#
# number of rings (size 3 to 8) (size 9 to 14) (size 15 to 20)
#    0.000    1.429    5.714    0.857    0.000    6.857 
#    2.571    1.429    0.000    0.000    0.000    0.000 
#    0.000    0.000    0.000    0.000    0.000    0.000 
#
# Total GULP energy -78216.921126 kJ/mol
# GULP energy per Si atom -5586.922938 kJ/mol
# Density = 2.515971 g / cm^3
# Si number density = 25.217110 Si / 1000 Ang^3
#
#
#
# Elastic Constant Matrix: (Units=GPa)
#
#
# Indices 1 2 3 4 5 6 
#
# 1 117.7598 22.2305 25.7169 -14.5256 -2.5089 37.1267
# 2 22.2305 92.6807 13.7738 -22.4283 14.5495 38.4701
# 3 25.7169 13.7738 60.3371 -12.0585 11.6203 5.2769
# 4 -14.5256 -22.4283 -12.0585 27.2931 0.2350 -14.2893
# 5 -2.5089 14.5495 11.6203 0.2350 31.5785 2.6982
# 6 37.1267 38.4701 5.2769 -14.2893 2.6982 40.8433
#
#
#
# Elastic Compliance Matrix: (Units=1/GPa)
#
#
# Indices 1 2 3 4 5 6 
#
# 1 0.014125 0.003367 -0.006165 -0.000664 0.003182 -0.015657
# 2 0.003367 0.021694 -0.001465 0.008689 -0.007565 -0.019765
# 3 -0.006165 -0.001465 0.022483 0.009753 -0.008851 0.008076
# 4 -0.000664 0.008689 0.009753 0.053245 -0.008928 0.010378
# 5 0.003182 -0.007565 -0.008851 -0.008928 0.038755 -0.000308
# 6 -0.015657 -0.019765 0.008076 0.010378 -0.000308 0.059940
#
#
# Mechanical properties :
#
#
# Convention : Reuss Voigt Hill
#
# Bulk Modulus (GPa) = 20.09070 43.80221 31.94646
# Shear Modulus (GPa) = 21.24398 33.88010 27.56204
#
# Velocity S-wave (km/s) = 2.90564 3.66940 3.30963
# Velocity P-wave (km/s) = 4.38650 5.94647 5.22503
#
# Compressibility (1/GPa) = 0.04977428
#
# Stress axis : x y z
#
# Youngs Moduli (GPa) = 70.79823 46.09502 44.47789
#
# Poissons Ratio (x) = -0.15519 0.27421
# Poissons Ratio (y) = -0.23835 0.06518
# Poissons Ratio (z) = 0.43648 0.06755
#
# Static dielectric constant tensor:
#      x y z
#    x 2.154450 -0.010310 0.020800 
#    y -0.010310 2.054640 -0.026390 
#    z 0.020800 -0.026390 1.935800 
# 
# From -- ./inp_files/383227.got.cif
#   From: 2010.05.17/outbox.cif.g08.bks.cpg/sg2_192_cif.got.tgz:383227.got - 2010.06.03 11:33:40.
