data_PCOD9079070
_publ_section_title
;
Structure prediction by ZEFSAII (Michael W. Deem and Ramdas Pophale) SiO2 
 PCOD9079070
Probable space group: P -1
;
_chemical_formula_sum "Si O2"
_cell_formula_units_Z 16
_cell_length_a 11.998113
_cell_length_b 13.306217
_cell_length_c 9.491579
_cell_angle_alpha 60.098326
_cell_angle_beta 142.097900
_cell_angle_gamma 131.518090
_cell_volume 696.006453
_symmetry_space_group_name_H-M "P -1"
_symmetry_group_IT_number 2
_symmetry_cell_setting 'triclinic'
loop_
_space_group_symop_operation_xyz
x,y,z
-x,-y,-z
loop_
_atom_site_type_symbol
_atom_site_label
_atom_site_fract_x
_atom_site_fract_y
_atom_site_fract_z
Si Si1 0.744882 0.514745 0.343294
Si Si2 0.377521 0.757285 0.234452
Si Si3 0.844899 0.631226 0.057455
Si Si4 0.445921 0.895557 0.809433
Si Si5 0.829221 0.367765 0.148854
Si Si6 0.327581 0.783933 0.473666
Si Si7 0.491154 0.563434 0.589458
Si Si8 0.767388 0.979186 0.310585
O O1 0.744510 0.570123 0.151562
O O2 0.675382 0.356086 0.390723
O O3 0.609713 0.536670 0.311106
O O4 0.978645 0.595959 0.581853
O O5 0.401439 0.833026 0.352183
O O6 0.342149 0.620177 0.360737
O O7 0.597278 0.835976 0.313128
O O8 0.191146 0.704778 0.970622
O O9 0.834659 0.508138 0.043903
O O10 0.082800 0.739936 0.251383
O O11 0.712429 0.675806 0.797821
O O12 0.372242 0.743918 0.890852
O O13 0.443135 0.885328 0.645729
O O14 0.269466 0.925008 0.683123
O O15 0.658918 0.985908 0.049542
O O16 0.500000 0.500000 0.500000
O O17 0.000000 0.000000 0.500000
#
# Coordination Sequence:
#
# PCOD9079070 Si02
#       8
#     2   2   2   2   2   2   2   2
#     4  10  20  34  58  87 127 162 205 238 292 366
#     4  10  23  40  58  88 128 156 201 260 305 360
#     4  11  19  36  56  91 128 161 204 234 294 375
#     4  10  20  43  68  92 115 160 209 258 312 363
#     4  10  18  36  62  86 118 163 200 238 293 368
#     4  10  20  37  62  91 122 158 201 249 310 362
#     4  11  23  34  51  89 131 169 195 245 303 360
#     4  10  24  46  68  89 116 157 214 261 313 371
#
# _framework density 22.988292999999999
#
# number of rings (size 3 to 8) (size 9 to 14) (size 15 to 20)
#    0.000    1.750    3.750    1.125    1.750    3.000 
#    9.000    0.625    0.000    0.000    0.000    0.000 
#    0.000    0.000    0.000    0.000    0.000    0.000 
#
# Total GULP energy -89072.795981 kJ/mol
# GULP energy per Si atom -5567.049749 kJ/mol
# Density = 2.293597 g / cm^3
# Si number density = 22.988293 Si / 1000 Ang^3
#
#
#
# Elastic Constant Matrix: (Units=GPa)
#
#
# Indices 1 2 3 4 5 6 
#
# 1 144.6955 8.8650 67.2160 12.6222 -38.0083 0.0198
# 2 8.8650 37.0009 9.9762 17.0596 -17.8594 -9.6006
# 3 67.2160 9.9762 139.2307 6.4791 -45.8202 -7.1437
# 4 12.6222 17.0596 6.4791 26.8023 -5.5544 -7.6682
# 5 -38.0083 -17.8594 -45.8202 -5.5544 53.4839 5.7085
# 6 0.0198 -9.6006 -7.1437 -7.6682 5.7085 24.9277
#
#
#
# Elastic Compliance Matrix: (Units=1/GPa)
#
#
# Indices 1 2 3 4 5 6 
#
# 1 0.010047 0.002622 -0.003312 -0.005361 0.004912 -0.002721
# 2 0.002622 0.047836 0.002260 -0.026835 0.016229 0.007098
# 3 -0.003312 0.002260 0.011327 -0.000361 0.007831 0.002215
# 4 -0.005361 -0.026835 -0.000361 0.057980 -0.008044 0.009243
# 5 0.004912 0.016229 0.007831 -0.008044 0.033661 -0.001692
# 6 -0.002721 0.007098 0.002215 0.009243 -0.001692 0.046718
#
#
# Mechanical properties :
#
#
# Convention : Reuss Voigt Hill
#
# Bulk Modulus (GPa) = 13.82138 54.78237 34.30187
# Shear Modulus (GPa) = 21.87748 36.70077 29.28913
#
# Velocity S-wave (km/s) = 3.08828 3.99996 3.57331
# Velocity P-wave (km/s) = 4.32920 6.72422 5.65496
#
# Compressibility (1/GPa) = 0.07235166
#
# Stress axis : x y z
#
# Youngs Moduli (GPa) = 99.53027 20.90457 88.28525
#
# Poissons Ratio (x) = -0.05481 0.29240
# Poissons Ratio (y) = -0.26098 -0.19956
# Poissons Ratio (z) = 0.32965 -0.04725
#
# Static dielectric constant tensor:
#      x y z
#    x 1.983880 -0.037800 0.033970 
#    y -0.037800 1.957820 -0.018250 
#    z 0.033970 -0.018250 1.896060 
# 
# From -- ./inp_files/273017.got.cif
#   From: 2010.05.17/outbox.cif.g08.bks.cpg/sg2_137_cif.got.tgz:273017.got - 2010.06.03 11:33:40.
