data_PCOD9079097
_publ_section_title
;
Structure prediction by ZEFSAII (Michael W. Deem and Ramdas Pophale) SiO2 
 PCOD9079097
Probable space group: P -1
;
_chemical_formula_sum "Si O2"
_cell_formula_units_Z 12
_cell_length_a 17.263863
_cell_length_b 12.082960
_cell_length_c 11.490963
_cell_angle_alpha 143.310228
_cell_angle_beta 28.194644
_cell_angle_gamma 148.197987
_cell_volume 583.215764
_symmetry_space_group_name_H-M "P -1"
_symmetry_group_IT_number 2
_symmetry_cell_setting 'triclinic'
loop_
_space_group_symop_operation_xyz
x,y,z
-x,-y,-z
loop_
_atom_site_type_symbol
_atom_site_label
_atom_site_fract_x
_atom_site_fract_y
_atom_site_fract_z
Si Si1 0.754438 0.526515 0.925413
Si Si2 0.722344 0.881359 0.402890
Si Si3 0.706628 0.339606 0.222036
Si Si4 0.021301 0.344069 0.473340
Si Si5 0.498646 0.776601 0.821814
Si Si6 0.019236 0.230630 0.649982
O O1 0.919965 0.484583 0.716639
O O2 0.783458 0.546875 0.765685
O O3 0.775565 0.737718 0.134451
O O4 0.555005 0.328768 0.070626
O O5 0.511801 0.824905 0.591456
O O6 0.679382 0.813076 0.539750
O O7 0.879720 0.127841 0.406873
O O8 0.674443 0.383851 0.168220
O O9 0.803216 0.558364 0.350386
O O10 0.838811 0.234718 0.950229
O O11 0.028149 0.281151 0.543416
O O12 0.500000 0.000000 0.000000
O O13 0.000000 0.000000 0.500000
#
# Coordination Sequence:
#
# PCOD9079097 Si02
#       6
#     2   2   2   2   2   2
#     4  11  21  37  62  91 125 149 195 263 305 341
#     4  10  21  37  63  91 117 155 206 248 297 351
#     4   9  22  38  59  91 118 151 209 248 290 353
#     4  11  23  38  60  93 122 157 198 247 306 359
#     4  10  18  36  62  89 115 147 202 249 290 343
#     4  11  23  39  59  88 124 163 200 241 299 364
#
# _framework density 20.575576000000002
#
# number of rings (size 3 to 8) (size 9 to 14) (size 15 to 20)
#    1.000    0.667    3.333    1.000    2.333    2.667 
#    0.000    0.833    0.000   10.000    0.000    0.000 
#    0.000    0.000    0.000    0.000    0.000    0.000 
#
# Total GULP energy -66874.139641 kJ/mol
# GULP energy per Si atom -5572.844970 kJ/mol
# Density = 2.052875 g / cm^3
# Si number density = 20.575576 Si / 1000 Ang^3
#
#
#
# Elastic Constant Matrix: (Units=GPa)
#
#
# Indices 1 2 3 4 5 6 
#
# 1 67.5048 41.8385 19.3929 8.6105 14.1641 -5.4960
# 2 41.8385 90.4361 41.4978 13.6668 7.6469 3.0992
# 3 19.3929 41.4978 121.6672 17.7923 21.5957 -18.1687
# 4 8.6105 13.6668 17.7923 41.9030 -1.5297 4.7287
# 5 14.1641 7.6469 21.5957 -1.5297 23.7063 -0.3088
# 6 -5.4960 3.0992 -18.1687 4.7287 -0.3088 26.9374
#
#
#
# Elastic Compliance Matrix: (Units=1/GPa)
#
#
# Indices 1 2 3 4 5 6 
#
# 1 0.026456 -0.013010 0.005807 -0.005592 -0.017110 0.011597
# 2 -0.013010 0.020267 -0.008059 0.000980 0.008504 -0.010496
# 3 0.005807 -0.008059 0.016053 -0.007547 -0.015797 0.014083
# 4 -0.005592 0.000980 -0.007547 0.029612 0.011662 -0.011408
# 5 -0.017110 0.008504 -0.015797 0.011662 0.064592 -0.016431
# 6 0.011597 -0.010496 0.014083 -0.011408 -0.016431 0.052010
#
#
# Mechanical properties :
#
#
# Convention : Reuss Voigt Hill
#
# Bulk Modulus (GPa) = 31.00513 53.89628 42.45070
# Shear Modulus (GPa) = 19.97887 30.30126 25.14007
#
# Velocity S-wave (km/s) = 3.11947 3.84172 3.49928
# Velocity P-wave (km/s) = 5.29871 6.77713 6.08301
#
# Compressibility (1/GPa) = 0.03225273
#
# Stress axis : x y z
#
# Youngs Moduli (GPa) = 37.79803 49.34197 62.29400
#
# Poissons Ratio (x) = 0.64192 -0.36174
# Poissons Ratio (y) = 0.49174 0.50202
# Poissons Ratio (z) = -0.21949 0.39764
#
# Static dielectric constant tensor:
#      x y z
#    x 1.766770 -0.004690 -0.001060 
#    y -0.004690 1.760040 -0.021210 
#    z -0.001060 -0.021210 1.780540 
# 
# From -- ./inp_files/464084.got.cif
#   From: 2010.05.17/outbox.cif.g08.bks.cpg/sg2_233_cif.got.tgz:464084.got - 2010.06.03 11:33:40.
