data_PCOD9079755
_publ_section_title
;
Structure prediction by ZEFSAII (Michael W. Deem and Ramdas Pophale) SiO2 
 PCOD9079755
Probable space group: P -1
;
_chemical_formula_sum "Si O2"
_cell_formula_units_Z 14
_cell_length_a 9.399194
_cell_length_b 18.600819
_cell_length_c 17.994491
_cell_angle_alpha 157.058773
_cell_angle_beta 154.769353
_cell_angle_gamma 29.587030
_cell_volume 509.908602
_symmetry_space_group_name_H-M "P -1"
_symmetry_group_IT_number 2
_symmetry_cell_setting 'triclinic'
loop_
_space_group_symop_operation_xyz
x,y,z
-x,-y,-z
loop_
_atom_site_type_symbol
_atom_site_label
_atom_site_fract_x
_atom_site_fract_y
_atom_site_fract_z
Si Si1 0.142456 0.223185 0.999037
Si Si2 0.380006 0.405203 0.154417
Si Si3 0.304594 0.816058 0.473777
Si Si4 0.390213 0.749856 0.030705
Si Si5 0.586093 0.710090 0.242550
Si Si6 0.870524 0.647801 0.468332
Si Si7 0.331065 0.130489 0.153307
O O1 0.778513 0.167991 0.784325
O O2 0.432880 0.055674 0.945627
O O3 0.130424 0.376018 0.074988
O O4 0.251316 0.271238 0.178807
O O5 0.228833 0.607114 0.238303
O O6 0.460918 0.245848 0.976696
O O7 0.756014 0.391913 0.356339
O O8 0.591775 0.795304 0.525262
O O9 0.478220 0.812562 0.632658
O O10 0.000000 0.000000 0.500000
O O11 0.262975 0.549390 0.780243
O O12 0.034388 0.896323 0.016818
O O13 0.626925 0.760939 0.224587
O O14 0.858906 0.710997 0.436706
O O15 0.500000 0.500000 0.000000
#
# Coordination Sequence:
#
# PCOD9079755 Si02
#       7
#     2   2   2   2   2   2   2
#     4  10  23  37  65  93 127 159 214 264 300 374
#     4  11  21  39  67 100 120 154 222 268 295 357
#     4  11  21  37  64  89 129 171 203 251 320 377
#     4   9  17  36  62  87 120 171 202 240 315 386
#     4   9  19  37  59  85 122 175 199 239 318 386
#     4  10  18  37  64  91 121 165 210 251 312 375
#     4  10  19  40  60  87 125 173 203 240 327 376
#
# _framework density 27.455898999999999
#
# number of rings (size 3 to 8) (size 9 to 14) (size 15 to 20)
#    0.000    2.000    2.857    1.714    0.000    1.143 
#    0.000   11.429    6.286    8.571    0.000    0.000 
#    0.000    0.000    0.000    0.000    0.000    0.000 
#
# Total GULP energy -78451.430368 kJ/mol
# GULP energy per Si atom -5603.673598 kJ/mol
# Density = 2.739341 g / cm^3
# Si number density = 27.455899 Si / 1000 Ang^3
#
#
#
# Elastic Constant Matrix: (Units=GPa)
#
#
# Indices 1 2 3 4 5 6 
#
# 1 163.5145 60.6398 63.2317 -15.1402 -32.3525 9.1845
# 2 60.6398 161.8414 28.8607 -16.6010 -12.3623 -28.3823
# 3 63.2317 28.8607 86.7058 -17.7518 -17.2005 6.2421
# 4 -15.1402 -16.6010 -17.7518 44.5851 16.3968 -6.9426
# 5 -32.3525 -12.3623 -17.2005 16.3968 45.8969 -1.1334
# 6 9.1845 -28.3823 6.2421 -6.9426 -1.1334 54.1711
#
#
#
# Elastic Compliance Matrix: (Units=1/GPa)
#
#
# Indices 1 2 3 4 5 6 
#
# 1 0.010571 -0.003296 -0.005852 -0.002326 0.005126 -0.003036
# 2 -0.003296 0.008717 -0.000468 0.003238 -0.001170 0.005571
# 3 -0.005852 -0.000468 0.016996 0.004296 0.000567 -0.000649
# 4 -0.002326 0.003238 0.004296 0.028772 -0.009311 0.005088
# 5 0.005126 -0.001170 0.000567 -0.009311 0.028572 -0.002143
# 6 -0.003036 0.005571 -0.000649 0.005088 -0.002143 0.022575
#
#
# Mechanical properties :
#
#
# Convention : Reuss Voigt Hill
#
# Bulk Modulus (GPa) = 58.65045 79.72511 69.18778
# Shear Modulus (GPa) = 35.43106 46.21926 40.82516
#
# Velocity S-wave (km/s) = 3.59621 4.10738 3.86026
# Velocity P-wave (km/s) = 6.21705 7.18294 6.71738
#
# Compressibility (1/GPa) = 0.01705017
#
# Stress axis : x y z
#
# Youngs Moduli (GPa) = 94.60130 114.71685 58.83865
#
# Poissons Ratio (x) = 0.37816 0.34434
# Poissons Ratio (y) = 0.31185 0.02752
# Poissons Ratio (z) = 0.55364 0.05366
#
# Static dielectric constant tensor:
#      x y z
#    x 2.102590 0.015690 0.020640 
#    y 0.015690 2.203680 0.068430 
#    z 0.020640 0.068430 2.191600 
# 
# From -- ./inp_files/336143.got.cif
#   From: 2010.05.17/outbox.cif.g08.bks.cpg/sg2_169_cif.got.tgz:336143.got - 2010.06.03 11:33:40.
