data_PCOD9079787
_publ_section_title
;
Structure prediction by ZEFSAII (Michael W. Deem and Ramdas Pophale) SiO2 
 PCOD9079787
Probable space group: P -1
;
_chemical_formula_sum "Si O2"
_cell_formula_units_Z 14
_cell_length_a 9.161119
_cell_length_b 12.800271
_cell_length_c 7.840237
_cell_angle_alpha 124.421089
_cell_angle_beta 105.603496
_cell_angle_gamma 60.559890
_cell_volume 660.421718
_symmetry_space_group_name_H-M "P -1"
_symmetry_group_IT_number 2
_symmetry_cell_setting 'triclinic'
loop_
_space_group_symop_operation_xyz
x,y,z
-x,-y,-z
loop_
_atom_site_type_symbol
_atom_site_label
_atom_site_fract_x
_atom_site_fract_y
_atom_site_fract_z
Si Si1 0.624669 0.498860 0.815020
Si Si2 0.555648 0.115545 0.551532
Si Si3 0.247877 0.302450 0.797862
Si Si4 0.027170 0.296874 0.171467
Si Si5 0.307758 0.712215 0.069370
Si Si6 0.919427 0.424157 0.624260
Si Si7 0.662500 0.933609 0.107309
O O1 0.625701 0.372535 0.810451
O O2 0.729732 0.451456 0.632406
O O3 0.738277 0.558992 0.010217
O O4 0.439952 0.623882 0.883290
O O5 0.373179 0.248678 0.624851
O O6 0.674541 0.146235 0.751206
O O7 0.500000 0.000000 0.500000
O O8 0.646529 0.058319 0.347665
O O9 0.320860 0.191057 0.871150
O O10 0.059486 0.332283 0.721321
O O11 0.066918 0.427085 0.242701
O O12 0.979512 0.338548 0.390366
O O13 0.181611 0.148595 0.043709
O O14 0.869421 0.285055 0.023285
O O15 0.500000 0.000000 0.000000
#
# Coordination Sequence:
#
# PCOD9079787 Si02
#       7
#     2   2   2   2   2   2   2
#     4  10  19  36  61  93 127 163 200 259 330 373
#     4   9  21  39  63  88 121 173 210 248 313 383
#     4  10  18  37  65  90 121 163 211 254 313 375
#     4  11  23  37  61  97 132 162 214 262 307 373
#     4  10  21  38  62  96 128 161 208 266 313 372
#     4  11  21  37  63  98 128 166 203 259 326 377
#     4  11  22  39  62  90 122 169 217 256 298 379
#
# _framework density 21.198575999999999
#
# number of rings (size 3 to 8) (size 9 to 14) (size 15 to 20)
#    0.000    1.714    2.857    2.143    0.000    1.143 
#    0.000    4.286    0.000   12.000    0.000    0.000 
#    0.000    0.000    0.000    0.000    0.000    0.000 
#
# Total GULP energy -78010.946771 kJ/mol
# GULP energy per Si atom -5572.210484 kJ/mol
# Density = 2.115033 g / cm^3
# Si number density = 21.198576 Si / 1000 Ang^3
#
#
#
# Elastic Constant Matrix: (Units=GPa)
#
#
# Indices 1 2 3 4 5 6 
#
# 1 120.6644 31.8343 52.1671 8.6259 -25.5549 -24.7170
# 2 31.8343 64.1039 31.7208 -3.8280 -4.4815 -17.4676
# 3 52.1671 31.7208 109.9469 17.5614 -24.3665 -21.3272
# 4 8.6259 -3.8280 17.5614 16.1778 -6.6925 -3.4874
# 5 -25.5549 -4.4815 -24.3665 -6.6925 47.5543 12.0188
# 6 -24.7170 -17.4676 -21.3272 -3.4874 12.0188 37.1685
#
#
#
# Elastic Compliance Matrix: (Units=1/GPa)
#
#
# Indices 1 2 3 4 5 6 
#
# 1 0.012059 -0.003443 -0.003010 -0.001799 0.003509 0.003371
# 2 -0.003443 0.023270 -0.006717 0.015014 -0.002781 0.007100
# 3 -0.003010 -0.006717 0.015988 -0.015631 0.003374 0.001458
# 4 -0.001799 0.015014 -0.015631 0.085566 0.003526 0.003779
# 5 0.003509 -0.002781 0.003374 0.003526 0.026184 -0.005174
# 6 0.003371 0.007100 0.001458 0.003779 -0.005174 0.035347
#
#
# Mechanical properties :
#
#
# Convention : Reuss Voigt Hill
#
# Bulk Modulus (GPa) = 40.03467 58.46216 49.24842
# Shear Modulus (GPa) = 21.45179 32.11299 26.78239
#
# Velocity S-wave (km/s) = 3.18456 3.89635 3.55830
# Velocity P-wave (km/s) = 5.69635 6.91956 6.33754
#
# Compressibility (1/GPa) = 0.02497835
#
# Stress axis : x y z
#
# Youngs Moduli (GPa) = 82.92464 42.97336 62.54522
#
# Poissons Ratio (x) = 0.14796 0.18823
# Poissons Ratio (y) = 0.28551 0.42013
# Poissons Ratio (z) = 0.24956 0.28866
#
# Static dielectric constant tensor:
#      x y z
#    x 1.818480 0.001870 -0.072290 
#    y 0.001870 1.826810 0.027000 
#    z -0.072290 0.027000 1.819870 
# 
# From -- ./inp_files/198500.got.cif
#   From: 2010.05.17/outbox.cif.g08.bks.cpg/sg2_100_cif.got.tgz:198500.got - 2010.06.03 11:33:40.
