data_PCOD9079289
_publ_section_title
;
Structure prediction by ZEFSAII (Michael W. Deem and Ramdas Pophale) SiO2 
 PCOD9079289
Probable space group: P -1
;
_chemical_formula_sum "Si O2"
_cell_formula_units_Z 16
_cell_length_a 14.913825
_cell_length_b 14.680609
_cell_length_c 14.007429
_cell_angle_alpha 30.481178
_cell_angle_beta 149.909510
_cell_angle_gamma 139.689137
_cell_volume 778.241018
_symmetry_space_group_name_H-M "P -1"
_symmetry_group_IT_number 2
_symmetry_cell_setting 'triclinic'
loop_
_space_group_symop_operation_xyz
x,y,z
-x,-y,-z
loop_
_atom_site_type_symbol
_atom_site_label
_atom_site_fract_x
_atom_site_fract_y
_atom_site_fract_z
Si Si1 0.112203 0.051873 0.174452
Si Si2 0.919716 0.997503 0.531942
Si Si3 0.481367 0.004394 0.864083
Si Si4 0.503497 0.424421 0.463501
Si Si5 0.818966 0.868082 0.194756
Si Si6 0.828801 0.476850 0.573263
Si Si7 0.833742 0.668807 0.876896
Si Si8 0.074556 0.701446 0.354503
O O1 0.165625 0.851502 0.375625
O O2 0.918382 0.007998 0.087432
O O3 0.225113 0.175929 0.243032
O O4 0.082634 0.181759 0.940309
O O5 0.720158 0.059954 0.289625
O O6 0.046659 0.123692 0.599654
O O7 0.919778 0.795137 0.757437
O O8 0.000000 0.000000 0.500000
O O9 0.503558 0.211505 0.668481
O O10 0.629125 0.909104 0.026109
O O11 0.500000 0.000000 0.000000
O O12 0.500000 0.500000 0.500000
O O13 0.679574 0.481052 0.513993
O O14 0.327745 0.451090 0.212346
O O15 0.824440 0.667762 0.344182
O O16 0.800787 0.335311 0.589014
O O17 0.016784 0.435686 0.834727
O O18 0.000000 0.500000 0.500000
#
# Coordination Sequence:
#
# PCOD9079289 Si02
#       8
#     2   2   2   2   2   2   2   2
#     4   9  19  37  64  90 126 161 201 264 313 372
#     4  10  20  35  57  79 111 159 208 249 299 362
#     4  11  21  35  56  80 114 159 206 251 300 363
#     4  11  24  40  59  89 124 163 212 259 307 367
#     4  11  21  37  57  87 121 163 203 246 313 366
#     4  11  23  38  62  89 126 163 204 262 310 372
#     4   9  22  41  57  87 124 162 209 256 313 370
#     4  10  18  36  65  98 121 159 210 255 318 379
#
# _framework density 20.559183000000001
#
# number of rings (size 3 to 8) (size 9 to 14) (size 15 to 20)
#    0.000    1.750    2.500    3.000    1.750    2.500 
#    0.000    0.625    0.000    7.500    0.000    0.000 
#    0.000    0.000    0.000    0.000    0.000    0.000 
#
# Total GULP energy -89125.390936 kJ/mol
# GULP energy per Si atom -5570.336933 kJ/mol
# Density = 2.051239 g / cm^3
# Si number density = 20.559183 Si / 1000 Ang^3
#
#
#
# Elastic Constant Matrix: (Units=GPa)
#
#
# Indices 1 2 3 4 5 6 
#
# 1 97.6604 35.2515 32.5452 2.4200 11.6715 -19.7561
# 2 35.2515 85.3966 38.0521 -0.0992 19.8802 -18.8537
# 3 32.5452 38.0521 79.2185 -5.5438 12.1749 0.5364
# 4 2.4200 -0.0992 -5.5438 35.1977 5.3659 1.4706
# 5 11.6715 19.8802 12.1749 5.3659 38.7589 -6.8210
# 6 -19.7561 -18.8537 0.5364 1.4706 -6.8210 28.0693
#
#
#
# Elastic Compliance Matrix: (Units=1/GPa)
#
#
# Indices 1 2 3 4 5 6 
#
# 1 0.014585 -0.001486 -0.005517 -0.002288 0.000095 0.009515
# 2 -0.001486 0.019558 -0.008156 -0.000835 -0.004956 0.011086
# 3 -0.005517 -0.008156 0.019609 0.004314 -0.002784 -0.010639
# 4 -0.002288 -0.000835 0.004314 0.030273 -0.005333 -0.005135
# 5 0.000095 -0.004956 -0.002784 -0.005333 0.030725 0.004537
# 6 0.009515 0.011086 -0.010639 -0.005135 0.004537 0.051345
#
#
# Mechanical properties :
#
#
# Convention : Reuss Voigt Hill
#
# Bulk Modulus (GPa) = 42.67301 52.66367 47.66834
# Shear Modulus (GPa) = 24.48284 30.83363 27.65823
#
# Velocity S-wave (km/s) = 3.45461 3.87686 3.67181
# Velocity P-wave (km/s) = 6.05918 6.76102 6.41970
#
# Compressibility (1/GPa) = 0.02343402
#
# Stress axis : x y z
#
# Youngs Moduli (GPa) = 68.56424 51.12990 50.99591
#
# Poissons Ratio (x) = 0.07598 0.28135
# Poissons Ratio (y) = 0.10189 0.41592
# Poissons Ratio (z) = 0.37828 0.41701
#
# Static dielectric constant tensor:
#      x y z
#    x 1.816450 0.008640 -0.035330 
#    y 0.008640 1.801590 -0.034290 
#    z -0.035330 -0.034290 1.766650 
# 
# From -- ./inp_files/533850.got.cif
#   From: 2010.05.17/outbox.cif.g08.bks.cpg/sg2_267_cif.got.tgz:533850.got - 2010.06.03 11:33:40.
