data_PCOD9079293
_publ_section_title
;
Structure prediction by ZEFSAII (Michael W. Deem and Ramdas Pophale) SiO2 
 PCOD9079293
Probable space group: P -1
;
_chemical_formula_sum "Si O2"
_cell_formula_units_Z 15
_cell_length_a 15.682822
_cell_length_b 11.993989
_cell_length_c 7.901306
_cell_angle_alpha 73.298877
_cell_angle_beta 86.015762
_cell_angle_gamma 26.696050
_cell_volume 575.799498
_symmetry_space_group_name_H-M "P -1"
_symmetry_group_IT_number 2
_symmetry_cell_setting 'triclinic'
loop_
_space_group_symop_operation_xyz
x,y,z
-x,-y,-z
loop_
_atom_site_type_symbol
_atom_site_label
_atom_site_fract_x
_atom_site_fract_y
_atom_site_fract_z
Si Si1 0.000000 0.500000 0.000000
Si Si2 0.084575 0.996714 0.367463
Si Si3 0.619746 0.348880 0.818785
Si Si4 0.744346 0.022704 0.400192
Si Si5 0.487821 0.936742 0.198458
Si Si6 0.479620 0.160370 0.308991
Si Si7 0.004814 0.268793 0.833782
Si Si8 0.365750 0.431200 0.872693
O O1 0.018328 0.352480 0.938895
O O2 0.750385 0.807952 0.879477
O O3 0.875204 0.270172 0.164135
O O4 0.285222 0.725174 0.339833
O O5 0.145220 0.038071 0.443592
O O6 0.000000 0.000000 0.500000
O O7 0.460109 0.646379 0.774301
O O8 0.469819 0.422294 0.809167
O O9 0.828573 0.044075 0.019011
O O10 0.640965 0.028711 0.462102
O O11 0.913942 0.787321 0.334429
O O12 0.540370 0.953811 0.340007
O O13 0.636053 0.645060 0.262746
O O14 0.500000 0.000000 0.000000
O O15 0.236630 0.470286 0.258714
O O16 0.493208 0.211343 0.102246
#
# Coordination Sequence:
#
# PCOD9079293 Si02
#       8
#     1   2   2   2   2   2   2   2
#     4  10  18  36  66 100 130 160 216 268 326 378
#     4  12  28  45  63  93 133 185 219 264 335 403
#     4  12  24  42  68  94 128 176 224 269 326 392
#     4  12  26  41  64  99 138 168 221 278 329 382
#     4   9  18  34  63  95 129 164 212 263 321 381
#     4  10  22  38  65 100 132 166 213 278 328 380
#     4  11  22  39  69 102 128 171 220 278 322 382
#     4  11  21  41  67  97 130 175 223 264 325 397
#
# _framework density 26.050736000000001
#
# number of rings (size 3 to 8) (size 9 to 14) (size 15 to 20)
#    0.000    1.067    5.333    1.600    1.867    0.533 
#    0.000    0.667    0.000    2.400    0.000    0.000 
#    0.000    0.000    0.000    0.000    0.000    0.000 
#
# Total GULP energy -83688.689206 kJ/mol
# GULP energy per Si atom -5579.245947 kJ/mol
# Density = 2.599144 g / cm^3
# Si number density = 26.050736 Si / 1000 Ang^3
#
#
#
# Elastic Constant Matrix: (Units=GPa)
#
#
# Indices 1 2 3 4 5 6 
#
# 1 165.0247 51.9942 32.2774 12.4072 26.3762 -30.7843
# 2 51.9942 144.1353 17.5726 21.3469 0.5576 -33.6405
# 3 32.2774 17.5726 71.2633 6.6486 -3.6663 -23.3970
# 4 12.4072 21.3469 6.6486 32.3495 5.9669 6.4973
# 5 26.3762 0.5576 -3.6663 5.9669 25.4221 -4.1160
# 6 -30.7843 -33.6405 -23.3970 6.4973 -4.1160 37.3214
#
#
#
# Elastic Compliance Matrix: (Units=1/GPa)
#
#
# Indices 1 2 3 4 5 6 
#
# 1 0.009536 -0.002406 -0.003427 -0.000027 -0.009931 0.002458
# 2 -0.002406 0.012882 0.004836 -0.013364 0.008628 0.015936
# 3 -0.003427 0.004836 0.022592 -0.012771 0.012836 0.019334
# 4 -0.000027 -0.013364 -0.012771 0.052105 -0.018805 -0.031219
# 5 -0.009931 0.008628 0.012836 -0.018805 0.058526 0.017361
# 6 0.002458 0.015936 0.019334 -0.031219 0.017361 0.062657
#
#
# Mechanical properties :
#
#
# Convention : Reuss Voigt Hill
#
# Bulk Modulus (GPa) = 23.24749 64.90129 44.07439
# Shear Modulus (GPa) = 21.31018 37.59053 29.45036
#
# Velocity S-wave (km/s) = 2.86322 3.80277 3.36594
# Velocity P-wave (km/s) = 4.45803 6.65199 5.66228
#
# Compressibility (1/GPa) = 0.04301539
#
# Stress axis : x y z
#
# Youngs Moduli (GPa) = 104.86678 77.63035 44.26372
#
# Poissons Ratio (x) = 0.18678 0.15170
# Poissons Ratio (y) = 0.25231 -0.21407
# Poissons Ratio (z) = 0.35941 -0.37544
#
# Static dielectric constant tensor:
#      x y z
#    x 2.217350 0.119410 -0.084240 
#    y 0.119410 1.986170 0.018390 
#    z -0.084240 0.018390 2.212210 
# 
# From -- ./inp_files/305449.got.cif
#   From: 2010.05.17/outbox.cif.g08.bks.cpg/sg2_153_cif.got.tgz:305449.got - 2010.06.03 11:33:40.
