data_PCOD9079730
_publ_section_title
;
Structure prediction by ZEFSAII (Michael W. Deem and Ramdas Pophale) SiO2 
 PCOD9079730
Probable space group: P -1
;
_chemical_formula_sum "Si O2"
_cell_formula_units_Z 14
_cell_length_a 12.232386
_cell_length_b 9.883310
_cell_length_c 8.919573
_cell_angle_alpha 128.128231
_cell_angle_beta 86.331236
_cell_angle_gamma 61.744209
_cell_volume 640.840966
_symmetry_space_group_name_H-M "P -1"
_symmetry_group_IT_number 2
_symmetry_cell_setting 'triclinic'
loop_
_space_group_symop_operation_xyz
x,y,z
-x,-y,-z
loop_
_atom_site_type_symbol
_atom_site_label
_atom_site_fract_x
_atom_site_fract_y
_atom_site_fract_z
Si Si1 0.977136 0.341975 0.473736
Si Si2 0.165693 0.774865 0.795021
Si Si3 0.291451 0.254598 0.772736
Si Si4 0.225637 0.813484 0.124160
Si Si5 0.433954 0.806277 0.291519
Si Si6 0.730069 0.062174 0.331042
Si Si7 0.044503 0.711741 0.213775
O O1 0.000000 0.500000 0.500000
O O2 0.853162 0.367793 0.409647
O O3 0.946738 0.366855 0.671661
O O4 0.123501 0.078569 0.269539
O O5 0.246453 0.842078 0.745015
O O6 0.239971 0.681778 0.885289
O O7 0.000000 0.000000 0.000000
O O8 0.405293 0.290300 0.809525
O O9 0.300642 0.108053 0.808546
O O10 0.340904 0.081493 0.511788
O O11 0.130294 0.491517 0.947635
O O12 0.369298 0.749721 0.133374
O O13 0.133590 0.797670 0.241989
O O14 0.396330 0.754536 0.417946
O O15 0.882520 0.906222 0.302335
#
# Coordination Sequence:
#
# PCOD9079730 Si02
#       7
#     2   2   2   2   2   2   2
#     4  11  23  36  58  93 127 152 196 257 307 352
#     4  10  21  35  57  90 126 154 193 257 306 347
#     4   9  22  36  63  91 119 156 211 251 291 359
#     4  11  22  38  61  87 127 162 198 245 309 361
#     4   9  20  41  60  85 122 167 201 244 300 367
#     4  10  18  37  64  86 122 154 201 249 299 351
#     4  12  21  36  66  94 116 156 209 249 306 357
#
# _framework density 21.846295000000001
#
# number of rings (size 3 to 8) (size 9 to 14) (size 15 to 20)
#    0.857    0.857    4.286    1.714    4.000    2.857 
#    0.000    0.714    0.000    1.714    0.000    0.000 
#    0.000    0.000    0.000    0.000    0.000    0.000 
#
# Total GULP energy -78089.858189 kJ/mol
# GULP energy per Si atom -5577.847014 kJ/mol
# Density = 2.179657 g / cm^3
# Si number density = 21.846295 Si / 1000 Ang^3
#
#
#
# Elastic Constant Matrix: (Units=GPa)
#
#
# Indices 1 2 3 4 5 6 
#
# 1 153.3181 48.8207 26.7759 -27.1984 -10.7961 14.1390
# 2 48.8207 111.3232 30.9801 -23.4211 -2.8161 29.8420
# 3 26.7759 30.9801 58.6513 -17.2939 -3.9768 -6.1761
# 4 -27.1984 -23.4211 -17.2939 38.3707 -3.3488 -7.3298
# 5 -10.7961 -2.8161 -3.9768 -3.3488 25.4478 -7.2938
# 6 14.1390 29.8420 -6.1761 -7.3298 -7.2938 35.1327
#
#
#
# Elastic Compliance Matrix: (Units=1/GPa)
#
#
# Indices 1 2 3 4 5 6 
#
# 1 0.008528 -0.002502 -0.000967 0.004467 0.003851 0.000255
# 2 -0.002502 0.017177 -0.009776 0.000746 -0.005243 -0.016235
# 3 -0.000967 -0.009776 0.028176 0.010247 0.009339 0.017723
# 4 0.004467 0.000746 0.010247 0.037075 0.011158 0.009422
# 5 0.003851 -0.005243 0.009339 0.011158 0.048110 0.016862
# 6 0.000255 -0.016235 0.017723 0.009422 0.016862 0.050733
#
#
# Mechanical properties :
#
#
# Convention : Reuss Voigt Hill
#
# Bulk Modulus (GPa) = 36.50725 59.60510 48.05617
# Shear Modulus (GPa) = 22.18093 34.23796 28.20945
#
# Velocity S-wave (km/s) = 3.18986 3.96311 3.59732
# Velocity P-wave (km/s) = 5.50583 6.94872 6.26893
#
# Compressibility (1/GPa) = 0.02739182
#
# Stress axis : x y z
#
# Youngs Moduli (GPa) = 117.26094 58.21768 35.49136
#
# Poissons Ratio (x) = 0.14566 0.03431
# Poissons Ratio (y) = 0.29339 0.34695
# Poissons Ratio (z) = 0.11336 0.56912
#
# Static dielectric constant tensor:
#      x y z
#    x 1.318020 0.012210 -0.007290 
#    y 0.012210 1.813400 0.034880 
#    z -0.007290 0.034880 1.861540 
# 
# From -- ./inp_files/240923.got.cif
#   From: 2010.05.17/outbox.cif.g08.bks.cpg/sg2_121_cif.got.tgz:240923.got - 2010.06.03 11:33:40.
