data_PCOD9079428
_publ_section_title
;
Structure prediction by ZEFSAII (Michael W. Deem and Ramdas Pophale) SiO2 
 PCOD9079428
Probable space group: P -1
;
_chemical_formula_sum "Si O2"
_cell_formula_units_Z 16
_cell_length_a 22.552862
_cell_length_b 21.151806
_cell_length_c 10.018198
_cell_angle_alpha 25.140404
_cell_angle_beta 144.884172
_cell_angle_gamma 154.744618
_cell_volume 866.231157
_symmetry_space_group_name_H-M "P -1"
_symmetry_group_IT_number 2
_symmetry_cell_setting 'triclinic'
loop_
_space_group_symop_operation_xyz
x,y,z
-x,-y,-z
loop_
_atom_site_type_symbol
_atom_site_label
_atom_site_fract_x
_atom_site_fract_y
_atom_site_fract_z
Si Si1 0.049782 0.713406 0.716668
Si Si2 0.324033 0.364927 0.297823
Si Si3 0.765189 0.015865 0.229761
Si Si4 0.586613 0.320307 0.359192
Si Si5 0.771128 0.619190 0.346511
Si Si6 0.616096 0.467281 0.629220
Si Si7 0.539909 0.981449 0.755667
Si Si8 0.693005 0.870408 0.654292
O O1 0.925878 0.708457 0.473259
O O2 0.183497 0.896219 0.527159
O O3 0.105502 0.786395 0.832463
O O4 0.000000 0.500000 0.000000
O O5 0.474360 0.427434 0.446869
O O6 0.305985 0.410320 0.325886
O O7 0.214061 0.129530 0.510353
O O8 0.336394 0.508707 0.939093
O O9 0.660236 0.887590 0.408774
O O10 0.689066 0.043013 0.928616
O O11 0.684114 0.417632 0.482488
O O12 0.442325 0.254908 0.265289
O O13 0.548856 0.125146 0.601154
O O14 0.703648 0.574198 0.453277
O O15 0.754184 0.763528 0.969750
O O16 0.571281 0.252286 0.966506
O O17 0.500000 0.000000 0.500000
#
# Coordination Sequence:
#
# PCOD9079428 Si02
#       8
#     2   2   2   2   2   2   2   2
#     4  10  23  41  57  87 127 160 191 250 303 350
#     4  10  18  37  57  86 122 156 187 248 297 347
#     4   9  21  38  58  83 123 156 200 245 298 348
#     4  12  20  34  62  92 120 153 195 253 299 350
#     4  12  22  38  65  90 119 159 206 242 294 360
#     4  10  22  34  57  88 122 153 195 242 300 352
#     4  11  22  35  56  89 124 159 195 241 307 363
#     4  10  22  36  59  93 117 151 201 249 298 343
#
# _framework density 18.47082
#
# number of rings (size 3 to 8) (size 9 to 14) (size 15 to 20)
#    0.750    0.750    3.750    3.000    1.750    1.000 
#    0.000    0.625    0.000    2.250    0.000    0.000 
#    0.000    0.000    0.000    0.000    0.000    0.000 
#
# Total GULP energy -89163.312447 kJ/mol
# GULP energy per Si atom -5572.707028 kJ/mol
# Density = 1.842878 g / cm^3
# Si number density = 18.470820 Si / 1000 Ang^3
#
#
#
# Elastic Constant Matrix: (Units=GPa)
#
#
# Indices 1 2 3 4 5 6 
#
# 1 49.0350 33.6226 12.4474 4.4951 -7.5317 -27.2167
# 2 33.6226 117.1051 27.9896 -6.8514 3.8059 -24.7368
# 3 12.4474 27.9896 67.6616 2.3616 1.8567 -11.9050
# 4 4.4951 -6.8514 2.3616 31.4506 -9.5208 12.2775
# 5 -7.5317 3.8059 1.8567 -9.5208 25.4992 -2.0878
# 6 -27.2167 -24.7368 -11.9050 12.2775 -2.0878 32.5109
#
#
#
# Elastic Compliance Matrix: (Units=1/GPa)
#
#
# Indices 1 2 3 4 5 6 
#
# 1 0.064213 -0.008565 0.003174 -0.031023 0.013423 0.060979
# 2 -0.008565 0.011962 -0.003586 0.003620 -0.002778 -0.000928
# 3 0.003174 -0.003586 0.017459 -0.006358 -0.001466 0.008629
# 4 -0.031023 0.003620 -0.006358 0.058528 0.008757 -0.047085
# 5 0.013423 -0.002778 -0.001466 0.008757 0.047656 0.008340
# 6 0.060979 -0.000928 0.008629 -0.047085 0.008340 0.102578
#
#
# Mechanical properties :
#
#
# Convention : Reuss Voigt Hill
#
# Bulk Modulus (GPa) = 13.21371 42.43566 27.82468
# Shear Modulus (GPa) = 14.46858 28.54162 21.50510
#
# Velocity S-wave (km/s) = 2.80182 3.93520 3.41585
# Velocity P-wave (km/s) = 4.19956 6.60848 5.53662
#
# Compressibility (1/GPa) = 0.07567897
#
# Stress axis : x y z
#
# Youngs Moduli (GPa) = 15.57323 83.59960 57.27598
#
# Poissons Ratio (x) = 0.71607 -0.18179
# Poissons Ratio (y) = 0.13339 0.20538
# Poissons Ratio (z) = -0.04943 0.29978
#
# Static dielectric constant tensor:
#      x y z
#    x 1.621200 -0.023310 0.002400 
#    y -0.023310 1.666490 -0.000650 
#    z 0.002400 -0.000650 1.656790 
# 
# From -- ./inp_files/348204.got.cif
#   From: 2010.05.17/outbox.cif.g08.bks.cpg/sg2_175_cif.got.tgz:348204.got - 2010.06.03 11:33:40.
