data_PCOD9079090
_publ_section_title
;
Structure prediction by ZEFSAII (Michael W. Deem and Ramdas Pophale) SiO2 
 PCOD9079090
Probable space group: P -1
;
_chemical_formula_sum "Si O2"
_cell_formula_units_Z 14
_cell_length_a 15.796854
_cell_length_b 9.413222
_cell_length_c 12.593354
_cell_angle_alpha 46.141811
_cell_angle_beta 39.325887
_cell_angle_gamma 30.654301
_cell_volume 602.884166
_symmetry_space_group_name_H-M "P -1"
_symmetry_group_IT_number 2
_symmetry_cell_setting 'triclinic'
loop_
_space_group_symop_operation_xyz
x,y,z
-x,-y,-z
loop_
_atom_site_type_symbol
_atom_site_label
_atom_site_fract_x
_atom_site_fract_y
_atom_site_fract_z
Si Si1 0.838189 0.443747 0.269189
Si Si2 0.458774 0.771448 0.898710
Si Si3 0.396492 0.014976 0.441988
Si Si4 0.109304 0.486795 0.062971
Si Si5 0.236173 0.955565 0.823392
Si Si6 0.321341 0.792262 0.461873
Si Si7 0.459256 0.307832 0.905141
O O1 0.621089 0.728800 0.361995
O O2 0.862119 0.470653 0.107854
O O3 0.838398 0.206067 0.399968
O O4 0.992219 0.404555 0.208354
O O5 0.276485 0.974837 0.896257
O O6 0.612415 0.746291 0.703076
O O7 0.500000 0.500000 0.000000
O O8 0.446264 0.840884 0.996905
O O9 0.280096 0.013367 0.467688
O O10 0.670391 0.988165 0.377752
O O11 0.312239 0.292891 0.022158
O O12 0.985693 0.772125 0.104635
O O13 0.335422 0.642256 0.867104
O O14 0.500000 0.500000 0.500000
O O15 0.398046 0.789560 0.277319
#
# Coordination Sequence:
#
# PCOD9079090 Si02
#       7
#     2   2   2   2   2   2   2
#     4  10  20  36  61  91 120 152 206 246 291 350
#     4  10  24  37  57  93 125 156 199 248 301 357
#     4  11  19  39  66  87 112 166 210 237 283 374
#     4  11  21  34  60  96 123 148 198 260 301 340
#     4  11  21  37  66  88 115 162 211 240 291 360
#     4  10  18  36  62  88 116 157 210 236 286 364
#     4  11  21  39  59  94 125 154 196 259 299 347
#
# _framework density 23.221708
#
# number of rings (size 3 to 8) (size 9 to 14) (size 15 to 20)
#    0.000    1.429    7.143    0.857    0.000    0.571 
#    0.000    0.714    0.000    5.143    0.000    0.000 
#    0.000    0.000    0.000    0.000    0.000    0.000 
#
# Total GULP energy -78198.202047 kJ/mol
# GULP energy per Si atom -5585.585861 kJ/mol
# Density = 2.316885 g / cm^3
# Si number density = 23.221708 Si / 1000 Ang^3
#
#
#
# Elastic Constant Matrix: (Units=GPa)
#
#
# Indices 1 2 3 4 5 6 
#
# 1 128.8285 21.7858 87.8097 -8.7143 -2.5202 19.6441
# 2 21.7858 64.5324 36.0968 -6.9750 -0.1295 14.1146
# 3 87.8097 36.0968 146.3850 -5.7295 4.4144 -6.9667
# 4 -8.7143 -6.9750 -5.7295 43.2945 15.5669 -3.6106
# 5 -2.5202 -0.1295 4.4144 15.5669 49.8424 -7.0119
# 6 19.6441 14.1146 -6.9667 -3.6106 -7.0119 17.2689
#
#
#
# Elastic Compliance Matrix: (Units=1/GPa)
#
#
# Indices 1 2 3 4 5 6 
#
# 1 0.034158 0.019429 -0.028222 0.002816 -0.006174 -0.068040
# 2 0.019429 0.036083 -0.023186 0.003903 -0.006945 -0.062951
# 3 -0.028222 -0.023186 0.032394 -0.001574 0.005419 0.065995
# 4 0.002816 0.003903 -0.001574 0.026829 -0.008789 -0.004987
# 5 -0.006174 -0.006945 0.005419 -0.008789 0.025278 0.023313
# 6 -0.068040 -0.062951 0.065995 -0.004987 0.023313 0.221806
#
#
# Mechanical properties :
#
#
# Convention : Reuss Voigt Hill
#
# Bulk Modulus (GPa) = 25.85611 70.12562 47.99087
# Shear Modulus (GPa) = 11.02787 35.01807 23.02297
#
# Velocity S-wave (km/s) = 2.18157 3.88750 3.15213
# Velocity P-wave (km/s) = 4.18381 7.10028 5.82745
#
# Compressibility (1/GPa) = 0.03867557
#
# Stress axis : x y z
#
# Youngs Moduli (GPa) = 29.27608 27.71399 30.87033
#
# Poissons Ratio (x) = -0.53844 0.87123
# Poissons Ratio (y) = -0.56879 0.71575
# Poissons Ratio (z) = 0.82623 0.64257
#
# Static dielectric constant tensor:
#      x y z
#    x 1.896300 0.008000 -0.048060 
#    y 0.008000 2.049000 -0.021190 
#    z -0.048060 -0.021190 1.880510 
# 
# From -- ./inp_files/311826.got.cif
#   From: 2010.05.17/outbox.cif.g08.bks.cpg/sg2_156_cif.got.tgz:311826.got - 2010.06.03 11:33:40.
