data_PCOD9079742
_publ_section_title
;
Structure prediction by ZEFSAII (Michael W. Deem and Ramdas Pophale) SiO2 
 PCOD9079742
Probable space group: P -1
;
_chemical_formula_sum "Si O2"
_cell_formula_units_Z 14
_cell_length_a 9.496884
_cell_length_b 12.200314
_cell_length_c 8.973947
_cell_angle_alpha 139.769039
_cell_angle_beta 117.700617
_cell_angle_gamma 78.143152
_cell_volume 573.929261
_symmetry_space_group_name_H-M "P -1"
_symmetry_group_IT_number 2
_symmetry_cell_setting 'triclinic'
loop_
_space_group_symop_operation_xyz
x,y,z
-x,-y,-z
loop_
_atom_site_type_symbol
_atom_site_label
_atom_site_fract_x
_atom_site_fract_y
_atom_site_fract_z
Si Si1 0.702841 0.908607 0.518535
Si Si2 0.650038 0.948904 0.194930
Si Si3 0.279380 0.770185 0.918745
Si Si4 0.623123 0.380247 0.919963
Si Si5 0.275628 0.329543 0.272586
Si Si6 0.955364 0.798606 0.712785
Si Si7 0.639582 0.345530 0.566609
O O1 0.511650 0.809389 0.347748
O O2 0.825770 0.792784 0.510234
O O3 0.723841 0.954519 0.402963
O O4 0.734452 0.073064 0.814305
O O5 0.652713 0.145501 0.350036
O O6 0.459098 0.831145 0.994545
O O7 0.737830 0.841084 0.015879
O O8 0.275281 0.616396 0.875883
O O9 0.123563 0.745943 0.709909
O O10 0.707587 0.406919 0.829066
O O11 0.500000 0.500000 0.000000
O O12 0.130810 0.303449 0.291020
O O13 0.444831 0.340608 0.458392
O O14 0.289160 0.502784 0.360786
O O15 0.000000 0.000000 0.000000
#
# Coordination Sequence:
#
# PCOD9079742 Si02
#       7
#     2   2   2   2   2   2   2
#     4  10  18  37  64  89 120 163 211 254 310 374
#     4  11  20  39  70  96 119 164 225 262 309 373
#     4  10  19  37  66  91 121 165 211 259 318 371
#     4  11  19  34  63  92 121 163 216 262 305 372
#     4  11  24  38  64  95 127 169 212 260 321 382
#     4  10  21  41  66  86 129 171 202 259 327 377
#     4  11  20  37  62  91 132 158 212 272 314 359
#
# _framework density 24.393249000000001
#
# number of rings (size 3 to 8) (size 9 to 14) (size 15 to 20)
#    0.000    1.429    4.286    3.857    0.000    0.000 
#    0.000    4.286    9.429    0.000    0.000    0.000 
#    0.000    0.000    0.000    0.000    0.000    0.000 
#
# Total GULP energy -78350.747576 kJ/mol
# GULP energy per Si atom -5596.481970 kJ/mol
# Density = 2.433773 g / cm^3
# Si number density = 24.393249 Si / 1000 Ang^3
#
#
#
# Elastic Constant Matrix: (Units=GPa)
#
#
# Indices 1 2 3 4 5 6 
#
# 1 68.1354 42.6997 23.1244 -3.5101 -4.5150 -6.2444
# 2 42.6997 178.9088 27.1130 -2.1787 -1.1826 -1.3608
# 3 23.1244 27.1130 65.7347 3.1561 -19.5393 0.4211
# 4 -3.5101 -2.1787 3.1561 46.9512 -9.1997 2.1361
# 5 -4.5150 -1.1826 -19.5393 -9.1997 31.3962 -2.5441
# 6 -6.2444 -1.3608 0.4211 2.1361 -2.5441 43.7317
#
#
#
# Elastic Compliance Matrix: (Units=1/GPa)
#
#
# Indices 1 2 3 4 5 6 
#
# 1 0.019116 -0.003724 -0.005288 0.001487 -0.000036 0.002590
# 2 -0.003724 0.006756 -0.001928 -0.000121 -0.001548 -0.000387
# 3 -0.005288 -0.001928 0.021641 0.000579 0.012780 -0.000308
# 4 0.001487 -0.000121 0.000579 0.022801 0.007211 -0.000491
# 5 -0.000036 -0.001548 0.012780 0.007211 0.042009 0.001915
# 6 0.002590 -0.000387 -0.000308 -0.000491 0.001915 0.023363
#
#
# Mechanical properties :
#
#
# Convention : Reuss Voigt Hill
#
# Bulk Modulus (GPa) = 39.01128 55.40589 47.20858
# Shear Modulus (GPa) = 30.10064 39.07195 34.58630
#
# Velocity S-wave (km/s) = 3.51661 4.00653 3.76954
# Velocity P-wave (km/s) = 5.70229 6.64575 6.19201
#
# Compressibility (1/GPa) = 0.02563361
#
# Stress axis : x y z
#
# Youngs Moduli (GPa) = 52.31137 148.02260 46.20833
#
# Poissons Ratio (x) = 0.55117 0.24434
# Poissons Ratio (y) = 0.19478 0.08911
# Poissons Ratio (z) = 0.27661 0.28545
#
# Static dielectric constant tensor:
#      x y z
#    x 1.832150 -0.095000 -0.107260 
#    y -0.095000 1.813430 -0.236990 
#    z -0.107260 -0.236990 1.652810 
# 
# From -- ./inp_files/183396.got.cif
#   From: 2010.05.17/outbox.cif.g08.bks.cpg/sg2_92_cif.got.tgz:183396.got - 2010.06.03 11:33:40.
