data_PCOD9079237
_publ_section_title
;
Structure prediction by ZEFSAII (Michael W. Deem and Ramdas Pophale) SiO2 
 PCOD9079237
Probable space group: P -1
;
_chemical_formula_sum "Si O2"
_cell_formula_units_Z 14
_cell_length_a 18.378485
_cell_length_b 17.213913
_cell_length_c 11.679664
_cell_angle_alpha 30.198363
_cell_angle_beta 22.176683
_cell_angle_gamma 30.904423
_cell_volume 668.401588
_symmetry_space_group_name_H-M "P -1"
_symmetry_group_IT_number 2
_symmetry_cell_setting 'triclinic'
loop_
_space_group_symop_operation_xyz
x,y,z
-x,-y,-z
loop_
_atom_site_type_symbol
_atom_site_label
_atom_site_fract_x
_atom_site_fract_y
_atom_site_fract_z
Si Si1 0.774318 0.605207 0.162411
Si Si2 0.588136 0.630221 0.770152
Si Si3 0.547467 0.183696 0.469303
Si Si4 0.311037 0.188989 0.198404
Si Si5 0.542360 0.579363 0.172175
Si Si6 0.990236 0.383988 0.768556
Si Si7 0.978709 0.173125 0.868761
O O1 0.649106 0.701333 0.329907
O O2 0.643861 0.490577 0.455787
O O3 0.755800 0.738678 0.920588
O O4 0.000000 0.500000 0.000000
O O5 0.480511 0.800735 0.646339
O O6 0.827235 0.601747 0.437766
O O7 0.500000 0.500000 0.000000
O O8 0.552029 0.626874 0.963103
O O9 0.602187 0.004677 0.669985
O O10 0.738054 0.250515 0.128507
O O11 0.111554 0.241931 0.501718
O O12 0.468023 0.268734 0.925635
O O13 0.756792 0.447589 0.064493
O O14 0.000000 0.500000 0.500000
O O15 0.046028 0.204364 0.858536
O O16 0.000000 0.000000 0.000000
#
# Coordination Sequence:
#
# PCOD9079237 Si02
#       7
#     2   2   2   2   2   2   2
#     4  12  27  44  69  96 130 182 230 272 332 406
#     4  11  21  36  71  99 134 165 233 280 327 387
#     4  11  24  44  67 100 137 176 213 283 341 388
#     4  11  25  44  65  99 141 172 221 270 343 411
#     4  11  23  41  67  96 131 179 224 275 334 394
#     4  10  18  36  64  94 128 166 218 273 326 387
#     4  10  20  39  66  97 127 172 216 268 341 393
#
# _framework density 20.945492000000002
#
# number of rings (size 3 to 8) (size 9 to 14) (size 15 to 20)
#    0.000    1.143    5.714    1.714    4.000    0.571 
#    0.000    0.714    0.000    0.000    0.000    0.000 
#    0.000    0.000    0.000    0.000    0.000    0.000 
#
# Total GULP energy -78055.372187 kJ/mol
# GULP energy per Si atom -5575.383728 kJ/mol
# Density = 2.089782 g / cm^3
# Si number density = 20.945492 Si / 1000 Ang^3
#
#
#
# Elastic Constant Matrix: (Units=GPa)
#
#
# Indices 1 2 3 4 5 6 
#
# 1 102.6593 38.9356 34.7162 -0.5785 -7.7975 -18.3446
# 2 38.9356 93.6318 44.6532 3.5143 -6.6255 -9.4910
# 3 34.7162 44.6532 114.6253 15.4699 -22.7786 -16.0596
# 4 -0.5785 3.5143 15.4699 33.8644 -2.5247 1.8727
# 5 -7.7975 -6.6255 -22.7786 -2.5247 43.2926 -2.2203
# 6 -18.3446 -9.4910 -16.0596 1.8727 -2.2203 37.1380
#
#
#
# Elastic Compliance Matrix: (Units=1/GPa)
#
#
# Indices 1 2 3 4 5 6 
#
# 1 0.012715 -0.004039 -0.001567 0.001185 0.001152 0.004580
# 2 -0.004039 0.014492 -0.004757 0.000549 -0.001003 -0.000436
# 3 -0.001567 -0.004757 0.013650 -0.005567 0.006081 0.004557
# 4 0.001185 0.000549 -0.005567 0.032152 -0.000929 -0.003359
# 5 0.001152 -0.001003 0.006081 -0.000929 0.026532 0.004575
# 6 0.004580 -0.000436 0.004557 -0.003359 0.004575 0.031491
#
#
# Mechanical properties :
#
#
# Convention : Reuss Voigt Hill
#
# Bulk Modulus (GPa) = 49.67184 60.83628 55.25406
# Shear Modulus (GPa) = 31.55167 35.69978 33.62573
#
# Velocity S-wave (km/s) = 3.88541 4.13293 4.01108
# Velocity P-wave (km/s) = 6.62532 7.20298 6.92018
#
# Compressibility (1/GPa) = 0.02013213
#
# Stress axis : x y z
#
# Youngs Moduli (GPa) = 78.64551 69.00134 73.25994
#
# Poissons Ratio (x) = 0.27869 0.11480
# Poissons Ratio (y) = 0.31764 0.34849
# Poissons Ratio (z) = 0.12324 0.32823
#
# Static dielectric constant tensor:
#      x y z
#    x 1.794430 0.028260 -0.012990 
#    y 0.028260 1.828610 -0.014220 
#    z -0.012990 -0.014220 1.794610 
# 
# From -- ./inp_files/466516.got.cif
#   From: 2010.05.17/outbox.cif.g08.bks.cpg/sg2_234_cif.got.tgz:466516.got - 2010.06.03 11:33:40.
