data_PCOD9079350
_publ_section_title
;
Structure prediction by ZEFSAII (Michael W. Deem and Ramdas Pophale) SiO2 
 PCOD9079350
Probable space group: P -1
;
_chemical_formula_sum "Si O2"
_cell_formula_units_Z 15
_cell_length_a 9.604602
_cell_length_b 13.470939
_cell_length_c 13.855537
_cell_angle_alpha 149.778840
_cell_angle_beta 65.217401
_cell_angle_gamma 93.497982
_cell_volume 616.109451
_symmetry_space_group_name_H-M "P -1"
_symmetry_group_IT_number 2
_symmetry_cell_setting 'triclinic'
loop_
_space_group_symop_operation_xyz
x,y,z
-x,-y,-z
loop_
_atom_site_type_symbol
_atom_site_label
_atom_site_fract_x
_atom_site_fract_y
_atom_site_fract_z
Si Si1 0.647805 0.970405 0.643237
Si Si2 0.500000 0.500000 0.500000
Si Si3 0.866672 0.787697 0.236275
Si Si4 0.937916 0.550812 0.816952
Si Si5 0.080131 0.705189 0.732714
Si Si6 0.076966 0.787696 0.595795
Si Si7 0.583277 0.200200 0.418839
Si Si8 0.777698 0.241000 0.938475
O O1 0.684946 0.965554 0.513854
O O2 0.449430 0.007139 0.749908
O O3 0.839694 0.697326 0.410264
O O4 0.659553 0.174791 0.859105
O O5 0.316294 0.505263 0.523639
O O6 0.568032 0.292566 0.392778
O O7 0.013577 0.854455 0.248437
O O8 0.827920 0.747414 0.105193
O O9 0.000000 0.500000 0.000000
O O10 0.866355 0.402386 0.669170
O O11 0.970864 0.674840 0.823068
O O12 0.053773 0.673331 0.601527
O O13 0.000000 0.000000 0.000000
O O14 0.242759 0.815726 0.592871
O O15 0.859365 0.076354 0.876963
O O16 0.374858 0.451680 0.742164
#
# Coordination Sequence:
#
# PCOD9079350 Si02
#       8
#     2   1   2   2   2   2   2   2
#     4  10  21  38  67  89 121 163 209 251 309 363
#     4  10  20  36  62  86 122 164 194 258 292 360
#     4  10  18  36  68  89 116 167 203 252 308 358
#     4  10  19  38  60  87 126 160 202 256 302 359
#     4  11  20  36  61  88 119 166 201 246 313 361
#     4  10  24  37  61  95 122 159 210 247 305 373
#     4  11  21  43  60  90 130 155 205 257 302 358
#     4  11  21  42  66  90 122 165 202 250 314 364
#
# _framework density 24.346326000000001
#
# number of rings (size 3 to 8) (size 9 to 14) (size 15 to 20)
#    0.000    1.600    4.000    2.400    0.000    0.000 
#    7.200    2.000    0.000    0.000    0.000    0.000 
#    0.000    0.000    0.000    0.000    0.000    0.000 
#
# Total GULP energy -83582.828722 kJ/mol
# GULP energy per Si atom -5572.188581 kJ/mol
# Density = 2.429091 g / cm^3
# Si number density = 24.346326 Si / 1000 Ang^3
#
#
#
# Elastic Constant Matrix: (Units=GPa)
#
#
# Indices 1 2 3 4 5 6 
#
# 1 156.7089 59.9485 22.7523 -14.5103 26.8805 2.2853
# 2 59.9485 112.6814 4.9776 -19.3620 13.7486 5.5812
# 3 22.7523 4.9776 34.4532 -2.7589 20.1608 -0.2341
# 4 -14.5103 -19.3620 -2.7589 36.7672 5.2794 -0.0686
# 5 26.8805 13.7486 20.1608 5.2794 41.9198 -0.1507
# 6 2.2853 5.5812 -0.2341 -0.0686 -0.1507 44.6155
#
#
#
# Elastic Compliance Matrix: (Units=1/GPa)
#
#
# Indices 1 2 3 4 5 6 
#
# 1 0.009110 -0.004041 -0.003532 0.001636 -0.003024 0.000013
# 2 -0.004041 0.012406 0.003651 0.005779 -0.003966 -0.001330
# 3 -0.003532 0.003651 0.043482 0.006763 -0.020697 -0.000107
# 4 0.001636 0.005779 0.006763 0.032878 -0.010341 -0.000756
# 5 -0.003024 -0.003966 -0.020697 -0.010341 0.038353 0.000656
# 6 0.000013 -0.001330 -0.000107 -0.000756 0.000656 0.022580
#
#
# Mechanical properties :
#
#
# Convention : Reuss Voigt Hill
#
# Bulk Modulus (GPa) = 17.49665 53.24449 35.37057
# Shear Modulus (GPa) = 26.92446 39.07149 32.99797
#
# Velocity S-wave (km/s) = 3.32911 4.01037 3.68551
# Velocity P-wave (km/s) = 4.68822 6.58492 5.71579
#
# Compressibility (1/GPa) = 0.05715380
#
# Stress axis : x y z
#
# Youngs Moduli (GPa) = 109.77002 80.60522 22.99819
#
# Poissons Ratio (x) = 0.32574 0.08122
# Poissons Ratio (y) = 0.44360 -0.08396
# Poissons Ratio (z) = 0.38768 -0.29428
#
# Static dielectric constant tensor:
#      x y z
#    x 1.909430 -0.015560 -0.037250 
#    y -0.015560 2.010120 -0.027910 
#    z -0.037250 -0.027910 2.100620 
# 
# From -- ./inp_files/342250.got.cif
#   From: 2010.05.17/outbox.cif.g08.bks.cpg/sg2_172_cif.got.tgz:342250.got - 2010.06.03 11:33:40.
