data_PCOD9079776
_publ_section_title
;
Structure prediction by ZEFSAII (Michael W. Deem and Ramdas Pophale) SiO2 
 PCOD9079776
Probable space group: P -1
;
_chemical_formula_sum "Si O2"
_cell_formula_units_Z 16
_cell_length_a 11.819607
_cell_length_b 8.656254
_cell_length_c 18.473668
_cell_angle_alpha 122.731246
_cell_angle_beta 37.142805
_cell_angle_gamma 95.458780
_cell_volume 720.170431
_symmetry_space_group_name_H-M "P -1"
_symmetry_group_IT_number 2
_symmetry_cell_setting 'triclinic'
loop_
_space_group_symop_operation_xyz
x,y,z
-x,-y,-z
loop_
_atom_site_type_symbol
_atom_site_label
_atom_site_fract_x
_atom_site_fract_y
_atom_site_fract_z
Si Si1 0.927646 0.754336 0.085934
Si Si2 0.052200 0.260807 0.495125
Si Si3 0.228832 0.239690 0.176985
Si Si4 0.153447 0.818839 0.697968
Si Si5 0.697192 0.585376 0.964608
Si Si6 0.304632 0.648361 0.744029
Si Si7 0.876859 0.146477 0.694472
Si Si8 0.403635 0.002816 0.798792
O O1 0.940751 0.909730 0.177334
O O2 0.639734 0.952246 0.253820
O O3 0.000000 0.500000 0.000000
O O4 0.114576 0.685487 0.907359
O O5 0.332438 0.147310 0.334848
O O6 0.879718 0.549789 0.654768
O O7 0.006402 0.172401 0.569910
O O8 0.017788 0.126359 0.418093
O O9 0.045790 0.191077 0.238313
O O10 0.262129 0.344350 0.115559
O O11 0.500000 0.000000 0.000000
O O12 0.199924 0.723979 0.734133
O O13 0.420964 0.620810 0.471346
O O14 0.410196 0.704311 0.146115
O O15 0.742813 0.721405 0.029875
O O16 0.862658 0.294634 0.806206
O O17 0.328933 0.842050 0.808921
#
# Coordination Sequence:
#
# PCOD9079776 Si02
#       8
#     2   2   2   2   2   2   2   2
#     4  11  24  41  59  96 129 155 196 267 329 364
#     4   9  17  33  57  80 116 149 202 241 289 362
#     4  11  21  36  57  86 120 156 197 254 305 353
#     4  10  21  41  66  93 118 164 215 253 303 376
#     4   9  17  32  57  79 113 154 202 236 293 363
#     4  10  20  39  72  90 116 160 218 255 300 371
#     4   8  16  31  50  82 109 147 193 238 278 352
#     4  10  18  37  65  85 111 158 207 255 291 370
#
# _framework density 22.216961999999999
#
# number of rings (size 3 to 8) (size 9 to 14) (size 15 to 20)
#    0.000    2.250    1.250    3.000    0.000    0.500 
#   13.500    3.750    0.000    0.000    0.000    0.000 
#    0.000    0.000    0.000    0.000    0.000    0.000 
#
# Total GULP energy -89190.029187 kJ/mol
# GULP energy per Si atom -5574.376824 kJ/mol
# Density = 2.216640 g / cm^3
# Si number density = 22.216962 Si / 1000 Ang^3
#
#
#
# Elastic Constant Matrix: (Units=GPa)
#
#
# Indices 1 2 3 4 5 6 
#
# 1 86.9737 47.0179 55.8699 19.0690 15.7786 34.9477
# 2 47.0179 102.5783 46.6386 26.1356 13.3865 34.9381
# 3 55.8699 46.6386 125.6824 30.5854 17.9309 30.3739
# 4 19.0690 26.1356 30.5854 41.5706 6.9220 16.4364
# 5 15.7786 13.3865 17.9309 6.9220 31.1804 11.0554
# 6 34.9477 34.9381 30.3739 16.4364 11.0554 34.6789
#
#
#
# Elastic Compliance Matrix: (Units=1/GPa)
#
#
# Indices 1 2 3 4 5 6 
#
# 1 0.022740 -0.002879 -0.005462 0.001850 -0.002063 -0.015451
# 2 -0.002879 0.016187 -0.001252 -0.003764 -0.000231 -0.010452
# 3 -0.005462 -0.001252 0.012747 -0.005227 -0.002466 -0.001136
# 4 0.001850 -0.003764 -0.005227 0.033060 -0.000457 -0.009019
# 5 -0.002063 -0.000231 -0.002466 -0.000457 0.037286 -0.007199
# 6 -0.015451 -0.010452 -0.001136 -0.009019 -0.007199 0.062501
#
#
# Mechanical properties :
#
#
# Convention : Reuss Voigt Hill
#
# Bulk Modulus (GPa) = 30.78126 68.25414 49.51770
# Shear Modulus (GPa) = 23.30592 32.53319 27.91955
#
# Velocity S-wave (km/s) = 3.24236 3.83082 3.54881
# Velocity P-wave (km/s) = 5.28225 7.09614 6.25529
#
# Compressibility (1/GPa) = 0.03248730
#
# Stress axis : x y z
#
# Youngs Moduli (GPa) = 43.97532 61.77928 78.44698
#
# Poissons Ratio (x) = 0.17789 0.42849
# Poissons Ratio (y) = 0.12663 0.09819
# Poissons Ratio (z) = 0.24020 0.07733
#
# Static dielectric constant tensor:
#      x y z
#    x 1.905220 -0.004030 0.036050 
#    y -0.004030 1.839440 0.018080 
#    z 0.036050 0.018080 1.904460 
# 
# From -- ./inp_files/593734.got.cif
#   From: 2010.05.17/outbox.cif.g08.bks.cpg/sg2_297_cif.got.tgz:593734.got - 2010.06.03 11:33:40.
