data_PCOD9079183
_publ_section_title
;
Structure prediction by ZEFSAII (Michael W. Deem and Ramdas Pophale) SiO2 
 PCOD9079183
Probable space group: P -1
;
_chemical_formula_sum "Si O2"
_cell_formula_units_Z 16
_cell_length_a 11.245664
_cell_length_b 15.355252
_cell_length_c 11.720349
_cell_angle_alpha 27.829706
_cell_angle_beta 50.049787
_cell_angle_gamma 56.074818
_cell_volume 724.043789
_symmetry_space_group_name_H-M "P -1"
_symmetry_group_IT_number 2
_symmetry_cell_setting 'triclinic'
loop_
_space_group_symop_operation_xyz
x,y,z
-x,-y,-z
loop_
_atom_site_type_symbol
_atom_site_label
_atom_site_fract_x
_atom_site_fract_y
_atom_site_fract_z
Si Si1 0.308565 0.138928 0.851125
Si Si2 0.295593 0.913110 0.893670
Si Si3 0.348356 0.838063 0.372171
Si Si4 0.830140 0.936108 0.421110
Si Si5 0.996112 0.692783 0.050372
Si Si6 0.939551 0.311355 0.577173
Si Si7 0.209778 0.503025 0.745087
Si Si8 0.373635 0.189244 0.113443
O O1 0.477333 0.238201 0.640902
O O2 0.163518 0.248198 0.858971
O O3 0.280632 0.068172 0.822167
O O4 0.326659 0.959522 0.130210
O O5 0.293821 0.004519 0.665559
O O6 0.454616 0.812923 0.939163
O O7 0.141744 0.781057 0.156877
O O8 0.200829 0.617867 0.499042
O O9 0.341567 0.992455 0.296402
O O10 0.752243 0.802898 0.717384
O O11 0.965282 0.835806 0.384217
O O12 0.894151 0.127094 0.218000
O O13 0.043640 0.500873 0.305297
O O14 0.944684 0.626329 0.031524
O O15 0.770386 0.336730 0.358388
O O16 0.344056 0.357643 0.850709
#
# Coordination Sequence:
#
# PCOD9079183 Si02
#       8
#     2   2   2   2   2   2   2   2
#     4  10  18  36  63  96 123 162 205 261 326 357
#     4  11  23  44  68  91 128 170 217 262 302 378
#     4  10  19  37  61  93 133 154 203 270 313 376
#     4  12  25  46  61  90 137 176 209 248 312 390
#     4  10  22  38  64  97 120 165 206 264 322 365
#     4  10  23  40  67  97 121 160 215 265 316 361
#     4  10  22  39  65  99 126 159 212 268 324 370
#     4  11  26  41  66  95 128 174 206 257 324 379
#
# _framework density 22.098110999999999
#
# number of rings (size 3 to 8) (size 9 to 14) (size 15 to 20)
#    0.750    0.750    3.750    0.750    1.750    3.500 
#    0.000    0.000    0.000    3.750    0.000    0.000 
#    0.000    0.000    0.000    0.000    0.000    0.000 
#
# Total GULP energy -89218.852487 kJ/mol
# GULP energy per Si atom -5576.178280 kJ/mol
# Density = 2.204781 g / cm^3
# Si number density = 22.098111 Si / 1000 Ang^3
#
#
#
# Elastic Constant Matrix: (Units=GPa)
#
#
# Indices 1 2 3 4 5 6 
#
# 1 64.1536 12.8905 6.6575 -8.3742 6.1439 17.9330
# 2 12.8905 37.0371 27.1780 -6.5816 -12.6309 5.4124
# 3 6.6575 27.1780 43.2314 -11.6378 -8.4739 2.0032
# 4 -8.3742 -6.5816 -11.6378 31.0419 5.6841 7.2022
# 5 6.1439 -12.6309 -8.4739 5.6841 24.4139 -13.5459
# 6 17.9330 5.4124 2.0032 7.2022 -13.5459 -26.1681
#
#
#
# Elastic Compliance Matrix: (Units=1/GPa)
#
#
# Indices 1 2 3 4 5 6 
#
# 1 0.014762 -0.009394 0.003060 0.001251 -0.002291 0.009938
# 2 -0.009394 0.063125 -0.035172 -0.004218 0.019679 -0.007422
# 3 0.003060 -0.035172 0.046862 0.010832 -0.003458 0.003181
# 4 0.001251 -0.004218 0.010832 0.033442 -0.000749 0.010406
# 5 -0.002291 0.019679 -0.003458 -0.000749 0.040256 -0.018809
# 6 0.009938 -0.007422 0.003181 0.010406 -0.018809 -0.020095
#
#
# Mechanical properties :
#
#
# Convention : Reuss Voigt Hill
#
# Bulk Modulus (GPa) = 23.95964 26.43046 25.19505
# Shear Modulus (GPa) = 18.16349 12.37061 15.26705
#
# Velocity S-wave (km/s) = 2.87007 2.36858 2.63130
# Velocity P-wave (km/s) = 4.67429 4.41211 4.54509
#
# Compressibility (1/GPa) = 0.04173686
#
# Stress axis : x y z
#
# Youngs Moduli (GPa) = 67.73957 15.84157 21.33920
#
# Poissons Ratio (x) = 0.14882 -0.06530
# Poissons Ratio (y) = 0.63638 0.75054
# Poissons Ratio (z) = -0.20728 0.55718
#
# Static dielectric constant tensor:
#      x y z
#    x 1.827950 0.007400 -0.030290 
#    y 0.007400 1.812840 -0.029420 
#    z -0.030290 -0.029420 1.817960 
# 
# From -- ./inp_files/432233.got.cif
#   From: 2010.05.17/outbox.cif.g08.bks.cpg/sg2_217_cif.got.tgz:432233.got - 2010.06.03 11:33:40.
