data_PCOD9079370
_publ_section_title
;
Structure prediction by ZEFSAII (Michael W. Deem and Ramdas Pophale) SiO2 
 PCOD9079370
Probable space group: P -1
;
_chemical_formula_sum "Si O2"
_cell_formula_units_Z 12
_cell_length_a 9.929319
_cell_length_b 15.706469
_cell_length_c 9.016141
_cell_angle_alpha 49.974142
_cell_angle_beta 71.520095
_cell_angle_gamma 36.620350
_cell_volume 577.982723
_symmetry_space_group_name_H-M "P -1"
_symmetry_group_IT_number 2
_symmetry_cell_setting 'triclinic'
loop_
_space_group_symop_operation_xyz
x,y,z
-x,-y,-z
loop_
_atom_site_type_symbol
_atom_site_label
_atom_site_fract_x
_atom_site_fract_y
_atom_site_fract_z
Si Si1 0.549071 0.943275 0.285846
Si Si2 0.036374 0.525739 0.619558
Si Si3 0.758206 0.988967 0.935960
Si Si4 0.525845 0.603204 0.451695
Si Si5 0.931122 0.649361 0.953528
Si Si6 0.295180 0.568207 0.093514
O O1 0.760505 0.737960 0.527600
O O2 0.420278 0.948211 0.200217
O O3 0.696751 0.950229 0.143934
O O4 0.312526 0.128171 0.262433
O O5 0.000000 0.500000 0.500000
O O6 0.216708 0.512873 0.571000
O O7 0.163626 0.345935 0.866917
O O8 0.680102 0.169287 0.772913
O O9 0.047609 0.788625 0.004628
O O10 0.500000 0.500000 0.500000
O O11 0.563943 0.570716 0.653629
O O12 0.165714 0.568461 0.019386
O O13 0.000000 0.500000 0.000000
O O14 0.500000 0.500000 0.000000
#
# Coordination Sequence:
#
# PCOD9079370 Si02
#       6
#     2   2   2   2   2   2
#     4  10  18  36  70  94 115 159 216 262 301 362
#     4  12  19  41  69  92 119 163 219 258 303 370
#     4  10  19  39  66  93 119 163 213 255 307 368
#     4  12  25  40  64  96 127 166 210 258 307 372
#     4  11  24  40  65  96 128 159 205 268 311 363
#     4  11  25  43  61  92 133 167 200 256 322 369
#
# _framework density 20.761863999999999
#
# number of rings (size 3 to 8) (size 9 to 14) (size 15 to 20)
#    0.000    1.000    6.667    1.000    2.333    2.000 
#    3.000    0.000    0.000    0.000    0.000    0.000 
#    0.000    0.000    0.000    0.000    0.000    0.000 
#
# Total GULP energy -66886.373681 kJ/mol
# GULP energy per Si atom -5573.864473 kJ/mol
# Density = 2.071461 g / cm^3
# Si number density = 20.761864 Si / 1000 Ang^3
#
#
#
# Elastic Constant Matrix: (Units=GPa)
#
#
# Indices 1 2 3 4 5 6 
#
# 1 139.4701 48.8746 13.6369 -10.9463 -22.7234 -4.2044
# 2 48.8746 82.7203 8.6081 -18.7020 0.2932 1.3920
# 3 13.6369 8.6081 57.3642 -16.0430 -4.1791 -8.1351
# 4 -10.9463 -18.7020 -16.0430 29.4522 0.7560 -8.9541
# 5 -22.7234 0.2932 -4.1791 0.7560 26.5323 0.3540
# 6 -4.2044 1.3920 -8.1351 -8.9541 0.3540 42.1722
#
#
#
# Elastic Compliance Matrix: (Units=1/GPa)
#
#
# Indices 1 2 3 4 5 6 
#
# 1 0.011117 -0.006647 -0.000989 -0.000587 0.009443 0.000933
# 2 -0.006647 0.018227 0.001528 0.010487 -0.005970 0.001307
# 3 -0.000989 0.001528 0.022954 0.015334 0.002214 0.007516
# 4 -0.000587 0.010487 0.015334 0.052938 0.000104 0.013792
# 5 0.009443 -0.005970 0.002214 0.000104 0.046173 0.001200
# 6 0.000933 0.001307 0.007516 0.013792 0.001200 0.028130
#
#
# Mechanical properties :
#
#
# Convention : Reuss Voigt Hill
#
# Bulk Modulus (GPa) = 24.94865 46.86600 35.90733
# Shear Modulus (GPa) = 24.37654 33.52699 28.95176
#
# Velocity S-wave (km/s) = 3.43023 4.02286 3.73831
# Velocity P-wave (km/s) = 5.26606 6.64831 5.99714
#
# Compressibility (1/GPa) = 0.04008232
#
# Stress axis : x y z
#
# Youngs Moduli (GPa) = 89.95580 54.86252 43.56542
#
# Poissons Ratio (x) = 0.36467 0.04309
# Poissons Ratio (y) = 0.59794 -0.06658
# Poissons Ratio (z) = 0.08897 -0.08385
#
# Static dielectric constant tensor:
#      x y z
#    x 1.781700 0.039230 0.009840 
#    y 0.039230 1.843760 0.010190 
#    z 0.009840 0.010190 1.765460 
# 
# From -- ./inp_files/157782.got.cif
#   From: 2010.05.17/outbox.cif.g08.bks.cpg/sg2_79_cif.got.tgz:157782.got - 2010.06.03 11:33:40.
