data_PCOD9079389
_publ_section_title
;
Structure prediction by ZEFSAII (Michael W. Deem and Ramdas Pophale) SiO2 
 PCOD9079389
Probable space group: P -1
;
_chemical_formula_sum "Si O2"
_cell_formula_units_Z 16
_cell_length_a 11.643344
_cell_length_b 21.938438
_cell_length_c 13.213590
_cell_angle_alpha 160.242779
_cell_angle_beta 58.088699
_cell_angle_gamma 133.107575
_cell_volume 737.832242
_symmetry_space_group_name_H-M "P -1"
_symmetry_group_IT_number 2
_symmetry_cell_setting 'triclinic'
loop_
_space_group_symop_operation_xyz
x,y,z
-x,-y,-z
loop_
_atom_site_type_symbol
_atom_site_label
_atom_site_fract_x
_atom_site_fract_y
_atom_site_fract_z
Si Si1 0.427007 0.488076 0.744837
Si Si2 0.748663 0.194354 0.129103
Si Si3 0.689968 0.363458 0.781306
Si Si4 0.077345 0.357060 0.346004
Si Si5 0.041098 0.472666 0.763295
Si Si6 0.960375 0.909384 0.762238
Si Si7 0.571804 0.315975 0.544966
Si Si8 0.540581 0.134725 0.796706
O O1 0.246570 0.234268 0.393241
O O2 0.562396 0.465269 0.698706
O O3 0.365520 0.560395 0.980322
O O4 0.488924 0.677758 0.922538
O O5 0.758890 0.369164 0.319841
O O6 0.673842 0.229404 0.318137
O O7 0.939988 0.280719 0.201229
O O8 0.627629 0.929131 0.733972
O O9 0.898410 0.499534 0.897563
O O10 0.644947 0.419370 0.783155
O O11 0.581259 0.079064 0.400344
O O12 0.002265 0.360878 0.494519
O O13 0.090291 0.153780 0.023390
O O14 0.014635 0.282444 0.555217
O O15 0.248397 0.703180 0.028634
O O16 0.000000 0.000000 0.000000
O O17 0.500000 0.000000 0.500000
#
# Coordination Sequence:
#
# PCOD9079389 Si02
#       8
#     2   2   2   2   2   2   2   2
#     4  10  21  38  58  85 120 154 195 243 290 349
#     4  10  21  32  61  78 115 152 192 236 297 343
#     4  11  22  38  62  86 119 163 193 237 297 350
#     4  10  18  37  54  86 112 147 190 246 288 344
#     4  10  20  37  61  86 117 149 199 236 297 352
#     4   9  19  34  59  83 114 149 189 247 293 338
#     4  11  21  38  57  87 117 155 196 241 294 354
#     4   9  21  38  58  83 115 154 195 242 283 343
#
# _framework density 21.685146
#
# number of rings (size 3 to 8) (size 9 to 14) (size 15 to 20)
#    0.000    2.000    2.500    1.125    0.000    5.500 
#    0.000    1.250    0.000   13.500    0.000    0.000 
#    0.000    0.000    0.000    0.000    0.000    0.000 
#
# Total GULP energy -89166.726152 kJ/mol
# GULP energy per Si atom -5572.920385 kJ/mol
# Density = 2.163579 g / cm^3
# Si number density = 21.685146 Si / 1000 Ang^3
#
#
#
# Elastic Constant Matrix: (Units=GPa)
#
#
# Indices 1 2 3 4 5 6 
#
# 1 106.1901 17.6790 19.7830 7.2119 11.8612 -9.4782
# 2 17.6790 41.8366 7.7153 12.7626 -4.9463 -11.7406
# 3 19.7830 7.7153 55.3927 12.7759 11.5738 -7.1185
# 4 7.2119 12.7626 12.7759 37.0689 -5.7381 -6.3178
# 5 11.8612 -4.9463 11.5738 -5.7381 20.7723 1.5523
# 6 -9.4782 -11.7406 -7.1185 -6.3178 1.5523 24.1619
#
#
#
# Elastic Compliance Matrix: (Units=1/GPa)
#
#
# Indices 1 2 3 4 5 6 
#
# 1 0.011514 -0.004587 -0.001479 -0.000920 -0.007252 0.002078
# 2 -0.004587 0.032261 -0.001777 -0.006358 0.008702 0.011132
# 3 -0.001479 -0.001777 0.025052 -0.009521 -0.016504 0.004508
# 4 -0.000920 -0.006358 -0.009521 0.035120 0.013866 0.002037
# 5 -0.007252 0.008702 -0.016504 0.013866 0.067695 -0.004202
# 6 0.002078 0.011132 0.004508 0.002037 -0.004202 0.049742
#
#
# Mechanical properties :
#
#
# Convention : Reuss Voigt Hill
#
# Bulk Modulus (GPa) = 18.81720 32.64156 25.72938
# Shear Modulus (GPa) = 19.62461 26.95010 23.28735
#
# Velocity S-wave (km/s) = 3.01155 3.52915 3.28057
# Velocity P-wave (km/s) = 4.55948 5.62954 5.12253
#
# Compressibility (1/GPa) = 0.05314288
#
# Stress axis : x y z
#
# Youngs Moduli (GPa) = 86.84956 30.99756 39.91639
#
# Poissons Ratio (x) = 0.14217 0.05903
# Poissons Ratio (y) = 0.39834 0.07092
# Poissons Ratio (z) = 0.12844 0.05507
#
# Static dielectric constant tensor:
#      x y z
#    x 1.836450 -0.044110 -0.027390 
#    y -0.044110 1.863590 0.055920 
#    z -0.027390 0.055920 1.798830 
# 
# From -- ./inp_files/295496.got.cif
#   From: 2010.05.17/outbox.cif.g08.bks.cpg/sg2_148_cif.got.tgz:295496.got - 2010.06.03 11:33:40.
