data_PCOD9079209
_publ_section_title
;
Structure prediction by ZEFSAII (Michael W. Deem and Ramdas Pophale) SiO2 
 PCOD9079209
Probable space group: P -1
;
_chemical_formula_sum "Si O2"
_cell_formula_units_Z 14
_cell_length_a 16.776519
_cell_length_b 7.332092
_cell_length_c 20.717507
_cell_angle_alpha 37.609657
_cell_angle_beta 158.997259
_cell_angle_gamma 137.481134
_cell_volume 557.378659
_symmetry_space_group_name_H-M "P -1"
_symmetry_group_IT_number 2
_symmetry_cell_setting 'triclinic'
loop_
_space_group_symop_operation_xyz
x,y,z
-x,-y,-z
loop_
_atom_site_type_symbol
_atom_site_label
_atom_site_fract_x
_atom_site_fract_y
_atom_site_fract_z
Si Si1 0.227533 0.184171 0.041010
Si Si2 0.749251 0.241149 0.712059
Si Si3 0.327727 0.814149 0.983307
Si Si4 0.429372 0.218951 0.641760
Si Si5 0.094087 0.842234 0.405417
Si Si6 0.010575 0.650229 0.896848
Si Si7 0.793065 0.793542 0.385724
O O1 0.960098 0.165051 0.847249
O O2 0.293403 0.530332 0.990080
O O3 0.318010 0.044137 0.217014
O O4 0.341914 0.972150 0.133889
O O5 0.431769 0.545146 0.518114
O O6 0.866167 0.445440 0.797150
O O7 0.578313 0.921741 0.148851
O O8 0.245195 0.669009 0.030605
O O9 0.144174 0.075471 0.765581
O O10 0.270546 0.999989 0.541080
O O11 0.308873 0.272597 0.602722
O O12 0.091864 0.021519 0.285439
O O13 0.867412 0.498769 0.486257
O O14 0.000000 0.500000 0.000000
O O15 0.000000 0.000000 0.500000
#
# Coordination Sequence:
#
# PCOD9079209 Si02
#       7
#     2   2   2   2   2   2   2
#     4  10  18  36  64  89 131 161 199 244 308 379
#     4   9  20  34  58  97 126 169 204 235 306 392
#     4   9  21  42  61  88 130 162 199 264 312 361
#     4  11  22  40  65  91 123 168 204 263 309 365
#     4   9  22  45  62  89 133 152 213 260 304 384
#     4   8  17  35  60  88 131 166 190 240 310 371
#     4  12  27  44  65  91 118 165 224 271 315 356
#
# _framework density 25.117574000000001
#
# number of rings (size 3 to 8) (size 9 to 14) (size 15 to 20)
#    0.857    1.429    2.857    0.429    2.000    5.714 
#    0.000    2.143    0.000    0.000    0.000    0.000 
#    0.000    0.000    0.000    0.000    0.000    0.000 
#
# Total GULP energy -78238.039030 kJ/mol
# GULP energy per Si atom -5588.431359 kJ/mol
# Density = 2.506040 g / cm^3
# Si number density = 25.117574 Si / 1000 Ang^3
#
#
#
# Elastic Constant Matrix: (Units=GPa)
#
#
# Indices 1 2 3 4 5 6 
#
# 1 83.6163 26.1978 24.8761 -22.6485 13.8276 -1.2373
# 2 26.1978 106.4420 45.8273 -22.4487 14.2638 -8.3153
# 3 24.8761 45.8273 121.7563 -10.2085 37.2192 -10.6070
# 4 -22.6485 -22.4487 -10.2085 39.7009 -5.3319 12.7911
# 5 13.8276 14.2638 37.2192 -5.3319 40.1888 -5.4548
# 6 -1.2373 -8.3153 -10.6070 12.7911 -5.4548 33.2742
#
#
#
# Elastic Compliance Matrix: (Units=1/GPa)
#
#
# Indices 1 2 3 4 5 6 
#
# 1 0.015571 -0.001316 -0.001394 0.008673 -0.002995 -0.004019
# 2 -0.001316 0.012581 -0.004206 0.005436 0.000572 -0.000242
# 3 -0.001394 -0.004206 0.013247 -0.001835 -0.010248 0.002145
# 4 0.008673 0.005436 -0.001835 0.036955 -0.000093 -0.013125
# 5 -0.002995 0.000572 -0.010248 -0.000093 0.035545 0.002628
# 6 -0.004019 -0.000242 0.002145 -0.013125 0.002628 0.036003
#
#
# Mechanical properties :
#
#
# Convention : Reuss Voigt Hill
#
# Bulk Modulus (GPa) = 36.27519 56.17967 46.22743
# Shear Modulus (GPa) = 28.91473 36.96033 32.93753
#
# Velocity S-wave (km/s) = 3.39658 3.84017 3.62516
# Velocity P-wave (km/s) = 5.46405 6.48674 5.99723
#
# Compressibility (1/GPa) = 0.02756705
#
# Stress axis : x y z
#
# Youngs Moduli (GPa) = 64.22057 79.48733 75.49062
#
# Poissons Ratio (x) = 0.10460 0.10520
# Poissons Ratio (y) = 0.08451 0.31754
# Poissons Ratio (z) = 0.08950 0.33435
#
# Static dielectric constant tensor:
#      x y z
#    x 2.041380 0.052120 -0.013800 
#    y 0.052120 1.994090 0.019020 
#    z -0.013800 0.019020 2.053480 
# 
# From -- ./inp_files/612951.got.cif
#   From: 2010.05.17/outbox.cif.g08.bks.cpg/sg2_307_cif.got.tgz:612951.got - 2010.06.03 11:33:40.
