data_PCOD9079427
_publ_section_title
;
Structure prediction by ZEFSAII (Michael W. Deem and Ramdas Pophale) SiO2 
 PCOD9079427
Probable space group: P -1
;
_chemical_formula_sum "Si O2"
_cell_formula_units_Z 16
_cell_length_a 9.605572
_cell_length_b 9.731140
_cell_length_c 16.590893
_cell_angle_alpha 108.293458
_cell_angle_beta 28.149205
_cell_angle_gamma 105.020583
_cell_volume 694.110191
_symmetry_space_group_name_H-M "P -1"
_symmetry_group_IT_number 2
_symmetry_cell_setting 'triclinic'
loop_
_space_group_symop_operation_xyz
x,y,z
-x,-y,-z
loop_
_atom_site_type_symbol
_atom_site_label
_atom_site_fract_x
_atom_site_fract_y
_atom_site_fract_z
Si Si1 0.107489 0.729660 0.231366
Si Si2 0.991796 0.005972 0.768023
Si Si3 0.449143 0.862531 0.416410
Si Si4 0.653645 0.548694 0.190770
Si Si5 0.636254 0.655046 0.049879
Si Si6 0.731875 0.981877 0.072200
Si Si7 0.247773 0.095113 0.430669
Si Si8 0.258101 0.515833 0.696010
O O1 0.183009 0.883945 0.181881
O O2 0.901773 0.770373 0.421227
O O3 0.927745 0.630336 0.244580
O O4 0.402171 0.647089 0.096362
O O5 0.284253 0.093675 0.654995
O O6 0.833712 0.984932 0.928759
O O7 0.135979 0.864675 0.624249
O O8 0.551315 0.712192 0.297163
O O9 0.404297 0.993474 0.400079
O O10 0.581367 0.467362 0.296489
O O11 0.560733 0.549545 0.144075
O O12 0.000000 0.500000 0.000000
O O13 0.602780 0.824265 0.123379
O O14 0.985742 0.632879 0.847062
O O15 0.492692 0.109392 0.239616
O O16 0.000000 0.000000 0.000000
O O17 0.000000 0.000000 0.500000
O O18 0.500000 0.500000 0.500000
#
# Coordination Sequence:
#
# PCOD9079427 Si02
#       8
#     2   2   2   2   2   2   2   2
#     4  11  23  45  65  90 133 170 210 256 336 379
#     4  10  22  34  64  92 123 167 205 264 314 381
#     4  10  18  37  57  86 120 165 205 248 326 368
#     4  10  20  39  61  86 122 168 210 248 312 381
#     4  11  24  43  65  92 130 173 207 263 319 378
#     4  12  23  37  64  98 130 160 221 258 315 383
#     4  11  21  39  62  93 129 167 203 263 328 380
#     4  11  26  42  68  96 122 167 224 265 306 382
#
# _framework density 23.051096999999999
#
# number of rings (size 3 to 8) (size 9 to 14) (size 15 to 20)
#    0.000    1.250    5.000    0.375    3.500    0.500 
#    0.000    1.875    0.000    0.000    0.000    0.000 
#    0.000    0.000    0.000    0.000    0.000    0.000 
#
# Total GULP energy -89212.512734 kJ/mol
# GULP energy per Si atom -5575.782046 kJ/mol
# Density = 2.299863 g / cm^3
# Si number density = 23.051097 Si / 1000 Ang^3
#
#
#
# Elastic Constant Matrix: (Units=GPa)
#
#
# Indices 1 2 3 4 5 6 
#
# 1 103.9568 17.1091 38.6623 -4.7432 -6.9815 -29.6348
# 2 17.1091 44.6047 24.8714 17.7869 -4.6630 -6.8068
# 3 38.6623 24.8714 151.4030 18.5800 27.6054 -26.3042
# 4 -4.7432 17.7869 18.5800 39.0040 -8.1149 3.3552
# 5 -6.9815 -4.6630 27.6054 -8.1149 41.8943 1.0237
# 6 -29.6348 -6.8068 -26.3042 3.3552 1.0237 37.9409
#
#
#
# Elastic Compliance Matrix: (Units=1/GPa)
#
#
# Indices 1 2 3 4 5 6 
#
# 1 0.014235 -0.004228 -0.003216 0.005569 0.004916 0.007505
# 2 -0.004228 0.031163 -0.002406 -0.013373 0.001716 0.001756
# 3 -0.003216 -0.002406 0.011614 -0.007435 -0.010044 0.006037
# 4 0.005569 -0.013373 -0.007435 0.039070 0.012077 -0.006986
# 5 0.004916 0.001716 -0.010044 0.012077 0.033955 -0.004800
# 6 0.007505 0.001756 0.006037 -0.006986 -0.004800 0.037467
#
#
# Mechanical properties :
#
#
# Convention : Reuss Voigt Hill
#
# Bulk Modulus (GPa) = 26.80179 51.25002 39.02590
# Shear Modulus (GPa) = 25.04489 38.38930 31.71710
#
# Velocity S-wave (km/s) = 3.29978 4.08536 3.71340
# Velocity P-wave (km/s) = 5.11570 6.67346 5.94582
#
# Compressibility (1/GPa) = 0.03731095
#
# Stress axis : x y z
#
# Youngs Moduli (GPa) = 70.24859 32.08958 86.10186
#
# Poissons Ratio (x) = 0.13568 0.27693
# Poissons Ratio (y) = 0.29702 0.20717
# Poissons Ratio (z) = 0.22594 0.07721
#
# Static dielectric constant tensor:
#      x y z
#    x 2.010450 -0.063150 0.018960 
#    y -0.063150 1.924620 0.008670 
#    z 0.018960 0.008670 1.947130 
# 
# From -- ./inp_files/190409.got.cif
#   From: 2010.05.17/outbox.cif.g08.bks.cpg/sg2_96_cif.got.tgz:190409.got - 2010.06.03 11:33:40.
