data_PCOD9079430
_publ_section_title
;
Structure prediction by ZEFSAII (Michael W. Deem and Ramdas Pophale) SiO2 
 PCOD9079430
Probable space group: P -1
;
_chemical_formula_sum "Si O2"
_cell_formula_units_Z 16
_cell_length_a 12.263623
_cell_length_b 9.604075
_cell_length_c 17.126724
_cell_angle_alpha 83.541395
_cell_angle_beta 122.912938
_cell_angle_gamma 48.311454
_cell_volume 827.960008
_symmetry_space_group_name_H-M "P -1"
_symmetry_group_IT_number 2
_symmetry_cell_setting 'triclinic'
loop_
_space_group_symop_operation_xyz
x,y,z
-x,-y,-z
loop_
_atom_site_type_symbol
_atom_site_label
_atom_site_fract_x
_atom_site_fract_y
_atom_site_fract_z
Si Si1 0.413097 0.686691 0.544942
Si Si2 0.134020 0.214122 0.006199
Si Si3 0.052610 0.067389 0.850368
Si Si4 0.366429 0.129045 0.234985
Si Si5 0.323287 0.875941 0.661761
Si Si6 0.515523 0.844101 0.465905
Si Si7 0.840098 0.260664 0.975006
Si Si8 0.944567 0.238166 0.634724
O O1 0.265833 0.860415 0.557399
O O2 0.377002 0.848998 0.460242
O O3 0.287524 0.660601 0.467667
O O4 0.728581 0.380152 0.706915
O O5 0.376079 0.056775 0.155653
O O6 0.160487 0.084580 0.951453
O O7 0.921031 0.532400 0.882587
O O8 0.000890 0.250792 0.022987
O O9 0.125302 0.025751 0.791732
O O10 0.147369 0.827049 0.931904
O O11 0.560395 0.079997 0.315861
O O12 0.417686 0.970513 0.333115
O O13 0.551562 0.567662 0.811226
O O14 0.090269 0.107817 0.617933
O O15 0.811419 0.508927 0.590311
O O16 0.500000 0.000000 0.500000
O O17 0.000000 0.000000 0.000000
#
# Coordination Sequence:
#
# PCOD9079430 Si02
#       8
#     2   2   2   2   2   2   2   2
#     4  11  21  40  59  89 119 159 200 241 292 354
#     4   9  18  32  58  87 107 145 195 258 278 337
#     4  10  18  37  57  87 112 146 205 246 287 340
#     4  10  19  34  58  86 112 149 201 235 302 341
#     4  11  21  41  55  88 127 154 190 247 301 352
#     4  11  21  39  64  84 116 161 202 250 280 350
#     4   9  17  32  63  80 107 152 193 244 287 338
#     4  11  26  35  60  88 128 157 191 243 303 354
#
# _framework density 19.324604000000001
#
# number of rings (size 3 to 8) (size 9 to 14) (size 15 to 20)
#    0.000    1.750    5.000    2.625    3.500    1.000 
#    0.000    0.625    0.000    0.000    0.000    0.000 
#    0.000    0.000    0.000    0.000    0.000    0.000 
#
# Total GULP energy -89161.267119 kJ/mol
# GULP energy per Si atom -5572.579195 kJ/mol
# Density = 1.928062 g / cm^3
# Si number density = 19.324604 Si / 1000 Ang^3
#
#
#
# Elastic Constant Matrix: (Units=GPa)
#
#
# Indices 1 2 3 4 5 6 
#
# 1 62.3548 29.5136 30.2768 -6.2939 -31.1232 -5.5571
# 2 29.5136 90.5858 12.6237 13.6790 2.3453 -2.7129
# 3 30.2768 12.6237 52.7651 8.0442 -27.3694 6.2630
# 4 -6.2939 13.6790 8.0442 35.9799 3.6007 -2.3475
# 5 -31.1232 2.3453 -27.3694 3.6007 36.5362 3.0275
# 6 -5.5571 -2.7129 6.2630 -2.3475 3.0275 34.3217
#
#
#
# Elastic Compliance Matrix: (Units=1/GPa)
#
#
# Indices 1 2 3 4 5 6 
#
# 1 0.045568 -0.016315 -0.008502 0.013277 0.031710 0.005751
# 2 -0.016315 0.018218 -0.002032 -0.007739 -0.015830 0.000036
# 3 -0.008502 -0.002032 0.041469 -0.013423 0.026298 -0.012342
# 4 0.013277 -0.007739 -0.013423 0.036740 -0.002426 0.006714
# 5 0.031710 -0.015830 0.026298 -0.002426 0.075982 -0.007784
# 6 0.005751 0.000036 -0.012342 0.006714 -0.007784 0.033468
#
#
# Mechanical properties :
#
#
# Convention : Reuss Voigt Hill
#
# Bulk Modulus (GPa) = 19.39680 38.94822 29.17251
# Shear Modulus (GPa) = 15.51208 30.25368 22.88288
#
# Velocity S-wave (km/s) = 2.83629 3.96100 3.44485
# Velocity P-wave (km/s) = 4.55908 6.41232 5.56341
#
# Compressibility (1/GPa) = 0.05155489
#
# Stress axis : x y z
#
# Youngs Moduli (GPa) = 21.94528 54.89174 24.11442
#
# Poissons Ratio (x) = 0.89557 0.20503
# Poissons Ratio (y) = 0.35804 0.04901
# Poissons Ratio (z) = 0.18659 0.11156
#
# Static dielectric constant tensor:
#      x y z
#    x 1.728740 0.019250 -0.023060 
#    y 0.019250 1.722210 0.018470 
#    z -0.023060 0.018470 1.714600 
# 
# From -- ./inp_files/214408.got.cif
#   From: 2010.05.17/outbox.cif.g08.bks.cpg/sg2_108_cif.got.tgz:214408.got - 2010.06.03 11:33:40.
