data_PCOD9079587
_publ_section_title
;
Structure prediction by ZEFSAII (Michael W. Deem and Ramdas Pophale) SiO2 
 PCOD9079587
Probable space group: P -1
;
_chemical_formula_sum "Si O2"
_cell_formula_units_Z 16
_cell_length_a 8.579910
_cell_length_b 11.117255
_cell_length_c 15.265157
_cell_angle_alpha 42.811397
_cell_angle_beta 132.431599
_cell_angle_gamma 137.355853
_cell_volume 640.835957
_symmetry_space_group_name_H-M "P -1"
_symmetry_group_IT_number 2
_symmetry_cell_setting 'triclinic'
loop_
_space_group_symop_operation_xyz
x,y,z
-x,-y,-z
loop_
_atom_site_type_symbol
_atom_site_label
_atom_site_fract_x
_atom_site_fract_y
_atom_site_fract_z
Si Si1 0.079251 0.297371 0.098891
Si Si2 0.945742 0.682901 0.240908
Si Si3 0.468664 0.859679 0.410150
Si Si4 0.100007 0.746086 0.599830
Si Si5 0.622942 0.718140 0.383342
Si Si6 0.682480 0.740354 0.952810
Si Si7 0.794997 0.273018 0.157721
Si Si8 0.499992 0.506479 0.286696
O O1 0.171088 0.190399 0.120297
O O2 0.287700 0.403544 0.193103
O O3 0.845541 0.185411 0.133381
O O4 0.086947 0.486677 0.948263
O O5 0.923036 0.465983 0.323069
O O6 0.739975 0.640822 0.253463
O O7 0.201168 0.810311 0.314221
O O8 0.879818 0.769178 0.084608
O O9 0.581813 0.861004 0.356842
O O10 0.470310 0.673270 0.560518
O O11 0.635851 0.066709 0.412350
O O12 0.064135 0.738070 0.696175
O O13 0.904017 0.782569 0.454891
O O14 0.500000 0.500000 0.500000
O O15 0.489677 0.659128 0.272182
O O16 0.484252 0.801512 0.880550
O O17 0.500000 0.500000 0.000000
#
# Coordination Sequence:
#
# PCOD9079587 Si02
#       8
#     2   2   2   2   2   2   2   2
#     4  10  19  32  64  98 119 165 217 258 318 385
#     4  12  22  42  65  91 129 168 214 262 319 383
#     4  11  26  39  64  96 126 171 208 262 324 379
#     4  12  22  41  67  91 132 165 211 265 319 385
#     4  10  21  39  62  89 124 167 207 257 314 377
#     4  10  18  37  61  94 122 164 218 261 316 379
#     4  10  19  34  63  94 120 165 215 258 317 380
#     4  11  21  39  63  94 130 163 217 260 314 392
#
# _framework density 24.967388
#
# number of rings (size 3 to 8) (size 9 to 14) (size 15 to 20)
#    0.000    1.250    7.500    2.250    0.000    0.500 
#    0.000    0.625    2.750    1.500    0.000    0.000 
#    0.000    0.000    0.000    0.000    0.000    0.000 
#
# Total GULP energy -89505.672951 kJ/mol
# GULP energy per Si atom -5594.104559 kJ/mol
# Density = 2.491056 g / cm^3
# Si number density = 24.967388 Si / 1000 Ang^3
#
#
#
# Elastic Constant Matrix: (Units=GPa)
#
#
# Indices 1 2 3 4 5 6 
#
# 1 124.1736 -4.8074 6.5290 18.0810 -10.2962 -13.9102
# 2 -4.8074 74.1489 17.1823 30.1531 10.7078 -26.1391
# 3 6.5290 17.1823 81.9550 49.4486 -2.1006 -25.1608
# 4 18.0810 30.1531 49.4486 -5.1931 13.7949 48.4711
# 5 -10.2962 10.7078 -2.1006 13.7949 42.4800 -3.6603
# 6 -13.9102 -26.1391 -25.1608 48.4711 -3.6603 -4.0344
#
#
#
# Elastic Compliance Matrix: (Units=1/GPa)
#
#
# Indices 1 2 3 4 5 6 
#
# 1 0.007918 -0.000265 -0.001696 0.001244 0.001384 -0.001320
# 2 -0.000265 0.013622 -0.005579 0.003920 -0.005116 -0.000807
# 3 -0.001696 -0.005579 0.010581 0.001477 0.000465 -0.006665
# 4 0.001244 0.003920 0.001477 0.004595 -0.000650 0.016898
# 5 0.001384 -0.005116 0.000465 -0.000650 0.024970 -0.004984
# 6 -0.001320 -0.000807 -0.006665 0.016898 -0.004984 0.011023
#
#
# Mechanical properties :
#
#
# Convention : Reuss Voigt Hill
#
# Bulk Modulus (GPa) = 58.67961 35.34282 47.01121
# Shear Modulus (GPa) = 53.49352 24.07537 38.78444
#
# Velocity S-wave (km/s) = 4.63377 3.10864 3.94560
# Velocity P-wave (km/s) = 7.22376 5.20300 6.29499
#
# Compressibility (1/GPa) = 0.01704170
#
# Stress axis : x y z
#
# Youngs Moduli (GPa) = 126.29547 73.41021 94.50987
#
# Poissons Ratio (x) = 0.01944 0.16025
# Poissons Ratio (y) = 0.03344 0.52729
# Poissons Ratio (z) = 0.21414 0.40957
#
# Static dielectric constant tensor:
#      x y z
#    x 2.028900 -0.146430 0.007770 
#    y -0.146430 0.878260 -0.066310 
#    z 0.007770 -0.066310 2.011620 
# 
# From -- ./inp_files/500097.got.cif
#   From: 2010.05.17/outbox.cif.g08.bks.cpg/sg2_251_cif.got.tgz:500097.got - 2010.06.03 11:33:40.
