data_PCOD9079846
_publ_section_title
;
Structure prediction by ZEFSAII (Michael W. Deem and Ramdas Pophale) SiO2 
 PCOD9079846
Probable space group: P -1
;
_chemical_formula_sum "Si O2"
_cell_formula_units_Z 14
_cell_length_a 16.343211
_cell_length_b 9.423659
_cell_length_c 10.038914
_cell_angle_alpha 41.667857
_cell_angle_beta 30.395819
_cell_angle_gamma 43.883458
_cell_volume 506.478906
_symmetry_space_group_name_H-M "P -1"
_symmetry_group_IT_number 2
_symmetry_cell_setting 'triclinic'
loop_
_space_group_symop_operation_xyz
x,y,z
-x,-y,-z
loop_
_atom_site_type_symbol
_atom_site_label
_atom_site_fract_x
_atom_site_fract_y
_atom_site_fract_z
Si Si1 0.337492 0.186736 0.566489
Si Si2 0.862270 0.765651 0.727948
Si Si3 0.966530 0.765370 0.870085
Si Si4 0.881222 0.327841 0.778931
Si Si5 0.212448 0.711111 0.785997
Si Si6 0.615829 0.935616 0.712653
Si Si7 0.496340 0.550091 0.126331
O O1 0.178269 0.138918 0.890218
O O2 0.312605 0.178511 0.448094
O O3 0.365089 0.406983 0.447046
O O4 0.500000 0.000000 0.500000
O O5 0.799967 0.541441 0.008029
O O6 0.728817 0.861129 0.734369
O O7 0.043257 0.758544 0.409282
O O8 0.892769 0.851954 0.770249
O O9 0.000000 0.500000 0.000000
O O10 0.128004 0.792240 0.706324
O O11 0.000000 0.500000 0.500000
O O12 0.891093 0.203190 0.993431
O O13 0.684409 0.433283 0.982906
O O14 0.379507 0.808586 0.489483
O O15 0.466550 0.806443 0.025336
O O16 0.500000 0.500000 0.000000
#
# Coordination Sequence:
#
# PCOD9079846 Si02
#       7
#     2   2   2   2   2   2   2
#     4  11  25  44  72 103 143 183 240 293 356 423
#     4  10  22  40  68  99 141 172 241 293 352 407
#     4  10  24  44  71 105 140 189 232 293 363 417
#     4  10  18  37  66  98 129 172 238 291 330 409
#     4  10  21  38  69 102 135 174 246 293 339 409
#     4  11  22  41  70 101 132 191 237 290 341 426
#     4  10  22  37  63 101 136 179 233 285 349 407
#
# _framework density 27.641822000000001
#
# number of rings (size 3 to 8) (size 9 to 14) (size 15 to 20)
#    0.000    1.714    2.857    1.714   10.000    4.000 
#    0.000    1.429    3.143    0.000    0.000    0.000 
#    0.000    0.000    0.000    0.000    0.000    0.000 
#
# Total GULP energy -77998.024522 kJ/mol
# GULP energy per Si atom -5571.287466 kJ/mol
# Density = 2.757891 g / cm^3
# Si number density = 27.641822 Si / 1000 Ang^3
#
#
#
# Elastic Constant Matrix: (Units=GPa)
#
#
# Indices 1 2 3 4 5 6 
#
# 1 235.6928 35.4455 38.0256 -2.5859 17.6390 14.7271
# 2 35.4455 59.3436 41.3136 -13.8099 -3.6188 9.3531
# 3 38.0256 41.3136 128.1200 -43.4945 -32.1041 25.7516
# 4 -2.5859 -13.8099 -43.4945 60.2230 28.9507 -1.3872
# 5 17.6390 -3.6188 -32.1041 28.9507 53.6097 -5.7841
# 6 14.7271 9.3531 25.7516 -1.3872 -5.7841 37.0848
#
#
#
# Elastic Compliance Matrix: (Units=1/GPa)
#
#
# Indices 1 2 3 4 5 6 
#
# 1 0.005030 -0.002114 -0.001250 0.000110 -0.002716 -0.001016
# 2 -0.002114 0.023207 -0.006900 0.001572 -0.002783 -0.000598
# 3 -0.001250 -0.006900 0.015499 0.007213 0.004518 -0.007552
# 4 0.000110 0.001572 0.007213 0.027346 -0.011042 -0.006148
# 5 -0.002716 -0.002783 0.004518 -0.011042 0.028313 0.002646
# 6 -0.001016 -0.000598 -0.007552 -0.006148 0.002646 0.032946
#
#
# Mechanical properties :
#
#
# Convention : Reuss Voigt Hill
#
# Bulk Modulus (GPa) = 43.08526 72.52509 57.80518
# Shear Modulus (GPa) = 31.13210 50.74161 40.93685
#
# Velocity S-wave (km/s) = 3.35963 4.28913 3.85252
# Velocity P-wave (km/s) = 5.53808 7.12905 6.38332
#
# Compressibility (1/GPa) = 0.02320979
#
# Stress axis : x y z
#
# Youngs Moduli (GPa) = 198.79287 43.08973 64.51830
#
# Poissons Ratio (x) = 0.09110 0.08065
# Poissons Ratio (y) = 0.42027 0.44514
# Poissons Ratio (z) = 0.24851 0.29730
#
# Static dielectric constant tensor:
#      x y z
#    x 2.313530 0.248940 0.155270 
#    y 0.248940 2.924850 0.076560 
#    z 0.155270 0.076560 2.383990 
# 
# From -- ./inp_files/464276.got.cif
#   From: 2010.05.17/outbox.cif.g08.bks.cpg/sg2_233_cif.got.tgz:464276.got - 2010.06.03 11:33:40.
