data_PCOD9079317
_publ_section_title
;
Structure prediction by ZEFSAII (Michael W. Deem and Ramdas Pophale) SiO2 
 PCOD9079317
Probable space group: P -1
;
_chemical_formula_sum "Si O2"
_cell_formula_units_Z 16
_cell_length_a 15.887049
_cell_length_b 15.246609
_cell_length_c 14.788795
_cell_angle_alpha 139.167617
_cell_angle_beta 27.806903
_cell_angle_gamma 152.153445
_cell_volume 775.213695
_symmetry_space_group_name_H-M "P -1"
_symmetry_group_IT_number 2
_symmetry_cell_setting 'triclinic'
loop_
_space_group_symop_operation_xyz
x,y,z
-x,-y,-z
loop_
_atom_site_type_symbol
_atom_site_label
_atom_site_fract_x
_atom_site_fract_y
_atom_site_fract_z
Si Si1 0.136021 0.618449 0.369705
Si Si2 0.572839 0.039268 0.356277
Si Si3 0.613583 0.474064 0.067081
Si Si4 0.930490 0.869456 0.045774
Si Si5 0.947741 0.748825 0.526008
Si Si6 0.321227 0.419935 0.715393
Si Si7 0.135354 0.214623 0.559066
Si Si8 0.336540 0.139076 0.550905
O O1 0.369009 0.834555 0.345535
O O2 0.000000 0.500000 0.500000
O O3 0.965231 0.623534 0.471208
O O4 0.258932 0.565329 0.151168
O O5 0.500000 0.000000 0.500000
O O6 0.538741 0.164172 0.437836
O O7 0.848876 0.122860 0.147613
O O8 0.672971 0.651133 0.106222
O O9 0.311985 0.309144 0.244024
O O10 0.743357 0.547702 0.101313
O O11 0.887980 0.937119 0.226212
O O12 0.000000 0.000000 0.000000
O O13 0.940314 0.731382 0.411305
O O14 0.197768 0.968636 0.480155
O O15 0.106578 0.271117 0.728658
O O16 0.555226 0.630224 0.619097
O O17 0.423610 0.324746 0.571381
O O18 0.000000 0.000000 0.500000
#
# Coordination Sequence:
#
# PCOD9079317 Si02
#       8
#     2   2   2   2   2   2   2   2
#     4  11  25  39  61  90 123 165 213 256 309 369
#     4  11  22  37  57  81 117 162 206 254 301 358
#     4  10  23  40  58  88 127 158 211 260 308 377
#     4  11  22  34  56  80 115 162 204 250 303 361
#     4  10  22  39  64  89 122 165 202 265 315 363
#     4   9  20  36  63  95 121 165 203 256 320 375
#     4  10  18  36  66  96 125 157 209 258 316 381
#     4  10  20  38  58  86 121 159 208 247 309 370
#
# _framework density 20.639469999999999
#
# number of rings (size 3 to 8) (size 9 to 14) (size 15 to 20)
#    0.000    1.750    2.500    1.500    3.500    4.500 
#    0.000    0.625    0.000    7.500    0.000    0.000 
#    0.000    0.000    0.000    0.000    0.000    0.000 
#
# Total GULP energy -89183.882986 kJ/mol
# GULP energy per Si atom -5573.992687 kJ/mol
# Density = 2.059249 g / cm^3
# Si number density = 20.639470 Si / 1000 Ang^3
#
#
#
# Elastic Constant Matrix: (Units=GPa)
#
#
# Indices 1 2 3 4 5 6 
#
# 1 139.9749 36.5629 46.0960 15.7580 7.5813 -0.8616
# 2 36.5629 101.1494 6.5185 4.8494 11.2436 5.9129
# 3 46.0960 6.5185 75.9403 7.6675 1.1556 4.4282
# 4 15.7580 4.8494 7.6675 27.4570 7.5578 8.4727
# 5 7.5813 11.2436 1.1556 7.5578 30.4376 0.3709
# 6 -0.8616 5.9129 4.4282 8.4727 0.3709 31.9753
#
#
#
# Elastic Compliance Matrix: (Units=1/GPa)
#
#
# Indices 1 2 3 4 5 6 
#
# 1 0.010468 -0.003358 -0.005762 -0.004712 -0.000014 0.002950
# 2 -0.003358 0.011539 0.001116 0.001463 -0.003799 -0.002722
# 3 -0.005762 0.001116 0.016804 -0.001018 0.000667 -0.002427
# 4 -0.004712 0.001463 -0.001018 0.045848 -0.010563 -0.012283
# 5 -0.000014 -0.003799 0.000667 -0.010563 0.036822 0.002981
# 6 0.002950 -0.002722 -0.002427 -0.012283 0.002981 0.035413
#
#
# Mechanical properties :
#
#
# Convention : Reuss Voigt Hill
#
# Bulk Modulus (GPa) = 43.84954 55.04658 49.44806
# Shear Modulus (GPa) = 27.70038 33.16648 30.43343
#
# Velocity S-wave (km/s) = 3.66745 4.01302 3.84412
# Velocity P-wave (km/s) = 6.26300 6.94269 6.61158
#
# Compressibility (1/GPa) = 0.02280526
#
# Stress axis : x y z
#
# Youngs Moduli (GPa) = 95.52858 86.65988 59.50942
#
# Poissons Ratio (x) = 0.29096 0.34289
# Poissons Ratio (y) = 0.32074 -0.06644
# Poissons Ratio (z) = 0.55043 -0.09675
#
# Static dielectric constant tensor:
#      x y z
#    x 1.801840 0.010460 0.022700 
#    y 0.010460 1.788470 -0.002730 
#    z 0.022700 -0.002730 1.727980 
# 
# From -- ./inp_files/311625.got.cif
#   From: 2010.05.17/outbox.cif.g08.bks.cpg/sg2_156_cif.got.tgz:311625.got - 2010.06.03 11:33:40.
