data_PCOD9079601
_publ_section_title
;
Structure prediction by ZEFSAII (Michael W. Deem and Ramdas Pophale) SiO2 
 PCOD9079601
Probable space group: P -1
;
_chemical_formula_sum "Si O2"
_cell_formula_units_Z 12
_cell_length_a 10.489955
_cell_length_b 29.047606
_cell_length_c 9.937570
_cell_angle_alpha 32.543054
_cell_angle_beta 43.715555
_cell_angle_gamma 20.386151
_cell_volume 529.432740
_symmetry_space_group_name_H-M "P -1"
_symmetry_group_IT_number 2
_symmetry_cell_setting 'triclinic'
loop_
_space_group_symop_operation_xyz
x,y,z
-x,-y,-z
loop_
_atom_site_type_symbol
_atom_site_label
_atom_site_fract_x
_atom_site_fract_y
_atom_site_fract_z
Si Si1 0.595324 0.401405 0.549505
Si Si2 0.050262 0.018852 0.566134
Si Si3 0.605084 0.153343 0.833918
Si Si4 0.770188 0.409376 0.138702
Si Si5 0.722826 0.647218 0.142587
Si Si6 0.409711 0.041143 0.691262
O O1 0.500000 0.500000 0.500000
O O2 0.523562 0.488341 0.261422
O O3 0.320163 0.432703 0.666858
O O4 0.061126 0.187077 0.711648
O O5 0.228817 0.042019 0.358890
O O6 0.386316 0.829230 0.858341
O O7 0.000000 0.000000 0.500000
O O8 0.694424 0.152234 0.618087
O O9 0.331370 0.315778 0.747182
O O10 0.495491 0.097543 0.053420
O O11 0.000000 0.000000 0.000000
O O12 0.151120 0.189707 0.399938
O O13 0.500000 0.500000 0.000000
O O14 0.901439 0.452702 0.936083
#
# Coordination Sequence:
#
# PCOD9079601 Si02
#       6
#     2   2   2   2   2   2
#     4  10  21  40  59  79 115 158 188 228 283 334
#     4  10  20  36  57  89 118 144 186 229 283 340
#     4  10  18  37  62  84 114 150 181 232 293 337
#     4   9  20  39  59  86 113 145 196 232 274 333
#     4  10  21  40  60  82 117 150 185 234 287 335
#     4   9  20  37  61  80 118 146 187 229 288 329
#
# _framework density 22.665769000000001
#
# number of rings (size 3 to 8) (size 9 to 14) (size 15 to 20)
#    1.000    1.333    3.333    0.000    0.000    9.333 
#    3.000    5.000    0.000    0.000    0.000    0.000 
#    0.000    0.000    0.000    0.000    0.000    0.000 
#
# Total GULP energy -66888.110155 kJ/mol
# GULP energy per Si atom -5574.009180 kJ/mol
# Density = 2.261418 g / cm^3
# Si number density = 22.665769 Si / 1000 Ang^3
#
#
#
# Elastic Constant Matrix: (Units=GPa)
#
#
# Indices 1 2 3 4 5 6 
#
# 1 149.8325 -53.1322 104.8729 -26.5156 -36.5169 -2.1383
# 2 -53.1322 -276.9447 63.8057 -128.3565 -1.0942 -45.6237
# 3 104.8729 63.8057 99.6539 19.3557 -26.0747 -5.4379
# 4 -26.5156 -128.3565 19.3557 -22.7421 -3.5151 -26.5152
# 5 -36.5169 -1.0942 -26.0747 -3.5151 55.9709 17.2754
# 6 -2.1383 -45.6237 -5.4379 -26.5152 17.2754 30.7397
#
#
#
# Elastic Compliance Matrix: (Units=1/GPa)
#
#
# Indices 1 2 3 4 5 6 
#
# 1 0.016417 -0.002295 -0.013604 -0.004145 0.008001 -0.012743
# 2 -0.002295 0.004086 0.002099 -0.012849 0.000287 -0.004969
# 3 -0.013604 0.002099 0.021724 0.007116 -0.002440 0.013522
# 4 -0.004145 -0.012849 0.007116 0.030131 -0.000221 0.008014
# 5 0.008001 0.000287 -0.002440 -0.000221 0.026412 -0.014483
# 6 -0.012743 -0.004969 0.013522 0.008014 -0.014483 0.041714
#
#
# Mechanical properties :
#
#
# Convention : Reuss Voigt Hill
#
# Bulk Modulus (GPa) = 68.36745 22.62606 45.49676
# Shear Modulus (GPa) = 28.90878 3.26003 16.08441
#
# Velocity S-wave (km/s) = 3.57520 1.20060 2.66679
# Velocity P-wave (km/s) = 6.87543 3.45341 5.44048
#
# Compressibility (1/GPa) = 0.01462684
#
# Stress axis : x y z
#
# Youngs Moduli (GPa) = 60.91419 244.74486 46.03194
#
# Poissons Ratio (x) = 0.56172 0.62620
# Poissons Ratio (y) = 0.13981 -0.09662
# Poissons Ratio (z) = 0.82865 -0.51370
#
# Static dielectric constant tensor:
#      x y z
#    x 1.717230 0.275480 0.073220 
#    y 0.275480 0.756610 -0.216200 
#    z 0.073220 -0.216200 1.870690 
# 
# From -- ./inp_files/225921.got.cif
#   From: 2010.05.17/outbox.cif.g08.bks.cpg/sg2_113_cif.got.tgz:225921.got - 2010.06.03 11:33:40.
