data_PCOD9079805
_publ_section_title
;
Structure prediction by ZEFSAII (Michael W. Deem and Ramdas Pophale) SiO2 
 PCOD9079805
Probable space group: P -1
;
_chemical_formula_sum "Si O2"
_cell_formula_units_Z 16
_cell_length_a 12.234695
_cell_length_b 15.184106
_cell_length_c 9.694525
_cell_angle_alpha 120.550854
_cell_angle_beta 69.905642
_cell_angle_gamma 59.591247
_cell_volume 786.260348
_symmetry_space_group_name_H-M "P -1"
_symmetry_group_IT_number 2
_symmetry_cell_setting 'triclinic'
loop_
_space_group_symop_operation_xyz
x,y,z
-x,-y,-z
loop_
_atom_site_type_symbol
_atom_site_label
_atom_site_fract_x
_atom_site_fract_y
_atom_site_fract_z
Si Si1 0.354294 0.242322 0.720108
Si Si2 0.163629 0.456982 0.552481
Si Si3 0.827359 0.531135 0.767544
Si Si4 0.109626 0.919252 0.740998
Si Si5 0.119540 0.765610 0.109238
Si Si6 0.177548 0.181282 0.835028
Si Si7 0.254624 0.644970 0.257144
Si Si8 0.425929 0.361045 0.592920
O O1 0.190136 0.271109 0.804148
O O2 0.298961 0.384917 0.776370
O O3 0.580877 0.029973 0.401343
O O4 0.345571 0.277820 0.913860
O O5 0.208193 0.433678 0.352714
O O6 0.369034 0.344343 0.462483
O O7 0.056158 0.424274 0.604785
O O8 0.974438 0.675566 0.857415
O O9 0.795164 0.437864 0.757569
O O10 0.178403 0.762046 0.518014
O O11 0.333062 0.813373 0.591904
O O12 0.942460 0.092540 0.843596
O O13 0.000000 0.000000 0.000000
O O14 0.136989 0.767655 0.265794
O O15 0.924308 0.834316 0.217032
O O16 0.327306 0.548031 0.790971
O O17 0.500000 0.500000 0.000000
#
# Coordination Sequence:
#
# PCOD9079805 Si02
#       8
#     2   2   2   2   2   2   2   2
#     4  10  18  37  65  97 129 162 215 260 321 382
#     4   9  22  39  66  97 135 169 210 266 335 392
#     4  10  21  40  66  97 132 173 212 268 331 382
#     4  12  28  46  66  95 130 172 223 270 325 389
#     4  11  23  43  67  94 127 171 218 268 326 381
#     4   9  20  34  67  95 129 165 207 263 319 389
#     4  12  25  44  68  94 132 177 220 271 319 389
#     4  11  22  42  69  97 130 169 217 270 320 396
#
# _framework density 20.349492000000001
#
# number of rings (size 3 to 8) (size 9 to 14) (size 15 to 20)
#    0.000    1.500    3.750    0.375    5.250    3.000 
#    2.250    0.000    0.000    3.750    0.000    0.000 
#    0.000    0.000    0.000    0.000    0.000    0.000 
#
# Total GULP energy -89117.384035 kJ/mol
# GULP energy per Si atom -5569.836502 kJ/mol
# Density = 2.030318 g / cm^3
# Si number density = 20.349492 Si / 1000 Ang^3
#
#
#
# Elastic Constant Matrix: (Units=GPa)
#
#
# Indices 1 2 3 4 5 6 
#
# 1 70.7995 22.8713 14.5319 -5.9598 20.4534 3.8606
# 2 22.8713 70.2875 24.9551 -1.7770 4.3084 1.8788
# 3 14.5319 24.9551 64.3085 -6.4058 12.6585 3.9181
# 4 -5.9598 -1.7770 -6.4058 25.3033 -8.1392 7.8608
# 5 20.4534 4.3084 12.6585 -8.1392 23.9868 -4.9745
# 6 3.8606 1.8788 3.9181 7.8608 -4.9745 34.0089
#
#
#
# Elastic Compliance Matrix: (Units=1/GPa)
#
#
# Indices 1 2 3 4 5 6 
#
# 1 0.021685 -0.006332 0.001701 0.000562 -0.019147 -0.005238
# 2 -0.006332 0.018358 -0.007005 -0.000535 0.005929 0.001503
# 3 0.001701 -0.007005 0.020617 0.002985 -0.010988 -0.004479
# 4 0.000562 -0.000535 0.002985 0.047218 0.012089 -0.009524
# 5 -0.019147 0.005929 -0.010988 0.012089 0.069011 0.010412
# 6 -0.005238 0.001503 -0.004479 -0.009524 0.010412 0.034156
#
#
# Mechanical properties :
#
#
# Convention : Reuss Voigt Hill
#
# Bulk Modulus (GPa) = 26.74671 36.67914 31.71292
# Shear Modulus (GPa) = 20.26097 26.19561 23.22829
#
# Velocity S-wave (km/s) = 3.15881 3.59177 3.38223
# Velocity P-wave (km/s) = 5.14552 5.93842 5.55613
#
# Compressibility (1/GPa) = 0.03738778
#
# Stress axis : x y z
#
# Youngs Moduli (GPa) = 46.11448 54.47305 48.50355
#
# Poissons Ratio (x) = 0.34494 -0.08251
# Poissons Ratio (y) = 0.29201 0.33976
# Poissons Ratio (z) = -0.07844 0.38157
#
# Static dielectric constant tensor:
#      x y z
#    x 1.781900 0.017830 -0.014910 
#    y 0.017830 1.791110 0.044840 
#    z -0.014910 0.044840 1.746800 
# 
# From -- ./inp_files/274053.got.cif
#   From: 2010.05.17/outbox.cif.g08.bks.cpg/sg2_138_cif.got.tgz:274053.got - 2010.06.03 11:33:40.
