data_PCOD9079124
_publ_section_title
;
Structure prediction by ZEFSAII (Michael W. Deem and Ramdas Pophale) SiO2 
 PCOD9079124
Probable space group: P -1
;
_chemical_formula_sum "Si O2"
_cell_formula_units_Z 15
_cell_length_a 11.264007
_cell_length_b 16.861943
_cell_length_c 13.304020
_cell_angle_alpha 149.366792
_cell_angle_beta 51.438164
_cell_angle_gamma 147.518929
_cell_volume 641.108008
_symmetry_space_group_name_H-M "P -1"
_symmetry_group_IT_number 2
_symmetry_cell_setting 'triclinic'
loop_
_space_group_symop_operation_xyz
x,y,z
-x,-y,-z
loop_
_atom_site_type_symbol
_atom_site_label
_atom_site_fract_x
_atom_site_fract_y
_atom_site_fract_z
Si Si1 0.762452 0.279408 0.676448
Si Si2 0.623967 0.831706 0.962490
Si Si3 0.134907 0.136344 0.307454
Si Si4 0.741389 0.597237 0.967245
Si Si5 0.121892 0.391203 0.749203
Si Si6 0.004564 0.291200 0.391284
Si Si7 0.000000 0.000000 0.500000
Si Si8 0.416477 0.537443 0.317191
O O1 0.741792 0.447405 0.872287
O O2 0.911409 0.353744 0.578822
O O3 0.909660 0.318104 0.730725
O O4 0.500000 0.000000 0.500000
O O5 0.688630 0.831281 0.814085
O O6 0.356039 0.679774 0.953967
O O7 0.631160 0.678832 0.858662
O O8 0.820261 0.105836 0.198228
O O9 0.216936 0.332643 0.555506
O O10 0.999400 0.132685 0.292041
O O11 0.957738 0.885809 0.190227
O O12 0.726508 0.543953 0.799200
O O13 0.500000 0.500000 0.000000
O O14 0.033170 0.212353 0.689500
O O15 0.273319 0.520874 0.459666
O O16 0.697978 0.782694 0.424019
#
# Coordination Sequence:
#
# PCOD9079124 Si02
#       8
#     2   2   2   2   2   2   1   2
#     4  11  25  42  61  92 128 169 219 267 328 384
#     4  10  18  36  66  93 127 161 209 268 321 379
#     4  10  18  36  62  95 118 165 215 257 310 383
#     4  12  22  37  65  88 124 167 220 265 314 387
#     4  10  22  39  63  92 128 166 214 261 325 377
#     4  10  19  39  66  94 126 167 213 270 317 383
#     4  10  20  36  62  96 130 168 210 266 308 378
#     4  10  19  35  63  95 122 165 220 254 315 373
#
# _framework density 23.396993999999999
#
# number of rings (size 3 to 8) (size 9 to 14) (size 15 to 20)
#    0.000    1.600    2.667    4.400    0.000    1.600 
#    0.000    1.333    8.800    0.000    0.000    0.000 
#    0.000    0.000    0.000    0.000    0.000    0.000 
#
# Total GULP energy -83616.464261 kJ/mol
# GULP energy per Si atom -5574.430951 kJ/mol
# Density = 2.334374 g / cm^3
# Si number density = 23.396994 Si / 1000 Ang^3
#
#
#
# Elastic Constant Matrix: (Units=GPa)
#
#
# Indices 1 2 3 4 5 6 
#
# 1 110.9530 21.7362 23.5652 8.5681 -10.9463 13.4866
# 2 21.7362 106.4249 38.3638 12.1222 -3.8571 11.8797
# 3 23.5652 38.3638 62.7678 15.9620 -2.1759 11.5755
# 4 8.5681 12.1222 15.9620 41.7696 2.4795 6.7771
# 5 -10.9463 -3.8571 -2.1759 2.4795 30.2042 2.8592
# 6 13.4866 11.8797 11.5755 6.7771 2.8592 28.8656
#
#
#
# Elastic Compliance Matrix: (Units=1/GPa)
#
#
# Indices 1 2 3 4 5 6 
#
# 1 0.010598 -0.000570 -0.002613 -0.000611 0.004001 -0.003922
# 2 -0.000570 0.012273 -0.006713 -0.000612 0.001122 -0.002060
# 3 -0.002613 -0.006713 0.023262 -0.005790 0.000731 -0.004058
# 4 -0.000611 -0.000612 -0.005790 0.027141 -0.002637 -0.003252
# 5 0.004001 0.001122 0.000731 -0.002637 0.035493 -0.005521
# 6 -0.003922 -0.002060 -0.004058 -0.003252 -0.005521 0.040261
#
#
# Mechanical properties :
#
#
# Convention : Reuss Voigt Hill
#
# Bulk Modulus (GPa) = 37.96374 49.71958 43.84166
# Shear Modulus (GPa) = 28.15321 33.26658 30.70990
#
# Velocity S-wave (km/s) = 3.47260 3.77481 3.62685
# Velocity P-wave (km/s) = 5.68680 6.34787 6.02641
#
# Compressibility (1/GPa) = 0.02634093
#
# Stress axis : x y z
#
# Youngs Moduli (GPa) = 94.35581 81.48047 42.98914
#
# Poissons Ratio (x) = 0.04646 0.11233
# Poissons Ratio (y) = 0.05380 0.28857
# Poissons Ratio (z) = 0.24655 0.54695
#
# Static dielectric constant tensor:
#      x y z
#    x 1.910140 -0.113110 0.024290 
#    y -0.113110 1.993370 -0.222410 
#    z 0.024290 -0.222410 1.521880 
# 
# From -- ./inp_files/155629.got.cif
#   From: 2010.05.17/outbox.cif.g08.bks.cpg/sg2_78_cif.got.tgz:155629.got - 2010.06.03 11:33:40.
