data_PCOD9079326
_publ_section_title
;
Structure prediction by ZEFSAII (Michael W. Deem and Ramdas Pophale) SiO2 
 PCOD9079326
Probable space group: P -1
;
_chemical_formula_sum "Si O2"
_cell_formula_units_Z 16
_cell_length_a 16.499311
_cell_length_b 9.391099
_cell_length_c 12.783276
_cell_angle_alpha 129.329666
_cell_angle_beta 50.929062
_cell_angle_gamma 85.080692
_cell_volume 700.858845
_symmetry_space_group_name_H-M "P -1"
_symmetry_group_IT_number 2
_symmetry_cell_setting 'triclinic'
loop_
_space_group_symop_operation_xyz
x,y,z
-x,-y,-z
loop_
_atom_site_type_symbol
_atom_site_label
_atom_site_fract_x
_atom_site_fract_y
_atom_site_fract_z
Si Si1 0.520389 0.879884 0.039313
Si Si2 0.413973 0.361052 0.767843
Si Si3 0.872234 0.740224 0.861467
Si Si4 0.173531 0.160848 0.821041
Si Si5 0.342451 0.766532 0.169368
Si Si6 0.503433 0.100609 0.365370
Si Si7 0.010582 0.207516 0.786875
Si Si8 0.059817 0.717616 0.524978
O O1 0.729856 0.559279 0.747270
O O2 0.414468 0.844243 0.093623
O O3 0.500000 0.000000 0.000000
O O4 0.438084 0.098404 0.311085
O O5 0.377571 0.379081 0.682440
O O6 0.614978 0.153282 0.503927
O O7 0.414673 0.175621 0.753269
O O8 0.311104 0.653605 0.057306
O O9 0.947057 0.430655 0.627507
O O10 0.953618 0.772734 0.731932
O O11 0.903091 0.748902 0.959322
O O12 0.659114 0.014333 0.159137
O O13 0.084644 0.136623 0.809237
O O14 0.133927 0.426588 0.939855
O O15 0.167347 0.046300 0.507486
O O16 0.500000 0.500000 0.000000
O O17 0.989452 0.020779 0.697336
#
# Coordination Sequence:
#
# PCOD9079326 Si02
#       8
#     2   2   2   2   2   2   2   2
#     4  11  22  35  59  89 119 154 196 243 296 351
#     4  10  18  36  67  86 114 153 201 245 289 350
#     4   9  20  36  60  80 119 159 196 231 294 357
#     4  10  21  36  57  91 119 151 185 253 298 341
#     4  12  19  37  62  88 111 153 204 243 288 352
#     4   9  18  36  62  84 114 155 197 236 296 346
#     4  11  22  36  60  89 122 147 198 246 294 347
#     4  10  20  39  57  84 116 162 195 236 290 359
#
# _framework density 22.829134
#
# number of rings (size 3 to 8) (size 9 to 14) (size 15 to 20)
#    0.000    1.750    3.750    0.750    1.750    1.000 
#    0.000    0.625    0.000    0.000    0.000    0.000 
#    0.000    0.000    0.000    0.000    0.000    0.000 
#
# Total GULP energy -89383.314453 kJ/mol
# GULP energy per Si atom -5586.457153 kJ/mol
# Density = 2.277717 g / cm^3
# Si number density = 22.829134 Si / 1000 Ang^3
#
#
#
# Elastic Constant Matrix: (Units=GPa)
#
#
# Indices 1 2 3 4 5 6 
#
# 1 71.0090 16.9665 22.3024 -5.9899 15.2739 -3.1735
# 2 16.9665 63.4900 8.5366 -22.6189 4.4805 15.9415
# 3 22.3024 8.5366 73.5710 -13.2006 10.0378 -6.6850
# 4 -5.9899 -22.6189 -13.2006 35.2711 0.0076 -0.1862
# 5 15.2739 4.4805 10.0378 0.0076 30.6196 -11.4831
# 6 -3.1735 15.9415 -6.6850 -0.1862 -11.4831 36.9279
#
#
#
# Elastic Compliance Matrix: (Units=1/GPa)
#
#
# Indices 1 2 3 4 5 6 
#
# 1 0.017770 -0.004329 -0.004160 -0.001311 -0.006654 0.000567
# 2 -0.004329 0.026739 0.000933 0.016689 -0.007286 -0.013928
# 3 -0.004160 0.000933 0.016344 0.006016 -0.002926 0.001319
# 4 -0.001311 0.016689 0.006016 0.041042 -0.006824 -0.008143
# 5 -0.006654 -0.007286 -0.002926 -0.006824 0.043875 0.015653
# 6 0.000567 -0.013928 0.001319 -0.008143 0.015653 0.038206
#
#
# Mechanical properties :
#
#
# Convention : Reuss Voigt Hill
#
# Bulk Modulus (GPa) = 21.86313 33.74233 27.80273
# Shear Modulus (GPa) = 23.32793 31.24801 27.28797
#
# Velocity S-wave (km/s) = 3.20011 3.70371 3.46108
# Velocity P-wave (km/s) = 4.82202 5.75347 5.30822
#
# Compressibility (1/GPa) = 0.04573911
#
# Stress axis : x y z
#
# Youngs Moduli (GPa) = 56.27545 37.39859 61.18543
#
# Poissons Ratio (x) = 0.16191 0.25455
# Poissons Ratio (y) = 0.24363 -0.05708
# Poissons Ratio (z) = 0.23412 -0.03489
#
# Static dielectric constant tensor:
#      x y z
#    x 1.881240 -0.028830 -0.030040 
#    y -0.028830 1.742580 0.043970 
#    z -0.030040 0.043970 1.886310 
# 
# From -- ./inp_files/462333.got.cif
#   From: 2010.05.17/outbox.cif.g08.bks.cpg/sg2_232_cif.got.tgz:462333.got - 2010.06.03 11:33:40.
