data_PCOD9079526
_publ_section_title
;
Structure prediction by ZEFSAII (Michael W. Deem and Ramdas Pophale) SiO2 
 PCOD9079526
Probable space group: P -1
;
_chemical_formula_sum "Si O2"
_cell_formula_units_Z 16
_cell_length_a 12.918781
_cell_length_b 9.099253
_cell_length_c 11.615016
_cell_angle_alpha 57.177974
_cell_angle_beta 43.972275
_cell_angle_gamma 57.897772
_cell_volume 772.916809
_symmetry_space_group_name_H-M "P -1"
_symmetry_group_IT_number 2
_symmetry_cell_setting 'triclinic'
loop_
_space_group_symop_operation_xyz
x,y,z
-x,-y,-z
loop_
_atom_site_type_symbol
_atom_site_label
_atom_site_fract_x
_atom_site_fract_y
_atom_site_fract_z
Si Si1 0.137156 0.900321 0.012793
Si Si2 0.017756 0.922019 0.357582
Si Si3 0.659534 0.848363 0.193918
Si Si4 0.685689 0.083286 0.602083
Si Si5 0.850594 0.491299 0.786788
Si Si6 0.235190 0.144062 0.156573
Si Si7 0.184281 0.517585 0.446533
Si Si8 0.657843 0.489133 0.449528
O O1 0.188113 0.684698 0.050603
O O2 0.069898 0.925514 0.184056
O O3 0.269390 0.007729 0.858024
O O4 0.000000 0.000000 0.000000
O O5 0.836783 0.941724 0.497911
O O6 0.074750 0.082988 0.303828
O O7 0.113407 0.732813 0.409975
O O8 0.476180 0.898583 0.337459
O O9 0.725865 0.642634 0.270061
O O10 0.698499 0.853486 0.025127
O O11 0.728493 0.275479 0.476715
O O12 0.663819 0.014031 0.777820
O O13 0.792313 0.664565 0.839905
O O14 0.783067 0.528464 0.694881
O O15 0.036642 0.447044 0.637783
O O16 0.324363 0.471589 0.444683
O O17 0.500000 0.500000 0.500000
#
# Coordination Sequence:
#
# PCOD9079526 Si02
#       8
#     2   2   2   2   2   2   2   2
#     4  10  22  41  59  88 129 170 201 248 316 372
#     4  10  20  35  68  94 114 159 214 258 293 367
#     4  10  24  40  61  89 127 164 200 254 317 363
#     4  11  20  38  65  93 119 153 212 258 302 361
#     4  10  21  33  64  90 121 156 208 255 304 358
#     4  11  20  38  63  97 117 156 205 258 309 360
#     4  10  18  37  60  93 120 153 209 259 299 358
#     4  10  21  37  63  90 120 164 206 252 307 368
#
# _framework density 20.700804999999999
#
# number of rings (size 3 to 8) (size 9 to 14) (size 15 to 20)
#    0.000    1.750    2.500    2.250    0.000    1.000 
#    0.000    4.375    2.750    0.000    0.000    0.000 
#    0.000    0.000    0.000    0.000    0.000    0.000 
#
# Total GULP energy -89184.589254 kJ/mol
# GULP energy per Si atom -5574.036828 kJ/mol
# Density = 2.065369 g / cm^3
# Si number density = 20.700805 Si / 1000 Ang^3
#
#
#
# Elastic Constant Matrix: (Units=GPa)
#
#
# Indices 1 2 3 4 5 6 
#
# 1 121.7526 37.7568 25.1958 -14.1300 -11.7203 -2.0186
# 2 37.7568 86.5723 32.9252 -32.6997 -8.1927 11.0667
# 3 25.1958 32.9252 74.0440 -38.2446 -14.3163 -4.8897
# 4 -14.1300 -32.6997 -38.2446 42.2020 -1.2115 -3.7634
# 5 -11.7203 -8.1927 -14.3163 -1.2115 29.2921 -11.6563
# 6 -2.0186 11.0667 -4.8897 -3.7634 -11.6563 25.2952
#
#
#
# Elastic Compliance Matrix: (Units=1/GPa)
#
#
# Indices 1 2 3 4 5 6 
#
# 1 0.010209 -0.004425 0.000281 0.000864 0.005128 0.005297
# 2 -0.004425 0.019383 -0.001537 0.011520 0.000520 -0.007177
# 3 0.000281 -0.001537 0.048029 0.046657 0.038965 0.034876
# 4 0.000864 0.011520 0.046657 0.079688 0.044078 0.036216
# 5 0.005128 0.000520 0.038965 0.044078 0.077002 0.049755
# 6 0.005297 -0.007177 0.034876 0.036216 0.049755 0.078153
#
#
# Mechanical properties :
#
#
# Convention : Reuss Voigt Hill
#
# Bulk Modulus (GPa) = 15.09194 52.68049 33.88621
# Shear Modulus (GPa) = 14.45455 31.79060 23.12258
#
# Velocity S-wave (km/s) = 2.64533 3.92308 3.34576
# Velocity P-wave (km/s) = 4.07881 6.78413 5.59737
#
# Compressibility (1/GPa) = 0.06626054
#
# Stress axis : x y z
#
# Youngs Moduli (GPa) = 97.95160 51.59137 20.82073
#
# Poissons Ratio (x) = 0.22829 -0.00585
# Poissons Ratio (y) = 0.43342 0.03199
# Poissons Ratio (z) = -0.02754 0.07928
#
# Static dielectric constant tensor:
#      x y z
#    x 1.808910 0.019630 0.010990 
#    y 0.019630 1.752370 -0.032710 
#    z 0.010990 -0.032710 1.786740 
# 
# From -- ./inp_files/403203.got.cif
#   From: 2010.05.17/outbox.cif.g08.bks.cpg/sg2_202_cif.got.tgz:403203.got - 2010.06.03 11:33:40.
