data_PCOD9079467
_publ_section_title
;
Structure prediction by ZEFSAII (Michael W. Deem and Ramdas Pophale) SiO2 
 PCOD9079467
Probable space group: P -1
;
_chemical_formula_sum "Si O2"
_cell_formula_units_Z 12
_cell_length_a 9.704774
_cell_length_b 12.718527
_cell_length_c 6.974970
_cell_angle_alpha 84.141378
_cell_angle_beta 59.675056
_cell_angle_gamma 131.307119
_cell_volume 413.681181
_symmetry_space_group_name_H-M "P -1"
_symmetry_group_IT_number 2
_symmetry_cell_setting 'triclinic'
loop_
_space_group_symop_operation_xyz
x,y,z
-x,-y,-z
loop_
_atom_site_type_symbol
_atom_site_label
_atom_site_fract_x
_atom_site_fract_y
_atom_site_fract_z
Si Si1 0.695893 0.472195 0.843365
Si Si2 0.161296 0.006075 0.751752
Si Si3 0.647240 0.581696 0.219399
Si Si4 0.856995 0.224456 0.795812
Si Si5 0.735358 0.429679 0.264509
Si Si6 0.324873 0.066920 0.208947
O O1 0.519030 0.456213 0.837162
O O2 0.020776 0.661828 0.512633
O O3 0.698397 0.483732 0.074076
O O4 0.532810 0.273715 0.956717
O O5 0.494025 0.209041 0.520049
O O6 0.155670 0.016788 0.520751
O O7 0.000000 0.000000 0.000000
O O8 0.982439 0.800066 0.933324
O O9 0.544355 0.606408 0.472364
O O10 0.083388 0.401852 0.741965
O O11 0.857918 0.098482 0.785841
O O12 0.549984 0.097549 0.100280
O O13 0.000000 0.500000 0.000000
#
# Coordination Sequence:
#
# PCOD9079467 Si02
#       6
#     2   2   2   2   2   2
#     4   9  20  37  57  83 119 157 189 243 289 336
#     4  11  19  38  63  84 114 160 196 239 297 343
#     4  10  18  37  59  83 116 151 195 239 287 344
#     4  11  21  39  59  89 124 151 197 241 291 350
#     4   9  22  35  61  90 113 158 197 238 289 352
#     4  10  21  37  60  86 121 159 191 243 294 343
#
# _framework density 29.007843999999999
#
# number of rings (size 3 to 8) (size 9 to 14) (size 15 to 20)
#    1.000    1.000    3.333    0.500    0.000    4.000 
#    0.000   10.833    0.000    5.000    0.000    0.000 
#    0.000    0.000    0.000    0.000    0.000    0.000 
#
# Total GULP energy -67001.485568 kJ/mol
# GULP energy per Si atom -5583.457131 kJ/mol
# Density = 2.894182 g / cm^3
# Si number density = 29.007844 Si / 1000 Ang^3
#
#
#
# Elastic Constant Matrix: (Units=GPa)
#
#
# Indices 1 2 3 4 5 6 
#
# 1 103.5542 49.8292 47.6773 28.5583 6.6837 12.8426
# 2 49.8292 268.1503 102.5818 6.9431 12.4071 9.6148
# 3 47.6773 102.5818 209.7310 -10.3330 7.2907 12.1140
# 4 28.5583 6.9431 -10.3330 59.2318 6.3699 -9.8563
# 5 6.6837 12.4071 7.2907 6.3699 36.3545 -8.4115
# 6 12.8426 9.6148 12.1140 -9.8563 -8.4115 41.9960
#
#
#
# Elastic Compliance Matrix: (Units=1/GPa)
#
#
# Indices 1 2 3 4 5 6 
#
# 1 0.014514 -0.001160 -0.002752 -0.008102 -0.001597 -0.005600
# 2 -0.001160 0.004797 -0.002036 -0.000318 -0.001063 -0.000444
# 3 -0.002752 -0.002036 0.006550 0.002765 -0.000610 -0.000055
# 4 -0.008102 -0.000318 0.002765 0.022582 -0.001344 0.006784
# 5 -0.001597 -0.001063 -0.000610 -0.001344 0.030051 0.006611
# 6 -0.005600 -0.000444 -0.000055 0.006784 0.006611 0.028558
#
#
# Mechanical properties :
#
#
# Convention : Reuss Voigt Hill
#
# Bulk Modulus (GPa) = 71.60539 109.06802 90.33670
# Shear Modulus (GPa) = 40.45229 52.93962 46.69595
#
# Velocity S-wave (km/s) = 3.73839 4.27665 4.01655
# Velocity P-wave (km/s) = 6.58578 7.87829 7.26085
#
# Compressibility (1/GPa) = 0.01396543
#
# Stress axis : x y z
#
# Youngs Moduli (GPa) = 68.89833 208.47256 152.67293
#
# Poissons Ratio (x) = 0.24176 0.42022
# Poissons Ratio (y) = 0.07990 0.31079
# Poissons Ratio (z) = 0.18964 0.42437
#
# Static dielectric constant tensor:
#      x y z
#    x 3.211990 -0.255970 -0.673490 
#    y -0.255970 2.490680 0.561660 
#    z -0.673490 0.561660 2.971210 
# 
# From -- ./inp_files/311650.got.cif
#   From: 2010.05.17/outbox.cif.g08.bks.cpg/sg2_156_cif.got.tgz:311650.got - 2010.06.03 11:33:40.
