data_PCOD9079522
_publ_section_title
;
Structure prediction by ZEFSAII (Michael W. Deem and Ramdas Pophale) SiO2 
 PCOD9079522
Probable space group: P -1
;
_chemical_formula_sum "Si O2"
_cell_formula_units_Z 16
_cell_length_a 11.469298
_cell_length_b 9.145864
_cell_length_c 12.852367
_cell_angle_alpha 45.173343
_cell_angle_beta 120.012956
_cell_angle_gamma 98.164601
_cell_volume 777.763285
_symmetry_space_group_name_H-M "P -1"
_symmetry_group_IT_number 2
_symmetry_cell_setting 'triclinic'
loop_
_space_group_symop_operation_xyz
x,y,z
-x,-y,-z
loop_
_atom_site_type_symbol
_atom_site_label
_atom_site_fract_x
_atom_site_fract_y
_atom_site_fract_z
Si Si1 0.345318 0.476748 0.815402
Si Si2 0.235137 0.928476 0.810671
Si Si3 0.300606 0.683999 0.173399
Si Si4 0.513545 0.832509 0.492780
Si Si5 0.761247 0.279639 0.646002
Si Si6 0.586342 0.753341 0.256967
Si Si7 0.949133 0.306218 0.529814
Si Si8 0.439345 0.802102 0.791235
O O1 0.401789 0.329147 0.814521
O O2 0.177317 0.589773 0.662050
O O3 0.421268 0.660297 0.756762
O O4 0.412458 0.324897 0.020274
O O5 0.306200 0.794776 0.807043
O O6 0.348078 0.056165 0.811278
O O7 0.233468 0.785740 0.982759
O O8 0.080864 0.112820 0.637455
O O9 0.378957 0.420436 0.326425
O O10 0.203865 0.751737 0.200092
O O11 0.425387 0.787283 0.200193
O O12 0.359971 0.818537 0.397120
O O13 0.500000 0.000000 0.500000
O O14 0.569688 0.957397 0.365102
O O15 0.686579 0.543282 0.469892
O O16 0.885103 0.218599 0.645309
O O17 0.000000 0.500000 0.500000
#
# Coordination Sequence:
#
# PCOD9079522 Si02
#       8
#     2   2   2   2   2   2   2   2
#     4  10  22  40  65  95 124 155 217 255 303 370
#     4  12  23  36  66  93 125 166 206 256 307 369
#     4  11  22  36  58  96 127 154 210 265 304 365
#     4  11  23  38  64  92 128 159 203 266 320 357
#     4  10  21  37  60  87 125 162 207 255 313 362
#     4  10  18  37  60  91 119 161 205 259 305 353
#     4  11  23  41  64  90 129 168 207 254 309 373
#     4  11  23  40  69  95 119 164 213 259 312 362
#
# _framework density 20.571809999999999
#
# number of rings (size 3 to 8) (size 9 to 14) (size 15 to 20)
#    0.000    1.250    3.750    5.625    3.500    1.000 
#    0.000    0.000    0.000    1.500    0.000    0.000 
#    0.000    0.000    0.000    0.000    0.000    0.000 
#
# Total GULP energy -89277.975373 kJ/mol
# GULP energy per Si atom -5579.873461 kJ/mol
# Density = 2.052499 g / cm^3
# Si number density = 20.571810 Si / 1000 Ang^3
#
#
#
# Elastic Constant Matrix: (Units=GPa)
#
#
# Indices 1 2 3 4 5 6 
#
# 1 80.9739 12.2511 43.1680 0.0314 6.9451 -12.4605
# 2 12.2511 82.8840 23.0311 3.1608 -1.6436 3.1758
# 3 43.1680 23.0311 104.5808 0.4696 7.9549 5.8144
# 4 0.0314 3.1608 0.4696 23.8686 -2.0857 -5.4104
# 5 6.9451 -1.6436 7.9549 -2.0857 31.3989 -5.1145
# 6 -12.4605 3.1758 5.8144 -5.4104 -5.1145 31.8517
#
#
#
# Elastic Compliance Matrix: (Units=1/GPa)
#
#
# Indices 1 2 3 4 5 6 
#
# 1 0.017988 -0.000958 -0.007677 0.002212 -0.000499 0.008829
# 2 -0.000958 0.013044 -0.002483 -0.001881 0.001179 -0.001352
# 3 -0.007677 -0.002483 0.013851 -0.001567 -0.003028 -0.006036
# 4 0.002212 -0.001881 -0.001567 0.044738 0.004351 0.009637
# 5 -0.000499 0.001179 -0.003028 0.004351 0.034129 0.006459
# 6 0.008829 -0.001352 -0.006036 0.009637 0.006459 0.038761
#
#
# Mechanical properties :
#
#
# Convention : Reuss Voigt Hill
#
# Bulk Modulus (GPa) = 44.15783 47.25989 45.70886
# Shear Modulus (GPa) = 26.00196 30.08974 28.04585
#
# Velocity S-wave (km/s) = 3.55908 3.82863 3.69631
# Velocity P-wave (km/s) = 6.19687 6.52438 6.36274
#
# Compressibility (1/GPa) = 0.02264604
#
# Stress axis : x y z
#
# Youngs Moduli (GPa) = 55.59321 76.66633 72.19946
#
# Poissons Ratio (x) = 0.07346 0.55426
# Poissons Ratio (y) = 0.05327 0.17927
# Poissons Ratio (z) = 0.42677 0.19036
#
# Static dielectric constant tensor:
#      x y z
#    x 1.746050 -0.030400 -0.054480 
#    y -0.030400 1.790800 0.002000 
#    z -0.054480 0.002000 1.803270 
# 
# From -- ./inp_files/416372.got.cif
#   From: 2010.05.17/outbox.cif.g08.bks.cpg/sg2_209_cif.got.tgz:416372.got - 2010.06.03 11:33:40.
