data_PCOD9079913
_publ_section_title
;
Structure prediction by ZEFSAII (Michael W. Deem and Ramdas Pophale) SiO2 
 PCOD9079913
Probable space group: P -1
;
_chemical_formula_sum "Si O2"
_cell_formula_units_Z 16
_cell_length_a 10.099863
_cell_length_b 14.830166
_cell_length_c 6.636362
_cell_angle_alpha 58.689062
_cell_angle_beta 119.026944
_cell_angle_gamma 135.559028
_cell_volume 583.685777
_symmetry_space_group_name_H-M "P -1"
_symmetry_group_IT_number 2
_symmetry_cell_setting 'triclinic'
loop_
_space_group_symop_operation_xyz
x,y,z
-x,-y,-z
loop_
_atom_site_type_symbol
_atom_site_label
_atom_site_fract_x
_atom_site_fract_y
_atom_site_fract_z
Si Si1 0.272253 0.687654 0.065588
Si Si2 0.001101 0.338823 0.613162
Si Si3 0.357979 0.955004 0.760014
Si Si4 0.831805 0.547599 0.009207
Si Si5 0.281535 0.366279 0.487969
Si Si6 0.108816 0.925840 0.946260
Si Si7 0.278028 0.176285 0.029913
Si Si8 0.410975 0.754597 0.532907
O O1 0.275578 0.585781 0.049758
O O2 0.400834 0.727643 0.315651
O O3 0.313635 0.815647 0.831595
O O4 0.056485 0.614147 0.071093
O O5 0.111340 0.365415 0.458647
O O6 0.916333 0.196514 0.817697
O O7 0.175318 0.449871 0.758468
O O8 0.812111 0.328685 0.471512
O O9 0.469829 0.083155 0.551599
O O10 0.174582 0.932720 0.757674
O O11 0.500000 0.000000 0.000000
O O12 0.775607 0.640311 0.779783
O O13 0.457296 0.262773 0.212747
O O14 0.500000 0.500000 0.500000
O O15 0.268688 0.259767 0.748394
O O16 0.908542 0.897980 0.876425
O O17 0.264451 0.062407 0.024363
#
# Coordination Sequence:
#
# PCOD9079913 Si02
#       8
#     2   2   2   2   2   2   2   2
#     4   9  20  41  71 111 144 194 254 301 370 437
#     4  10  22  49  77 106 151 193 254 315 374 435
#     4  10  18  37  71 107 152 184 246 304 368 445
#     4  10  21  47  75 100 147 200 252 307 365 435
#     4  11  27  52  72 105 147 204 255 307 371 454
#     4  10  20  44  67 109 154 194 247 297 370 458
#     4  10  25  45  71 107 157 198 244 306 383 449
#     4  10  21  44  70 119 148 193 242 322 373 445
#
# _framework density 27.412009999999999
#
# number of rings (size 3 to 8) (size 9 to 14) (size 15 to 20)
#    0.000    2.000    3.750    0.000    0.000    6.500 
#   22.500    3.125    2.750    0.000    3.250    0.000 
#    0.000    0.000    0.000    0.000    0.000    0.000 
#
# Total GULP energy -89559.951696 kJ/mol
# GULP energy per Si atom -5597.496981 kJ/mol
# Density = 2.734962 g / cm^3
# Si number density = 27.412010 Si / 1000 Ang^3
#
#
#
# Elastic Constant Matrix: (Units=GPa)
#
#
# Indices 1 2 3 4 5 6 
#
# 1 95.8985 49.9743 29.9000 0.5448 -1.8382 15.0063
# 2 49.9743 134.4969 49.7978 17.0351 1.0232 -13.4607
# 3 29.9000 49.7978 138.5231 8.3568 1.1474 -15.5904
# 4 0.5448 17.0351 8.3568 57.9422 9.3421 2.2284
# 5 -1.8382 1.0232 1.1474 9.3421 26.9696 -8.3942
# 6 15.0063 -13.4607 -15.5904 2.2284 -8.3942 57.0841
#
#
#
# Elastic Compliance Matrix: (Units=1/GPa)
#
#
# Indices 1 2 3 4 5 6 
#
# 1 0.014935 -0.005703 -0.001987 0.002278 -0.001370 -0.006104
# 2 -0.005703 0.011151 -0.002150 -0.003332 0.001652 0.003914
# 3 -0.001987 -0.002150 0.008749 -0.000812 0.000643 0.002531
# 4 0.002278 -0.003332 -0.000812 0.019692 -0.007592 -0.003491
# 5 -0.001370 0.001652 0.000643 -0.007592 0.041819 0.007371
# 6 -0.006104 0.003914 0.002531 -0.003491 0.007371 0.021957
#
#
# Mechanical properties :
#
#
# Convention : Reuss Voigt Hill
#
# Bulk Modulus (GPa) = 65.97771 69.80698 67.89234
# Shear Modulus (GPa) = 34.95651 44.34894 39.65273
#
# Velocity S-wave (km/s) = 3.57490 4.02663 3.80747
# Velocity P-wave (km/s) = 6.41569 6.86582 6.64457
#
# Compressibility (1/GPa) = 0.01515663
#
# Stress axis : x y z
#
# Youngs Moduli (GPa) = 66.95769 89.67588 114.29544
#
# Poissons Ratio (x) = 0.51140 0.22706
# Poissons Ratio (y) = 0.38184 0.24573
# Poissons Ratio (z) = 0.13302 0.19280
#
# Static dielectric constant tensor:
#      x y z
#    x 2.169070 -0.016330 0.006810 
#    y -0.016330 2.204460 -0.060650 
#    z 0.006810 -0.060650 2.188800 
# 
# From -- ./inp_files/436654.got.cif
#   From: 2010.05.17/outbox.cif.g08.bks.cpg/sg2_219_cif.got.tgz:436654.got - 2010.06.03 11:33:40.
