data_PCOD9079945
_publ_section_title
;
Structure prediction by ZEFSAII (Michael W. Deem and Ramdas Pophale) SiO2 
 PCOD9079945
Probable space group: P -1
;
_chemical_formula_sum "Si O2"
_cell_formula_units_Z 15
_cell_length_a 18.046650
_cell_length_b 12.752898
_cell_length_c 17.483227
_cell_angle_alpha 158.297535
_cell_angle_beta 153.961675
_cell_angle_gamma 29.436713
_cell_volume 636.808889
_symmetry_space_group_name_H-M "P -1"
_symmetry_group_IT_number 2
_symmetry_cell_setting 'triclinic'
loop_
_space_group_symop_operation_xyz
x,y,z
-x,-y,-z
loop_
_atom_site_type_symbol
_atom_site_label
_atom_site_fract_x
_atom_site_fract_y
_atom_site_fract_z
Si Si1 0.651066 0.286062 0.542284
Si Si2 0.741478 0.931158 0.519034
Si Si3 0.030638 0.686402 0.229916
Si Si4 0.318329 0.221889 0.972249
Si Si5 0.647042 0.382515 0.863490
Si Si6 0.000000 0.000000 0.000000
Si Si7 0.365465 0.575244 0.856984
Si Si8 0.905240 0.874205 0.995773
O O1 0.500000 0.500000 0.500000
O O2 0.645213 0.002335 0.396456
O O3 0.810029 0.186231 0.563723
O O4 0.683680 0.507873 0.789121
O O5 0.629932 0.137440 0.619154
O O6 0.770024 0.616554 0.371516
O O7 0.926806 0.017453 0.743320
O O8 0.000000 0.500000 0.000000
O O9 0.851176 0.884920 0.228280
O O10 0.088361 0.446188 0.185910
O O11 0.311551 0.357678 0.973571
O O12 0.500000 0.000000 0.000000
O O13 0.472232 0.474314 0.811417
O O14 0.811947 0.235203 0.967372
O O15 0.079435 0.103780 0.065440
O O16 0.263804 0.904963 0.981480
O O17 0.500000 0.500000 0.000000
#
# Coordination Sequence:
#
# PCOD9079945 Si02
#       8
#     2   2   2   2   2   1   2   2
#     4  10  22  38  63  91 120 159 203 257 309 363
#     4  10  22  43  57  85 130 164 198 248 319 371
#     4  10  19  39  63  87 116 165 202 245 315 370
#     4  10  21  38  64  89 120 161 210 252 307 372
#     4  10  21  39  60  86 127 165 201 248 315 366
#     4  10  18  38  58  84 126 162 194 252 308 360
#     4  12  25  35  61  98 116 157 216 254 296 363
#     4  11  21  40  62  89 125 163 205 250 313 374
#
# _framework density 23.554949000000001
#
# number of rings (size 3 to 8) (size 9 to 14) (size 15 to 20)
#    0.000    1.600    6.667    0.800    5.600    0.000 
#    0.000    0.667    0.000    0.000    0.000    0.000 
#    0.000    0.000    0.000    0.000    0.000    0.000 
#
# Total GULP energy -83533.700766 kJ/mol
# GULP energy per Si atom -5568.913384 kJ/mol
# Density = 2.350134 g / cm^3
# Si number density = 23.554949 Si / 1000 Ang^3
#
#
#
# Elastic Constant Matrix: (Units=GPa)
#
#
# Indices 1 2 3 4 5 6 
#
# 1 161.4331 78.0611 14.0739 -10.7706 18.6135 3.4379
# 2 78.0611 157.0457 3.4760 -10.0425 17.4819 -5.2553
# 3 14.0739 3.4760 32.9574 3.4069 12.2577 1.5514
# 4 -10.7706 -10.0425 3.4069 17.9743 -1.7430 2.4964
# 5 18.6135 17.4819 12.2577 -1.7430 25.2540 -6.2621
# 6 3.4379 -5.2553 1.5514 2.4964 -6.2621 52.3421
#
#
#
# Elastic Compliance Matrix: (Units=1/GPa)
#
#
# Indices 1 2 3 4 5 6 
#
# 1 0.008879 -0.003875 -0.002708 0.003604 -0.002640 -0.001380
# 2 -0.003875 0.008822 0.001991 0.001772 -0.003966 0.000522
# 3 -0.002708 0.001991 0.039886 -0.009637 -0.020088 -0.002748
# 4 0.003604 0.001772 -0.009637 0.061347 0.004492 -0.002162
# 5 -0.002640 -0.003966 -0.020088 0.004492 0.056051 0.006862
# 6 -0.001380 0.000522 -0.002748 -0.002162 0.006862 0.020254
#
#
# Mechanical properties :
#
#
# Convention : Reuss Voigt Hill
#
# Bulk Modulus (GPa) = 20.66023 60.29535 40.47779
# Shear Modulus (GPa) = 22.66995 36.16910 29.41953
#
# Velocity S-wave (km/s) = 3.10567 3.92282 3.53792
# Velocity P-wave (km/s) = 4.65299 6.79495 5.82330
#
# Compressibility (1/GPa) = 0.04840216
#
# Stress axis : x y z
#
# Youngs Moduli (GPa) = 112.62876 113.35442 25.07165
#
# Poissons Ratio (x) = 0.43926 0.06790
# Poissons Ratio (y) = 0.43645 -0.04993
# Poissons Ratio (z) = 0.30504 -0.22574
#
# Static dielectric constant tensor:
#      x y z
#    x 1.924920 -0.004880 0.046220 
#    y -0.004880 1.904990 0.002460 
#    z 0.046220 0.002460 2.111200 
# 
# From -- ./inp_files/168421.got.cif
#   From: 2010.05.17/outbox.cif.g08.bks.cpg/sg2_85_cif.got.tgz:168421.got - 2010.06.03 11:33:40.
