data_PCOD9079041
_publ_section_title
;
Structure prediction by ZEFSAII (Michael W. Deem and Ramdas Pophale) SiO2 
 PCOD9079041
Probable space group: P -1
;
_chemical_formula_sum "Si O2"
_cell_formula_units_Z 14
_cell_length_a 5.532432
_cell_length_b 7.817601
_cell_length_c 13.634711
_cell_angle_alpha 96.833564
_cell_angle_beta 94.833488
_cell_angle_gamma 64.119480
_cell_volume 526.448041
_symmetry_space_group_name_H-M "P -1"
_symmetry_group_IT_number 2
_symmetry_cell_setting 'triclinic'
loop_
_space_group_symop_operation_xyz
x,y,z
-x,-y,-z
loop_
_atom_site_type_symbol
_atom_site_label
_atom_site_fract_x
_atom_site_fract_y
_atom_site_fract_z
Si Si1 0.021254 0.305567 0.280049
Si Si2 0.607516 0.196852 0.570204
Si Si3 0.067383 0.233361 0.501085
Si Si4 0.420311 0.624426 0.862113
Si Si5 0.667737 0.696303 0.053245
Si Si6 0.514388 0.949943 0.243639
Si Si7 0.948516 0.337592 0.784618
O O1 0.835775 0.244003 0.200623
O O2 0.957160 0.518782 0.259629
O O3 0.972780 0.280697 0.389612
O O4 0.333971 0.172934 0.260002
O O5 0.299194 0.304065 0.532495
O O6 0.594723 0.133755 0.676591
O O7 0.806124 0.295901 0.565184
O O8 0.754810 0.997528 0.500972
O O9 0.324605 0.502741 0.923453
O O10 0.633138 0.461350 0.788446
O O11 0.562748 0.724827 0.941219
O O12 0.479198 0.862009 0.133060
O O13 0.956340 0.679429 0.097929
O O14 0.837255 0.867487 0.261386
#
# Coordination Sequence:
#
# PCOD9079041 Si02
#       7
#     2   2   2   2   2   2   2
#     4  10  21  37  56  87 114 149 193 244 289 351
#     4   9  18  36  57  84 116 156 196 245 293 359
#     4   9  19  34  58  84 117 155 197 240 303 349
#     4  10  18  36  62  79 116 154 188 237 297 351
#     4   8  19  36  58  82 113 153 188 235 296 350
#     4   9  20  39  57  84 116 147 196 242 291 346
#     4   9  20  37  56  81 115 149 190 235 290 352
#
# _framework density 26.593313999999999
#
# number of rings (size 3 to 8) (size 9 to 14) (size 15 to 20)
#    0.857    2.000    0.000    0.429    2.000    1.714 
#    5.143    2.143    0.000    0.000    0.000    0.000 
#    0.000    0.000    0.000    0.000    0.000    0.000 
#
# Total GULP energy -78175.068601 kJ/mol
# GULP energy per Si atom -5583.933472 kJ/mol
# Density = 2.653279 g / cm^3
# Si number density = 26.593314 Si / 1000 Ang^3
#
#
#
# Elastic Constant Matrix: (Units=GPa)
#
#
# Indices 1 2 3 4 5 6 
#
# 1 128.9524 10.8027 40.5059 -7.9884 -11.9628 -21.9535
# 2 10.8027 83.4655 30.0895 1.1039 -4.9118 -11.6722
# 3 40.5059 30.0895 119.2583 -4.9532 0.7476 -11.9721
# 4 -7.9884 1.1039 -4.9532 35.2511 -10.8940 -5.5833
# 5 -11.9628 -4.9118 0.7476 -10.8940 48.0053 4.8511
# 6 -21.9535 -11.6722 -11.9721 -5.5833 4.8511 32.8665
#
#
#
# Elastic Compliance Matrix: (Units=1/GPa)
#
#
# Indices 1 2 3 4 5 6 
#
# 1 0.010149 0.000706 -0.002865 0.003744 0.002869 0.006198
# 2 0.000706 0.013708 -0.003292 0.000302 0.001294 0.004001
# 3 -0.002865 -0.003292 0.010322 0.000702 -0.001150 0.000966
# 4 0.003744 0.000302 0.000702 0.032832 0.007665 0.007309
# 5 0.002869 0.001294 -0.001150 0.007665 0.023456 -0.000203
# 6 0.006198 0.004001 0.000966 0.007309 -0.000203 0.037611
#
#
# Mechanical properties :
#
#
# Convention : Reuss Voigt Hill
#
# Bulk Modulus (GPa) = 42.96374 54.94137 48.95256
# Shear Modulus (GPa) = 34.07360 39.90979 36.99170
#
# Velocity S-wave (km/s) = 3.58339 3.87815 3.73368
# Velocity P-wave (km/s) = 5.77164 6.38420 6.08563
#
# Compressibility (1/GPa) = 0.02327544
#
# Stress axis : x y z
#
# Youngs Moduli (GPa) = 98.53095 72.94930 96.87717
#
# Poissons Ratio (x) = -0.05147 0.27759
# Poissons Ratio (y) = -0.06952 0.31894
# Poissons Ratio (z) = 0.28233 0.24017
#
# Static dielectric constant tensor:
#      x y z
#    x 2.169280 0.071370 0.059310 
#    y 0.071370 2.056930 0.039650 
#    z 0.059310 0.039650 2.117460 
# 
# From -- ./inp_files/110798.got.cif
#   From: 2010.05.17/outbox.cif.g08.bks.cpg/sg2_56_cif.got.tgz:110798.got - 2010.06.03 11:33:40.
