data_PCOD9079130
_publ_section_title
;
Structure prediction by ZEFSAII (Michael W. Deem and Ramdas Pophale) SiO2 
 PCOD9079130
Probable space group: P -1
;
_chemical_formula_sum "Si O2"
_cell_formula_units_Z 15
_cell_length_a 8.158678
_cell_length_b 24.989589
_cell_length_c 9.959480
_cell_angle_alpha 31.097355
_cell_angle_beta 136.448217
_cell_angle_gamma 146.922771
_cell_volume 572.198124
_symmetry_space_group_name_H-M "P -1"
_symmetry_group_IT_number 2
_symmetry_cell_setting 'triclinic'
loop_
_space_group_symop_operation_xyz
x,y,z
-x,-y,-z
loop_
_atom_site_type_symbol
_atom_site_label
_atom_site_fract_x
_atom_site_fract_y
_atom_site_fract_z
Si Si1 0.745075 0.904802 0.745980
Si Si2 0.321446 0.151703 0.666247
Si Si3 0.208252 0.469948 0.463312
Si Si4 0.234128 0.346432 0.160873
Si Si5 0.648558 0.293667 0.827486
Si Si6 0.162725 0.779743 0.538716
Si Si7 0.863851 0.171051 0.877400
Si Si8 0.000000 0.500000 0.000000
O O1 0.501255 0.900052 0.522427
O O2 0.527570 0.784455 0.974908
O O3 0.972058 0.034104 0.689659
O O4 0.956400 0.878638 0.849692
O O5 0.368848 0.271967 0.355998
O O6 0.449029 0.204453 0.776818
O O7 0.514715 0.106038 0.826834
O O8 0.500000 0.500000 0.500000
O O9 0.294913 0.567647 0.427646
O O10 0.013543 0.317477 0.705462
O O11 0.058442 0.502859 0.191974
O O12 0.071543 0.276332 0.357263
O O13 0.500000 0.500000 0.000000
O O14 0.966570 0.319693 0.969411
O O15 0.073455 0.816395 0.272854
O O16 0.147668 0.655414 0.756535
#
# Coordination Sequence:
#
# PCOD9079130 Si02
#       8
#     2   2   2   2   2   2   2   1
#     4  11  23  47  69  94 131 183 231 269 326 401
#     4  12  28  42  66 100 141 177 217 280 335 398
#     4  11  20  37  68  95 124 165 222 268 327 381
#     4  11  25  45  65 100 137 170 220 282 339 393
#     4  11  24  45  67 103 132 179 221 272 339 403
#     4  10  23  41  72  95 130 177 228 268 333 401
#     4  11  24  42  67 100 132 175 225 278 330 397
#     4  10  18  36  62  98 120 162 218 264 316 380
#
# _framework density 26.214697999999999
#
# number of rings (size 3 to 8) (size 9 to 14) (size 15 to 20)
#    0.000    1.067    4.000    2.400    3.733    6.933 
#    0.000    0.000    0.000    0.000    0.000    0.000 
#    0.000    0.000    0.000    0.000    0.000    0.000 
#
# Total GULP energy -83778.104686 kJ/mol
# GULP energy per Si atom -5585.206979 kJ/mol
# Density = 2.615503 g / cm^3
# Si number density = 26.214698 Si / 1000 Ang^3
#
#
#
# Elastic Constant Matrix: (Units=GPa)
#
#
# Indices 1 2 3 4 5 6 
#
# 1 95.2237 27.2639 20.8975 12.4388 5.4214 3.6726
# 2 27.2639 156.1596 29.9615 -1.1052 7.4394 -1.6035
# 3 20.8975 29.9615 72.8223 -7.2387 21.0214 3.7369
# 4 12.4388 -1.1052 -7.2387 37.3616 2.6639 2.1285
# 5 5.4214 7.4394 21.0214 2.6639 33.8341 -0.4228
# 6 3.6726 -1.6035 3.7369 2.1285 -0.4228 48.3519
#
#
#
# Elastic Compliance Matrix: (Units=1/GPa)
#
#
# Indices 1 2 3 4 5 6 
#
# 1 0.012350 -0.001541 -0.003668 -0.004913 0.001020 -0.000480
# 2 -0.001541 0.007165 -0.002597 0.000170 0.000279 0.000550
# 3 -0.003668 -0.002597 0.019908 0.005933 -0.011699 -0.001710
# 4 -0.004913 0.000170 0.005933 0.030017 -0.005318 -0.001448
# 5 0.001020 0.000279 -0.011699 -0.005318 0.037036 0.001394
# 6 -0.000480 0.000550 -0.001710 -0.001448 0.001394 0.020944
#
#
# Mechanical properties :
#
#
# Convention : Reuss Voigt Hill
#
# Bulk Modulus (GPa) = 41.99956 53.38346 47.69151
# Shear Modulus (GPa) = 33.11925 40.31503 36.71714
#
# Velocity S-wave (km/s) = 3.55827 3.92583 3.74656
# Velocity P-wave (km/s) = 5.73915 6.39982 6.07847
#
# Compressibility (1/GPa) = 0.02380977
#
# Stress axis : x y z
#
# Youngs Moduli (GPa) = 80.97159 139.57479 50.23136
#
# Poissons Ratio (x) = 0.21504 0.18426
# Poissons Ratio (y) = 0.12475 0.13047
# Poissons Ratio (z) = 0.29703 0.36253
#
# Static dielectric constant tensor:
#      x y z
#    x 2.173390 0.034130 0.033300 
#    y 0.034130 2.082760 0.006020 
#    z 0.033300 0.006020 2.032980 
# 
# From -- ./inp_files/407260.got.cif
#   From: 2010.05.17/outbox.cif.g08.bks.cpg/sg2_204_cif.got.tgz:407260.got - 2010.06.03 11:33:40.
