data_PCOD9079870
_publ_section_title
;
Structure prediction by ZEFSAII (Michael W. Deem and Ramdas Pophale) SiO2 
 PCOD9079870
Probable space group: P -1
;
_chemical_formula_sum "Si O2"
_cell_formula_units_Z 16
_cell_length_a 15.010868
_cell_length_b 7.785555
_cell_length_c 14.477142
_cell_angle_alpha 38.101641
_cell_angle_beta 39.001910
_cell_angle_gamma 43.798153
_cell_volume 630.009443
_symmetry_space_group_name_H-M "P -1"
_symmetry_group_IT_number 2
_symmetry_cell_setting 'triclinic'
loop_
_space_group_symop_operation_xyz
x,y,z
-x,-y,-z
loop_
_atom_site_type_symbol
_atom_site_label
_atom_site_fract_x
_atom_site_fract_y
_atom_site_fract_z
Si Si1 0.507507 0.638078 0.704557
Si Si2 0.144524 0.184511 0.504244
Si Si3 0.667248 0.469232 0.357992
Si Si4 0.900457 0.926385 0.821697
Si Si5 0.414904 0.269635 0.191437
Si Si6 0.761860 0.815242 0.362923
Si Si7 0.605355 0.822312 0.087132
Si Si8 0.905231 0.723022 0.109531
O O1 0.543551 0.768085 0.717616
O O2 0.657490 0.593696 0.543015
O O3 0.461456 0.336274 0.871847
O O4 0.368654 0.884341 0.671207
O O5 0.241734 0.851379 0.554107
O O6 0.981522 0.162278 0.623578
O O7 0.236711 0.356083 0.297733
O O8 0.161707 0.229560 0.579726
O O9 0.500000 0.500000 0.500000
O O10 0.688464 0.549539 0.201110
O O11 0.737714 0.693999 0.255220
O O12 0.986863 0.602048 0.852732
O O13 0.732128 0.980352 0.902058
O O14 0.914508 0.897905 0.934701
O O15 0.482166 0.009989 0.176237
O O16 0.500000 0.500000 0.000000
O O17 0.893865 0.820924 0.183055
#
# Coordination Sequence:
#
# PCOD9079870 Si02
#       8
#     2   2   2   2   2   2   2   2
#     4  10  21  35  58  92 114 149 195 235 291 345
#     4  10  20  35  56  85 121 146 187 232 284 352
#     4  10  15  27  53  82 107 146 180 217 287 338
#     4   9  20  34  50  85 115 160 190 211 291 358
#     4  11  25  42  61  84 111 151 203 248 284 332
#     4  10  19  31  53  92 125 144 183 239 283 345
#     4  11  20  37  62  81 118 154 183 243 286 344
#     4   9  18  28  45  77 127 152 174 217 277 359
#
# _framework density 25.396443999999999
#
# number of rings (size 3 to 8) (size 9 to 14) (size 15 to 20)
#    0.000    2.000    2.500    3.000    3.500    1.000 
#    2.250    0.625    0.000    0.750    0.000    0.000 
#    0.000    0.000    0.000    0.000    0.000    0.000 
#
# Total GULP energy -89267.521713 kJ/mol
# GULP energy per Si atom -5579.220107 kJ/mol
# Density = 2.533864 g / cm^3
# Si number density = 25.396444 Si / 1000 Ang^3
#
#
#
# Elastic Constant Matrix: (Units=GPa)
#
#
# Indices 1 2 3 4 5 6 
#
# 1 55.9744 22.5646 35.3001 2.0948 -21.4437 -2.6254
# 2 22.5646 81.0469 36.6896 12.2518 -15.9751 0.9079
# 3 35.3001 36.6896 178.8025 20.9949 -33.8321 0.0916
# 4 2.0948 12.2518 20.9949 28.0543 -5.3222 -4.7140
# 5 -21.4437 -15.9751 -33.8321 -5.3222 39.6033 2.5804
# 6 -2.6254 0.9079 0.0916 -4.7140 2.5804 24.6520
#
#
#
# Elastic Compliance Matrix: (Units=1/GPa)
#
#
# Indices 1 2 3 4 5 6 
#
# 1 0.025140 -0.004532 -0.002679 0.004436 0.009919 0.002664
# 2 -0.004532 0.015428 -0.001223 -0.005467 0.002141 -0.002316
# 3 -0.002679 -0.001223 0.007680 -0.004495 0.004114 -0.001559
# 4 0.004436 -0.005467 -0.004495 0.042823 0.001544 0.008718
# 5 0.009919 0.002141 0.004114 0.001544 0.035366 -0.002445
# 6 0.002664 -0.002316 -0.001559 0.008718 -0.002445 0.042862
#
#
# Mechanical properties :
#
#
# Convention : Reuss Voigt Hill
#
# Bulk Modulus (GPa) = 31.86675 56.10360 43.98518
# Shear Modulus (GPa) = 25.42878 33.21323 29.32100
#
# Velocity S-wave (km/s) = 3.16772 3.62026 3.40153
# Velocity P-wave (km/s) = 5.09453 6.29398 5.72575
#
# Compressibility (1/GPa) = 0.03138067
#
# Stress axis : x y z
#
# Youngs Moduli (GPa) = 39.77648 64.81571 130.21536
#
# Poissons Ratio (x) = 0.29376 0.34883
# Poissons Ratio (y) = 0.18027 0.15923
# Poissons Ratio (z) = 0.10656 0.07926
#
# Static dielectric constant tensor:
#      x y z
#    x 2.354810 0.089930 0.018910 
#    y 0.089930 2.079050 -0.030820 
#    z 0.018910 -0.030820 2.139080 
# 
# From -- ./inp_files/576857.got.cif
#   From: 2010.05.17/outbox.cif.g08.bks.cpg/sg2_289_cif.got.tgz:576857.got - 2010.06.03 11:33:40.
