data_PCOD9079245
_publ_section_title
;
Structure prediction by ZEFSAII (Michael W. Deem and Ramdas Pophale) SiO2 
 PCOD9079245
Probable space group: P -1
;
_chemical_formula_sum "Si O2"
_cell_formula_units_Z 16
_cell_length_a 25.283746
_cell_length_b 5.648814
_cell_length_c 8.068661
_cell_angle_alpha 72.693698
_cell_angle_beta 142.555482
_cell_angle_gamma 117.935220
_cell_volume 613.028950
_symmetry_space_group_name_H-M "P -1"
_symmetry_group_IT_number 2
_symmetry_cell_setting 'triclinic'
loop_
_space_group_symop_operation_xyz
x,y,z
-x,-y,-z
loop_
_atom_site_type_symbol
_atom_site_label
_atom_site_fract_x
_atom_site_fract_y
_atom_site_fract_z
Si Si1 0.052417 0.309787 0.008908
Si Si2 0.648460 0.765877 0.814733
Si Si3 0.766631 0.251498 0.452918
Si Si4 0.104302 0.524925 0.541016
Si Si5 0.489567 0.739050 0.635184
Si Si6 0.142678 0.014973 0.759135
Si Si7 0.809833 0.806542 0.810454
Si Si8 0.355610 0.762446 0.538497
O O1 0.146164 0.490262 0.306267
O O2 0.020762 0.550532 0.217524
O O3 0.100605 0.269533 0.969107
O O4 0.000000 0.000000 0.000000
O O5 0.589716 0.723575 0.848716
O O6 0.590321 0.507139 0.610372
O O7 0.650753 0.011553 0.649940
O O8 0.755808 0.819851 0.108731
O O9 0.788095 0.326382 0.297669
O O10 0.676333 0.207331 0.357718
O O11 0.791032 0.988691 0.586542
O O12 0.087533 0.212717 0.574972
O O13 0.101514 0.718302 0.643701
O O14 0.457193 0.759588 0.738119
O O15 0.500000 0.000000 0.500000
O O16 0.170994 0.007308 0.020665
O O17 0.720567 0.525532 0.653035
#
# Coordination Sequence:
#
# PCOD9079245 Si02
#       8
#     2   2   2   2   2   2   2   2
#     4  11  24  44  68  91 126 169 234 276 312 380
#     4  10  19  36  60  98 129 169 203 274 320 383
#     4  11  23  41  69  89 122 175 229 270 313 380
#     4  12  28  43  64  95 133 181 211 269 341 393
#     4   9  18  31  63  97 126 160 218 265 315 372
#     4  12  26  43  63  97 143 165 211 268 343 393
#     4  11  23  39  70  90 126 174 217 277 318 377
#     4  10  18  36  64  97 124 158 226 271 311 372
#
# _framework density 26.099910000000001
#
# number of rings (size 3 to 8) (size 9 to 14) (size 15 to 20)
#    0.000    1.250    3.750    1.875    7.000    1.000 
#    0.000    0.000    0.000    1.500    0.000    0.000 
#    0.000    0.000    0.000    0.000    0.000    0.000 
#
# Total GULP energy -89395.858628 kJ/mol
# GULP energy per Si atom -5587.241164 kJ/mol
# Density = 2.604051 g / cm^3
# Si number density = 26.099910 Si / 1000 Ang^3
#
#
#
# Elastic Constant Matrix: (Units=GPa)
#
#
# Indices 1 2 3 4 5 6 
#
# 1 159.1450 11.4916 -9.9363 -0.9815 20.1980 -12.6971
# 2 11.4916 184.9401 23.4187 14.6396 6.7308 -0.6650
# 3 -9.9363 23.4187 30.8951 12.8776 7.2084 -8.8615
# 4 -0.9815 14.6396 12.8776 31.3329 -6.1310 5.7479
# 5 20.1980 6.7308 7.2084 -6.1310 35.4264 6.2561
# 6 -12.6971 -0.6650 -8.8615 5.7479 6.2561 39.4840
#
#
#
# Elastic Compliance Matrix: (Units=1/GPa)
#
#
# Indices 1 2 3 4 5 6 
#
# 1 0.008898 -0.001015 0.011237 -0.007253 -0.009831 0.007980
# 2 -0.001015 0.006153 -0.005542 -0.000190 0.000781 -0.001563
# 3 0.011237 -0.005542 0.072690 -0.038864 -0.032275 0.030606
# 4 -0.007253 -0.000190 -0.038864 0.057177 0.026128 -0.023521
# 5 -0.009831 0.000781 -0.032275 0.026128 0.048641 -0.021902
# 6 0.007980 -0.001563 0.030606 -0.023521 -0.021902 0.041630
#
#
# Mechanical properties :
#
#
# Convention : Reuss Voigt Hill
#
# Bulk Modulus (GPa) = 10.29855 47.21424 28.75639
# Shear Modulus (GPa) = 19.36512 44.58240 31.97376
#
# Velocity S-wave (km/s) = 2.72685 4.13745 3.50387
# Velocity P-wave (km/s) = 3.72407 6.39951 5.23557
#
# Compressibility (1/GPa) = 0.09710108
#
# Stress axis : x y z
#
# Youngs Moduli (GPa) = 112.38331 162.52303 13.75702
#
# Poissons Ratio (x) = 0.16500 -0.15459
# Poissons Ratio (y) = 0.11409 0.07624
# Poissons Ratio (z) = -1.26285 0.90067
#
# Static dielectric constant tensor:
#      x y z
#    x 2.304670 0.005790 -0.043780 
#    y 0.005790 1.969020 -0.023280 
#    z -0.043780 -0.023280 2.044570 
# 
# From -- ./inp_files/355907.got.cif
#   From: 2010.05.17/outbox.cif.g08.bks.cpg/sg2_178_cif.got.tgz:355907.got - 2010.06.03 11:33:40.
