data_PCOD9079705
_publ_section_title
;
Structure prediction by ZEFSAII (Michael W. Deem and Ramdas Pophale) SiO2 
 PCOD9079705
Probable space group: P -1
;
_chemical_formula_sum "Si O2"
_cell_formula_units_Z 16
_cell_length_a 12.436380
_cell_length_b 9.982131
_cell_length_c 16.592701
_cell_angle_alpha 142.018835
_cell_angle_beta 130.366848
_cell_angle_gamma 75.858778
_cell_volume 795.086188
_symmetry_space_group_name_H-M "P -1"
_symmetry_group_IT_number 2
_symmetry_cell_setting 'triclinic'
loop_
_space_group_symop_operation_xyz
x,y,z
-x,-y,-z
loop_
_atom_site_type_symbol
_atom_site_label
_atom_site_fract_x
_atom_site_fract_y
_atom_site_fract_z
Si Si1 0.972823 0.774159 0.441461
Si Si2 0.177123 0.619928 0.947146
Si Si3 0.732826 0.857656 0.979942
Si Si4 0.712643 0.338361 0.219313
Si Si5 0.260891 0.243026 0.885937
Si Si6 0.475747 0.102629 0.854543
Si Si7 0.932852 0.006922 0.882350
Si Si8 0.641522 0.426456 0.405595
O O1 0.801138 0.593035 0.324489
O O2 0.962395 0.559712 0.275008
O O3 0.000000 0.000000 0.500000
O O4 0.112045 0.934292 0.653609
O O5 0.360314 0.789820 0.070746
O O6 0.128200 0.797197 0.050912
O O7 0.194654 0.424307 0.919189
O O8 0.562166 0.693243 0.762570
O O9 0.682451 0.716517 0.975376
O O10 0.901426 0.886532 0.042703
O O11 0.787002 0.159728 0.161171
O O12 0.706986 0.418948 0.344599
O O13 0.530683 0.141047 0.993962
O O14 0.389348 0.263381 0.889021
O O15 0.356677 0.787526 0.638878
O O16 0.769126 0.719000 0.640439
O O17 0.000000 0.000000 0.000000
#
# Coordination Sequence:
#
# PCOD9079705 Si02
#       8
#     2   2   2   2   2   2   2   2
#     4   9  20  35  58  89 121 158 202 254 308 357
#     4  10  24  41  55  91 132 166 205 248 307 386
#     4  11  23  40  67  95 122 163 206 265 313 361
#     4  10  18  37  63  94 123 147 210 272 305 357
#     4  11  20  38  66  93 119 158 211 258 321 358
#     4  10  19  36  67  90 121 156 200 270 313 349
#     4  12  27  42  62  88 129 171 204 251 312 383
#     4  11  22  40  65  97 122 154 214 263 310 366
#
# _framework density 20.123605999999999
#
# number of rings (size 3 to 8) (size 9 to 14) (size 15 to 20)
#    0.000    1.500    2.500    4.125    3.500    3.500 
#    0.000    0.625    0.000    0.000    0.000    0.000 
#    0.000    0.000    0.000    0.000    0.000    0.000 
#
# Total GULP energy -89111.299088 kJ/mol
# GULP energy per Si atom -5569.456193 kJ/mol
# Density = 2.007780 g / cm^3
# Si number density = 20.123606 Si / 1000 Ang^3
#
#
#
# Elastic Constant Matrix: (Units=GPa)
#
#
# Indices 1 2 3 4 5 6 
#
# 1 110.4142 32.3980 37.3999 21.4280 5.7150 -23.8092
# 2 32.3980 72.4019 29.0542 13.6306 4.3570 -12.1116
# 3 37.3999 29.0542 125.4649 16.0301 -1.1671 -11.2299
# 4 21.4280 13.6306 16.0301 27.9985 -2.7784 -2.9721
# 5 5.7150 4.3570 -1.1671 -2.7784 21.2423 5.2343
# 6 -23.8092 -12.1116 -11.2299 -2.9721 5.2343 39.5994
#
#
#
# Elastic Compliance Matrix: (Units=1/GPa)
#
#
# Indices 1 2 3 4 5 6 
#
# 1 0.013889 -0.002276 -0.001964 -0.008242 -0.006256 0.007306
# 2 -0.002276 0.017749 -0.002441 -0.005595 -0.004776 0.003579
# 3 -0.001964 -0.002441 0.009501 -0.002593 0.001107 0.000426
# 4 -0.008242 -0.005595 -0.002593 0.046725 0.010640 -0.005302
# 5 -0.006256 -0.004776 0.001107 0.010640 0.053961 -0.011242
# 6 0.007306 0.003579 0.000426 -0.005302 -0.011242 0.031949
#
#
# Mechanical properties :
#
#
# Convention : Reuss Voigt Hill
#
# Bulk Modulus (GPa) = 36.00237 56.22057 46.11147
# Shear Modulus (GPa) = 25.45872 31.72997 28.59434
#
# Velocity S-wave (km/s) = 3.56071 3.97514 3.77362
# Velocity P-wave (km/s) = 5.90206 7.00480 6.47694
#
# Compressibility (1/GPa) = 0.02777595
#
# Stress axis : x y z
#
# Youngs Moduli (GPa) = 72.00086 56.33973 105.25422
#
# Poissons Ratio (x) = 0.12825 0.20674
# Poissons Ratio (y) = 0.16390 0.25691
# Poissons Ratio (z) = 0.14143 0.13752
#
# Static dielectric constant tensor:
#      x y z
#    x 1.767380 -0.026510 0.049990 
#    y -0.026510 1.773320 -0.022500 
#    z 0.049990 -0.022500 1.756890 
# 
# From -- ./inp_files/281834.got.cif
#   From: 2010.05.17/outbox.cif.g08.bks.cpg/sg2_141_cif.got.tgz:281834.got - 2010.06.03 11:33:40.
