data_PCOD9079700
_publ_section_title
;
Structure prediction by ZEFSAII (Michael W. Deem and Ramdas Pophale) SiO2 
 PCOD9079700
Probable space group: P -1
;
_chemical_formula_sum "Si O2"
_cell_formula_units_Z 14
_cell_length_a 7.603323
_cell_length_b 8.364381
_cell_length_c 11.353955
_cell_angle_alpha 88.471690
_cell_angle_beta 127.896982
_cell_angle_gamma 92.863591
_cell_volume 569.085120
_symmetry_space_group_name_H-M "P -1"
_symmetry_group_IT_number 2
_symmetry_cell_setting 'triclinic'
loop_
_space_group_symop_operation_xyz
x,y,z
-x,-y,-z
loop_
_atom_site_type_symbol
_atom_site_label
_atom_site_fract_x
_atom_site_fract_y
_atom_site_fract_z
Si Si1 0.926612 0.822800 0.638635
Si Si2 0.469190 0.095258 0.163642
Si Si3 0.589164 0.616077 0.141054
Si Si4 0.516794 0.123810 0.614888
Si Si5 0.230578 0.848379 0.950634
Si Si6 0.281347 0.645398 0.628337
Si Si7 0.945648 0.200923 0.683398
O O1 0.679080 0.763432 0.503267
O O2 0.994590 0.793131 0.802455
O O3 0.091244 0.728596 0.626045
O O4 0.956660 0.019129 0.637589
O O5 0.622213 0.119767 0.110076
O O6 0.490532 0.254649 0.245316
O O7 0.556075 0.966740 0.294761
O O8 0.241803 0.012730 0.023765
O O9 0.676270 0.523397 0.292417
O O10 0.807482 0.725730 0.192130
O O11 0.500000 0.500000 0.000000
O O12 0.375015 0.718891 0.076879
O O13 0.772972 0.182628 0.720978
O O14 0.500000 0.000000 0.500000
O O15 0.190077 0.681991 0.461279
#
# Coordination Sequence:
#
# PCOD9079700 Si02
#       7
#     2   2   2   2   2   2   2
#     4  10  20  36  65  94 115 151 203 255 295 354
#     4  10  18  37  63  92 117 154 201 252 300 349
#     4  12  23  39  59  87 128 157 205 247 294 358
#     4  10  21  38  62  93 127 150 194 255 312 354
#     4  10  22  36  61  96 118 157 205 251 298 346
#     4  11  21  36  64  91 117 157 207 252 292 346
#     4  11  23  39  60  93 119 158 197 252 307 351
#
# _framework density 24.600888999999999
#
# number of rings (size 3 to 8) (size 9 to 14) (size 15 to 20)
#    0.000    1.429    5.714    3.429    4.000    0.000 
#    0.000    8.571    0.000    1.714    0.000    0.000 
#    0.000    0.000    0.000    0.000    0.000    0.000 
#
# Total GULP energy -78076.660542 kJ/mol
# GULP energy per Si atom -5576.904324 kJ/mol
# Density = 2.454490 g / cm^3
# Si number density = 24.600889 Si / 1000 Ang^3
#
#
#
# Elastic Constant Matrix: (Units=GPa)
#
#
# Indices 1 2 3 4 5 6 
#
# 1 65.6377 25.2707 23.2265 -6.4765 16.7823 3.9646
# 2 25.2707 76.5782 46.8100 -13.2236 17.7888 -1.3988
# 3 23.2265 46.8100 63.4351 -17.0146 9.4697 -6.3919
# 4 -6.4765 -13.2236 -17.0146 57.3529 -3.5376 4.5705
# 5 16.7823 17.7888 9.4697 -3.5376 28.7460 8.6823
# 6 3.9646 -1.3988 -6.3919 4.5705 8.6823 9.1769
#
#
#
# Elastic Compliance Matrix: (Units=1/GPa)
#
#
# Indices 1 2 3 4 5 6 
#
# 1 0.020045 -0.001607 -0.005728 0.000304 -0.006782 -0.006630
# 2 -0.001607 0.026639 -0.017154 -0.000041 -0.010829 0.003073
# 3 -0.005728 -0.017154 0.035050 0.003214 -0.005655 0.028022
# 4 0.000304 -0.000041 0.003214 0.019709 0.004963 -0.012411
# 5 -0.006782 -0.010829 -0.005655 0.004963 0.069265 -0.070664
# 6 -0.006630 0.003073 0.028022 -0.012411 -0.070664 0.204857
#
#
# Mechanical properties :
#
#
# Convention : Reuss Voigt Hill
#
# Bulk Modulus (GPa) = 30.52863 44.02948 37.27906
# Shear Modulus (GPa) = 11.48207 26.41139 18.94673
#
# Velocity S-wave (km/s) = 2.16275 3.28013 2.77819
# Velocity P-wave (km/s) = 4.32124 5.68173 5.04753
#
# Compressibility (1/GPa) = 0.03275614
#
# Stress axis : x y z
#
# Youngs Moduli (GPa) = 49.88786 37.53876 28.53104
#
# Poissons Ratio (x) = 0.06032 0.16342
# Poissons Ratio (y) = 0.08016 0.48942
# Poissons Ratio (z) = 0.28575 0.64394
#
# Static dielectric constant tensor:
#      x y z
#    x 2.015120 0.030800 0.037720 
#    y 0.030800 2.075480 0.010580 
#    z 0.037720 0.010580 2.055030 
# 
# From -- ./inp_files/378930.got.cif
#   From: 2010.05.17/outbox.cif.g08.bks.cpg/sg2_190_cif.got.tgz:378930.got - 2010.06.03 11:33:40.
