data_PCOD9079308
_publ_section_title
;
Structure prediction by ZEFSAII (Michael W. Deem and Ramdas Pophale) SiO2 
 PCOD9079308
Probable space group: P -1
;
_chemical_formula_sum "Si O2"
_cell_formula_units_Z 12
_cell_length_a 6.846961
_cell_length_b 17.597702
_cell_length_c 7.746812
_cell_angle_alpha 125.660818
_cell_angle_beta 121.801850
_cell_angle_gamma 37.944864
_cell_volume 462.091486
_symmetry_space_group_name_H-M "P -1"
_symmetry_group_IT_number 2
_symmetry_cell_setting 'triclinic'
loop_
_space_group_symop_operation_xyz
x,y,z
-x,-y,-z
loop_
_atom_site_type_symbol
_atom_site_label
_atom_site_fract_x
_atom_site_fract_y
_atom_site_fract_z
Si Si1 0.081507 0.772023 0.389604
Si Si2 0.176821 0.064500 0.837382
Si Si3 0.653575 0.505669 0.852193
Si Si4 0.549734 0.782063 0.630481
Si Si5 0.869361 0.251784 0.244042
Si Si6 0.044782 0.558149 0.758751
O O1 0.131407 0.647779 0.275298
O O2 0.413174 0.724632 0.414132
O O3 0.053802 0.818723 0.632353
O O4 0.838843 0.875484 0.269949
O O5 0.241414 0.936581 0.677940
O O6 0.906648 0.175183 0.992078
O O7 0.500000 0.000000 0.000000
O O8 0.490598 0.602986 0.741666
O O9 0.320990 0.556127 0.841565
O O10 0.846491 0.508367 0.091324
O O11 0.847761 0.749879 0.637140
O O12 0.711070 0.711290 0.796241
O O13 0.000000 0.500000 0.500000
#
# Coordination Sequence:
#
# PCOD9079308 Si02
#       6
#     2   2   2   2   2   2
#     4  12  22  41  67  92 129 169 211 267 319 377
#     4  10  22  42  62  90 130 168 213 263 317 379
#     4  10  20  37  62  95 130 163 213 267 313 380
#     4  10  22  39  63  95 124 166 215 259 316 381
#     4  10  24  41  65  93 128 171 210 264 321 375
#     4  10  18  36  66  91 126 171 205 260 326 369
#
# _framework density 25.968882000000001
#
# number of rings (size 3 to 8) (size 9 to 14) (size 15 to 20)
#    0.000    1.667    1.667    5.000    0.000    3.333 
#    0.000    5.833    0.000    0.000    0.000    0.000 
#    0.000    0.000    0.000    0.000    0.000    0.000 
#
# Total GULP energy -66935.638899 kJ/mol
# GULP energy per Si atom -5577.969908 kJ/mol
# Density = 2.590978 g / cm^3
# Si number density = 25.968882 Si / 1000 Ang^3
#
#
#
# Elastic Constant Matrix: (Units=GPa)
#
#
# Indices 1 2 3 4 5 6 
#
# 1 73.9097 30.0746 33.7121 -16.0406 -10.0455 23.4628
# 2 30.0746 165.9331 74.9604 -33.7741 -19.0822 38.4018
# 3 33.7121 74.9604 129.4473 -28.4437 -12.4399 18.7528
# 4 -16.0406 -33.7741 -28.4437 59.9230 6.3416 -5.2716
# 5 -10.0455 -19.0822 -12.4399 6.3416 45.8905 -19.6702
# 6 23.4628 38.4018 18.7528 -5.2716 -19.6702 38.7003
#
#
#
# Elastic Compliance Matrix: (Units=1/GPa)
#
#
# Indices 1 2 3 4 5 6 
#
# 1 0.018628 0.001229 -0.003371 0.003259 -0.001596 -0.011248
# 2 0.001229 0.010475 -0.004414 0.003443 -0.000901 -0.008990
# 3 -0.003371 -0.004414 0.011475 0.002100 0.000946 0.001630
# 4 0.003259 0.003443 0.002100 0.020306 -0.002114 -0.004718
# 5 -0.001596 -0.000901 0.000946 -0.002114 0.028248 0.015473
# 6 -0.011248 -0.008990 0.001630 -0.004718 0.015473 0.048011
#
#
# Mechanical properties :
#
#
# Convention : Reuss Voigt Hill
#
# Bulk Modulus (GPa) = 36.40687 71.86492 54.13590
# Shear Modulus (GPa) = 31.36532 44.27230 37.81881
#
# Velocity S-wave (km/s) = 3.47912 4.13343 3.82031
# Velocity P-wave (km/s) = 5.49444 7.10731 6.35227
#
# Compressibility (1/GPa) = 0.02746734
#
# Stress axis : x y z
#
# Youngs Moduli (GPa) = 53.68165 95.46169 87.14282
#
# Poissons Ratio (x) = -0.11736 0.29378
# Poissons Ratio (y) = -0.06600 0.38465
# Poissons Ratio (z) = 0.18098 0.42137
#
# Static dielectric constant tensor:
#      x y z
#    x 2.143540 0.053570 -0.028540 
#    y 0.053570 2.316550 0.191720 
#    z -0.028540 0.191720 2.230100 
# 
# From -- ./inp_files/219921.got.cif
#   From: 2010.05.17/outbox.cif.g08.bks.cpg/sg2_110_cif.got.tgz:219921.got - 2010.06.03 11:33:40.
