data_PCOD9079990
_publ_section_title
;
Structure prediction by ZEFSAII (Michael W. Deem and Ramdas Pophale) SiO2 
 PCOD9079990
Probable space group: P -1
;
_chemical_formula_sum "Si O2"
_cell_formula_units_Z 16
_cell_length_a 11.740117
_cell_length_b 12.012409
_cell_length_c 10.790288
_cell_angle_alpha 81.073721
_cell_angle_beta 62.219961
_cell_angle_gamma 34.873863
_cell_volume 687.778093
_symmetry_space_group_name_H-M "P -1"
_symmetry_group_IT_number 2
_symmetry_cell_setting 'triclinic'
loop_
_space_group_symop_operation_xyz
x,y,z
-x,-y,-z
loop_
_atom_site_type_symbol
_atom_site_label
_atom_site_fract_x
_atom_site_fract_y
_atom_site_fract_z
Si Si1 0.351183 0.711316 0.603467
Si Si2 0.648584 0.331664 0.117455
Si Si3 0.853395 0.767281 0.275250
Si Si4 0.817400 0.163064 0.796086
Si Si5 0.200799 0.252926 0.960484
Si Si6 0.631314 0.045378 0.903759
Si Si7 0.337800 0.348322 0.226064
Si Si8 0.382065 0.261682 0.488642
O O1 0.500000 0.500000 0.500000
O O2 0.253592 0.735277 0.781380
O O3 0.553258 0.659323 0.525259
O O4 0.096414 0.955220 0.635244
O O5 0.411280 0.593061 0.185675
O O6 0.550653 0.277598 0.163747
O O7 0.819175 0.211073 0.929420
O O8 0.833243 0.799770 0.133709
O O9 0.792520 0.680958 0.345363
O O10 0.115139 0.587032 0.238938
O O11 0.644467 0.999719 0.402460
O O12 0.733482 0.094950 0.833675
O O13 0.465980 0.119587 0.863252
O O14 0.000000 0.500000 0.000000
O O15 0.173693 0.192652 0.104203
O O16 0.436442 0.197347 0.091827
O O17 0.279180 0.332973 0.387771
#
# Coordination Sequence:
#
# PCOD9079990 Si02
#       8
#     2   2   2   2   2   2   2   2
#     4  11  24  42  61  90 127 165 206 259 310 364
#     4   9  21  39  65  93 119 159 207 255 309 366
#     4  11  21  37  63  87 116 164 198 245 306 363
#     4  10  21  41  64  90 122 162 209 252 304 371
#     4  11  22  38  58  89 125 153 192 252 308 364
#     4  10  22  37  58  91 122 155 196 252 308 356
#     4  10  18  38  60  87 121 150 200 251 299 359
#     4  10  23  39  58  86 121 158 210 243 294 369
#
# _framework density 23.263318000000002
#
# number of rings (size 3 to 8) (size 9 to 14) (size 15 to 20)
#    0.000    1.750    2.500    1.500    0.000    3.500 
#    2.250    2.500    0.000    0.000    0.000    0.000 
#    0.000    0.000    0.000    0.000    0.000    0.000 
#
# Total GULP energy -89302.396424 kJ/mol
# GULP energy per Si atom -5581.399777 kJ/mol
# Density = 2.321037 g / cm^3
# Si number density = 23.263318 Si / 1000 Ang^3
#
#
#
# Elastic Constant Matrix: (Units=GPa)
#
#
# Indices 1 2 3 4 5 6 
#
# 1 60.4271 4.7751 4.3469 2.5746 4.2059 11.0976
# 2 4.7751 102.2475 17.9886 8.4884 6.9708 0.8793
# 3 4.3469 17.9886 22.8913 9.9747 1.1786 -2.1832
# 4 2.5746 8.4884 9.9747 35.2675 4.3300 3.7236
# 5 4.2059 6.9708 1.1786 4.3300 17.7645 -2.0886
# 6 11.0976 0.8793 -2.1832 3.7236 -2.0886 43.4088
#
#
#
# Elastic Compliance Matrix: (Units=1/GPa)
#
#
# Indices 1 2 3 4 5 6 
#
# 1 0.018089 0.000204 -0.004264 0.000987 -0.004928 -0.005165
# 2 0.000204 0.011662 -0.009265 0.000423 -0.004230 -0.000994
# 3 -0.004264 -0.009265 0.058736 -0.015317 0.005163 0.005794
# 4 0.000987 0.000423 -0.015317 0.033975 -0.008175 -0.004339
# 5 -0.004928 -0.004230 0.005163 -0.008175 0.061387 0.005260
# 6 -0.005165 -0.000994 0.005794 -0.004339 0.005260 0.025294
#
#
# Mechanical properties :
#
#
# Convention : Reuss Voigt Hill
#
# Bulk Modulus (GPa) = 16.17136 26.64302 21.40719
# Shear Modulus (GPa) = 19.50043 29.85185 24.67614
#
# Velocity S-wave (km/s) = 2.89839 3.58609 3.26042
# Velocity P-wave (km/s) = 4.26233 5.35017 4.83693
#
# Compressibility (1/GPa) = 0.06183770
#
# Stress axis : x y z
#
# Youngs Moduli (GPa) = 55.28238 85.74536 17.02541
#
# Poissons Ratio (x) = -0.01748 0.07260
# Poissons Ratio (y) = -0.01127 0.15773
# Poissons Ratio (z) = 0.23572 0.79440
#
# Static dielectric constant tensor:
#      x y z
#    x 1.881160 -0.023610 -0.003010 
#    y -0.023610 1.924320 -0.033360 
#    z -0.003010 -0.033360 1.918840 
# 
# From -- ./inp_files/423664.got.cif
#   From: 2010.05.17/outbox.cif.g08.bks.cpg/sg2_212_cif.got.tgz:423664.got - 2010.06.03 11:33:40.
