data_PCOD9079075
_publ_section_title
;
Structure prediction by ZEFSAII (Michael W. Deem and Ramdas Pophale) SiO2 
 PCOD9079075
Probable space group: P -1
;
_chemical_formula_sum "Si O2"
_cell_formula_units_Z 15
_cell_length_a 11.404574
_cell_length_b 8.850475
_cell_length_c 16.992063
_cell_angle_alpha 85.767925
_cell_angle_beta 140.739358
_cell_angle_gamma 124.369699
_cell_volume 643.727222
_symmetry_space_group_name_H-M "P -1"
_symmetry_group_IT_number 2
_symmetry_cell_setting 'triclinic'
loop_
_space_group_symop_operation_xyz
x,y,z
-x,-y,-z
loop_
_atom_site_type_symbol
_atom_site_label
_atom_site_fract_x
_atom_site_fract_y
_atom_site_fract_z
Si Si1 0.066206 0.685938 0.755778
Si Si2 0.607496 0.876056 0.605102
Si Si3 0.704099 0.402898 0.245810
Si Si4 0.694315 0.026001 0.488318
Si Si5 0.500000 0.500000 0.000000
Si Si6 0.335221 0.243175 0.200182
Si Si7 0.500366 0.203616 0.910866
Si Si8 0.374057 0.232003 0.675906
O O1 0.200316 0.682109 0.750132
O O2 0.708823 0.402095 0.585203
O O3 0.164613 0.921454 0.778519
O O4 0.248129 0.747854 0.924831
O O5 0.538798 0.996166 0.602442
O O6 0.688463 0.820947 0.719654
O O7 0.835107 0.049088 0.642725
O O8 0.548539 0.277599 0.254022
O O9 0.020650 0.703284 0.414704
O O10 0.509814 0.379347 0.085125
O O11 0.561521 0.814764 0.369460
O O12 0.568404 0.408940 0.976873
O O13 0.472387 0.501741 0.255254
O O14 0.000000 0.000000 0.000000
O O15 0.495426 0.218733 0.814574
O O16 0.000000 0.000000 0.500000
#
# Coordination Sequence:
#
# PCOD9079075 Si02
#       8
#     2   2   2   2   1   2   2   2
#     4   9  21  39  66  97 126 170 226 270 325 382
#     4  10  24  45  66  96 134 172 218 278 331 393
#     4  10  21  39  67  93 126 177 216 262 330 393
#     4  10  23  43  70  93 126 180 222 265 329 394
#     4  10  18  36  62  86 126 166 208 258 310 396
#     4  12  27  43  63 103 138 168 218 276 339 384
#     4  10  20  37  63  95 128 168 224 265 319 394
#     4  12  23  43  67 100 132 177 223 269 328 400
#
# _framework density 23.301796
#
# number of rings (size 3 to 8) (size 9 to 14) (size 15 to 20)
#    0.000    1.600    2.667    0.800    3.733    3.733 
#    7.200    1.333    0.000    0.000    0.000    0.000 
#    0.000    0.000    0.000    0.000    0.000    0.000 
#
# Total GULP energy -83699.078050 kJ/mol
# GULP energy per Si atom -5579.938537 kJ/mol
# Density = 2.324876 g / cm^3
# Si number density = 23.301796 Si / 1000 Ang^3
#
#
#
# Elastic Constant Matrix: (Units=GPa)
#
#
# Indices 1 2 3 4 5 6 
#
# 1 82.1759 23.7020 24.4909 -0.2822 -23.3291 16.2432
# 2 23.7020 94.9331 37.9705 -4.7493 -12.0212 11.9022
# 3 24.4909 37.9705 71.9226 8.4549 -24.0203 9.4943
# 4 -0.2822 -4.7493 8.4549 34.6375 7.5825 -7.6643
# 5 -23.3291 -12.0212 -24.0203 7.5825 32.6253 -0.0260
# 6 16.2432 11.9022 9.4943 -7.6643 -0.0260 33.3073
#
#
#
# Elastic Compliance Matrix: (Units=1/GPa)
#
#
# Indices 1 2 3 4 5 6 
#
# 1 0.018688 -0.002677 0.002408 -0.006515 0.015655 -0.010330
# 2 -0.002677 0.014400 -0.008584 0.004877 -0.004063 -0.000274
# 3 0.002408 -0.008584 0.028361 -0.015252 0.022976 -0.009683
# 4 -0.006515 0.004877 -0.015252 0.041824 -0.023800 0.015388
# 5 0.015655 -0.004063 0.022976 -0.023800 0.062782 -0.018160
# 6 -0.010330 -0.000274 -0.009683 0.015388 -0.018160 0.041446
#
#
# Mechanical properties :
#
#
# Convention : Reuss Voigt Hill
#
# Bulk Modulus (GPa) = 22.86205 46.81761 34.83983
# Shear Modulus (GPa) = 20.85190 30.97191 25.91191
#
# Velocity S-wave (km/s) = 2.99467 3.64973 3.33830
# Velocity P-wave (km/s) = 4.66797 6.15598 5.46288
#
# Compressibility (1/GPa) = 0.04374061
#
# Stress axis : x y z
#
# Youngs Moduli (GPa) = 53.51169 69.44677 35.26028
#
# Poissons Ratio (x) = 0.18593 -0.08491
# Poissons Ratio (y) = 0.14327 0.30268
# Poissons Ratio (z) = -0.12886 0.59615
#
# Static dielectric constant tensor:
#      x y z
#    x 1.878440 -0.006210 -0.025080 
#    y -0.006210 1.919710 0.002860 
#    z -0.025080 0.002860 2.070370 
# 
# From -- ./inp_files/565959.got.cif
#   From: 2010.05.17/outbox.cif.g08.bks.cpg/sg2_283_cif.got.tgz:565959.got - 2010.06.03 11:33:40.
