data_PCOD9079828
_publ_section_title
;
Structure prediction by ZEFSAII (Michael W. Deem and Ramdas Pophale) SiO2 
 PCOD9079828
Probable space group: P -1
;
_chemical_formula_sum "Si O2"
_cell_formula_units_Z 14
_cell_length_a 9.966443
_cell_length_b 14.562094
_cell_length_c 10.188345
_cell_angle_alpha 41.990168
_cell_angle_beta 126.741878
_cell_angle_gamma 146.729858
_cell_volume 541.589464
_symmetry_space_group_name_H-M "P -1"
_symmetry_group_IT_number 2
_symmetry_cell_setting 'triclinic'
loop_
_space_group_symop_operation_xyz
x,y,z
-x,-y,-z
loop_
_atom_site_type_symbol
_atom_site_label
_atom_site_fract_x
_atom_site_fract_y
_atom_site_fract_z
Si Si1 0.958670 0.574817 0.064242
Si Si2 0.594453 0.513826 0.748787
Si Si3 0.730799 0.218369 0.453493
Si Si4 0.097724 0.701369 0.280019
Si Si5 0.347089 0.015891 0.777180
Si Si6 0.193587 0.168446 0.697593
Si Si7 0.325320 0.182647 0.343588
O O1 0.753199 0.486676 0.932449
O O2 0.931037 0.400802 0.278092
O O3 0.209760 0.788931 0.931383
O O4 0.948908 0.652485 0.116673
O O5 0.333582 0.303707 0.766201
O O6 0.724770 0.670577 0.536610
O O7 0.600372 0.628020 0.749772
O O8 0.854734 0.198484 0.659940
O O9 0.573095 0.258435 0.361841
O O10 0.500000 0.000000 0.500000
O O11 0.367903 0.833709 0.241524
O O12 0.000000 0.500000 0.500000
O O13 0.308332 0.090956 0.799806
O O14 0.238601 0.039836 0.569196
O O15 0.901414 0.965633 0.732006
#
# Coordination Sequence:
#
# PCOD9079828 Si02
#       7
#     2   2   2   2   2   2   2
#     4  11  20  39  63  90 127 160 216 265 309 372
#     4  10  20  36  63  99 123 160 210 256 320 374
#     4  10  24  44  60  85 126 170 215 257 319 378
#     4   9  21  40  60  85 124 173 200 253 322 365
#     4  10  18  37  66  91 126 165 208 258 316 371
#     4  10  19  37  63  97 129 159 207 255 320 382
#     4  10  19  42  64  86 134 164 196 267 318 374
#
# _framework density 25.849838999999999
#
# number of rings (size 3 to 8) (size 9 to 14) (size 15 to 20)
#    0.000    2.000    2.857    1.286    0.000    1.714 
#   23.143    4.286    0.000    0.000    0.000    0.000 
#    0.000    0.000    0.000    0.000    0.000    0.000 
#
# Total GULP energy -78066.308778 kJ/mol
# GULP energy per Si atom -5576.164913 kJ/mol
# Density = 2.579100 g / cm^3
# Si number density = 25.849839 Si / 1000 Ang^3
#
#
#
# Elastic Constant Matrix: (Units=GPa)
#
#
# Indices 1 2 3 4 5 6 
#
# 1 71.0079 44.8770 17.4675 -5.9087 2.7375 11.8960
# 2 44.8770 228.8911 49.3923 14.8676 -5.1609 7.3957
# 3 17.4675 49.3923 63.0144 12.0548 0.3045 1.0738
# 4 -5.9087 14.8676 12.0548 49.9279 9.6512 4.6858
# 5 2.7375 -5.1609 0.3045 9.6512 10.4733 -1.4095
# 6 11.8960 7.3957 1.0738 4.6858 -1.4095 34.0561
#
#
#
# Elastic Compliance Matrix: (Units=1/GPa)
#
#
# Indices 1 2 3 4 5 6 
#
# 1 0.019978 -0.003679 -0.004006 0.008154 -0.015484 -0.007816
# 2 -0.003679 0.006110 -0.003270 -0.002846 0.006789 0.000734
# 3 -0.004006 -0.003270 0.020534 -0.005500 0.004230 0.002394
# 4 0.008154 -0.002846 -0.005500 0.030082 -0.032108 -0.007524
# 5 -0.015484 0.006789 0.004230 -0.032108 0.134192 0.013773
# 6 -0.007816 0.000734 0.002394 -0.007524 0.013773 0.033464
#
#
# Mechanical properties :
#
#
# Convention : Reuss Voigt Hill
#
# Bulk Modulus (GPa) = 40.46608 65.15413 52.81011
# Shear Modulus (GPa) = 18.21437 35.63655 26.92546
#
# Velocity S-wave (km/s) = 2.65735 3.71698 3.23090
# Velocity P-wave (km/s) = 5.01035 6.60914 5.86449
#
# Compressibility (1/GPa) = 0.02471205
#
# Stress axis : x y z
#
# Youngs Moduli (GPa) = 50.05448 163.66354 48.69903
#
# Poissons Ratio (x) = 0.60206 0.19510
# Poissons Ratio (y) = 0.18413 0.15926
# Poissons Ratio (z) = 0.20053 0.53523
#
# Static dielectric constant tensor:
#      x y z
#    x 2.319600 -0.130170 -0.066150 
#    y -0.130170 2.205720 0.025960 
#    z -0.066150 0.025960 2.244510 
# 
# From -- ./inp_files/271889.got.cif
#   From: 2010.05.17/outbox.cif.g08.bks.cpg/sg2_136_cif.got.tgz:271889.got - 2010.06.03 11:33:40.
