data_PCOD9079066
_publ_section_title
;
Structure prediction by ZEFSAII (Michael W. Deem and Ramdas Pophale) SiO2 
 PCOD9079066
Probable space group: P -1
;
_chemical_formula_sum "Si O2"
_cell_formula_units_Z 14
_cell_length_a 9.038313
_cell_length_b 9.974965
_cell_length_c 9.009798
_cell_angle_alpha 93.619571
_cell_angle_beta 91.321637
_cell_angle_gamma 54.918563
_cell_volume 663.317366
_symmetry_space_group_name_H-M "P -1"
_symmetry_group_IT_number 2
_symmetry_cell_setting 'triclinic'
loop_
_space_group_symop_operation_xyz
x,y,z
-x,-y,-z
loop_
_atom_site_type_symbol
_atom_site_label
_atom_site_fract_x
_atom_site_fract_y
_atom_site_fract_z
Si Si1 0.455162 0.314409 0.578000
Si Si2 0.875538 0.669260 0.093850
Si Si3 0.468646 0.873497 0.137280
Si Si4 0.716215 0.850729 0.615319
Si Si5 0.804847 0.064589 0.433302
Si Si6 0.079615 0.537096 0.642075
Si Si7 0.861011 0.980200 0.083825
O O1 0.517352 0.247045 0.742489
O O2 0.372312 0.228993 0.478250
O O3 0.274443 0.498513 0.605348
O O4 0.640396 0.248059 0.491965
O O5 0.663294 0.781681 0.058882
O O6 0.882324 0.602011 0.252021
O O7 0.938391 0.788630 0.088104
O O8 0.000000 0.500000 0.000000
O O9 0.416836 0.027925 0.250202
O O10 0.317475 0.928799 0.015618
O O11 0.752874 0.949145 0.502758
O O12 0.910674 0.720191 0.689268
O O13 0.819763 0.047549 0.255379
O O14 0.000000 0.000000 0.500000
O O15 0.000000 0.500000 0.500000
O O16 0.000000 0.000000 0.000000
#
# Coordination Sequence:
#
# PCOD9079066 Si02
#       7
#     2   2   2   2   2   2   2
#     4   9  18  35  57  84 113 147 195 249 294 342
#     4  11  23  38  60  91 124 156 196 245 296 352
#     4  10  20  36  59  86 115 154 201 246 291 352
#     4  10  18  36  62  86 112 150 198 249 294 346
#     4  11  22  37  58  85 116 155 198 243 296 359
#     4   9  18  33  57  86 113 144 189 246 294 336
#     4  12  24  39  59  88 123 162 200 242 295 357
#
# _framework density 21.106034000000001
#
# number of rings (size 3 to 8) (size 9 to 14) (size 15 to 20)
#    0.000    1.714    0.000    8.143    0.000    2.286 
#    0.000    1.429    0.000    8.571    0.000    0.000 
#    0.000    0.000    0.000    0.000    0.000    0.000 
#
# Total GULP energy -78088.778184 kJ/mol
# GULP energy per Si atom -5577.769870 kJ/mol
# Density = 2.105800 g / cm^3
# Si number density = 21.106034 Si / 1000 Ang^3
#
#
#
# Elastic Constant Matrix: (Units=GPa)
#
#
# Indices 1 2 3 4 5 6 
#
# 1 104.2582 55.5843 55.5168 -6.5891 -17.4642 -20.4193
# 2 55.5843 120.5263 33.6698 1.0419 -13.6129 -39.0624
# 3 55.5168 33.6698 134.5545 -7.9654 0.2648 -16.1171
# 4 -6.5891 1.0419 -7.9654 38.7127 -10.2938 -5.2921
# 5 -17.4642 -13.6129 0.2648 -10.2938 34.3340 -7.1692
# 6 -20.4193 -39.0624 -16.1171 -5.2921 -7.1692 37.9625
#
#
#
# Elastic Compliance Matrix: (Units=1/GPa)
#
#
# Indices 1 2 3 4 5 6 
#
# 1 0.017715 -0.003326 -0.005352 0.005810 0.010874 0.006697
# 2 -0.003326 0.016764 -0.000497 0.003902 0.009813 0.017646
# 3 -0.005352 -0.000497 0.009833 0.000423 -0.002803 0.000314
# 4 0.005810 0.003902 0.000423 0.033634 0.017793 0.015369
# 5 0.010874 0.009813 -0.002803 0.017793 0.049453 0.026576
# 6 0.006697 0.017646 0.000314 0.015369 0.026576 0.055396
#
#
# Mechanical properties :
#
#
# Convention : Reuss Voigt Hill
#
# Bulk Modulus (GPa) = 38.51956 72.09786 55.30871
# Shear Modulus (GPa) = 23.83226 36.50637 30.16932
#
# Velocity S-wave (km/s) = 3.36396 4.16344 3.78486
# Velocity P-wave (km/s) = 5.77740 7.57273 6.73516
#
# Compressibility (1/GPa) = 0.02596084
#
# Stress axis : x y z
#
# Youngs Moduli (GPa) = 56.44820 59.65341 101.70077
#
# Poissons Ratio (x) = 0.19842 0.54432
# Poissons Ratio (y) = 0.18776 0.05055
# Poissons Ratio (z) = 0.30212 0.02965
#
# Static dielectric constant tensor:
#      x y z
#    x 1.795900 -0.027990 -0.057700 
#    y -0.027990 1.862150 0.037240 
#    z -0.057700 0.037240 1.768430 
# 
# From -- ./inp_files/187595.got.cif
#   From: 2010.05.17/outbox.cif.g08.bks.cpg/sg2_94_cif.got.tgz:187595.got - 2010.06.03 11:33:40.
