data_PCOD9079969
_publ_section_title
;
Structure prediction by ZEFSAII (Michael W. Deem and Ramdas Pophale) SiO2 
 PCOD9079969
Probable space group: P -1
;
_chemical_formula_sum "Si O2"
_cell_formula_units_Z 14
_cell_length_a 16.757027
_cell_length_b 19.193747
_cell_length_c 11.722839
_cell_angle_alpha 28.856411
_cell_angle_beta 39.830385
_cell_angle_gamma 21.986524
_cell_volume 660.572814
_symmetry_space_group_name_H-M "P -1"
_symmetry_group_IT_number 2
_symmetry_cell_setting 'triclinic'
loop_
_space_group_symop_operation_xyz
x,y,z
-x,-y,-z
loop_
_atom_site_type_symbol
_atom_site_label
_atom_site_fract_x
_atom_site_fract_y
_atom_site_fract_z
Si Si1 0.010208 0.303677 0.074870
Si Si2 0.544109 0.762754 0.918832
Si Si3 0.269844 0.556483 0.242912
Si Si4 0.352655 0.794884 0.862959
Si Si5 0.800229 0.777166 0.667209
Si Si6 0.571639 0.059123 0.752927
Si Si7 0.068497 0.272547 0.788891
O O1 0.770250 0.480393 0.128346
O O2 0.009290 0.473944 0.869883
O O3 0.235699 0.029434 0.271384
O O4 0.000604 0.307426 0.943515
O O5 0.466927 0.740450 0.930460
O O6 0.636071 0.836313 0.685211
O O7 0.328733 0.996585 0.893972
O O8 0.460504 0.379220 0.190440
O O9 0.363057 0.352226 0.523196
O O10 0.054665 0.711768 0.188824
O O11 0.256870 0.726790 0.067190
O O12 0.178273 0.084344 0.603528
O O13 0.684461 0.895550 0.746901
O O14 0.500000 0.000000 0.000000
O O15 0.000000 0.500000 0.500000
#
# Coordination Sequence:
#
# PCOD9079969 Si02
#       7
#     2   2   2   2   2   2   2
#     4  10  22  37  60  87 121 155 202 242 300 352
#     4  10  21  34  63  89 118 154 198 252 295 347
#     4  10  22  36  62  89 120 160 193 250 304 348
#     4  10  18  38  59  88 124 149 204 245 297 360
#     4   9  19  35  61  88 115 158 196 245 298 345
#     4  11  21  38  57  89 124 156 199 246 298 360
#     4  12  21  36  60  91 117 151 204 251 293 348
#
# _framework density 21.193728
#
# number of rings (size 3 to 8) (size 9 to 14) (size 15 to 20)
#    0.857    0.857    1.429    5.143    0.000    0.571 
#    0.000    0.714    0.000    3.429    0.000    0.000 
#    0.000    0.000    0.000    0.000    0.000    0.000 
#
# Total GULP energy -78053.482025 kJ/mol
# GULP energy per Si atom -5575.248716 kJ/mol
# Density = 2.114549 g / cm^3
# Si number density = 21.193728 Si / 1000 Ang^3
#
#
#
# Elastic Constant Matrix: (Units=GPa)
#
#
# Indices 1 2 3 4 5 6 
#
# 1 123.6156 18.9369 41.8825 -1.4362 -3.5533 -7.8908
# 2 18.9369 90.6803 18.2410 -15.2034 6.8482 -10.2462
# 3 41.8825 18.2410 44.2876 1.7144 -7.0203 -3.7733
# 4 -1.4362 -15.2034 1.7144 20.6000 -7.5735 6.3582
# 5 -3.5533 6.8482 -7.0203 -7.5735 31.8919 -7.6956
# 6 -7.8908 -10.2462 -3.7733 6.3582 -7.6956 32.5362
#
#
#
# Elastic Compliance Matrix: (Units=1/GPa)
#
#
# Indices 1 2 3 4 5 6 
#
# 1 0.012035 0.000216 -0.011515 0.001345 -0.000621 0.001242
# 2 0.000216 0.014294 -0.006644 0.010027 -0.001788 0.001401
# 3 -0.011515 -0.006644 0.037882 -0.006923 0.007473 0.002629
# 4 0.001345 0.010027 -0.006923 0.062356 0.009531 -0.007250
# 5 -0.000621 -0.001788 0.007473 0.009531 0.037295 0.007111
# 6 0.001242 0.001401 0.002629 -0.007250 0.007111 0.034881
#
#
# Mechanical properties :
#
#
# Convention : Reuss Voigt Hill
#
# Bulk Modulus (GPa) = 35.30436 46.30047 40.80241
# Shear Modulus (GPa) = 20.48594 28.97384 24.72989
#
# Velocity S-wave (km/s) = 3.11240 3.70144 3.41962
# Velocity P-wave (km/s) = 5.44152 6.33729 5.90641
#
# Compressibility (1/GPa) = 0.02832512
#
# Stress axis : x y z
#
# Youngs Moduli (GPa) = 83.09104 69.96156 26.39764
#
# Poissons Ratio (x) = -0.01509 0.30397
# Poissons Ratio (y) = -0.01793 0.17537
# Poissons Ratio (z) = 0.95680 0.46479
#
# Static dielectric constant tensor:
#      x y z
#    x 1.765220 -0.010460 0.008600 
#    y -0.010460 1.841010 -0.024660 
#    z 0.008600 -0.024660 1.791220 
# 
# From -- ./inp_files/456623.got.cif
#   From: 2010.05.17/outbox.cif.g08.bks.cpg/sg2_229_cif.got.tgz:456623.got - 2010.06.03 11:33:40.
