data_PCOD9079609
_publ_section_title
;
Structure prediction by ZEFSAII (Michael W. Deem and Ramdas Pophale) SiO2 
 PCOD9079609
Probable space group: P -1
;
_chemical_formula_sum "Si O2"
_cell_formula_units_Z 16
_cell_length_a 20.042098
_cell_length_b 20.140447
_cell_length_c 7.921231
_cell_angle_alpha 38.722090
_cell_angle_beta 146.662297
_cell_angle_gamma 159.584350
_cell_volume 612.908798
_symmetry_space_group_name_H-M "P -1"
_symmetry_group_IT_number 2
_symmetry_cell_setting 'triclinic'
loop_
_space_group_symop_operation_xyz
x,y,z
-x,-y,-z
loop_
_atom_site_type_symbol
_atom_site_label
_atom_site_fract_x
_atom_site_fract_y
_atom_site_fract_z
Si Si1 0.776441 0.404818 0.623956
Si Si2 0.602288 0.771597 0.055377
Si Si3 0.373985 0.087839 0.599987
Si Si4 0.279953 0.496195 0.164303
Si Si5 0.849491 0.141557 0.762276
Si Si6 0.312282 0.277926 0.009755
Si Si7 0.846039 0.373121 0.265327
Si Si8 0.031609 0.254627 0.450115
O O1 0.602611 0.314584 0.292877
O O2 0.870470 0.580384 0.556337
O O3 0.979899 0.495892 0.782365
O O4 0.615047 0.228621 0.767283
O O5 0.765473 0.986118 0.012530
O O6 0.510372 0.639980 0.280197
O O7 0.689739 0.759753 0.115722
O O8 0.214558 0.947875 0.379859
O O9 0.229722 0.926364 0.757169
O O10 0.373106 0.214443 0.361829
O O11 0.163378 0.357949 0.349700
O O12 0.306831 0.636915 0.010944
O O13 0.098427 0.345019 0.933832
O O14 0.744913 0.183464 0.453553
O O15 0.096464 0.184220 0.790721
O O16 0.500000 0.500000 0.000000
O O17 0.000000 0.500000 0.500000
#
# Coordination Sequence:
#
# PCOD9079609 Si02
#       8
#     2   2   2   2   2   2   2   2
#     4  10  19  38  61  85 117 144 203 241 274 340
#     4  10  20  39  62  86 115 150 200 244 282 342
#     4  10  21  38  65  84 112 153 202 239 279 346
#     4  11  24  37  57  88 125 153 188 240 302 338
#     4   9  19  38  59  83 115 149 200 236 272 345
#     4  10  20  38  66  87 106 155 202 236 287 348
#     4  10  18  37  62  85 115 159 196 234 283 348
#     4  12  22  39  59  88 122 151 188 248 293 343
#
# _framework density 26.105025999999999
#
# number of rings (size 3 to 8) (size 9 to 14) (size 15 to 20)
#    0.000    2.000    6.250    0.375    0.000    2.500 
#    2.250    3.125    0.000    0.000    0.000    0.000 
#    0.000    0.000    0.000    0.000    0.000    0.000 
#
# Total GULP energy -89351.887772 kJ/mol
# GULP energy per Si atom -5584.492986 kJ/mol
# Density = 2.604561 g / cm^3
# Si number density = 26.105026 Si / 1000 Ang^3
#
#
#
# Elastic Constant Matrix: (Units=GPa)
#
#
# Indices 1 2 3 4 5 6 
#
# 1 138.0925 62.3368 29.6673 -6.9527 9.9862 7.7455
# 2 62.3368 160.9011 12.9091 -31.3624 7.9657 14.4564
# 3 29.6673 12.9091 31.2874 -12.7284 14.3212 -4.2369
# 4 -6.9527 -31.3624 -12.7284 39.8936 -0.0745 5.8611
# 5 9.9862 7.9657 14.3212 -0.0745 36.5944 -6.6004
# 6 7.7455 14.4564 -4.2369 5.8611 -6.6004 52.6595
#
#
#
# Elastic Compliance Matrix: (Units=1/GPa)
#
#
# Indices 1 2 3 4 5 6 
#
# 1 0.011624 -0.004672 -0.012687 -0.005618 0.002711 -0.000483
# 2 -0.004672 0.009799 0.005198 0.008984 -0.003417 -0.003013
# 3 -0.012687 0.005198 0.060060 0.020955 -0.021077 0.000297
# 4 -0.005618 0.008984 0.020955 0.038618 -0.009527 -0.005446
# 5 0.002711 -0.003417 -0.021077 -0.009527 0.036365 0.004462
# 6 -0.000483 -0.003013 0.000297 -0.005446 0.004462 0.021077
#
#
# Mechanical properties :
#
#
# Convention : Reuss Voigt Hill
#
# Bulk Modulus (GPa) = 17.49430 60.01195 38.75313
# Shear Modulus (GPa) = 22.63284 40.85402 31.74343
#
# Velocity S-wave (km/s) = 2.94767 3.96028 3.49089
# Velocity P-wave (km/s) = 4.27797 6.62951 5.57904
#
# Compressibility (1/GPa) = 0.05716146
#
# Stress axis : x y z
#
# Youngs Moduli (GPa) = 86.02856 102.05269 16.65008
#
# Poissons Ratio (x) = 0.47674 0.21124
# Poissons Ratio (y) = 0.40189 -0.08654
# Poissons Ratio (z) = 1.09143 -0.53044
#
# Static dielectric constant tensor:
#      x y z
#    x 2.083140 0.075590 -0.114370 
#    y 0.075590 2.076350 0.018560 
#    z -0.114370 0.018560 2.269300 
# 
# From -- ./inp_files/238998.got.cif
#   From: 2010.05.17/outbox.cif.g08.bks.cpg/sg2_120_cif.got.tgz:238998.got - 2010.06.03 11:33:40.
