data_PCOD9079993
_publ_section_title
;
Structure prediction by ZEFSAII (Michael W. Deem and Ramdas Pophale) SiO2 
 PCOD9079993
Probable space group: P -1
;
_chemical_formula_sum "Si O2"
_cell_formula_units_Z 14
_cell_length_a 24.711410
_cell_length_b 14.803695
_cell_length_c 9.281498
_cell_angle_alpha 37.057334
_cell_angle_beta 146.309967
_cell_angle_gamma 160.410561
_cell_volume 629.635747
_symmetry_space_group_name_H-M "P -1"
_symmetry_group_IT_number 2
_symmetry_cell_setting 'triclinic'
loop_
_space_group_symop_operation_xyz
x,y,z
-x,-y,-z
loop_
_atom_site_type_symbol
_atom_site_label
_atom_site_fract_x
_atom_site_fract_y
_atom_site_fract_z
Si Si1 0.987404 0.517626 0.189180
Si Si2 0.159923 0.139857 0.585871
Si Si3 0.485326 0.802267 0.716329
Si Si4 0.114817 0.428711 0.381860
Si Si5 0.348178 0.096641 0.749247
Si Si6 0.593093 0.494309 0.563228
Si Si7 0.319730 0.129236 0.180303
O O1 0.106341 0.546669 0.331947
O O2 0.132552 0.811434 0.209437
O O3 0.826831 0.218072 0.283793
O O4 0.893336 0.499980 0.881621
O O5 0.259636 0.369139 0.399158
O O6 0.000000 0.000000 0.500000
O O7 0.068675 0.891807 0.607604
O O8 0.284734 0.219012 0.876788
O O9 0.275551 0.519322 0.630831
O O10 0.500000 0.000000 0.500000
O O11 0.562217 0.834530 0.698419
O O12 0.593862 0.875850 0.996710
O O13 0.513518 0.278899 0.776910
O O14 0.338154 0.265623 0.514360
O O15 0.426869 0.318485 0.315225
#
# Coordination Sequence:
#
# PCOD9079993 Si02
#       7
#     2   2   2   2   2   2   2
#     4  10  18  38  60  88 120 162 200 261 295 362
#     4  11  22  39  65  92 124 164 211 260 302 372
#     4  12  20  37  68  96 117 167 215 260 298 372
#     4  10  19  33  61  93 118 153 217 254 298 349
#     4  11  23  41  64  90 133 163 205 249 325 371
#     4  11  24  42  61  93 130 171 193 259 319 375
#     4  11  23  39  64  93 123 159 224 253 304 358
#
# _framework density 22.235078999999999
#
# number of rings (size 3 to 8) (size 9 to 14) (size 15 to 20)
#    0.000    1.143    5.714    2.143    2.000    0.571 
#    0.000    2.857    0.000    0.000    0.000    0.000 
#    0.000    0.000    0.000    0.000    0.000    0.000 
#
# Total GULP energy -78125.833242 kJ/mol
# GULP energy per Si atom -5580.416660 kJ/mol
# Density = 2.218447 g / cm^3
# Si number density = 22.235079 Si / 1000 Ang^3
#
#
#
# Elastic Constant Matrix: (Units=GPa)
#
#
# Indices 1 2 3 4 5 6 
#
# 1 68.6520 24.9007 13.5051 -7.7702 -0.2623 16.4366
# 2 24.9007 142.8078 12.3337 -20.3466 -14.2767 15.0536
# 3 13.5051 12.3337 16.5473 0.5138 5.5164 8.8875
# 4 -7.7702 -20.3466 0.5138 36.0027 7.7849 -0.8334
# 5 -0.2623 -14.2767 5.5164 7.7849 30.3996 1.3852
# 6 16.4366 15.0536 8.8875 -0.8334 1.3852 34.5400
#
#
#
# Elastic Compliance Matrix: (Units=1/GPa)
#
#
# Indices 1 2 3 4 5 6 
#
# 1 0.019063 -0.001090 -0.012394 0.003267 0.001310 -0.005381
# 2 -0.001090 0.008935 -0.006394 0.003906 0.004430 -0.001814
# 3 -0.012394 -0.006394 0.088525 -0.004077 -0.017515 -0.013490
# 4 0.003267 0.003906 -0.004077 0.031911 -0.005514 -0.001217
# 5 0.001310 0.004430 -0.017515 -0.005514 0.039566 0.000233
# 6 -0.005381 -0.001814 -0.013490 -0.001217 0.000233 0.035736
#
#
# Mechanical properties :
#
#
# Convention : Reuss Voigt Hill
#
# Bulk Modulus (GPa) = 13.02643 36.60957 24.81800
# Shear Modulus (GPa) = 17.29623 32.00630 24.65127
#
# Velocity S-wave (km/s) = 2.79208 3.79813 3.33328
# Velocity P-wave (km/s) = 4.03305 5.97786 5.09904
#
# Compressibility (1/GPa) = 0.07676701
#
# Stress axis : x y z
#
# Youngs Moduli (GPa) = 52.45834 111.91705 11.29625
#
# Poissons Ratio (x) = 0.12196 0.14000
# Poissons Ratio (y) = 0.05717 0.07223
# Poissons Ratio (z) = 0.65016 0.71563
#
# Static dielectric constant tensor:
#      x y z
#    x 1.895460 0.001210 0.009420 
#    y 0.001210 1.969030 -0.016100 
#    z 0.009420 -0.016100 1.781490 
# 
# From -- ./inp_files/243148.got.cif
#   From: 2010.05.17/outbox.cif.g08.bks.cpg/sg2_122_cif.got.tgz:243148.got - 2010.06.03 11:33:40.
