data_PCOD9079082
_publ_section_title
;
Structure prediction by ZEFSAII (Michael W. Deem and Ramdas Pophale) SiO2 
 PCOD9079082
Probable space group: P -1
;
_chemical_formula_sum "Si O2"
_cell_formula_units_Z 16
_cell_length_a 8.109208
_cell_length_b 11.590963
_cell_length_c 21.406666
_cell_angle_alpha 48.927039
_cell_angle_beta 27.094479
_cell_angle_gamma 53.804824
_cell_volume 690.775111
_symmetry_space_group_name_H-M "P -1"
_symmetry_group_IT_number 2
_symmetry_cell_setting 'triclinic'
loop_
_space_group_symop_operation_xyz
x,y,z
-x,-y,-z
loop_
_atom_site_type_symbol
_atom_site_label
_atom_site_fract_x
_atom_site_fract_y
_atom_site_fract_z
Si Si1 0.500962 0.341525 0.404659
Si Si2 0.839276 0.286071 0.188047
Si Si3 0.300681 0.696499 0.327179
Si Si4 0.901941 0.849714 0.147918
Si Si5 0.515653 0.320724 0.550224
Si Si6 0.213710 0.156572 0.373545
Si Si7 0.730015 0.197981 0.078235
Si Si8 0.678872 0.635663 0.103608
O O1 0.813713 0.290250 0.269592
O O2 0.451962 0.527270 0.356335
O O3 0.527400 0.282544 0.486741
O O4 0.121029 0.287040 0.523692
O O5 0.574052 0.161234 0.292525
O O6 0.665785 0.452846 0.167052
O O7 0.221993 0.286312 0.023046
O O8 0.550455 0.818128 0.233427
O O9 0.352725 0.697294 0.234074
O O10 0.803339 0.759066 0.275672
O O11 0.908549 0.030444 0.092908
O O12 0.230795 0.792235 0.013234
O O13 0.500000 0.500000 0.500000
O O14 0.908847 0.271696 0.460688
O O15 0.355230 0.199228 0.241318
O O16 0.000000 0.000000 0.500000
O O17 0.976278 0.325706 0.981959
#
# Coordination Sequence:
#
# PCOD9079082 Si02
#       8
#     2   2   2   2   2   2   2   2
#     4  10  20  32  53  84 117 148 195 240 289 342
#     4   9  18  34  58  84 110 153 194 242 288 350
#     4   9  17  32  56  82 110 154 197 231 286 359
#     4  10  18  36  62  87 116 155 201 244 295 352
#     4  12  24  37  57  93 125 153 195 255 296 342
#     4  11  22  39  63  89 118 157 202 240 299 361
#     4   9  19  35  63  88 113 157 204 239 289 364
#     4   8  16  31  56  84 108 142 207 240 273 341
#
# _framework density 23.162388
#
# number of rings (size 3 to 8) (size 9 to 14) (size 15 to 20)
#    0.000    2.250    2.500    0.750    3.500    0.000 
#    0.000    2.500    0.000    6.750    0.000    0.000 
#    0.000    0.000    0.000    0.000    0.000    0.000 
#
# Total GULP energy -89312.208155 kJ/mol
# GULP energy per Si atom -5582.013010 kJ/mol
# Density = 2.310967 g / cm^3
# Si number density = 23.162388 Si / 1000 Ang^3
#
#
#
# Elastic Constant Matrix: (Units=GPa)
#
#
# Indices 1 2 3 4 5 6 
#
# 1 70.4983 5.2572 31.3255 -0.3058 28.3872 18.3167
# 2 5.2572 47.0652 17.0235 0.0761 -1.2574 15.2336
# 3 31.3255 17.0235 157.5608 10.2289 35.1454 8.6542
# 4 -0.3058 0.0761 10.2289 41.9746 21.3048 -0.4917
# 5 28.3872 -1.2574 35.1454 21.3048 50.6753 6.2471
# 6 18.3167 15.2336 8.6542 -0.4917 6.2471 21.0942
#
#
#
# Elastic Compliance Matrix: (Units=1/GPa)
#
#
# Indices 1 2 3 4 5 6 
#
# 1 0.025294 0.003920 -0.001846 0.007170 -0.013351 -0.019917
# 2 0.003920 0.030539 -0.003687 -0.002023 0.005114 -0.025507
# 3 -0.001846 -0.003687 0.008108 0.000738 -0.005303 0.002527
# 4 0.007170 -0.002023 0.000738 0.033201 -0.018690 0.001241
# 5 -0.013351 0.005114 -0.005303 -0.018690 0.039114 -0.001944
# 6 -0.019917 -0.025507 0.002527 0.001241 -0.001944 0.082689
#
#
# Mechanical properties :
#
#
# Convention : Reuss Voigt Hill
#
# Bulk Modulus (GPa) = 16.47019 42.48185 29.47602
# Shear Modulus (GPa) = 20.62624 37.51672 29.07148
#
# Velocity S-wave (km/s) = 2.98737 4.02895 3.54660
# Velocity P-wave (km/s) = 4.36181 6.32645 5.43366
#
# Compressibility (1/GPa) = 0.06071577
#
# Stress axis : x y z
#
# Youngs Moduli (GPa) = 39.53439 32.74532 123.33102
#
# Poissons Ratio (x) = -0.12838 0.22766
# Poissons Ratio (y) = -0.15499 0.45476
# Poissons Ratio (z) = 0.07298 0.12074
#
# Static dielectric constant tensor:
#      x y z
#    x 1.886510 0.022960 0.039870 
#    y 0.022960 1.834990 0.035180 
#    z 0.039870 0.035180 1.932720 
# 
# From -- ./inp_files/391097.got.cif
#   From: 2010.05.17/outbox.cif.g08.bks.cpg/sg2_196_cif.got.tgz:391097.got - 2010.06.03 11:33:40.
