data_PCOD9079600
_publ_section_title
;
Structure prediction by ZEFSAII (Michael W. Deem and Ramdas Pophale) SiO2 
 PCOD9079600
Probable space group: P -1
;
_chemical_formula_sum "Si O2"
_cell_formula_units_Z 16
_cell_length_a 8.764830
_cell_length_b 19.109279
_cell_length_c 20.865403
_cell_angle_alpha 160.222669
_cell_angle_beta 145.578059
_cell_angle_gamma 37.672711
_cell_volume 666.311780
_symmetry_space_group_name_H-M "P -1"
_symmetry_group_IT_number 2
_symmetry_cell_setting 'triclinic'
loop_
_space_group_symop_operation_xyz
x,y,z
-x,-y,-z
loop_
_atom_site_type_symbol
_atom_site_label
_atom_site_fract_x
_atom_site_fract_y
_atom_site_fract_z
Si Si1 0.378764 0.158514 0.416899
Si Si2 0.432316 0.136156 0.261313
Si Si3 0.092830 0.469370 0.878949
Si Si4 0.603143 0.750094 0.906007
Si Si5 0.821321 0.135729 0.818493
Si Si6 0.883026 0.463091 0.498894
Si Si7 0.966332 0.890548 0.545922
Si Si8 0.052279 0.796256 0.297674
O O1 0.411862 0.138803 0.334289
O O2 0.631147 0.247927 0.616773
O O3 0.116869 0.307773 0.474361
O O4 0.335154 0.928298 0.229147
O O5 0.205580 0.309901 0.308042
O O6 0.735743 0.199065 0.406957
O O7 0.438296 0.913278 0.036810
O O8 0.778232 0.563313 0.842165
O O9 0.114651 0.383188 0.884375
O O10 0.140392 0.271113 0.678837
O O11 0.252522 0.650466 0.059981
O O12 0.389618 0.653736 0.703395
O O13 0.853141 0.857075 0.051279
O O14 0.786255 0.954424 0.598827
O O15 0.000000 0.500000 0.500000
O O16 0.006385 0.109297 0.711314
O O17 0.000000 0.000000 0.500000
#
# Coordination Sequence:
#
# PCOD9079600 Si02
#       8
#     2   2   2   2   2   2   2   2
#     4  11  21  37  57  91 118 147 193 245 283 335
#     4  10  18  37  62  84 112 153 195 233 278 340
#     4   9  17  36  60  81 113 152 190 228 281 343
#     4   9  19  36  59  84 113 155 188 224 292 346
#     4   9  22  36  56  87 124 146 188 238 293 341
#     4  10  20  35  61  83 118 149 191 240 278 332
#     4  10  18  38  63  82 112 160 192 234 281 343
#     4  10  19  35  65  83 107 156 203 229 282 345
#
# _framework density 24.012785000000001
#
# number of rings (size 3 to 8) (size 9 to 14) (size 15 to 20)
#    0.750    1.500    3.750    0.750    0.000    3.500 
#    0.000   10.000    0.000    0.000    0.000    0.000 
#    0.000    0.000    0.000    0.000    0.000    0.000 
#
# Total GULP energy -89249.600654 kJ/mol
# GULP energy per Si atom -5578.100041 kJ/mol
# Density = 2.395813 g / cm^3
# Si number density = 24.012785 Si / 1000 Ang^3
#
#
#
# Elastic Constant Matrix: (Units=GPa)
#
#
# Indices 1 2 3 4 5 6 
#
# 1 42.1045 14.5702 34.1368 9.8751 7.1608 -7.4248
# 2 14.5702 102.0972 22.1801 16.8159 1.1163 -27.5984
# 3 34.1368 22.1801 85.1235 18.3264 2.8313 -2.5070
# 4 9.8751 16.8159 18.3264 29.6422 -1.6740 3.9955
# 5 7.1608 1.1163 2.8313 -1.6740 37.6729 5.8278
# 6 -7.4248 -27.5984 -2.5070 3.9955 5.8278 27.6314
#
#
#
# Elastic Compliance Matrix: (Units=1/GPa)
#
#
# Indices 1 2 3 4 5 6 
#
# 1 0.041190 0.003450 -0.014560 -0.009475 -0.009832 0.016637
# 2 0.003450 0.017781 -0.002454 -0.012873 -0.004874 0.021354
# 3 -0.014560 -0.002454 0.019086 -0.004869 0.001858 -0.004320
# 4 -0.009475 -0.012873 -0.004869 0.051075 0.008695 -0.025064
# 5 -0.009832 -0.004874 0.001858 0.008695 0.031151 -0.015169
# 6 0.016637 0.021354 -0.004320 -0.025064 -0.015169 0.068421
#
#
# Mechanical properties :
#
#
# Convention : Reuss Voigt Hill
#
# Bulk Modulus (GPa) = 19.63574 41.23327 30.43451
# Shear Modulus (GPa) = 18.32797 29.55184 23.93991
#
# Velocity S-wave (km/s) = 2.76571 3.51190 3.16090
# Velocity P-wave (km/s) = 4.28880 5.80114 5.10133
#
# Compressibility (1/GPa) = 0.05092753
#
# Stress axis : x y z
#
# Youngs Moduli (GPa) = 24.27798 56.23971 52.39579
#
# Poissons Ratio (x) = -0.19404 0.76289
# Poissons Ratio (y) = -0.08377 0.12860
# Poissons Ratio (z) = 0.35349 0.13803
#
# Static dielectric constant tensor:
#      x y z
#    x 1.925820 -0.018660 0.016210 
#    y -0.018660 1.963250 0.041560 
#    z 0.016210 0.041560 1.946650 
# 
# From -- ./inp_files/608614.got.cif
#   From: 2010.05.17/outbox.cif.g08.bks.cpg/sg2_305_cif.got.tgz:608614.got - 2010.06.03 11:33:40.
