data_PCOD9079177
_publ_section_title
;
Structure prediction by ZEFSAII (Michael W. Deem and Ramdas Pophale) SiO2 
 PCOD9079177
Probable space group: P -1
;
_chemical_formula_sum "Si O2"
_cell_formula_units_Z 16
_cell_length_a 15.310095
_cell_length_b 6.197674
_cell_length_c 12.588712
_cell_angle_alpha 92.044533
_cell_angle_beta 41.469406
_cell_angle_gamma 74.881780
_cell_volume 712.004662
_symmetry_space_group_name_H-M "P -1"
_symmetry_group_IT_number 2
_symmetry_cell_setting 'triclinic'
loop_
_space_group_symop_operation_xyz
x,y,z
-x,-y,-z
loop_
_atom_site_type_symbol
_atom_site_label
_atom_site_fract_x
_atom_site_fract_y
_atom_site_fract_z
Si Si1 0.945205 0.134869 0.790351
Si Si2 0.723688 0.059339 0.544521
Si Si3 0.253019 0.246795 0.273246
Si Si4 0.354799 0.200743 0.579998
Si Si5 0.057814 0.715078 0.430721
Si Si6 0.504451 0.570866 0.696636
Si Si7 0.306445 0.048250 0.998469
Si Si8 0.234556 0.461551 0.896037
O O1 0.917852 0.313893 0.718709
O O2 0.833285 0.015273 0.878862
O O3 0.904951 0.302325 0.933991
O O4 0.114883 0.955358 0.620445
O O5 0.600932 0.327703 0.664895
O O6 0.716599 0.914017 0.653156
O O7 0.696294 0.929813 0.464726
O O8 0.212525 0.527263 0.335876
O O9 0.338844 0.122584 0.086968
O O10 0.086256 0.299389 0.393886
O O11 0.401542 0.384427 0.479904
O O12 0.235855 0.339207 0.780752
O O13 0.500000 0.000000 0.500000
O O14 0.000000 0.000000 0.500000
O O15 0.366465 0.541126 0.773907
O O16 0.440978 0.804705 0.832971
O O17 0.277024 0.257039 0.944003
#
# Coordination Sequence:
#
# PCOD9079177 Si02
#       8
#     2   2   2   2   2   2   2   2
#     4  10  23  39  66 103 136 168 222 267 333 395
#     4  11  26  42  64 107 134 174 221 279 327 397
#     4  10  22  37  63  98 142 171 219 260 329 404
#     4  12  24  46  72  89 126 182 230 277 337 387
#     4  10  18  36  63  93 134 185 206 254 323 399
#     4  11  24  44  69  96 126 177 231 271 333 393
#     4  11  21  41  70  99 131 182 212 272 332 399
#     4  11  23  43  72  95 125 176 233 272 328 402
#
# _framework density 22.471762999999999
#
# number of rings (size 3 to 8) (size 9 to 14) (size 15 to 20)
#    0.000    1.250    5.000    0.375    0.000    4.000 
#    0.000    3.750    0.000    0.000    0.000    0.000 
#    0.000    0.000    0.000    0.000    0.000    0.000 
#
# Total GULP energy -89349.838406 kJ/mol
# GULP energy per Si atom -5584.364900 kJ/mol
# Density = 2.242062 g / cm^3
# Si number density = 22.471763 Si / 1000 Ang^3
#
#
#
# Elastic Constant Matrix: (Units=GPa)
#
#
# Indices 1 2 3 4 5 6 
#
# 1 58.0754 7.9096 30.1888 1.1630 20.3104 1.9169
# 2 7.9096 67.2118 19.9824 10.6449 14.4554 -10.9209
# 3 30.1888 19.9824 108.8525 10.5268 34.4754 2.8402
# 4 1.1630 10.6449 10.5268 43.6544 10.5740 -1.5527
# 5 20.3104 14.4554 34.4754 10.5740 43.5392 -2.8580
# 6 1.9169 -10.9209 2.8402 -1.5527 -2.8580 25.9063
#
#
#
# Elastic Compliance Matrix: (Units=1/GPa)
#
#
# Indices 1 2 3 4 5 6 
#
# 1 0.021973 -0.000513 -0.003671 0.002252 -0.007863 -0.002172
# 2 -0.000513 0.017824 -0.002158 -0.002876 -0.002791 0.007308
# 3 -0.003671 -0.002158 0.013332 -0.000725 -0.008152 -0.003043
# 4 0.002252 -0.002876 -0.000725 0.025074 -0.005639 -0.000419
# 5 -0.007863 -0.002791 -0.008152 -0.005639 0.035642 0.003893
# 6 -0.002172 0.007308 -0.003043 -0.000419 0.003893 0.042580
#
#
# Mechanical properties :
#
#
# Convention : Reuss Voigt Hill
#
# Bulk Modulus (GPa) = 24.72476 38.92237 31.82356
# Shear Modulus (GPa) = 27.38357 34.35725 30.87041
#
# Velocity S-wave (km/s) = 3.49460 3.91437 3.71042
# Velocity P-wave (km/s) = 5.22584 6.14718 5.70514
#
# Compressibility (1/GPa) = 0.04044529
#
# Stress axis : x y z
#
# Youngs Moduli (GPa) = 45.50950 56.10548 75.00666
#
# Poissons Ratio (x) = 0.02879 0.27532
# Poissons Ratio (y) = 0.02335 0.16188
# Poissons Ratio (z) = 0.16705 0.12109
#
# Static dielectric constant tensor:
#      x y z
#    x 1.921700 0.179110 0.032030 
#    y 0.179110 2.670750 0.134190 
#    z 0.032030 0.134190 1.864830 
# 
# From -- ./inp_files/441887.got.cif
#   From: 2010.05.17/outbox.cif.g08.bks.cpg/sg2_221_cif.got.tgz:441887.got - 2010.06.03 11:33:40.
