data_PCOD9079986
_publ_section_title
;
Structure prediction by ZEFSAII (Michael W. Deem and Ramdas Pophale) SiO2 
 PCOD9079986
Probable space group: P -1
;
_chemical_formula_sum "Si O2"
_cell_formula_units_Z 14
_cell_length_a 9.136410
_cell_length_b 16.522202
_cell_length_c 6.171646
_cell_angle_alpha 68.697561
_cell_angle_beta 48.241575
_cell_angle_gamma 57.082001
_cell_volume 583.382125
_symmetry_space_group_name_H-M "P -1"
_symmetry_group_IT_number 2
_symmetry_cell_setting 'triclinic'
loop_
_space_group_symop_operation_xyz
x,y,z
-x,-y,-z
loop_
_atom_site_type_symbol
_atom_site_label
_atom_site_fract_x
_atom_site_fract_y
_atom_site_fract_z
Si Si1 0.775662 0.494016 0.660040
Si Si2 0.609838 0.350648 0.375156
Si Si3 0.450578 0.797543 0.676766
Si Si4 0.715789 0.854566 0.993402
Si Si5 0.623988 0.029988 0.161343
Si Si6 0.634750 0.637720 0.994946
Si Si7 0.961523 0.346389 0.290048
O O1 0.619009 0.566353 0.561121
O O2 0.632968 0.547246 0.957737
O O3 0.847169 0.388331 0.593020
O O4 0.000000 0.500000 0.500000
O O5 0.676883 0.259433 0.242518
O O6 0.795759 0.383112 0.217927
O O7 0.561259 0.319150 0.688197
O O8 0.309086 0.895235 0.852097
O O9 0.612891 0.718897 0.762090
O O10 0.592555 0.816600 0.328738
O O11 0.544648 0.909752 0.918969
O O12 0.912341 0.766908 0.770022
O O13 0.778382 0.931124 0.984412
O O14 0.500000 0.000000 0.500000
O O15 0.854514 0.614898 0.931012
#
# Coordination Sequence:
#
# PCOD9079986 Si02
#       7
#     2   2   2   2   2   2   2
#     4   9  22  40  59  87 119 158 203 236 294 353
#     4  11  22  38  61  87 124 155 193 249 290 348
#     4  10  18  38  60  85 120 156 198 238 295 355
#     4  10  19  36  62  88 117 156 195 250 290 348
#     4   9  18  33  61  90 116 154 200 236 300 355
#     4  10  21  41  57  85 118 163 194 240 298 343
#     4  11  21  39  59  90 118 154 202 242 298 346
#
# _framework density 23.997993000000001
#
# number of rings (size 3 to 8) (size 9 to 14) (size 15 to 20)
#    0.000    2.000    2.857    0.429    0.000    2.857 
#    7.714    0.714    0.000   12.000    0.000    0.000 
#    0.000    0.000    0.000    0.000    0.000    0.000 
#
# Total GULP energy -78080.545545 kJ/mol
# GULP energy per Si atom -5577.181825 kJ/mol
# Density = 2.394337 g / cm^3
# Si number density = 23.997993 Si / 1000 Ang^3
#
#
#
# Elastic Constant Matrix: (Units=GPa)
#
#
# Indices 1 2 3 4 5 6 
#
# 1 134.9653 51.1369 34.7368 12.4303 24.2050 23.8530
# 2 51.1369 157.6646 61.3135 36.8245 33.1715 28.3626
# 3 34.7368 61.3135 67.6433 3.4878 18.6420 9.6793
# 4 12.4303 36.8245 3.4878 65.4854 7.4858 33.7489
# 5 24.2050 33.1715 18.6420 7.4858 27.8206 14.6860
# 6 23.8530 28.3626 9.6793 33.7489 14.6860 50.9923
#
#
#
# Elastic Compliance Matrix: (Units=1/GPa)
#
#
# Indices 1 2 3 4 5 6 
#
# 1 0.009601 -0.000867 -0.002597 0.000710 -0.004323 -0.002741
# 2 -0.000867 0.013077 -0.009154 -0.006556 -0.007691 0.001424
# 3 -0.002597 -0.009154 0.025631 0.005096 -0.005133 -0.000453
# 4 0.000710 -0.006556 0.005096 0.026604 0.005521 -0.016851
# 5 -0.004323 -0.007691 -0.005133 0.005521 0.057689 -0.012995
# 6 -0.002741 0.001424 -0.000453 -0.016851 -0.012995 0.035082
#
#
# Mechanical properties :
#
#
# Convention : Reuss Voigt Hill
#
# Bulk Modulus (GPa) = 43.34271 72.73862 58.04066
# Shear Modulus (GPa) = 24.92372 43.06538 33.99455
#
# Velocity S-wave (km/s) = 3.22619 4.24080 3.76780
# Velocity P-wave (km/s) = 5.65490 7.37260 6.57013
#
# Compressibility (1/GPa) = 0.02307193
#
# Stress axis : x y z
#
# Youngs Moduli (GPa) = 104.16048 76.47010 39.01493
#
# Poissons Ratio (x) = 0.06631 0.10133
# Poissons Ratio (y) = 0.09032 0.35714
# Poissons Ratio (z) = 0.27053 0.70001
#
# Static dielectric constant tensor:
#      x y z
#    x 1.958440 0.013830 -0.009000 
#    y 0.013830 1.941580 0.013780 
#    z -0.009000 0.013780 1.943920 
# 
# From -- ./inp_files/44030.got.cif
#   From: 2010.05.17/outbox.cif.g08.bks.cpg/sg2_23_cif.got.tgz:44030.got - 2010.06.03 11:33:40.
