data_PCOD9079189
_publ_section_title
;
Structure prediction by ZEFSAII (Michael W. Deem and Ramdas Pophale) SiO2 
 PCOD9079189
Probable space group: P -1
;
_chemical_formula_sum "Si O2"
_cell_formula_units_Z 16
_cell_length_a 11.720468
_cell_length_b 10.343637
_cell_length_c 12.017337
_cell_angle_alpha 66.493598
_cell_angle_beta 142.984826
_cell_angle_gamma 121.615013
_cell_volume 746.364582
_symmetry_space_group_name_H-M "P -1"
_symmetry_group_IT_number 2
_symmetry_cell_setting 'triclinic'
loop_
_space_group_symop_operation_xyz
x,y,z
-x,-y,-z
loop_
_atom_site_type_symbol
_atom_site_label
_atom_site_fract_x
_atom_site_fract_y
_atom_site_fract_z
Si Si1 0.699533 0.720794 0.331448
Si Si2 0.278131 0.951004 0.226831
Si Si3 0.834352 0.758523 0.905111
Si Si4 0.150217 0.184178 0.341902
Si Si5 0.905534 0.317461 0.395497
Si Si6 0.720084 0.095724 0.502188
Si Si7 0.258022 0.951159 0.811813
Si Si8 0.648492 0.484316 0.023171
O O1 0.719093 0.737678 0.474359
O O2 0.487308 0.637001 0.132278
O O3 0.853777 0.639566 0.442264
O O4 0.779152 0.894039 0.291197
O O5 0.490980 0.005402 0.309763
O O6 0.230676 0.102626 0.156715
O O7 0.302076 0.889028 0.388472
O O8 0.079361 0.825958 0.064262
O O9 0.766555 0.718917 0.738256
O O10 0.754420 0.634481 0.981040
O O11 0.164464 0.019693 0.387445
O O12 0.910570 0.145224 0.196020
O O13 0.805495 0.158286 0.305986
O O14 0.828192 0.261065 0.477712
O O15 0.813155 0.429587 0.229461
O O16 0.500000 0.000000 0.000000
O O17 0.500000 0.500000 0.000000
#
# Coordination Sequence:
#
# PCOD9079189 Si02
#       8
#     2   2   2   2   2   2   2   2
#     4  11  23  43  65  99 134 167 219 274 323 386
#     4   9  21  38  65  89 130 168 217 277 320 375
#     4  10  23  43  60  95 129 172 226 264 321 391
#     4  10  21  38  67  96 128 164 218 280 320 380
#     4  11  22  40  67  98 129 168 219 267 324 389
#     4  10  18  36  64 100 122 164 218 270 330 377
#     4  11  20  38  70 101 127 164 219 274 330 376
#     4  12  28  44  64  94 135 182 218 260 335 397
#
# _framework density 21.437244
#
# number of rings (size 3 to 8) (size 9 to 14) (size 15 to 20)
#    0.000    1.500    3.750    1.500    3.500    2.000 
#    6.750    2.500    0.000    0.000    0.000    0.000 
#    0.000    0.000    0.000    0.000    0.000    0.000 
#
# Total GULP energy -89323.299426 kJ/mol
# GULP energy per Si atom -5582.706214 kJ/mol
# Density = 2.138845 g / cm^3
# Si number density = 21.437244 Si / 1000 Ang^3
#
#
#
# Elastic Constant Matrix: (Units=GPa)
#
#
# Indices 1 2 3 4 5 6 
#
# 1 80.2791 21.1265 26.9306 -16.7404 -5.9016 14.9472
# 2 21.1265 69.6607 24.0612 -26.0049 -19.3477 9.0743
# 3 26.9306 24.0612 75.3635 -20.8605 1.5000 3.7270
# 4 -16.7404 -26.0049 -20.8605 41.8174 3.8243 -13.4078
# 5 -5.9016 -19.3477 1.5000 3.8243 38.4247 -6.8867
# 6 14.9472 9.0743 3.7270 -13.4078 -6.8867 17.0202
#
#
#
# Elastic Compliance Matrix: (Units=1/GPa)
#
#
# Indices 1 2 3 4 5 6 
#
# 1 0.017025 -0.002413 -0.005065 -0.001695 -0.000780 -0.014207
# 2 -0.002413 0.023425 -0.003686 0.012207 0.011173 0.004574
# 3 -0.005065 -0.003686 0.017937 0.007115 -0.002795 0.006959
# 4 -0.001695 0.012207 0.007115 0.043515 0.006730 0.030425
# 5 -0.000780 0.011173 -0.002795 0.006730 0.033516 0.014203
# 6 -0.014207 0.004574 0.006959 0.030425 0.014203 0.096982
#
#
# Mechanical properties :
#
#
# Convention : Reuss Voigt Hill
#
# Bulk Modulus (GPa) = 27.73236 41.05999 34.39617
# Shear Modulus (GPa) = 18.74448 29.66479 24.20463
#
# Velocity S-wave (km/s) = 2.96021 3.72398 3.36384
# Velocity P-wave (km/s) = 4.96472 6.13888 5.58275
#
# Compressibility (1/GPa) = 0.03605895
#
# Stress axis : x y z
#
# Youngs Moduli (GPa) = 58.73781 42.69005 55.75218
#
# Poissons Ratio (x) = 0.10300 0.28236
# Poissons Ratio (y) = 0.14172 0.20552
# Poissons Ratio (z) = 0.29748 0.15737
#
# Static dielectric constant tensor:
#      x y z
#    x 1.810740 0.007070 -0.007100 
#    y 0.007070 1.750890 0.018300 
#    z -0.007100 0.018300 1.847700 
# 
# From -- ./inp_files/427906.got.cif
#   From: 2010.05.17/outbox.cif.g08.bks.cpg/sg2_214_cif.got.tgz:427906.got - 2010.06.03 11:33:40.
