data_PCOD9079453
_publ_section_title
;
Structure prediction by ZEFSAII (Michael W. Deem and Ramdas Pophale) SiO2 
 PCOD9079453
Probable space group: P -1
;
_chemical_formula_sum "Si O2"
_cell_formula_units_Z 16
_cell_length_a 15.476926
_cell_length_b 15.286435
_cell_length_c 9.608970
_cell_angle_alpha 54.255057
_cell_angle_beta 141.855393
_cell_angle_gamma 143.734113
_cell_volume 822.801856
_symmetry_space_group_name_H-M "P -1"
_symmetry_group_IT_number 2
_symmetry_cell_setting 'triclinic'
loop_
_space_group_symop_operation_xyz
x,y,z
-x,-y,-z
loop_
_atom_site_type_symbol
_atom_site_label
_atom_site_fract_x
_atom_site_fract_y
_atom_site_fract_z
Si Si1 0.267223 0.445346 0.391001
Si Si2 0.911115 0.827117 0.414188
Si Si3 0.697327 0.629154 0.765285
Si Si4 0.808887 0.370124 0.791451
Si Si5 0.362542 0.820280 0.994724
Si Si6 0.981109 0.547543 0.581758
Si Si7 0.274420 0.378730 0.872136
Si Si8 0.289490 0.153647 0.613081
O O1 0.107667 0.296591 0.413637
O O2 0.466906 0.485795 0.618319
O O3 0.218320 0.414484 0.194316
O O4 0.311854 0.584234 0.382392
O O5 0.818006 0.763680 0.205837
O O6 0.788609 0.842747 0.341731
O O7 0.129861 0.979901 0.534194
O O8 0.723083 0.756170 0.599106
O O9 0.764523 0.661532 0.977385
O O10 0.878086 0.407138 0.686730
O O11 0.709050 0.226213 0.891307
O O12 0.000000 0.500000 0.000000
O O13 0.177942 0.700793 0.765689
O O14 0.503797 0.793224 0.169930
O O15 0.500000 0.000000 0.000000
O O16 0.833343 0.568206 0.354203
O O17 0.000000 0.500000 0.500000
O O18 0.500000 0.500000 0.000000
#
# Coordination Sequence:
#
# PCOD9079453 Si02
#       8
#     2   2   2   2   2   2   2   2
#     4  10  18  37  58  89 119 152 215 250 299 366
#     4  10  21  38  61  92 126 161 210 260 315 372
#     4  10  21  33  62  92 118 161 204 261 308 368
#     4  10  21  37  62  86 118 169 211 256 304 380
#     4  11  24  43  67  91 129 174 218 261 321 386
#     4  11  26  42  64 100 132 168 213 266 326 384
#     4  12  23  37  64  92 130 161 204 262 318 368
#     4  10  22  40  63  91 125 167 212 262 310 378
#
# _framework density 19.445751999999999
#
# number of rings (size 3 to 8) (size 9 to 14) (size 15 to 20)
#    0.000    1.500    3.750    0.750    7.000    0.500 
#    0.000    0.625    0.000    0.000    0.000    0.000 
#    0.000    0.000    0.000    0.000    0.000    0.000 
#
# Total GULP energy -89138.767884 kJ/mol
# GULP energy per Si atom -5571.172993 kJ/mol
# Density = 1.940149 g / cm^3
# Si number density = 19.445752 Si / 1000 Ang^3
#
#
#
# Elastic Constant Matrix: (Units=GPa)
#
#
# Indices 1 2 3 4 5 6 
#
# 1 119.6270 27.2259 61.2471 2.8663 -31.4230 7.9575
# 2 27.2259 121.7690 33.1247 1.7379 -16.4477 22.0822
# 3 61.2471 33.1247 105.3190 4.5752 -13.5132 6.4395
# 4 2.8663 1.7379 4.5752 26.6101 0.6906 -5.2347
# 5 -31.4230 -16.4477 -13.5132 0.6906 51.9323 -1.5776
# 6 7.9575 22.0822 6.4395 -5.2347 -1.5776 28.8604
#
#
#
# Elastic Compliance Matrix: (Units=1/GPa)
#
#
# Indices 1 2 3 4 5 6 
#
# 1 0.013827 0.000108 -0.007073 -0.000866 0.006507 -0.002118
# 2 0.000108 0.010670 -0.002528 -0.001881 0.002574 -0.007831
# 3 -0.007073 -0.002528 0.014271 -0.001419 -0.001337 0.000370
# 4 -0.000866 -0.001881 -0.001419 0.039882 -0.001742 0.009133
# 5 0.006507 0.002574 -0.001337 -0.001742 0.023608 -0.002491
# 6 -0.002118 -0.007831 0.000370 0.009133 -0.002491 0.042663
#
#
# Mechanical properties :
#
#
# Convention : Reuss Voigt Hill
#
# Bulk Modulus (GPa) = 50.55034 65.54559 58.04797
# Shear Modulus (GPa) = 29.32543 36.48838 32.90691
#
# Velocity S-wave (km/s) = 3.88759 4.33646 4.11815
# Velocity P-wave (km/s) = 6.79729 7.67159 7.24764
#
# Compressibility (1/GPa) = 0.01978226
#
# Stress axis : x y z
#
# Youngs Moduli (GPa) = 72.32318 93.71717 70.07374
#
# Poissons Ratio (x) = -0.01012 0.49561
# Poissons Ratio (y) = -0.00781 0.17715
# Poissons Ratio (z) = 0.51152 0.23692
#
# Static dielectric constant tensor:
#      x y z
#    x 1.658830 0.019750 -0.060530 
#    y 0.019750 1.698320 0.008600 
#    z -0.060530 0.008600 1.656760 
# 
# From -- ./inp_files/312889.got.cif
#   From: 2010.05.17/outbox.cif.g08.bks.cpg/sg2_157_cif.got.tgz:312889.got - 2010.06.03 11:33:40.
