data_PCOD9079409
_publ_section_title
;
Structure prediction by ZEFSAII (Michael W. Deem and Ramdas Pophale) SiO2 
 PCOD9079409
Probable space group: P -1
;
_chemical_formula_sum "Si O2"
_cell_formula_units_Z 16
_cell_length_a 20.158550
_cell_length_b 8.222410
_cell_length_c 12.522624
_cell_angle_alpha 98.899307
_cell_angle_beta 40.888098
_cell_angle_gamma 131.900483
_cell_volume 703.113847
_symmetry_space_group_name_H-M "P -1"
_symmetry_group_IT_number 2
_symmetry_cell_setting 'triclinic'
loop_
_space_group_symop_operation_xyz
x,y,z
-x,-y,-z
loop_
_atom_site_type_symbol
_atom_site_label
_atom_site_fract_x
_atom_site_fract_y
_atom_site_fract_z
Si Si1 0.054479 0.256438 0.087528
Si Si2 0.470908 0.131046 0.994336
Si Si3 0.198567 0.429846 0.701155
Si Si4 0.589669 0.864341 0.161529
Si Si5 0.993288 0.545956 0.197462
Si Si6 0.392757 0.316540 0.226365
Si Si7 0.949762 0.797986 0.689265
Si Si8 0.892903 0.651509 0.509393
O O1 0.949993 0.291535 0.210308
O O2 0.160207 0.393564 0.087686
O O3 0.195653 0.440724 0.833425
O O4 0.919259 0.904467 0.212987
O O5 0.354652 0.992846 0.011508
O O6 0.689893 0.462710 0.717829
O O7 0.407942 0.144906 0.176341
O O8 0.500000 0.000000 0.000000
O O9 0.408593 0.706430 0.419624
O O10 0.088467 0.438017 0.788494
O O11 0.510987 0.572351 0.199481
O O12 0.774343 0.122799 0.038877
O O13 0.918098 0.525267 0.396527
O O14 0.168917 0.049774 0.474829
O O15 0.500000 0.500000 0.000000
O O16 0.902216 0.637688 0.622702
O O17 0.948593 0.990592 0.679966
#
# Coordination Sequence:
#
# PCOD9079409 Si02
#       8
#     2   2   2   2   2   2   2   2
#     4  11  25  44  75  99 130 184 233 281 336 407
#     4  11  23  35  57  98 138 176 217 277 332 403
#     4  11  24  52  71  94 140 178 229 288 340 393
#     4  11  23  44  67  96 136 181 219 281 343 403
#     4  12  25  44  71 104 133 179 229 278 348 403
#     4  10  18  37  56  85 126 174 212 251 332 397
#     4  11  21  39  65  93 128 182 217 271 335 396
#     4  11  22  38  65  94 138 175 211 274 345 397
#
# _framework density 22.755918999999999
#
# number of rings (size 3 to 8) (size 9 to 14) (size 15 to 20)
#    0.000    1.000    6.250    1.875    5.250    1.000 
#    0.000    2.500    2.750    0.000    0.000    0.000 
#    0.000    0.000    0.000    0.000    0.000    0.000 
#
# Total GULP energy -89243.005476 kJ/mol
# GULP energy per Si atom -5577.687842 kJ/mol
# Density = 2.270413 g / cm^3
# Si number density = 22.755919 Si / 1000 Ang^3
#
#
#
# Elastic Constant Matrix: (Units=GPa)
#
#
# Indices 1 2 3 4 5 6 
#
# 1 102.6695 28.9286 43.0469 5.6157 16.0869 -3.6283
# 2 28.9286 59.0452 17.8970 19.9205 10.0201 -19.4374
# 3 43.0469 17.8970 75.4546 17.2215 8.6666 4.7241
# 4 5.6157 19.9205 17.2215 41.1142 11.1195 -3.2916
# 5 16.0869 10.0201 8.6666 11.1195 42.6672 8.2177
# 6 -3.6283 -19.4374 4.7241 -3.2916 8.2177 38.9876
#
#
#
# Elastic Compliance Matrix: (Units=1/GPa)
#
#
# Indices 1 2 3 4 5 6 
#
# 1 0.015151 -0.005770 -0.008053 0.005324 -0.004275 0.000860
# 2 -0.005770 0.029200 -0.001665 -0.010329 -0.004402 0.014278
# 3 -0.008053 -0.001665 0.020012 -0.007510 0.002307 -0.005125
# 4 0.005324 -0.010329 -0.007510 0.033667 -0.006938 0.000561
# 5 -0.004275 -0.004402 0.002307 -0.006938 0.029277 -0.009629
# 6 0.000860 0.014278 -0.005125 0.000561 -0.009629 0.035546
#
#
# Mechanical properties :
#
#
# Convention : Reuss Voigt Hill
#
# Bulk Modulus (GPa) = 29.95211 46.32379 38.13795
# Shear Modulus (GPa) = 24.39522 34.37359 29.38440
#
# Velocity S-wave (km/s) = 3.27775 3.89078 3.59735
# Velocity P-wave (km/s) = 5.24555 6.37065 5.83528
#
# Compressibility (1/GPa) = 0.03338663
#
# Stress axis : x y z
#
# Youngs Moduli (GPa) = 66.00090 34.24673 49.96933
#
# Poissons Ratio (x) = 0.19761 0.40242
# Poissons Ratio (y) = 0.38083 0.08320
# Poissons Ratio (z) = 0.53152 0.05702
#
# Static dielectric constant tensor:
#      x y z
#    x 2.038790 -0.368700 -0.021340 
#    y -0.368700 2.788470 0.124270 
#    z -0.021340 0.124270 1.936050 
# 
# From -- ./inp_files/470018.got.cif
#   From: 2010.05.17/outbox.cif.g08.bks.cpg/sg2_236_cif.got.tgz:470018.got - 2010.06.03 11:33:40.
