data_PCOD9079484
_publ_section_title
;
Structure prediction by ZEFSAII (Michael W. Deem and Ramdas Pophale) SiO2 
 PCOD9079484
Probable space group: P -1
;
_chemical_formula_sum "Si O2"
_cell_formula_units_Z 16
_cell_length_a 9.593903
_cell_length_b 9.371738
_cell_length_c 16.236689
_cell_angle_alpha 36.500215
_cell_angle_beta 69.106554
_cell_angle_gamma 79.493556
_cell_volume 796.840278
_symmetry_space_group_name_H-M "P -1"
_symmetry_group_IT_number 2
_symmetry_cell_setting 'triclinic'
loop_
_space_group_symop_operation_xyz
x,y,z
-x,-y,-z
loop_
_atom_site_type_symbol
_atom_site_label
_atom_site_fract_x
_atom_site_fract_y
_atom_site_fract_z
Si Si1 0.333064 0.357489 0.073839
Si Si2 0.189348 0.816744 0.834533
Si Si3 0.504267 0.670947 0.662929
Si Si4 0.065832 0.163281 0.986701
Si Si5 0.269255 0.047248 0.384545
Si Si6 0.172958 0.739806 0.689388
Si Si7 0.471837 0.256862 0.563361
Si Si8 0.376094 0.134928 0.002032
O O1 0.240984 0.214690 0.235965
O O2 0.500000 0.500000 0.000000
O O3 0.248062 0.561764 0.957159
O O4 0.362703 0.161571 0.090384
O O5 0.124856 0.809638 0.758011
O O6 0.330333 0.041247 0.714970
O O7 0.058789 0.841657 0.914215
O O8 0.628345 0.770929 0.657709
O O9 0.357981 0.801739 0.632734
O O10 0.557406 0.669234 0.558864
O O11 0.431118 0.405796 0.831742
O O12 0.119969 0.450893 0.820304
O O13 0.207853 0.053379 0.040749
O O14 0.000000 0.000000 0.000000
O O15 0.144891 0.887738 0.544835
O O16 0.377439 0.864332 0.413368
O O17 0.500000 0.500000 0.500000
O O18 0.500000 0.000000 0.000000
#
# Coordination Sequence:
#
# PCOD9079484 Si02
#       8
#     2   2   2   2   2   2   2   2
#     4  12  22  38  65 103 129 171 218 276 329 392
#     4  12  22  42  68  91 134 173 228 266 324 400
#     4  10  18  37  59  93 126 165 225 272 318 382
#     4  11  27  42  66  98 130 177 226 274 333 393
#     4  11  20  37  61  94 132 163 225 270 325 388
#     4  10  19  41  62  86 124 178 216 266 314 398
#     4  11  22  32  61  98 130 170 221 275 321 385
#     4  11  25  42  65  94 138 174 218 280 335 387
#
# _framework density 20.079307
#
# number of rings (size 3 to 8) (size 9 to 14) (size 15 to 20)
#    0.000    1.000    7.500    1.125    8.750    0.000 
#    0.000    0.625    0.000    1.500    0.000    0.000 
#    0.000    0.000    0.000    0.000    0.000    0.000 
#
# Total GULP energy -89315.909381 kJ/mol
# GULP energy per Si atom -5582.244336 kJ/mol
# Density = 2.003361 g / cm^3
# Si number density = 20.079307 Si / 1000 Ang^3
#
#
#
# Elastic Constant Matrix: (Units=GPa)
#
#
# Indices 1 2 3 4 5 6 
#
# 1 60.7576 54.6101 21.8087 12.2525 -1.7168 5.9216
# 2 54.6101 157.1790 46.9025 18.2156 -4.6424 16.3487
# 3 21.8087 46.9025 135.9936 28.7466 5.3654 8.7358
# 4 12.2525 18.2156 28.7466 29.4501 1.8092 -6.0894
# 5 -1.7168 -4.6424 5.3654 1.8092 24.5176 -1.5786
# 6 5.9216 16.3487 8.7358 -6.0894 -1.5786 33.0456
#
#
#
# Elastic Compliance Matrix: (Units=1/GPa)
#
#
# Indices 1 2 3 4 5 6 
#
# 1 0.024782 -0.007739 0.000037 -0.005945 0.000592 -0.001689
# 2 -0.007739 0.010236 -0.001622 -0.002378 0.001694 -0.003606
# 3 0.000037 -0.001622 0.010287 -0.009714 -0.002084 -0.003813
# 4 -0.005945 -0.002378 -0.009714 0.050376 -0.001556 0.014018
# 5 0.000592 0.001694 -0.002084 -0.001556 0.041805 0.001317
# 6 -0.001689 -0.003606 -0.003813 0.014018 0.001317 0.036002
#
#
# Mechanical properties :
#
#
# Convention : Reuss Voigt Hill
#
# Bulk Modulus (GPa) = 37.51368 66.73030 52.12199
# Shear Modulus (GPa) = 24.87297 32.77660 28.82478
#
# Velocity S-wave (km/s) = 3.52339 4.04463 3.79297
# Velocity P-wave (km/s) = 5.93933 7.42412 6.72284
#
# Compressibility (1/GPa) = 0.02665694
#
# Stress axis : x y z
#
# Youngs Moduli (GPa) = 40.35205 97.69857 97.20719
#
# Poissons Ratio (x) = 0.75609 -0.00357
# Poissons Ratio (y) = 0.31229 0.15763
# Poissons Ratio (z) = -0.00148 0.15843
#
# Static dielectric constant tensor:
#      x y z
#    x 1.699780 0.051270 -0.029790 
#    y 0.051270 1.590980 0.088850 
#    z -0.029790 0.088850 1.723810 
# 
# From -- ./inp_files/262959.got.cif
#   From: 2010.05.17/outbox.cif.g08.bks.cpg/sg2_132_cif.got.tgz:262959.got - 2010.06.03 11:33:40.
