data_PCOD9079179
_publ_section_title
;
Structure prediction by ZEFSAII (Michael W. Deem and Ramdas Pophale) SiO2 
 PCOD9079179
Probable space group: P -1
;
_chemical_formula_sum "Si O2"
_cell_formula_units_Z 16
_cell_length_a 8.386102
_cell_length_b 15.404096
_cell_length_c 8.059812
_cell_angle_alpha 78.665499
_cell_angle_beta 56.276848
_cell_angle_gamma 114.523422
_cell_volume 650.452044
_symmetry_space_group_name_H-M "P -1"
_symmetry_group_IT_number 2
_symmetry_cell_setting 'triclinic'
loop_
_space_group_symop_operation_xyz
x,y,z
-x,-y,-z
loop_
_atom_site_type_symbol
_atom_site_label
_atom_site_fract_x
_atom_site_fract_y
_atom_site_fract_z
Si Si1 0.859799 0.926591 0.948031
Si Si2 0.246470 0.143274 0.416342
Si Si3 0.541808 0.111662 0.997848
Si Si4 0.790883 0.520264 0.691939
Si Si5 0.256461 0.275635 0.059471
Si Si6 0.998623 0.338466 0.784812
Si Si7 0.053119 0.407119 0.066735
Si Si8 0.580536 0.630800 0.605544
O O1 0.573897 0.868170 0.096646
O O2 0.843958 0.816968 0.993386
O O3 0.019058 0.024378 0.676991
O O4 0.000000 0.000000 0.000000
O O5 0.410994 0.116664 0.236302
O O6 0.178813 0.192835 0.292344
O O7 0.359358 0.248647 0.442122
O O8 0.827421 0.215908 0.836209
O O9 0.500000 0.000000 0.000000
O O10 0.039794 0.426350 0.590184
O O11 0.665864 0.584566 0.718701
O O12 0.553074 0.384370 0.862420
O O13 0.947390 0.558748 0.756640
O O14 0.120036 0.326366 0.099768
O O15 0.890719 0.343564 0.016960
O O16 0.267226 0.368422 0.634174
O O17 0.284362 0.530311 0.805452
#
# Coordination Sequence:
#
# PCOD9079179 Si02
#       8
#     2   2   2   2   2   2   2   2
#     4  11  27  43  71  98 122 178 233 276 323 405
#     4  11  21  43  69  88 127 177 221 277 330 384
#     4  11  25  46  64  93 140 174 215 279 347 384
#     4   9  19  35  63  98 133 169 213 276 329 381
#     4  10  18  36  63  94 126 165 225 273 311 387
#     4  10  23  36  63 103 134 178 211 278 334 392
#     4  11  18  35  66 100 131 174 227 262 325 407
#     4   9  18  36  65  95 130 170 224 264 319 390
#
# _framework density 24.598279000000002
#
# number of rings (size 3 to 8) (size 9 to 14) (size 15 to 20)
#    0.750    1.000    2.500    3.375    3.500    1.000 
#    2.250    3.750    0.000    0.000    0.000    0.000 
#    0.000    0.000    0.000    0.000    0.000    0.000 
#
# Total GULP energy -89134.267373 kJ/mol
# GULP energy per Si atom -5570.891711 kJ/mol
# Density = 2.454229 g / cm^3
# Si number density = 24.598279 Si / 1000 Ang^3
#
#
#
# Elastic Constant Matrix: (Units=GPa)
#
#
# Indices 1 2 3 4 5 6 
#
# 1 29.6281 34.8815 31.1711 3.9398 17.4783 8.8478
# 2 34.8815 239.4455 49.9466 -7.5907 5.9292 0.0039
# 3 31.1711 49.9466 71.0023 -3.6778 25.9917 6.8028
# 4 3.9398 -7.5907 -3.6778 45.2275 -1.9939 5.5774
# 5 17.4783 5.9292 25.9917 -1.9939 35.4561 3.5048
# 6 8.8478 0.0039 6.8028 5.5774 3.5048 53.5789
#
#
#
# Elastic Compliance Matrix: (Units=1/GPa)
#
#
# Indices 1 2 3 4 5 6 
#
# 1 0.083975 -0.007164 -0.023151 -0.010385 -0.022986 -0.008343
# 2 -0.007164 0.005673 -0.002473 0.001437 0.004372 0.001061
# 3 -0.023151 -0.002473 0.029727 0.003547 -0.009798 0.000320
# 4 -0.010385 0.001437 0.003547 0.023892 0.003767 -0.001469
# 5 -0.022986 0.004372 -0.009798 0.003767 0.046037 0.001636
# 6 -0.008343 0.001061 0.000320 -0.001469 0.001636 0.020047
#
#
# Mechanical properties :
#
#
# Convention : Reuss Voigt Hill
#
# Bulk Modulus (GPa) = 18.58770 63.56380 41.07575
# Shear Modulus (GPa) = 17.07301 41.79094 29.43198
#
# Velocity S-wave (km/s) = 2.63739 4.12629 3.46281
# Velocity P-wave (km/s) = 4.10455 6.97126 5.72039
#
# Compressibility (1/GPa) = 0.05379902
#
# Stress axis : x y z
#
# Youngs Moduli (GPa) = 11.90837 176.27007 33.63899
#
# Poissons Ratio (x) = 1.26277 0.77877
# Poissons Ratio (y) = 0.08531 0.08320
# Poissons Ratio (z) = 0.27569 0.43597
#
# Static dielectric constant tensor:
#      x y z
#    x 2.074960 0.003420 -0.046280 
#    y 0.003420 2.073670 0.091560 
#    z -0.046280 0.091560 2.001300 
# 
# From -- ./inp_files/206773.got.cif
#   From: 2010.05.17/outbox.cif.g08.bks.cpg/sg2_104_cif.got.tgz:206773.got - 2010.06.03 11:33:40.
