data_PCOD9079269
_publ_section_title
;
Structure prediction by ZEFSAII (Michael W. Deem and Ramdas Pophale) SiO2 
 PCOD9079269
Probable space group: P -1
;
_chemical_formula_sum "Si O2"
_cell_formula_units_Z 14
_cell_length_a 9.596896
_cell_length_b 16.866367
_cell_length_c 13.274332
_cell_angle_alpha 145.893967
_cell_angle_beta 149.915986
_cell_angle_gamma 34.708121
_cell_volume 559.686341
_symmetry_space_group_name_H-M "P -1"
_symmetry_group_IT_number 2
_symmetry_cell_setting 'triclinic'
loop_
_space_group_symop_operation_xyz
x,y,z
-x,-y,-z
loop_
_atom_site_type_symbol
_atom_site_label
_atom_site_fract_x
_atom_site_fract_y
_atom_site_fract_z
Si Si1 0.177538 0.608201 0.992108
Si Si2 0.449046 0.702437 0.073639
Si Si3 0.259624 0.029858 0.264662
Si Si4 0.682832 0.604037 0.464761
Si Si5 0.562928 0.843607 0.937435
Si Si6 0.253178 0.681510 0.697026
Si Si7 0.655136 0.046741 0.367019
O O1 0.235971 0.651577 0.961378
O O2 0.433709 0.619399 0.239440
O O3 0.873265 0.724428 0.967505
O O4 0.230421 0.429872 0.843562
O O5 0.371298 0.876404 0.236759
O O6 0.397145 0.694194 0.912136
O O7 0.562689 0.032992 0.408108
O O8 0.082354 0.198002 0.371275
O O9 0.000000 0.000000 0.000000
O O10 0.674659 0.498218 0.442581
O O11 0.569625 0.780110 0.617266
O O12 0.000000 0.500000 0.500000
O O13 0.569301 0.915238 0.125363
O O14 0.360342 0.746407 0.733653
O O15 0.500000 0.000000 0.000000
O O16 0.000000 0.000000 0.500000
#
# Coordination Sequence:
#
# PCOD9079269 Si02
#       7
#     2   2   2   2   2   2   2
#     4  10  22  37  60 100 128 164 221 277 324 383
#     4   9  19  36  63  90 123 161 220 273 309 384
#     4  10  18  36  65  91 119 175 226 253 316 403
#     4  11  23  40  65  93 133 175 218 270 339 400
#     4  12  25  41  68  98 132 172 230 279 325 397
#     4  10  21  39  68  94 122 179 224 261 329 402
#     4  12  24  41  62  98 138 171 210 280 344 381
#
# _framework density 25.014009999999999
#
# number of rings (size 3 to 8) (size 9 to 14) (size 15 to 20)
#    0.000    1.429    5.714    0.857    2.000    4.571 
#    0.000    2.857    0.000    0.000    0.000    0.000 
#    0.000    0.000    0.000    0.000    0.000    0.000 
#
# Total GULP energy -78024.900659 kJ/mol
# GULP energy per Si atom -5573.207190 kJ/mol
# Density = 2.495708 g / cm^3
# Si number density = 25.014010 Si / 1000 Ang^3
#
#
#
# Elastic Constant Matrix: (Units=GPa)
#
#
# Indices 1 2 3 4 5 6 
#
# 1 131.1480 82.8613 15.3386 -3.3878 24.1697 -17.2513
# 2 82.8613 209.9241 38.2909 40.9756 10.6427 -15.2130
# 3 15.3386 38.2909 45.2320 5.1161 -8.5985 -1.6324
# 4 -3.3878 40.9756 5.1161 58.3435 0.7209 0.4270
# 5 24.1697 10.6427 -8.5985 0.7209 39.4961 7.5310
# 6 -17.2513 -15.2130 -1.6324 0.4270 7.5310 56.5150
#
#
#
# Elastic Compliance Matrix: (Units=1/GPa)
#
#
# Indices 1 2 3 4 5 6 
#
# 1 0.013070 -0.005005 -0.002074 0.004526 -0.007870 0.003597
# 2 -0.005005 0.008996 -0.005301 -0.006143 -0.000568 0.000863
# 3 -0.002074 -0.005301 0.028895 0.000970 0.009445 -0.002491
# 4 0.004526 -0.006143 0.000970 0.021649 -0.001253 -0.000241
# 5 -0.007870 -0.000568 0.009445 -0.001253 0.033655 -0.006758
# 6 0.003597 0.000863 -0.002491 -0.000241 -0.006758 0.019855
#
#
# Mechanical properties :
#
#
# Convention : Reuss Voigt Hill
#
# Bulk Modulus (GPa) = 38.16367 73.25395 55.70881
# Shear Modulus (GPa) = 31.32576 47.52513 39.42544
#
# Velocity S-wave (km/s) = 3.54266 4.36356 3.97436
# Velocity P-wave (km/s) = 5.65898 7.39840 6.58636
#
# Compressibility (1/GPa) = 0.02620293
#
# Stress axis : x y z
#
# Youngs Moduli (GPa) = 76.51189 111.15564 34.60859
#
# Poissons Ratio (x) = 0.55629 0.07177
# Poissons Ratio (y) = 0.38291 0.18345
# Poissons Ratio (z) = 0.15866 0.58920
#
# Static dielectric constant tensor:
#      x y z
#    x 2.003650 0.067140 -0.071100 
#    y 0.067140 1.972100 -0.050810 
#    z -0.071100 -0.050810 2.114270 
# 
# From -- ./inp_files/320823.got.cif
#   From: 2010.05.17/outbox.cif.g08.bks.cpg/sg2_161_cif.got.tgz:320823.got - 2010.06.03 11:33:40.
