data_PCOD9079974
_publ_section_title
;
Structure prediction by ZEFSAII (Michael W. Deem and Ramdas Pophale) SiO2 
 PCOD9079974
Probable space group: P -1
;
_chemical_formula_sum "Si O2"
_cell_formula_units_Z 16
_cell_length_a 12.077160
_cell_length_b 11.296822
_cell_length_c 21.051834
_cell_angle_alpha 135.954264
_cell_angle_beta 30.063106
_cell_angle_gamma 115.956029
_cell_volume 848.589653
_symmetry_space_group_name_H-M "P -1"
_symmetry_group_IT_number 2
_symmetry_cell_setting 'triclinic'
loop_
_space_group_symop_operation_xyz
x,y,z
-x,-y,-z
loop_
_atom_site_type_symbol
_atom_site_label
_atom_site_fract_x
_atom_site_fract_y
_atom_site_fract_z
Si Si1 0.794648 0.256622 0.314265
Si Si2 0.487919 0.618393 0.690096
Si Si3 0.403468 0.037146 0.732450
Si Si4 0.258660 0.101039 0.608312
Si Si5 0.894240 0.968669 0.798969
Si Si6 0.317540 0.050899 0.920100
Si Si7 0.368152 0.178382 0.213318
Si Si8 0.923494 0.467393 0.094980
O O1 0.598195 0.482788 0.521013
O O2 0.941806 0.147170 0.264892
O O3 0.021994 0.231195 0.145341
O O4 0.664043 0.135319 0.309650
O O5 0.693593 0.636121 0.639198
O O6 0.335024 0.542226 0.777582
O O7 0.298968 0.851190 0.854642
O O8 0.626251 0.988975 0.552481
O O9 0.450966 0.047154 0.787116
O O10 0.154414 0.253592 0.922201
O O11 0.138334 0.338911 0.759525
O O12 0.500000 0.000000 0.500000
O O13 0.045052 0.056774 0.722689
O O14 0.850688 0.826467 0.719366
O O15 0.605135 0.134532 0.031834
O O16 0.496653 0.010884 0.877352
O O17 0.000000 0.500000 0.000000
#
# Coordination Sequence:
#
# PCOD9079974 Si02
#       8
#     2   2   2   2   2   2   2   2
#     4  11  19  33  57  84 113 144 183 237 278 330
#     4  10  20  35  56  86 111 146 187 233 276 333
#     4  12  22  36  55  82 118 152 178 232 282 337
#     4  12  22  36  55  86 116 144 184 227 287 339
#     4  10  18  38  60  81 114 149 187 234 281 319
#     4   9  22  38  53  81 113 150 191 226 279 325
#     4   8  19  38  60  80 109 153 190 234 269 325
#     4  12  21  33  55  83 120 145 179 229 288 343
#
# _framework density 18.854814000000001
#
# number of rings (size 3 to 8) (size 9 to 14) (size 15 to 20)
#    0.750    0.750    5.000    1.125    0.000    2.000 
#    0.000    0.625    0.000    0.750    0.000    0.000 
#    0.000    0.000    0.000    0.000    0.000    0.000 
#
# Total GULP energy -89212.875767 kJ/mol
# GULP energy per Si atom -5575.804735 kJ/mol
# Density = 1.881190 g / cm^3
# Si number density = 18.854814 Si / 1000 Ang^3
#
#
#
# Elastic Constant Matrix: (Units=GPa)
#
#
# Indices 1 2 3 4 5 6 
#
# 1 59.8111 21.5880 8.6203 -13.0320 16.6078 0.6073
# 2 21.5880 61.3323 14.7771 -9.3381 8.1062 4.4894
# 3 8.6203 14.7771 67.4703 11.0282 21.6402 1.4628
# 4 -13.0320 -9.3381 11.0282 29.0004 -5.0903 9.1199
# 5 16.6078 8.1062 21.6402 -5.0903 23.3497 -7.5192
# 6 0.6073 4.4894 1.4628 9.1199 -7.5192 25.4798
#
#
#
# Elastic Compliance Matrix: (Units=1/GPa)
#
#
# Indices 1 2 3 4 5 6 
#
# 1 0.025655 -0.005338 0.003523 0.007559 -0.020820 -0.008723
# 2 -0.005338 0.021111 -0.005888 0.008817 0.001970 -0.005829
# 3 0.003523 -0.005888 0.028349 -0.015199 -0.031508 -0.004532
# 4 0.007559 0.008817 -0.015199 0.053824 0.012046 -0.016571
# 5 -0.020820 0.001970 -0.031508 0.012046 0.097264 0.026349
# 6 -0.008723 -0.005829 -0.004532 -0.016571 0.026349 0.054449
#
#
# Mechanical properties :
#
#
# Convention : Reuss Voigt Hill
#
# Bulk Modulus (GPa) = 16.74815 30.95384 23.85099
# Shear Modulus (GPa) = 15.82475 25.14119 20.48297
#
# Velocity S-wave (km/s) = 2.90020 3.65555 3.29956
# Velocity P-wave (km/s) = 4.48518 5.85406 5.21473
#
# Compressibility (1/GPa) = 0.05970810
#
# Stress axis : x y z
#
# Youngs Moduli (GPa) = 38.97899 47.36896 35.27449
#
# Poissons Ratio (x) = 0.25284 -0.12426
# Poissons Ratio (y) = 0.20806 0.20771
# Poissons Ratio (z) = -0.13731 0.27892
#
# Static dielectric constant tensor:
#      x y z
#    x 1.683390 -0.016300 0.013450 
#    y -0.016300 1.629080 0.018070 
#    z 0.013450 0.018070 1.702710 
# 
# From -- ./inp_files/594976.got.cif
#   From: 2010.05.17/outbox.cif.g08.bks.cpg/sg2_298_cif.got.tgz:594976.got - 2010.06.03 11:33:40.
