data_PCOD9079749
_publ_section_title
;
Structure prediction by ZEFSAII (Michael W. Deem and Ramdas Pophale) SiO2 
 PCOD9079749
Probable space group: P -1
;
_chemical_formula_sum "Si O2"
_cell_formula_units_Z 16
_cell_length_a 8.588517
_cell_length_b 9.003826
_cell_length_c 11.806378
_cell_angle_alpha 97.534273
_cell_angle_beta 59.314386
_cell_angle_gamma 88.090025
_cell_volume 772.968569
_symmetry_space_group_name_H-M "P -1"
_symmetry_group_IT_number 2
_symmetry_cell_setting 'triclinic'
loop_
_space_group_symop_operation_xyz
x,y,z
-x,-y,-z
loop_
_atom_site_type_symbol
_atom_site_label
_atom_site_fract_x
_atom_site_fract_y
_atom_site_fract_z
Si Si1 0.302481 0.332820 0.062460
Si Si2 0.672543 0.523322 0.511867
Si Si3 0.996128 0.959942 0.687533
Si Si4 0.262406 0.600016 0.286901
Si Si5 0.688745 0.188795 0.902566
Si Si6 0.803411 0.437193 0.054523
Si Si7 0.885057 0.304345 0.245352
Si Si8 0.113766 0.215944 0.508875
O O1 0.296149 0.460345 0.174722
O O2 0.100204 0.285508 0.133408
O O3 0.473785 0.209035 0.012347
O O4 0.320182 0.422480 0.945232
O O5 0.500000 0.500000 0.500000
O O6 0.647045 0.446881 0.633750
O O7 0.836343 0.430537 0.371153
O O8 0.711249 0.695261 0.534043
O O9 0.915424 0.859419 0.609354
O O10 0.136438 0.854758 0.703480
O O11 0.824793 0.037083 0.831203
O O12 0.091194 0.089456 0.599803
O O13 0.313481 0.746227 0.217711
O O14 0.052383 0.652069 0.400337
O O15 0.786550 0.303370 0.957487
O O16 0.774626 0.363924 0.180246
O O17 0.000000 0.500000 0.000000
#
# Coordination Sequence:
#
# PCOD9079749 Si02
#       8
#     2   2   2   2   2   2   2   2
#     4  10  20  37  64  90 121 161 218 267 295 356
#     4  12  25  37  66 100 123 155 213 280 314 362
#     4  10  22  39  67  88 132 173 208 244 316 392
#     4  10  18  37  64  90 119 157 214 265 307 352
#     4  10  22  37  62  94 124 168 211 255 305 373
#     4   9  20  36  60  89 126 163 207 261 310 359
#     4  11  22  40  61  93 129 167 204 255 328 373
#     4  10  20  42  64  91 123 168 214 253 315 374
#
# _framework density 20.699418000000001
#
# number of rings (size 3 to 8) (size 9 to 14) (size 15 to 20)
#    0.000    1.750    2.500    2.625    5.250    1.000 
#    0.000    0.625    5.500    0.000    0.000    0.000 
#    0.000    0.000    0.000    0.000    0.000    0.000 
#
# Total GULP energy -89182.854017 kJ/mol
# GULP energy per Si atom -5573.928376 kJ/mol
# Density = 2.065231 g / cm^3
# Si number density = 20.699418 Si / 1000 Ang^3
#
#
#
# Elastic Constant Matrix: (Units=GPa)
#
#
# Indices 1 2 3 4 5 6 
#
# 1 74.6857 22.8462 15.6739 -9.2271 10.8458 -0.6917
# 2 22.8462 82.7482 26.7737 -11.1561 16.4639 -14.1586
# 3 15.6739 26.7737 71.9834 -5.0272 16.5495 -11.0455
# 4 -9.2271 -11.1561 -5.0272 32.7654 -20.0582 1.3376
# 5 10.8458 16.4639 16.5495 -20.0582 30.3790 -10.2505
# 6 -0.6917 -14.1586 -11.0455 1.3376 -10.2505 26.5256
#
#
#
# Elastic Compliance Matrix: (Units=1/GPa)
#
#
# Indices 1 2 3 4 5 6 
#
# 1 0.015387 -0.003497 -0.001805 0.001167 -0.003004 -0.003437
# 2 -0.003497 0.015968 -0.003690 0.002694 -0.001536 0.006166
# 3 -0.001805 -0.003690 0.017847 -0.005117 -0.009823 0.001877
# 4 0.001167 0.002694 -0.005117 0.056537 0.042611 0.012954
# 5 -0.003004 -0.001536 -0.009823 0.042611 0.075781 0.022148
# 6 -0.003437 0.006166 0.001877 0.012954 0.022148 0.049588
#
#
# Mechanical properties :
#
#
# Convention : Reuss Voigt Hill
#
# Bulk Modulus (GPa) = 32.03410 40.00054 36.01732
# Shear Modulus (GPa) = 19.26792 28.87558 24.07175
#
# Velocity S-wave (km/s) = 3.05428 3.73901 3.41386
# Velocity P-wave (km/s) = 5.28655 6.16496 5.74258
#
# Compressibility (1/GPa) = 0.03121674
#
# Stress axis : x y z
#
# Youngs Moduli (GPa) = 64.99181 62.62407 56.03281
#
# Poissons Ratio (x) = 0.21901 0.10113
# Poissons Ratio (y) = 0.22729 0.20678
# Poissons Ratio (z) = 0.11729 0.23111
#
# Static dielectric constant tensor:
#      x y z
#    x 1.758970 -0.007440 -0.058210 
#    y -0.007440 1.755990 -0.034370 
#    z -0.058210 -0.034370 1.795750 
# 
# From -- ./inp_files/382578.got.cif
#   From: 2010.05.17/outbox.cif.g08.bks.cpg/sg2_192_cif.got.tgz:382578.got - 2010.06.03 11:33:40.
