data_PCOD9079851
_publ_section_title
;
Structure prediction by ZEFSAII (Michael W. Deem and Ramdas Pophale) SiO2 
 PCOD9079851
Probable space group: P -1
;
_chemical_formula_sum "Si O2"
_cell_formula_units_Z 15
_cell_length_a 9.896180
_cell_length_b 16.858532
_cell_length_c 8.149640
_cell_angle_alpha 121.074355
_cell_angle_beta 127.513680
_cell_angle_gamma 34.197465
_cell_volume 605.919566
_symmetry_space_group_name_H-M "P -1"
_symmetry_group_IT_number 2
_symmetry_cell_setting 'triclinic'
loop_
_space_group_symop_operation_xyz
x,y,z
-x,-y,-z
loop_
_atom_site_type_symbol
_atom_site_label
_atom_site_fract_x
_atom_site_fract_y
_atom_site_fract_z
Si Si1 0.593466 0.384322 0.315323
Si Si2 0.448191 0.308110 0.383636
Si Si3 0.238613 0.569133 0.966696
Si Si4 0.448988 0.916697 0.924047
Si Si5 0.031500 0.616089 0.529995
Si Si6 0.485491 0.900708 0.325844
Si Si7 0.122637 0.823059 0.179227
Si Si8 0.000000 0.000000 0.000000
O O1 0.500000 0.500000 0.500000
O O2 0.615438 0.281783 0.326126
O O3 0.841530 0.335248 0.369526
O O4 0.356709 0.468641 0.102175
O O5 0.397538 0.222939 0.212185
O O6 0.192204 0.475007 0.394979
O O7 0.625583 0.250623 0.612891
O O8 0.092777 0.575039 0.722651
O O9 0.500000 0.500000 0.000000
O O10 0.095735 0.723046 0.073009
O O11 0.498248 0.886833 0.122489
O O12 0.142561 0.023266 0.785489
O O13 0.500000 0.000000 0.000000
O O14 0.728512 0.745565 0.411074
O O15 0.206016 0.973476 0.236397
O O16 0.500000 0.000000 0.500000
O O17 0.115119 0.856345 0.019325
#
# Coordination Sequence:
#
# PCOD9079851 Si02
#       8
#     2   2   2   2   2   2   2   1
#     4   9  18  36  69 107 146 183 223 302 368 431
#     4  11  23  43  70 108 140 187 242 297 366 433
#     4  10  18  37  67 108 143 176 233 288 369 427
#     4  11  28  45  66  99 142 195 238 302 359 432
#     4  10  21  40  73 109 143 187 236 299 366 436
#     4  11  26  49  74 104 143 193 245 299 369 434
#     4  11  22  44  71 101 140 190 243 292 367 425
#     4  10  26  46  72 102 142 192 246 300 352 440
#
# _framework density 24.755763000000002
#
# number of rings (size 3 to 8) (size 9 to 14) (size 15 to 20)
#    0.000    1.600    4.000    2.000    3.733    6.933 
#    0.000    2.000    0.000    0.000    0.000    0.000 
#    0.000    0.000    0.000    0.000    0.000    0.000 
#
# Total GULP energy -83702.254571 kJ/mol
# GULP energy per Si atom -5580.150305 kJ/mol
# Density = 2.469942 g / cm^3
# Si number density = 24.755763 Si / 1000 Ang^3
#
#
#
# Elastic Constant Matrix: (Units=GPa)
#
#
# Indices 1 2 3 4 5 6 
#
# 1 66.9704 21.8321 12.2801 -2.2658 8.3979 10.8946
# 2 21.8321 144.2256 54.9797 -2.5882 8.9784 2.1079
# 3 12.2801 54.9797 86.7113 -4.8068 12.5313 -3.6639
# 4 -2.2658 -2.5882 -4.8068 62.8414 13.4497 -1.1223
# 5 8.3979 8.9784 12.5313 13.4497 41.7295 0.0742
# 6 10.8946 2.1079 -3.6639 -1.1223 0.0742 34.2014
#
#
#
# Elastic Compliance Matrix: (Units=1/GPa)
#
#
# Indices 1 2 3 4 5 6 
#
# 1 0.017021 -0.001944 -0.000906 0.001023 -0.003055 -0.005359
# 2 -0.001944 0.009416 -0.005750 -0.000164 0.000146 -0.000583
# 3 -0.000906 -0.005750 0.016094 0.001865 -0.004019 0.002437
# 4 0.001023 -0.000164 0.001865 0.017455 -0.006357 0.000471
# 5 -0.003055 0.000146 -0.004019 -0.006357 0.027803 0.000265
# 6 -0.005359 -0.000583 0.002437 0.000471 0.000265 0.031258
#
#
# Mechanical properties :
#
#
# Convention : Reuss Voigt Hill
#
# Bulk Modulus (GPa) = 39.47721 52.89902 46.18811
# Shear Modulus (GPa) = 34.55643 41.67548 38.11596
#
# Velocity S-wave (km/s) = 3.74022 4.10746 3.92813
# Velocity P-wave (km/s) = 5.88503 6.62644 6.26671
#
# Compressibility (1/GPa) = 0.02533107
#
# Stress axis : x y z
#
# Youngs Moduli (GPa) = 58.74934 106.19884 62.13597
#
# Poissons Ratio (x) = 0.20649 0.05629
# Poissons Ratio (y) = 0.11423 0.35727
# Poissons Ratio (z) = 0.05322 0.61063
#
# Static dielectric constant tensor:
#      x y z
#    x 2.109660 -0.015100 0.001350 
#    y -0.015100 2.048790 0.017660 
#    z 0.001350 0.017660 1.906740 
# 
# From -- ./inp_files/280015.got.cif
#   From: 2010.05.17/outbox.cif.g08.bks.cpg/sg2_141_cif.got.tgz:280015.got - 2010.06.03 11:33:40.
