data_PCOD9079236
_publ_section_title
;
Structure prediction by ZEFSAII (Michael W. Deem and Ramdas Pophale) SiO2 
 PCOD9079236
Probable space group: P -1
;
_chemical_formula_sum "Si O2"
_cell_formula_units_Z 16
_cell_length_a 8.308705
_cell_length_b 10.883540
_cell_length_c 11.898090
_cell_angle_alpha 51.727312
_cell_angle_beta 58.610198
_cell_angle_gamma 76.614191
_cell_volume 714.356894
_symmetry_space_group_name_H-M "P -1"
_symmetry_group_IT_number 2
_symmetry_cell_setting 'triclinic'
loop_
_space_group_symop_operation_xyz
x,y,z
-x,-y,-z
loop_
_atom_site_type_symbol
_atom_site_label
_atom_site_fract_x
_atom_site_fract_y
_atom_site_fract_z
Si Si1 0.016992 0.253473 0.201861
Si Si2 0.285864 0.548087 0.859781
Si Si3 0.656851 0.338354 0.627918
Si Si4 0.741416 0.629909 0.268320
Si Si5 0.979060 0.767186 0.532401
Si Si6 0.313772 0.543426 0.197124
Si Si7 0.991966 0.982083 0.206081
Si Si8 0.844161 0.170665 0.971680
O O1 0.811372 0.293992 0.210952
O O2 0.087270 0.134626 0.154131
O O3 0.021362 0.185383 0.363957
O O4 0.148774 0.422149 0.054934
O O5 0.275468 0.472926 0.780974
O O6 0.497724 0.541656 0.831436
O O7 0.704844 0.506842 0.452738
O O8 0.437221 0.273567 0.723565
O O9 0.688063 0.379351 0.722892
O O10 0.803310 0.233040 0.583619
O O11 0.945188 0.730185 0.147357
O O12 0.866930 0.590174 0.670645
O O13 0.901890 0.866169 0.403287
O O14 0.296641 0.697680 0.040002
O O15 0.837309 0.039713 0.145040
O O16 0.138468 0.909403 0.111443
#
# Coordination Sequence:
#
# PCOD9079236 Si02
#       8
#     2   2   2   2   2   2   2   2
#     4  11  23  44  64  87 132 169 210 247 313 382
#     4  10  22  40  68  95 117 165 217 265 297 365
#     4  10  19  33  62  99 122 151 208 266 310 352
#     4  10  18  36  64  94 120 157 210 265 309 349
#     4  12  22  41  64  97 127 168 202 260 314 375
#     4  11  22  39  69  97 122 154 223 266 304 357
#     4  11  25  40  64  91 132 171 200 252 325 373
#     4  11  21  42  66  92 126 164 207 267 308 367
#
# _framework density 22.397767000000002
#
# number of rings (size 3 to 8) (size 9 to 14) (size 15 to 20)
#    0.000    1.250    5.000    1.500    1.750    0.500 
#    0.000    4.375    0.000    0.000    0.000    0.000 
#    0.000    0.000    0.000    0.000    0.000    0.000 
#
# Total GULP energy -89353.776963 kJ/mol
# GULP energy per Si atom -5584.611060 kJ/mol
# Density = 2.234679 g / cm^3
# Si number density = 22.397767 Si / 1000 Ang^3
#
#
#
# Elastic Constant Matrix: (Units=GPa)
#
#
# Indices 1 2 3 4 5 6 
#
# 1 74.5973 34.9427 21.7230 8.3461 7.6043 -15.4072
# 2 34.9427 79.5164 24.5855 0.0563 12.3853 -4.4825
# 3 21.7230 24.5855 97.1838 -1.0504 45.7316 -9.1556
# 4 8.3461 0.0563 -1.0504 30.3638 -6.3151 5.7176
# 5 7.6043 12.3853 45.7316 -6.3151 38.6558 3.4773
# 6 -15.4072 -4.4825 -9.1556 5.7176 3.4773 27.9267
#
#
#
# Elastic Compliance Matrix: (Units=1/GPa)
#
#
# Indices 1 2 3 4 5 6 
#
# 1 0.021275 -0.008043 0.001142 -0.009524 -0.005728 0.013484
# 2 -0.008043 0.016759 -0.002933 0.002798 0.000439 -0.003336
# 3 0.001142 -0.002933 0.030359 -0.010463 -0.038444 0.017042
# 4 -0.009524 0.002798 -0.010463 0.043568 0.022266 -0.019928
# 5 -0.005728 0.000439 -0.038444 0.022266 0.078677 -0.030049
# 6 0.013484 -0.003336 0.017042 -0.019928 -0.030049 0.056120
#
#
# Mechanical properties :
#
#
# Convention : Reuss Voigt Hill
#
# Bulk Modulus (GPa) = 20.52301 45.97774 33.25037
# Shear Modulus (GPa) = 17.68873 30.72568 24.20720
#
# Velocity S-wave (km/s) = 2.81331 3.70783 3.29110
# Velocity P-wave (km/s) = 4.44250 6.23723 5.41474
#
# Compressibility (1/GPa) = 0.04872579
#
# Stress axis : x y z
#
# Youngs Moduli (GPa) = 47.00448 59.67063 32.93897
#
# Poissons Ratio (x) = 0.47993 -0.03762
# Poissons Ratio (y) = 0.37806 0.09660
# Poissons Ratio (z) = -0.05369 0.17499
#
# Static dielectric constant tensor:
#      x y z
#    x 1.862000 -0.040850 0.054440 
#    y -0.040850 1.870040 -0.026030 
#    z 0.054440 -0.026030 1.847700 
# 
# From -- ./inp_files/392013.got.cif
#   From: 2010.05.17/outbox.cif.g08.bks.cpg/sg2_197_cif.got.tgz:392013.got - 2010.06.03 11:33:40.
