data_PCOD9079120
_publ_section_title
;
Structure prediction by ZEFSAII (Michael W. Deem and Ramdas Pophale) SiO2 
 PCOD9079120
Probable space group: P -1
;
_chemical_formula_sum "Si O2"
_cell_formula_units_Z 15
_cell_length_a 8.852859
_cell_length_b 11.816546
_cell_length_c 8.820953
_cell_angle_alpha 78.488216
_cell_angle_beta 83.506680
_cell_angle_gamma 126.299095
_cell_volume 696.790425
_symmetry_space_group_name_H-M "P -1"
_symmetry_group_IT_number 2
_symmetry_cell_setting 'triclinic'
loop_
_space_group_symop_operation_xyz
x,y,z
-x,-y,-z
loop_
_atom_site_type_symbol
_atom_site_label
_atom_site_fract_x
_atom_site_fract_y
_atom_site_fract_z
Si Si1 0.345510 0.180069 0.162055
Si Si2 0.224132 0.641504 0.456290
Si Si3 0.405779 0.186901 0.806597
Si Si4 0.895089 0.269987 0.028956
Si Si5 0.500000 0.000000 0.000000
Si Si6 0.082519 0.944132 0.706030
Si Si7 0.325627 0.949566 0.415157
Si Si8 0.258972 0.582797 0.805438
O O1 0.135935 0.113778 0.266419
O O2 0.529197 0.336017 0.166792
O O3 0.380544 0.059615 0.235553
O O4 0.344663 0.197610 0.977307
O O5 0.385305 0.668186 0.314746
O O6 0.235120 0.785562 0.419754
O O7 0.290450 0.628706 0.615951
O O8 0.000000 0.500000 0.500000
O O9 0.441392 0.068370 0.861894
O O10 0.229586 0.106049 0.727309
O O11 0.827694 0.344103 0.123411
O O12 0.929128 0.174416 0.153927
O O13 0.720713 0.167474 0.957179
O O14 0.098667 0.406658 0.892783
O O15 0.177143 0.949980 0.536574
O O16 0.500000 0.000000 0.500000
#
# Coordination Sequence:
#
# PCOD9079120 Si02
#       8
#     2   2   2   2   1   2   2   2
#     4  12  24  39  68  99 134 177 211 263 332 397
#     4  12  25  40  65  99 129 164 218 285 326 368
#     4  11  22  38  62  96 135 166 215 265 322 385
#     4  10  21  38  66  93 129 164 222 270 316 378
#     4  10  18  36  62  94 116 168 214 272 310 366
#     4  11  23  41  67  99 136 170 215 265 327 396
#     4  12  22  45  68  97 126 169 225 273 316 383
#     4  11  22  41  63  94 127 170 221 267 321 376
#
# _framework density 21.527274999999999
#
# number of rings (size 3 to 8) (size 9 to 14) (size 15 to 20)
#    0.000    0.800    5.333    2.400    1.867    1.600 
#    0.000    0.000    0.000    2.400    0.000    0.000 
#    0.000    0.000    0.000    0.000    0.000    0.000 
#
# Total GULP energy -83643.890674 kJ/mol
# GULP energy per Si atom -5576.259378 kJ/mol
# Density = 2.147828 g / cm^3
# Si number density = 21.527275 Si / 1000 Ang^3
#
#
#
# Elastic Constant Matrix: (Units=GPa)
#
#
# Indices 1 2 3 4 5 6 
#
# 1 72.9984 29.6257 13.2733 -4.2653 -12.6724 33.1330
# 2 29.6257 132.6923 17.6558 -20.8056 -6.4380 17.6023
# 3 13.2733 17.6558 95.8843 -13.5578 -15.4029 -0.3080
# 4 -4.2653 -20.8056 -13.5578 29.0855 3.2161 -9.4107
# 5 -12.6724 -6.4380 -15.4029 3.2161 34.7768 -9.9160
# 6 33.1330 17.6023 -0.3080 -9.4107 -9.9160 21.1753
#
#
#
# Elastic Compliance Matrix: (Units=1/GPa)
#
#
# Indices 1 2 3 4 5 6 
#
# 1 0.095104 -0.003775 -0.024911 -0.056752 -0.023842 -0.182420
# 2 -0.003775 0.009273 -0.000319 0.006239 -0.000117 0.000912
# 3 -0.024911 -0.000319 0.019272 0.021524 0.013163 0.055253
# 4 -0.056752 0.006239 0.021524 0.080001 0.019248 0.128494
# 5 -0.023842 -0.000117 0.013163 0.019248 0.042995 0.066283
# 6 -0.182420 0.000912 0.055253 0.128494 0.066283 0.420848
#
#
# Mechanical properties :
#
#
# Convention : Reuss Voigt Hill
#
# Bulk Modulus (GPa) = 15.23469 46.96498 31.09983
# Shear Modulus (GPa) = 6.69002 33.07552 19.88277
#
# Velocity S-wave (km/s) = 1.76478 3.92401 3.04239
# Velocity P-wave (km/s) = 3.35334 6.51109 5.17876
#
# Compressibility (1/GPa) = 0.06563967
#
# Stress axis : x y z
#
# Youngs Moduli (GPa) = 10.51484 107.83863 51.88939
#
# Poissons Ratio (x) = 0.40711 1.29260
# Poissons Ratio (y) = 0.03970 0.01653
# Poissons Ratio (z) = 0.26193 0.03436
#
# Static dielectric constant tensor:
#      x y z
#    x 1.732620 0.037300 0.010640 
#    y 0.037300 1.764730 -0.037320 
#    z 0.010640 -0.037320 1.739890 
# 
# From -- ./inp_files/200925.got.cif
#   From: 2010.05.17/outbox.cif.g08.bks.cpg/sg2_101_cif.got.tgz:200925.got - 2010.06.03 11:33:40.
