data_PCOD9079979
_publ_section_title
;
Structure prediction by ZEFSAII (Michael W. Deem and Ramdas Pophale) SiO2 
 PCOD9079979
Probable space group: P -1
;
_chemical_formula_sum "Si O2"
_cell_formula_units_Z 16
_cell_length_a 19.920023
_cell_length_b 8.039866
_cell_length_c 10.914116
_cell_angle_alpha 53.807856
_cell_angle_beta 29.713122
_cell_angle_gamma 57.847117
_cell_volume 698.388932
_symmetry_space_group_name_H-M "P -1"
_symmetry_group_IT_number 2
_symmetry_cell_setting 'triclinic'
loop_
_space_group_symop_operation_xyz
x,y,z
-x,-y,-z
loop_
_atom_site_type_symbol
_atom_site_label
_atom_site_fract_x
_atom_site_fract_y
_atom_site_fract_z
Si Si1 0.223941 0.689462 0.212945
Si Si2 0.916256 0.333198 0.783943
Si Si3 0.880135 0.013672 0.367560
Si Si4 0.403205 0.670773 0.144447
Si Si5 0.779048 0.453015 0.298351
Si Si6 0.279627 0.334310 0.919857
Si Si7 0.027147 0.239533 0.247556
Si Si8 0.632057 0.740258 0.928631
O O1 0.175007 0.783472 0.120324
O O2 0.329786 0.786316 0.096644
O O3 0.295518 0.471417 0.149170
O O4 0.087207 0.669566 0.518225
O O5 0.000000 0.500000 0.500000
O O6 0.816142 0.471938 0.964911
O O7 0.016223 0.168060 0.764984
O O8 0.835503 0.222235 0.277009
O O9 0.951715 0.084662 0.348211
O O10 0.741559 0.908474 0.661764
O O11 0.288210 0.567200 0.453512
O O12 0.500000 0.500000 0.000000
O O13 0.496815 0.780287 0.046517
O O14 0.669475 0.570776 0.329731
O O15 0.904966 0.597932 0.020684
O O16 0.162702 0.173959 0.140002
O O17 0.378849 0.278553 0.898207
#
# Coordination Sequence:
#
# PCOD9079979 Si02
#       8
#     2   2   2   2   2   2   2   2
#     4  10  18  38  60  83 123 152 195 249 289 358
#     4  11  18  36  57  91 128 147 195 242 310 356
#     4  12  21  34  64  94 122 157 194 253 296 360
#     4  10  22  40  63  80 116 171 205 242 289 357
#     4  10  23  39  56  92 126 156 197 245 305 358
#     4   9  20  38  58  85 129 153 189 254 294 364
#     4  10  20  36  58  88 129 150 190 244 315 351
#     4  10  21  38  61  90 112 165 212 232 296 345
#
# _framework density 22.909870000000002
#
# number of rings (size 3 to 8) (size 9 to 14) (size 15 to 20)
#    0.750    1.000    5.000    0.375    0.000    3.500 
#    0.000    0.000    0.000    0.000    0.000    7.000 
#    0.000    0.000    0.000    0.000    0.000    0.000 
#
# Total GULP energy -89121.777850 kJ/mol
# GULP energy per Si atom -5570.111116 kJ/mol
# Density = 2.285773 g / cm^3
# Si number density = 22.909870 Si / 1000 Ang^3
#
#
#
# Elastic Constant Matrix: (Units=GPa)
#
#
# Indices 1 2 3 4 5 6 
#
# 1 155.1680 3.5370 2.3643 -12.8571 -31.8296 -9.0046
# 2 3.5370 58.2396 8.4549 3.5755 -4.9548 -7.7437
# 3 2.3643 8.4549 22.9929 -1.1190 0.1799 -7.6725
# 4 -12.8571 3.5755 -1.1190 27.1901 4.5796 2.6061
# 5 -31.8296 -4.9548 0.1799 4.5796 34.5564 5.2621
# 6 -9.0046 -7.7437 -7.6725 2.6061 5.2621 35.3912
#
#
#
# Elastic Compliance Matrix: (Units=1/GPa)
#
#
# Indices 1 2 3 4 5 6 
#
# 1 0.008158 0.000132 -0.000572 0.002553 0.007086 0.000739
# 2 0.000132 0.018880 -0.006270 -0.003421 0.002915 0.002624
# 3 -0.000572 -0.006270 0.049156 0.002245 -0.003423 0.009483
# 4 0.002553 -0.003421 0.002245 0.039236 -0.003039 -0.002050
# 5 0.007086 0.002915 -0.003423 -0.003039 0.036845 -0.003556
# 6 0.000739 0.002624 0.009483 -0.002050 -0.003556 0.031753
#
#
# Mechanical properties :
#
#
# Convention : Reuss Voigt Hill
#
# Bulk Modulus (GPa) = 15.93000 29.45699 22.69350
# Shear Modulus (GPa) = 22.89672 34.23048 28.56360
#
# Velocity S-wave (km/s) = 3.16480 3.86960 3.53481
# Velocity P-wave (km/s) = 4.50811 5.73156 5.15625
#
# Compressibility (1/GPa) = 0.06277464
#
# Stress axis : x y z
#
# Youngs Moduli (GPa) = 122.57631 52.96749 20.34320
#
# Poissons Ratio (x) = -0.00699 0.01164
# Poissons Ratio (y) = -0.01617 0.12755
# Poissons Ratio (z) = 0.07011 0.33209
#
# Static dielectric constant tensor:
#      x y z
#    x 1.967310 0.004360 -0.020980 
#    y 0.004360 1.921010 -0.014700 
#    z -0.020980 -0.014700 1.825930 
# 
# From -- ./inp_files/469824.got.cif
#   From: 2010.05.17/outbox.cif.g08.bks.cpg/sg2_235_cif.got.tgz:469824.got - 2010.06.03 11:33:40.
