data_PCOD9079137
_publ_section_title
;
Structure prediction by ZEFSAII (Michael W. Deem and Ramdas Pophale) SiO2 
 PCOD9079137
Probable space group: P -1
;
_chemical_formula_sum "Si O2"
_cell_formula_units_Z 16
_cell_length_a 9.329713
_cell_length_b 14.989440
_cell_length_c 12.994129
_cell_angle_alpha 31.664057
_cell_angle_beta 82.929878
_cell_angle_gamma 61.175509
_cell_volume 652.621627
_symmetry_space_group_name_H-M "P -1"
_symmetry_group_IT_number 2
_symmetry_cell_setting 'triclinic'
loop_
_space_group_symop_operation_xyz
x,y,z
-x,-y,-z
loop_
_atom_site_type_symbol
_atom_site_label
_atom_site_fract_x
_atom_site_fract_y
_atom_site_fract_z
Si Si1 0.828619 0.186638 0.448086
Si Si2 0.263651 0.715530 0.271995
Si Si3 0.984995 0.780910 0.101185
Si Si4 0.468886 0.677428 0.093909
Si Si5 0.268334 0.206391 0.044361
Si Si6 0.578027 0.127463 0.434898
Si Si7 0.777241 0.345769 0.993353
Si Si8 0.931384 0.671648 0.742359
O O1 0.666991 0.378643 0.363755
O O2 0.699539 0.205221 0.352358
O O3 0.942845 0.259023 0.333209
O O4 0.001340 0.903539 0.741399
O O5 0.500000 0.500000 0.500000
O O6 0.133312 0.654781 0.314938
O O7 0.308456 0.783729 0.095987
O O8 0.128596 0.942684 0.138588
O O9 0.163876 0.627446 0.149241
O O10 0.795821 0.829584 0.022094
O O11 0.351423 0.716511 0.961923
O O12 0.565853 0.781352 0.989306
O O13 0.359639 0.012493 0.321925
O O14 0.043821 0.481065 0.826017
O O15 0.344241 0.402392 0.183317
O O16 0.686620 0.926395 0.531854
O O17 0.000000 0.500000 0.000000
#
# Coordination Sequence:
#
# PCOD9079137 Si02
#       8
#     2   2   2   2   2   2   2   2
#     4  10  18  36  63  82 120 159 205 244 286 350
#     4  10  21  38  64  89 115 151 198 245 292 359
#     4  10  21  37  61  86 117 152 197 242 290 359
#     4   9  21  38  59  89 120 155 193 245 301 350
#     4  10  20  40  60  83 125 158 191 246 304 345
#     4  10  20  36  61  85 116 163 202 246 284 353
#     4  10  20  36  60  88 112 161 208 236 291 350
#     4   9  20  37  57  87 123 161 195 246 300 336
#
# _framework density 24.516501999999999
#
# number of rings (size 3 to 8) (size 9 to 14) (size 15 to 20)
#    0.000    2.250    1.250    1.125    3.500    1.000 
#    4.500    1.250    0.000    0.000    0.000    0.000 
#    0.000    0.000    0.000    0.000    0.000    0.000 
#
# Total GULP energy -89178.243841 kJ/mol
# GULP energy per Si atom -5573.640240 kJ/mol
# Density = 2.446070 g / cm^3
# Si number density = 24.516502 Si / 1000 Ang^3
#
#
#
# Elastic Constant Matrix: (Units=GPa)
#
#
# Indices 1 2 3 4 5 6 
#
# 1 131.1145 32.2782 29.8541 -2.6480 8.7555 22.4189
# 2 32.2782 77.5138 28.3407 -26.8790 -0.6514 10.0621
# 3 29.8541 28.3407 102.6135 -22.8509 19.2003 0.7742
# 4 -2.6480 -26.8790 -22.8509 36.0266 -0.2053 12.5770
# 5 8.7555 -0.6514 19.2003 -0.2053 41.3697 -7.3961
# 6 22.4189 10.0621 0.7742 12.5770 -7.3961 48.8812
#
#
#
# Elastic Compliance Matrix: (Units=1/GPa)
#
#
# Indices 1 2 3 4 5 6 
#
# 1 0.009598 -0.003564 -0.001876 -0.001963 -0.001836 -0.003411
# 2 -0.003564 0.022026 -0.001006 0.018156 0.000316 -0.007507
# 3 -0.001876 -0.001006 0.013678 0.008558 -0.006337 -0.002310
# 4 -0.001963 0.018156 0.008558 0.052642 -0.006128 -0.017444
# 5 -0.001836 0.000316 -0.006337 -0.006128 0.028692 0.006796
# 6 -0.003411 -0.007507 -0.002310 -0.017444 0.006796 0.029121
#
#
# Mechanical properties :
#
#
# Convention : Reuss Voigt Hill
#
# Bulk Modulus (GPa) = 30.85471 54.68752 42.77112
# Shear Modulus (GPa) = 27.86293 39.97342 33.91817
#
# Velocity S-wave (km/s) = 3.37485 4.04229 3.72356
# Velocity P-wave (km/s) = 5.27246 6.64392 5.99752
#
# Compressibility (1/GPa) = 0.03240996
#
# Stress axis : x y z
#
# Youngs Moduli (GPa) = 104.19120 45.40139 73.11162
#
# Poissons Ratio (x) = 0.16182 0.13714
# Poissons Ratio (y) = 0.37136 0.07353
# Poissons Ratio (z) = 0.19544 0.04566
#
# Static dielectric constant tensor:
#      x y z
#    x 2.072610 0.047990 0.041280 
#    y 0.047990 2.060340 0.058310 
#    z 0.041280 0.058310 1.966220 
# 
# From -- ./inp_files/495484.got.cif
#   From: 2010.05.17/outbox.cif.g08.bks.cpg/sg2_248_cif.got.tgz:495484.got - 2010.06.03 11:33:40.
