data_PCOD9079721
_publ_section_title
;
Structure prediction by ZEFSAII (Michael W. Deem and Ramdas Pophale) SiO2 
 PCOD9079721
Probable space group: P -1
;
_chemical_formula_sum "Si O2"
_cell_formula_units_Z 14
_cell_length_a 10.437164
_cell_length_b 7.977455
_cell_length_c 11.645336
_cell_angle_alpha 112.381568
_cell_angle_beta 94.879563
_cell_angle_gamma 135.659959
_cell_volume 522.089554
_symmetry_space_group_name_H-M "P -1"
_symmetry_group_IT_number 2
_symmetry_cell_setting 'triclinic'
loop_
_space_group_symop_operation_xyz
x,y,z
-x,-y,-z
loop_
_atom_site_type_symbol
_atom_site_label
_atom_site_fract_x
_atom_site_fract_y
_atom_site_fract_z
Si Si1 0.715100 0.718617 0.493801
Si Si2 0.683256 0.448966 0.038632
Si Si3 0.918697 0.918425 0.842720
Si Si4 0.999265 0.600524 0.264016
Si Si5 0.271335 0.667743 0.617184
Si Si6 0.442448 0.237863 0.176987
Si Si7 0.644546 0.292311 0.732784
O O1 0.500000 0.500000 0.500000
O O2 0.810749 0.626373 0.501671
O O3 0.622993 0.593632 0.325081
O O4 0.876819 0.068177 0.615391
O O5 0.471323 0.249985 0.047490
O O6 0.808818 0.429898 0.111895
O O7 0.635661 0.362865 0.879586
O O8 0.866112 0.818429 0.148804
O O9 0.787870 0.959146 0.844049
O O10 0.740058 0.555720 0.725345
O O11 0.000000 0.000000 0.000000
O O12 0.170985 0.651933 0.245368
O O13 0.896993 0.427741 0.335086
O O14 0.468827 0.830777 0.762795
O O15 0.400483 0.931363 0.601249
#
# Coordination Sequence:
#
# PCOD9079721 Si02
#       7
#     2   2   2   2   2   2   2
#     4  10  18  37  64  83 113 146 191 234 279 335
#     4  10  22  37  60  84 114 152 188 232 281 339
#     4  10  22  38  57  80 115 159 189 224 279 342
#     4  11  20  37  61  87 113 145 190 236 282 334
#     4   9  21  35  59  86 111 145 185 239 279 326
#     4   9  21  38  58  85 109 150 194 229 277 333
#     4  11  22  35  55  88 118 147 185 236 287 328
#
# _framework density 26.815322999999999
#
# number of rings (size 3 to 8) (size 9 to 14) (size 15 to 20)
#    0.857    1.143    1.429    2.571    0.000    9.143 
#    0.000    0.714    0.000    1.714    0.000    0.000 
#    0.000    0.000    0.000    0.000    0.000    0.000 
#
# Total GULP energy -78277.792912 kJ/mol
# GULP energy per Si atom -5591.270922 kJ/mol
# Density = 2.675429 g / cm^3
# Si number density = 26.815323 Si / 1000 Ang^3
#
#
#
# Elastic Constant Matrix: (Units=GPa)
#
#
# Indices 1 2 3 4 5 6 
#
# 1 46.2750 7.7987 7.7977 -0.3985 -5.4342 9.1006
# 2 7.7987 128.7855 16.7109 7.7017 -22.2865 9.9968
# 3 7.7977 16.7109 74.4270 -6.3379 -6.8869 -4.6901
# 4 -0.3985 7.7017 -6.3379 54.6371 -2.7247 -6.0098
# 5 -5.4342 -22.2865 -6.8869 -2.7247 29.3780 -4.6274
# 6 9.1006 9.9968 -4.6901 -6.0098 -4.6274 28.8135
#
#
#
# Elastic Compliance Matrix: (Units=1/GPa)
#
#
# Indices 1 2 3 4 5 6 
#
# 1 0.023904 0.000005 -0.002847 -0.000894 0.002445 -0.007809
# 2 0.000005 0.009376 -0.001859 -0.001554 0.006076 -0.002905
# 3 -0.002847 -0.001859 0.014928 0.002645 0.002586 0.004941
# 4 -0.000894 -0.001554 0.002645 0.019542 0.001978 0.005645
# 5 0.002445 0.006076 0.002586 0.001978 0.040595 0.004473
# 6 -0.007809 -0.002905 0.004941 0.005645 0.004473 0.040880
#
#
# Mechanical properties :
#
#
# Convention : Reuss Voigt Hill
#
# Bulk Modulus (GPa) = 25.77038 34.90025 30.33531
# Shear Modulus (GPa) = 29.14399 37.04439 33.09419
#
# Velocity S-wave (km/s) = 3.30030 3.72084 3.51686
# Velocity P-wave (km/s) = 4.91466 5.61274 5.27526
#
# Compressibility (1/GPa) = 0.03880424
#
# Stress axis : x y z
#
# Youngs Moduli (GPa) = 41.83382 106.65957 66.98998
#
# Poissons Ratio (x) = -0.00049 0.19075
# Poissons Ratio (y) = -0.00019 0.12452
# Poissons Ratio (z) = 0.11912 0.19825
#
# Static dielectric constant tensor:
#      x y z
#    x 2.086170 -0.058870 -0.000840 
#    y -0.058870 2.084390 0.054910 
#    z -0.000840 0.054910 2.169530 
# 
# From -- ./inp_files/464555.got.cif
#   From: 2010.05.17/outbox.cif.g08.bks.cpg/sg2_233_cif.got.tgz:464555.got - 2010.06.03 11:33:40.
