data_PCOD9079148
_publ_section_title
;
Structure prediction by ZEFSAII (Michael W. Deem and Ramdas Pophale) SiO2 
 PCOD9079148
Probable space group: P -1
;
_chemical_formula_sum "Si O2"
_cell_formula_units_Z 14
_cell_length_a 13.998576
_cell_length_b 11.233613
_cell_length_c 11.449818
_cell_angle_alpha 49.953069
_cell_angle_beta 146.831931
_cell_angle_gamma 117.794583
_cell_volume 742.771668
_symmetry_space_group_name_H-M "P -1"
_symmetry_group_IT_number 2
_symmetry_cell_setting 'triclinic'
loop_
_space_group_symop_operation_xyz
x,y,z
-x,-y,-z
loop_
_atom_site_type_symbol
_atom_site_label
_atom_site_fract_x
_atom_site_fract_y
_atom_site_fract_z
Si Si1 0.098813 0.202727 0.589483
Si Si2 0.039502 0.019684 0.222031
Si Si3 0.261991 0.096980 0.592085
Si Si4 0.936854 0.542796 0.276448
Si Si5 0.478081 0.229358 0.906660
Si Si6 0.814574 0.209255 0.689910
Si Si7 0.465184 0.449809 0.129611
O O1 0.115820 0.127586 0.525716
O O2 0.305308 0.214567 0.818341
O O3 0.989777 0.378801 0.365022
O O4 0.020557 0.099428 0.670022
O O5 0.163924 0.122122 0.353215
O O6 0.149913 0.918116 0.297387
O O7 0.868866 0.121087 0.922227
O O8 0.403155 0.203829 0.715483
O O9 0.367009 0.917414 0.817560
O O10 0.000000 0.500000 0.500000
O O11 0.045371 0.672557 0.259977
O O12 0.727186 0.596889 0.028570
O O13 0.530897 0.395365 0.884956
O O14 0.621326 0.311854 0.415915
O O15 0.500000 0.500000 0.000000
#
# Coordination Sequence:
#
# PCOD9079148 Si02
#       7
#     2   2   2   2   2   2   2
#     4  10  18  36  63  86 115 154 203 239 285 353
#     4  11  22  38  59  84 129 156 190 248 301 347
#     4   9  19  36  59  89 120 155 199 245 289 349
#     4  12  21  38  64  87 113 154 205 237 293 349
#     4   9  19  34  60  94 113 147 211 242 288 340
#     4  11  24  41  55  95 122 155 196 243 305 350
#     4  12  21  37  63  84 120 154 199 254 285 345
#
# _framework density 18.848323000000001
#
# number of rings (size 3 to 8) (size 9 to 14) (size 15 to 20)
#    0.857    0.571    4.286    2.143    0.000    0.000 
#    2.571    4.286    0.000    2.571    0.000    0.000 
#    0.000    0.000    0.000    0.000    0.000    0.000 
#
# Total GULP energy -78076.122317 kJ/mol
# GULP energy per Si atom -5576.865880 kJ/mol
# Density = 1.880542 g / cm^3
# Si number density = 18.848323 Si / 1000 Ang^3
#
#
#
# Elastic Constant Matrix: (Units=GPa)
#
#
# Indices 1 2 3 4 5 6 
#
# 1 39.3457 13.2185 36.1869 6.8657 8.2643 -11.9984
# 2 13.2185 57.4225 44.4331 9.6188 -0.2351 -10.4421
# 3 36.1869 44.4331 127.9220 14.2434 14.1478 -27.4933
# 4 6.8657 9.6188 14.2434 27.2156 -1.8279 7.9853
# 5 8.2643 -0.2351 14.1478 -1.8279 35.1097 1.7226
# 6 -11.9984 -10.4421 -27.4933 7.9853 1.7226 26.1578
#
#
#
# Elastic Compliance Matrix: (Units=1/GPa)
#
#
# Indices 1 2 3 4 5 6 
#
# 1 0.039437 0.000136 -0.005032 -0.013066 -0.008789 0.017422
# 2 0.000136 0.024862 -0.007553 -0.005751 0.002701 0.003626
# 3 -0.005032 -0.007553 0.017437 -0.010578 -0.007263 0.016711
# 4 -0.013066 -0.005751 -0.010578 0.059714 0.012295 -0.038446
# 5 -0.008789 0.002701 -0.007263 0.012295 0.034952 -0.016642
# 6 0.017422 0.003626 0.016711 -0.038446 -0.016642 0.078066
#
#
# Mechanical properties :
#
#
# Convention : Reuss Voigt Hill
#
# Bulk Modulus (GPa) = 17.59392 45.81857 31.70625
# Shear Modulus (GPa) = 16.76097 26.42008 21.59052
#
# Velocity S-wave (km/s) = 2.98527 3.74802 3.38818
# Velocity P-wave (km/s) = 4.60839 6.56445 5.67139
#
# Compressibility (1/GPa) = 0.05683782
#
# Stress axis : x y z
#
# Youngs Moduli (GPa) = 25.35688 40.22232 57.34916
#
# Poissons Ratio (x) = -0.00548 0.28858
# Poissons Ratio (y) = -0.00346 0.43317
# Poissons Ratio (z) = 0.12760 0.30381
#
# Static dielectric constant tensor:
#      x y z
#    x 1.644670 -0.007140 0.012740 
#    y -0.007140 1.711180 0.036420 
#    z 0.012740 0.036420 1.651550 
# 
# From -- ./inp_files/449818.got.cif
#   From: 2010.05.17/outbox.cif.g08.bks.cpg/sg2_225_cif.got.tgz:449818.got - 2010.06.03 11:33:40.
