data_PCOD9079832
_publ_section_title
;
Structure prediction by ZEFSAII (Michael W. Deem and Ramdas Pophale) SiO2 
 PCOD9079832
Probable space group: P -1
;
_chemical_formula_sum "Si O2"
_cell_formula_units_Z 16
_cell_length_a 11.992851
_cell_length_b 7.860457
_cell_length_c 20.543483
_cell_angle_alpha 49.383669
_cell_angle_beta 148.328677
_cell_angle_gamma 141.203132
_cell_volume 636.649723
_symmetry_space_group_name_H-M "P -1"
_symmetry_group_IT_number 2
_symmetry_cell_setting 'triclinic'
loop_
_space_group_symop_operation_xyz
x,y,z
-x,-y,-z
loop_
_atom_site_type_symbol
_atom_site_label
_atom_site_fract_x
_atom_site_fract_y
_atom_site_fract_z
Si Si1 0.676351 0.544513 0.718941
Si Si2 0.648279 0.932779 0.539949
Si Si3 0.794254 0.382451 0.018423
Si Si4 0.928245 0.010992 0.035072
Si Si5 0.587795 0.174874 0.105483
Si Si6 0.398047 0.125249 0.289052
Si Si7 0.193882 0.026286 0.645782
Si Si8 0.855384 0.616679 0.361224
O O1 0.622177 0.653470 0.600082
O O2 0.596568 0.688204 0.696160
O O3 0.482929 0.224667 0.711372
O O4 0.969962 0.649482 0.845332
O O5 0.500000 0.000000 0.500000
O O6 0.537505 0.974893 0.408950
O O7 0.943808 0.172379 0.642934
O O8 0.924524 0.658277 0.971810
O O9 0.692130 0.367840 0.045233
O O10 0.561821 0.128879 0.926414
O O11 0.643469 0.851021 0.961739
O O12 0.099750 0.929574 0.177212
O O13 0.000000 0.000000 0.000000
O O14 0.800799 0.206098 0.254532
O O15 0.578765 0.358489 0.267609
O O16 0.161890 0.190917 0.645135
O O17 0.000000 0.000000 0.500000
O O18 0.000000 0.500000 0.500000
#
# Coordination Sequence:
#
# PCOD9079832 Si02
#       8
#     2   2   2   2   2   2   2   2
#     4  10  18  37  66  93 122 163 213 269 319 377
#     4   9  18  33  58  94 121 152 207 264 317 369
#     4  11  22  43  74  98 126 170 232 280 316 394
#     4  12  25  43  64  93 138 175 213 276 338 395
#     4  11  24  43  71 101 125 174 231 274 328 388
#     4   9  19  37  61  88 124 166 215 260 313 388
#     4  11  23  40  62  93 134 169 209 267 333 396
#     4   9  18  35  59  84 119 161 212 250 308 377
#
# _framework density 25.131557999999998
#
# number of rings (size 3 to 8) (size 9 to 14) (size 15 to 20)
#    0.000    1.750    2.500    3.375    0.000    3.500 
#    2.250    1.250    0.000    0.000    0.000    0.000 
#    0.000    0.000    0.000    0.000    0.000    0.000 
#
# Total GULP energy -89204.981826 kJ/mol
# GULP energy per Si atom -5575.311364 kJ/mol
# Density = 2.507436 g / cm^3
# Si number density = 25.131558 Si / 1000 Ang^3
#
#
#
# Elastic Constant Matrix: (Units=GPa)
#
#
# Indices 1 2 3 4 5 6 
#
# 1 95.3401 20.5602 26.5237 6.9798 9.5297 24.4162
# 2 20.5602 39.1561 7.8754 -11.8924 5.7059 14.9588
# 3 26.5237 7.8754 136.1187 -7.4772 8.3600 13.5306
# 4 6.9798 -11.8924 -7.4772 27.7702 3.7555 -2.1415
# 5 9.5297 5.7059 8.3600 3.7555 31.0912 6.2455
# 6 24.4162 14.9588 13.5306 -2.1415 6.2455 32.6244
#
#
#
# Elastic Compliance Matrix: (Units=1/GPa)
#
#
# Indices 1 2 3 4 5 6 
#
# 1 0.015193 -0.006953 -0.002209 -0.007951 -0.000272 -0.007736
# 2 -0.006953 0.039852 0.001577 0.019121 -0.005628 -0.011390
# 3 -0.002209 0.001577 0.008181 0.003541 -0.001863 -0.001874
# 4 -0.007951 0.019121 0.003541 0.048254 -0.007933 0.000401
# 5 -0.000272 -0.005628 -0.001863 -0.007933 0.035494 -0.003758
# 6 -0.007736 -0.011390 -0.001874 0.000401 -0.003758 0.043187
#
#
# Mechanical properties :
#
#
# Convention : Reuss Voigt Hill
#
# Bulk Modulus (GPa) = 20.80906 42.28151 31.54528
# Shear Modulus (GPa) = 22.58868 32.67418 27.63143
#
# Velocity S-wave (km/s) = 3.00128 3.60964 3.31943
# Velocity P-wave (km/s) = 4.50647 5.85092 5.22214
#
# Compressibility (1/GPa) = 0.04805599
#
# Stress axis : x y z
#
# Youngs Moduli (GPa) = 65.81832 25.09308 122.23488
#
# Poissons Ratio (x) = 0.17448 0.27005
# Poissons Ratio (y) = 0.45764 -0.19282
# Poissons Ratio (z) = 0.14541 -0.03958
#
# Static dielectric constant tensor:
#      x y z
#    x 2.117610 0.019170 -0.140260 
#    y 0.019170 2.135370 -0.110640 
#    z -0.140260 -0.110640 1.855030 
# 
# From -- ./inp_files/427498.got.cif
#   From: 2010.05.17/outbox.cif.g08.bks.cpg/sg2_214_cif.got.tgz:427498.got - 2010.06.03 11:33:40.
