data_PCOD9079056
_publ_section_title
;
Structure prediction by ZEFSAII (Michael W. Deem and Ramdas Pophale) SiO2 
 PCOD9079056
Probable space group: P -1
;
_chemical_formula_sum "Si O2"
_cell_formula_units_Z 16
_cell_length_a 14.274104
_cell_length_b 8.726133
_cell_length_c 10.357265
_cell_angle_alpha 43.813990
_cell_angle_beta 110.161290
_cell_angle_gamma 89.467945
_cell_volume 769.526176
_symmetry_space_group_name_H-M "P -1"
_symmetry_group_IT_number 2
_symmetry_cell_setting 'triclinic'
loop_
_space_group_symop_operation_xyz
x,y,z
-x,-y,-z
loop_
_atom_site_type_symbol
_atom_site_label
_atom_site_fract_x
_atom_site_fract_y
_atom_site_fract_z
Si Si1 0.513167 0.448546 0.888097
Si Si2 0.132364 0.263480 0.818716
Si Si3 0.531266 0.277642 0.543503
Si Si4 0.035923 0.186945 0.555013
Si Si5 0.785511 0.060031 0.716803
Si Si6 0.707972 0.573478 0.308631
Si Si7 0.420704 0.052138 0.806171
Si Si8 0.934764 0.778129 0.747454
O O1 0.527883 0.620910 0.682317
O O2 0.397625 0.445629 0.790987
O O3 0.500000 0.500000 0.000000
O O4 0.604756 0.180998 0.078517
O O5 0.105244 0.179039 0.720208
O O6 0.250767 0.268618 0.857480
O O7 0.056584 0.539721 0.647093
O O8 0.136209 0.085463 0.043210
O O9 0.500000 0.500000 0.500000
O O10 0.486180 0.092528 0.693899
O O11 0.660089 0.151786 0.649866
O O12 0.087055 0.194823 0.433476
O O13 0.998152 0.961296 0.683014
O O14 0.824795 0.892403 0.711304
O O15 0.796233 0.307667 0.535243
O O16 0.677822 0.704279 0.352320
O O17 0.500000 0.000000 0.000000
O O18 0.000000 0.500000 0.000000
#
# Coordination Sequence:
#
# PCOD9079056 Si02
#       8
#     2   2   2   2   2   2   2   2
#     4  10  22  38  60  89 124 165 202 262 318 359
#     4  11  22  40  66  95 117 165 216 262 302 374
#     4  11  20  38  64  91 118 162 214 250 300 377
#     4  10  24  41  64  93 126 158 211 260 316 376
#     4  11  21  36  65  91 122 163 208 255 311 370
#     4  10  21  38  62  90 123 162 214 256 303 379
#     4  10  18  36  62  84 117 163 203 250 306 357
#     4  11  22  43  63  90 129 166 194 258 331 374
#
# _framework density 20.792014999999999
#
# number of rings (size 3 to 8) (size 9 to 14) (size 15 to 20)
#    0.000    1.500    6.250    1.500    0.000    2.000 
#    4.500    0.000    0.000    0.000    0.000    0.000 
#    0.000    0.000    0.000    0.000    0.000    0.000 
#
# Total GULP energy -89098.404996 kJ/mol
# GULP energy per Si atom -5568.650312 kJ/mol
# Density = 2.074469 g / cm^3
# Si number density = 20.792015 Si / 1000 Ang^3
#
#
#
# Elastic Constant Matrix: (Units=GPa)
#
#
# Indices 1 2 3 4 5 6 
#
# 1 34.7949 19.1708 23.3552 4.6364 -7.9665 -19.4897
# 2 19.1708 112.0576 64.5965 0.7992 -6.6767 -28.8717
# 3 23.3552 64.5965 140.8229 0.9974 -30.1608 -3.6562
# 4 4.6364 0.7992 0.9974 38.2878 -10.0392 -6.8077
# 5 -7.9665 -6.6767 -30.1608 -10.0392 22.7065 -0.4261
# 6 -19.4897 -28.8717 -3.6562 -6.8077 -0.4261 30.3602
#
#
#
# Elastic Compliance Matrix: (Units=1/GPa)
#
#
# Indices 1 2 3 4 5 6 
#
# 1 0.058144 0.007584 -0.009150 0.004456 0.013283 0.044621
# 2 0.007584 0.018978 -0.010322 0.001743 -0.004287 0.022004
# 3 -0.009150 -0.010322 0.016635 0.003071 0.016968 -0.012760
# 4 0.004456 0.001743 0.003071 0.033238 0.021087 0.012637
# 5 0.013283 -0.004287 0.016968 0.021087 0.079534 0.012339
# 6 0.044621 0.022004 -0.012760 0.012637 0.012339 0.083977
#
#
# Mechanical properties :
#
#
# Convention : Reuss Voigt Hill
#
# Bulk Modulus (GPa) = 14.28975 55.76895 35.02935
# Shear Modulus (GPa) = 14.80993 30.30774 22.55883
#
# Velocity S-wave (km/s) = 2.67177 3.82208 3.29747
# Velocity P-wave (km/s) = 4.05036 6.80869 5.60195
#
# Compressibility (1/GPa) = 0.06998022
#
# Stress axis : x y z
#
# Youngs Moduli (GPa) = 17.19856 52.69124 60.11509
#
# Poissons Ratio (x) = -0.39958 0.55004
# Poissons Ratio (y) = -0.13043 0.62053
# Poissons Ratio (z) = 0.15736 0.54390
#
# Static dielectric constant tensor:
#      x y z
#    x 1.758750 0.007640 0.034260 
#    y 0.007640 1.761030 -0.080370 
#    z 0.034260 -0.080370 1.752630 
# 
# From -- ./inp_files/328446.got.cif
#   From: 2010.05.17/outbox.cif.g08.bks.cpg/sg2_165_cif.got.tgz:328446.got - 2010.06.03 11:33:40.
