data_PCOD9079821
_publ_section_title
;
Structure prediction by ZEFSAII (Michael W. Deem and Ramdas Pophale) SiO2 
 PCOD9079821
Probable space group: P -1
;
_chemical_formula_sum "Si O2"
_cell_formula_units_Z 16
_cell_length_a 8.073634
_cell_length_b 16.282050
_cell_length_c 10.832038
_cell_angle_alpha 52.028080
_cell_angle_beta 96.230063
_cell_angle_gamma 136.992187
_cell_volume 591.522690
_symmetry_space_group_name_H-M "P -1"
_symmetry_group_IT_number 2
_symmetry_cell_setting 'triclinic'
loop_
_space_group_symop_operation_xyz
x,y,z
-x,-y,-z
loop_
_atom_site_type_symbol
_atom_site_label
_atom_site_fract_x
_atom_site_fract_y
_atom_site_fract_z
Si Si1 0.311360 0.291253 0.657664
Si Si2 0.583215 0.854345 0.712967
Si Si3 0.750526 0.142767 0.779012
Si Si4 0.488763 0.311041 0.903976
Si Si5 0.839009 0.512606 0.335627
Si Si6 0.195329 0.242431 0.313413
Si Si7 0.818817 0.281628 0.413808
Si Si8 0.141710 0.299208 0.010683
O O1 0.500000 0.500000 0.500000
O O2 0.408665 0.259837 0.800552
O O3 0.472242 0.335270 0.505543
O O4 0.959300 0.148128 0.776395
O O5 0.671133 0.796299 0.694284
O O6 0.341401 0.789089 0.667252
O O7 0.471020 0.758521 0.927378
O O8 0.922177 0.088007 0.533670
O O9 0.648954 0.121645 0.652109
O O10 0.969549 0.356663 0.646167
O O11 0.500000 0.000000 0.000000
O O12 0.190598 0.220091 0.011071
O O13 0.811132 0.548592 0.720631
O O14 0.847830 0.410659 0.359427
O O15 0.985460 0.676111 0.104092
O O16 0.505099 0.471375 0.151164
O O17 0.013661 0.200760 0.222895
#
# Coordination Sequence:
#
# PCOD9079821 Si02
#       8
#     2   2   2   2   2   2   2   2
#     4  10  19  41  64  87 117 170 206 240 301 373
#     4  10  22  37  60  94 124 154 199 267 312 350
#     4  11  24  39  64  95 125 159 204 261 307 357
#     4  11  21  39  65  84 124 165 210 249 303 375
#     4  11  21  40  66  88 121 164 212 244 303 379
#     4   9  20  37  60  91 119 158 208 249 306 371
#     4  12  23  40  62  92 125 163 204 256 311 360
#     4  10  18  37  66  86 114 166 206 244 300 384
#
# _framework density 27.048838
#
# number of rings (size 3 to 8) (size 9 to 14) (size 15 to 20)
#    0.000    1.500    6.250    0.750    1.750    1.000 
#    0.000    3.750    0.000    0.000    0.000    0.000 
#    0.000    0.000    0.000    0.000    0.000    0.000 
#
# Total GULP energy -89445.988791 kJ/mol
# GULP energy per Si atom -5590.374299 kJ/mol
# Density = 2.698727 g / cm^3
# Si number density = 27.048838 Si / 1000 Ang^3
#
#
#
# Elastic Constant Matrix: (Units=GPa)
#
#
# Indices 1 2 3 4 5 6 
#
# 1 92.7150 15.0879 22.6512 2.5010 -13.9692 -1.8627
# 2 15.0879 94.5228 24.6743 15.7275 15.7249 29.3700
# 3 22.6512 24.6743 168.4918 31.4507 -3.7244 20.7590
# 4 2.5010 15.7275 31.4507 43.4581 15.4574 12.5063
# 5 -13.9692 15.7249 -3.7244 15.4574 31.9734 10.2635
# 6 -1.8627 29.3700 20.7590 12.5063 10.2635 34.2741
#
#
#
# Elastic Compliance Matrix: (Units=1/GPa)
#
#
# Indices 1 2 3 4 5 6 
#
# 1 0.012837 -0.003566 -0.000995 -0.002196 0.007360 0.002953
# 2 -0.003566 0.015889 -0.000582 0.000350 -0.005807 -0.011846
# 3 -0.000995 -0.000582 0.007837 -0.006115 0.004852 -0.003524
# 4 -0.002196 0.000350 -0.006115 0.034813 -0.017315 -0.004234
# 5 0.007360 -0.005807 0.004852 -0.017315 0.048096 -0.005647
# 6 0.002953 -0.011846 -0.003524 -0.004234 -0.005647 0.044858
#
#
# Mechanical properties :
#
#
# Convention : Reuss Voigt Hill
#
# Bulk Modulus (GPa) = 38.05533 53.39518 45.72525
# Shear Modulus (GPa) = 27.26669 41.49553 34.38111
#
# Velocity S-wave (km/s) = 3.17843 3.92100 3.56908
# Velocity P-wave (km/s) = 5.25067 6.34682 5.82459
#
# Compressibility (1/GPa) = 0.02627753
#
# Stress axis : x y z
#
# Youngs Moduli (GPa) = 77.90274 62.93652 127.60300
#
# Poissons Ratio (x) = 0.22443 0.12693
# Poissons Ratio (y) = 0.27780 0.07423
# Poissons Ratio (z) = 0.07749 0.03661
#
# Static dielectric constant tensor:
#      x y z
#    x 2.223090 0.139560 0.050950 
#    y 0.139560 2.224800 0.007260 
#    z 0.050950 0.007260 2.089870 
# 
# From -- ./inp_files/294442.got.cif
#   From: 2010.05.17/outbox.cif.g08.bks.cpg/sg2_148_cif.got.tgz:294442.got - 2010.06.03 11:33:40.
