data_PCOD9079497
_publ_section_title
;
Structure prediction by ZEFSAII (Michael W. Deem and Ramdas Pophale) SiO2 
 PCOD9079497
Probable space group: P -1
;
_chemical_formula_sum "Si O2"
_cell_formula_units_Z 12
_cell_length_a 8.036592
_cell_length_b 11.382072
_cell_length_c 15.245420
_cell_angle_alpha 28.768633
_cell_angle_beta 94.399779
_cell_angle_gamma 74.093925
_cell_volume 470.378722
_symmetry_space_group_name_H-M "P -1"
_symmetry_group_IT_number 2
_symmetry_cell_setting 'triclinic'
loop_
_space_group_symop_operation_xyz
x,y,z
-x,-y,-z
loop_
_atom_site_type_symbol
_atom_site_label
_atom_site_fract_x
_atom_site_fract_y
_atom_site_fract_z
Si Si1 0.079731 0.374521 0.407674
Si Si2 0.764803 0.322094 0.146687
Si Si3 0.331612 0.288166 0.937467
Si Si4 0.262090 0.501018 0.462916
Si Si5 0.614511 0.412207 0.414565
Si Si6 0.598682 0.928736 0.647504
O O1 0.048305 0.568713 0.366616
O O2 0.892141 0.635896 0.154750
O O3 0.076094 0.082478 0.595610
O O4 0.351555 0.152184 0.543086
O O5 0.757866 0.436504 0.169910
O O6 0.500000 0.500000 0.000000
O O7 0.781951 0.530186 0.944386
O O8 0.422453 0.337034 0.822570
O O9 0.533635 0.906926 0.234691
O O10 0.374888 0.573710 0.350039
O O11 0.223302 0.680881 0.434941
O O12 0.694317 0.093895 0.569543
O O13 0.500000 0.000000 0.500000
#
# Coordination Sequence:
#
# PCOD9079497 Si02
#       6
#     2   2   2   2   2   2
#     4  10  22  38  60  90 117 156 197 248 289 352
#     4  10  18  37  60  83 121 153 190 245 290 346
#     4  12  21  39  63  89 119 155 200 243 299 342
#     4  10  22  43  59  84 127 153 199 243 290 354
#     4  10  21  39  64  86 116 165 193 240 299 351
#     4  10  20  39  63  87 121 158 196 240 301 351
#
# _framework density 25.511354999999998
#
# number of rings (size 3 to 8) (size 9 to 14) (size 15 to 20)
#    0.000    1.667    5.000    3.000    0.000    0.667 
#    3.000    9.167    0.000    0.000    0.000    0.000 
#    0.000    0.000    0.000    0.000    0.000    0.000 
#
# Total GULP energy -67084.409000 kJ/mol
# GULP energy per Si atom -5590.367417 kJ/mol
# Density = 2.545329 g / cm^3
# Si number density = 25.511355 Si / 1000 Ang^3
#
#
#
# Elastic Constant Matrix: (Units=GPa)
#
#
# Indices 1 2 3 4 5 6 
#
# 1 61.4721 36.4084 32.5200 7.7530 -0.0779 24.2320
# 2 36.4084 172.7415 40.2137 38.6710 -1.7882 48.0268
# 3 32.5200 40.2137 111.0876 24.2556 -1.0562 10.0608
# 4 7.7530 38.6710 24.2556 51.6927 5.7937 5.1843
# 5 -0.0779 -1.7882 -1.0562 5.7937 46.7569 13.4488
# 6 24.2320 48.0268 10.0608 5.1843 13.4488 65.3753
#
#
#
# Elastic Compliance Matrix: (Units=1/GPa)
#
#
# Indices 1 2 3 4 5 6 
#
# 1 0.022841 -0.001895 -0.005629 0.001118 0.001606 -0.006627
# 2 -0.001895 0.009559 -0.000976 -0.006104 0.002904 -0.006283
# 3 -0.005629 -0.000976 0.011796 -0.004126 0.000375 0.001239
# 4 0.001118 -0.006104 -0.004126 0.025831 -0.004559 0.003595
# 5 0.001606 0.002904 0.000375 -0.004559 0.024204 -0.007404
# 6 -0.006627 -0.006283 0.001239 0.003595 -0.007404 0.023416
#
#
# Mechanical properties :
#
#
# Convention : Reuss Voigt Hill
#
# Bulk Modulus (GPa) = 36.77099 62.62058 49.69579
# Shear Modulus (GPa) = 34.79172 48.50892 41.65032
#
# Velocity S-wave (km/s) = 3.69694 4.36531 4.04495
# Velocity P-wave (km/s) = 5.71559 7.07159 6.42944
#
# Compressibility (1/GPa) = 0.02719535
#
# Stress axis : x y z
#
# Youngs Moduli (GPa) = 43.78049 104.61223 84.77733
#
# Poissons Ratio (x) = 0.19822 0.47723
# Poissons Ratio (y) = 0.08296 0.08276
# Poissons Ratio (z) = 0.24645 0.10212
#
# Static dielectric constant tensor:
#      x y z
#    x 2.115690 -0.063450 -0.036930 
#    y -0.063450 2.348560 -0.025370 
#    z -0.036930 -0.025370 1.951510 
# 
# From -- ./inp_files/164471.got.cif
#   From: 2010.05.17/outbox.cif.g08.bks.cpg/sg2_83_cif.got.tgz:164471.got - 2010.06.03 11:33:40.
