data_PCOD9079043
_publ_section_title
;
Structure prediction by ZEFSAII (Michael W. Deem and Ramdas Pophale) SiO2 
 PCOD9079043
Probable space group: P -1
;
_chemical_formula_sum "Si O2"
_cell_formula_units_Z 11
_cell_length_a 10.911764
_cell_length_b 7.835921
_cell_length_c 8.690239
_cell_angle_alpha 45.995046
_cell_angle_beta 92.110650
_cell_angle_gamma 120.805590
_cell_volume 393.141750
_symmetry_space_group_name_H-M "P -1"
_symmetry_group_IT_number 2
_symmetry_cell_setting 'triclinic'
loop_
_space_group_symop_operation_xyz
x,y,z
-x,-y,-z
loop_
_atom_site_type_symbol
_atom_site_label
_atom_site_fract_x
_atom_site_fract_y
_atom_site_fract_z
Si Si1 0.781042 0.660020 0.785874
Si Si2 0.199558 0.067151 0.083072
Si Si3 0.517091 0.031574 0.664032
Si Si4 0.135591 0.525170 0.686735
Si Si5 0.000000 0.500000 0.000000
Si Si6 0.520718 0.309278 0.768021
O O1 0.823146 0.925639 0.738834
O O2 0.707536 0.620525 0.637644
O O3 0.917792 0.633481 0.823779
O O4 0.611484 0.333185 0.058173
O O5 0.163509 0.283910 0.879547
O O6 0.374327 0.236082 0.904964
O O7 0.052402 0.710436 0.234880
O O8 0.711761 0.223801 0.577211
O O9 0.488071 0.239636 0.625859
O O10 0.500000 0.000000 0.500000
O O11 0.135070 0.647212 0.776017
O O12 0.500000 0.000000 0.000000
#
# Coordination Sequence:
#
# PCOD9079043 Si02
#       6
#     2   2   2   2   1   2
#     4  10  21  40  62  88 117 158 195 240 296 352
#     4  10  20  37  59  87 120 154 195 242 293 349
#     4  11  20  39  59  89 117 153 204 239 285 354
#     4  10  21  35  60  90 116 154 200 240 287 349
#     4  10  18  36  62  80 114 156 194 228 292 354
#     4  10  22  38  61  85 121 160 194 239 301 347
#
# _framework density 27.979731000000001
#
# number of rings (size 3 to 8) (size 9 to 14) (size 15 to 20)
#    0.000    1.818    3.636    2.727    0.000    0.727 
#    0.000    9.091    0.000    0.000    0.000    0.000 
#    0.000    0.000    0.000    0.000    0.000    0.000 
#
# Total GULP energy -61288.255996 kJ/mol
# GULP energy per Si atom -5571.659636 kJ/mol
# Density = 2.791605 g / cm^3
# Si number density = 27.979731 Si / 1000 Ang^3
#
#
#
# Elastic Constant Matrix: (Units=GPa)
#
#
# Indices 1 2 3 4 5 6 
#
# 1 170.9339 25.6851 10.1471 21.6068 -45.3989 11.6170
# 2 25.6851 144.0025 -0.2538 25.8622 -16.1661 12.9480
# 3 10.1471 -0.2538 104.8699 11.8316 -22.2917 -8.0574
# 4 21.6068 25.8622 11.8316 51.6774 2.5197 -4.6647
# 5 -45.3989 -16.1661 -22.2917 2.5197 49.2474 6.8151
# 6 11.6170 12.9480 -8.0574 -4.6647 6.8151 44.4220
#
#
#
# Elastic Compliance Matrix: (Units=1/GPa)
#
#
# Indices 1 2 3 4 5 6 
#
# 1 0.009538 0.000991 0.001674 -0.005824 0.010831 -0.004753
# 2 0.000991 0.008743 0.001382 -0.005720 0.005250 -0.003963
# 3 0.001674 0.001382 0.011428 -0.004405 0.007447 -0.000373
# 4 -0.005824 -0.005720 -0.004405 0.026853 -0.011581 0.006988
# 5 0.010831 0.005250 0.007447 -0.011581 0.037355 -0.009959
# 6 -0.004753 -0.003963 -0.000373 0.006988 -0.009959 0.027104
#
#
# Mechanical properties :
#
#
# Convention : Reuss Voigt Hill
#
# Bulk Modulus (GPa) = 26.45301 54.55145 40.50223
# Shear Modulus (GPa) = 39.83193 54.68455 47.25824
#
# Velocity S-wave (km/s) = 3.77716 4.42569 4.11422
# Velocity P-wave (km/s) = 5.33830 6.75683 6.08901
#
# Compressibility (1/GPa) = 0.03780289
#
# Stress axis : x y z
#
# Youngs Moduli (GPa) = 104.84584 114.37689 87.50267
#
# Poissons Ratio (x) = -0.11335 -0.14646
# Poissons Ratio (y) = -0.10390 -0.12094
# Poissons Ratio (z) = -0.17549 -0.15809
#
# Static dielectric constant tensor:
#      x y z
#    x 2.765420 0.148230 0.621610 
#    y 0.148230 2.336590 0.179840 
#    z 0.621610 0.179840 2.631600 
# 
# From -- ./inp_files/148184.got.cif
#   From: 2010.05.17/outbox.cif.g08.bks.cpg/sg2_75_cif.got.tgz:148184.got - 2010.06.03 11:33:40.
