data_PCOD9079880
_publ_section_title
;
Structure prediction by ZEFSAII (Michael W. Deem and Ramdas Pophale) SiO2 
 PCOD9079880
Probable space group: P -1
;
_chemical_formula_sum "Si O2"
_cell_formula_units_Z 14
_cell_length_a 9.421091
_cell_length_b 9.976187
_cell_length_c 14.799033
_cell_angle_alpha 134.546552
_cell_angle_beta 96.229842
_cell_angle_gamma 55.051123
_cell_volume 702.650825
_symmetry_space_group_name_H-M "P -1"
_symmetry_group_IT_number 2
_symmetry_cell_setting 'triclinic'
loop_
_space_group_symop_operation_xyz
x,y,z
-x,-y,-z
loop_
_atom_site_type_symbol
_atom_site_label
_atom_site_fract_x
_atom_site_fract_y
_atom_site_fract_z
Si Si1 0.890207 0.518832 0.671241
Si Si2 0.199542 0.790017 0.858085
Si Si3 0.163847 0.090202 0.844260
Si Si4 0.435319 0.899337 0.020119
Si Si5 0.424530 0.355264 0.417142
Si Si6 0.872119 0.488049 0.866837
Si Si7 0.326969 0.273446 0.566040
O O1 0.775191 0.483902 0.580105
O O2 0.890053 0.448431 0.741933
O O3 0.117152 0.355294 0.582736
O O4 0.748816 0.837995 0.813807
O O5 0.276129 0.508461 0.729858
O O6 0.152956 0.904451 0.807892
O O7 0.358313 0.789770 0.909207
O O8 0.000000 0.000000 0.000000
O O9 0.031851 0.222665 0.808368
O O10 0.394180 0.911707 0.750250
O O11 0.092752 0.324434 0.016131
O O12 0.646828 0.652012 0.962434
O O13 0.500000 0.000000 0.000000
O O14 0.500000 0.500000 0.500000
O O15 0.396323 0.281205 0.476229
O O16 0.500000 0.000000 0.500000
#
# Coordination Sequence:
#
# PCOD9079880 Si02
#       7
#     2   2   2   2   2   2   2
#     4  11  21  44  67  94 135 180 221 272 345 394
#     4  12  22  42  71  95 131 175 228 276 340 400
#     4  11  20  39  64 102 128 166 220 275 333 395
#     4  10  18  37  67  97 122 168 212 278 332 388
#     4  12  25  42  70  92 131 185 228 268 336 417
#     4  10  20  36  70 100 130 161 217 285 331 391
#     4  12  27  46  66  98 141 183 222 279 342 403
#
# _framework density 19.924547
#
# number of rings (size 3 to 8) (size 9 to 14) (size 15 to 20)
#    0.000    0.857    7.143    2.143    0.000    1.143 
#    2.571    2.143    0.000    0.000    0.000    0.000 
#    0.000    0.000    0.000    0.000    0.000    0.000 
#
# Total GULP energy -78194.921925 kJ/mol
# GULP energy per Si atom -5585.351566 kJ/mol
# Density = 1.987920 g / cm^3
# Si number density = 19.924547 Si / 1000 Ang^3
#
#
#
# Elastic Constant Matrix: (Units=GPa)
#
#
# Indices 1 2 3 4 5 6 
#
# 1 137.8545 73.6659 46.0034 4.6258 -4.8398 -17.8353
# 2 73.6659 134.4399 43.6550 3.1077 -5.0710 -11.0757
# 3 46.0034 43.6550 79.3111 1.0423 -5.0970 9.2429
# 4 4.6258 3.1077 1.0423 34.1184 -1.2203 -3.4802
# 5 -4.8398 -5.0710 -5.0970 -1.2203 46.6015 -5.5391
# 6 -17.8353 -11.0757 9.2429 -3.4802 -5.5391 24.0663
#
#
#
# Elastic Compliance Matrix: (Units=1/GPa)
#
#
# Indices 1 2 3 4 5 6 
#
# 1 0.013014 -0.004125 -0.006411 -0.000067 0.001452 0.010533
# 2 -0.004125 0.011479 -0.004351 0.000095 0.000835 0.004103
# 3 -0.006411 -0.004351 0.020425 -0.000902 -0.000699 -0.014890
# 4 -0.000067 0.000095 -0.000902 0.029889 0.001277 0.004957
# 5 0.001452 0.000835 -0.000699 0.001277 0.022500 0.007092
# 6 0.010533 0.004103 -0.014890 0.004957 0.007092 0.059313
#
#
# Mechanical properties :
#
#
# Convention : Reuss Voigt Hill
#
# Bulk Modulus (GPa) = 66.04160 75.36156 70.70158
# Shear Modulus (GPa) = 26.11760 33.50932 29.81346
#
# Velocity S-wave (km/s) = 3.62446 4.10544 3.87242
# Velocity P-wave (km/s) = 7.12274 7.77035 7.45358
#
# Compressibility (1/GPa) = 0.01514197
#
# Stress axis : x y z
#
# Youngs Moduli (GPa) = 76.84210 87.11727 48.96046
#
# Poissons Ratio (x) = 0.35935 0.31390
# Poissons Ratio (y) = 0.31697 0.21304
# Poissons Ratio (z) = 0.49266 0.37908
#
# Static dielectric constant tensor:
#      x y z
#    x 1.710580 -0.020500 0.008090 
#    y -0.020500 1.703360 -0.003980 
#    z 0.008090 -0.003980 1.762570 
# 
# From -- ./inp_files/204484.got.cif
#   From: 2010.05.17/outbox.cif.g08.bks.cpg/sg2_103_cif.got.tgz:204484.got - 2010.06.03 11:33:40.
