data_PCOD9079614
_publ_section_title
;
Structure prediction by ZEFSAII (Michael W. Deem and Ramdas Pophale) SiO2 
 PCOD9079614
Probable space group: P -1
;
_chemical_formula_sum "Si O2"
_cell_formula_units_Z 14
_cell_length_a 16.412324
_cell_length_b 10.124718
_cell_length_c 8.870853
_cell_angle_alpha 135.700936
_cell_angle_beta 42.303018
_cell_angle_gamma 146.707850
_cell_volume 525.283326
_symmetry_space_group_name_H-M "P -1"
_symmetry_group_IT_number 2
_symmetry_cell_setting 'triclinic'
loop_
_space_group_symop_operation_xyz
x,y,z
-x,-y,-z
loop_
_atom_site_type_symbol
_atom_site_label
_atom_site_fract_x
_atom_site_fract_y
_atom_site_fract_z
Si Si1 0.274032 0.070079 0.235462
Si Si2 0.643357 0.071511 0.571099
Si Si3 0.134389 0.312043 0.741011
Si Si4 0.294973 0.784236 0.737683
Si Si5 0.080181 0.738848 0.480619
Si Si6 0.883609 0.884062 0.919324
Si Si7 0.364056 0.555138 0.917979
O O1 0.181716 0.173630 0.466146
O O2 0.450071 0.282045 0.237026
O O3 0.169240 0.809329 0.258115
O O4 0.309181 0.003620 0.975671
O O5 0.704847 0.192218 0.421272
O O6 0.766306 0.045624 0.450324
O O7 0.457789 0.839048 0.609882
O O8 0.651649 0.255030 0.826417
O O9 0.155577 0.514235 0.773128
O O10 0.255887 0.440232 0.822608
O O11 0.959584 0.119300 0.899650
O O12 0.000000 0.500000 0.500000
O O13 0.944212 0.753138 0.651868
O O14 0.705915 0.662766 0.039025
O O15 0.000000 0.000000 0.000000
#
# Coordination Sequence:
#
# PCOD9079614 Si02
#       7
#     2   2   2   2   2   2   2
#     4  10  22  37  63  92 117 155 204 249 293 356
#     4  10  21  38  61  92 119 162 198 244 298 358
#     4  10  20  37  61  88 122 153 198 254 296 351
#     4  10  22  40  61  87 128 159 198 239 301 363
#     4  11  20  36  62  86 117 149 199 252 291 342
#     4   9  20  34  56  88 118 148 195 247 300 345
#     4  10  18  37  62  86 118 154 201 250 291 345
#
# _framework density 26.652283000000001
#
# number of rings (size 3 to 8) (size 9 to 14) (size 15 to 20)
#    0.000    2.000    1.429    2.143    2.000    4.571 
#    0.000   12.143    0.000    0.000    0.000    0.000 
#    0.000    0.000    0.000    0.000    0.000    0.000 
#
# Total GULP energy -78309.321028 kJ/mol
# GULP energy per Si atom -5593.522931 kJ/mol
# Density = 2.659162 g / cm^3
# Si number density = 26.652283 Si / 1000 Ang^3
#
#
#
# Elastic Constant Matrix: (Units=GPa)
#
#
# Indices 1 2 3 4 5 6 
#
# 1 83.9378 20.8617 22.1455 -7.0629 7.1153 25.9315
# 2 20.8617 141.5365 27.1156 -39.2167 -1.3462 -8.3431
# 3 22.1455 27.1156 101.1095 1.3875 5.7090 1.6080
# 4 -7.0629 -39.2167 1.3875 44.5819 2.3516 -2.1381
# 5 7.1153 -1.3462 5.7090 2.3516 28.5550 -8.5350
# 6 25.9315 -8.3431 1.6080 -2.1381 -8.5350 32.4265
#
#
#
# Elastic Compliance Matrix: (Units=1/GPa)
#
#
# Indices 1 2 3 4 5 6 
#
# 1 0.020780 -0.004059 -0.002512 -0.000604 -0.010931 -0.020455
# 2 -0.004059 0.011316 -0.002607 0.009578 0.003631 0.007874
# 3 -0.002512 -0.002607 0.011258 -0.002956 -0.001443 0.000205
# 4 -0.000604 0.009578 -0.002956 0.031092 0.000185 0.005193
# 5 -0.010931 0.003631 -0.001443 0.000185 0.044615 0.021503
# 6 -0.020455 0.007874 0.000205 0.005193 0.021503 0.055214
#
#
# Mechanical properties :
#
#
# Convention : Reuss Voigt Hill
#
# Bulk Modulus (GPa) = 40.00346 51.86993 45.93669
# Shear Modulus (GPa) = 24.88002 38.21009 31.54506
#
# Velocity S-wave (km/s) = 3.05865 3.79047 3.44405
# Velocity P-wave (km/s) = 5.24554 6.21778 5.75224
#
# Compressibility (1/GPa) = 0.02499784
#
# Stress axis : x y z
#
# Youngs Moduli (GPa) = 48.12315 88.37358 88.82185
#
# Poissons Ratio (x) = 0.35869 0.22312
# Poissons Ratio (y) = 0.19532 0.23159
# Poissons Ratio (z) = 0.12089 0.23042
#
# Static dielectric constant tensor:
#      x y z
#    x 2.118350 -0.017100 -0.077310 
#    y -0.017100 2.119360 0.027720 
#    z -0.077310 0.027720 2.225600 
# 
# From -- ./inp_files/199527.got.cif
#   From: 2010.05.17/outbox.cif.g08.bks.cpg/sg2_100_cif.got.tgz:199527.got - 2010.06.03 11:33:40.
