data_PCOD9079190
_publ_section_title
;
Structure prediction by ZEFSAII (Michael W. Deem and Ramdas Pophale) SiO2 
 PCOD9079190
Probable space group: P -1
;
_chemical_formula_sum "Si O2"
_cell_formula_units_Z 15
_cell_length_a 9.834877
_cell_length_b 8.272923
_cell_length_c 14.690456
_cell_angle_alpha 128.359356
_cell_angle_beta 123.870305
_cell_angle_gamma 45.658870
_cell_volume 653.836360
_symmetry_space_group_name_H-M "P -1"
_symmetry_group_IT_number 2
_symmetry_cell_setting 'triclinic'
loop_
_space_group_symop_operation_xyz
x,y,z
-x,-y,-z
loop_
_atom_site_type_symbol
_atom_site_label
_atom_site_fract_x
_atom_site_fract_y
_atom_site_fract_z
Si Si1 0.398263 0.993647 0.630573
Si Si2 0.212747 0.401615 0.290782
Si Si3 0.569499 0.361177 0.639410
Si Si4 0.741566 0.107834 0.275203
Si Si5 0.085850 0.958042 0.221605
Si Si6 0.948093 0.509264 0.378854
Si Si7 0.500000 0.000000 0.000000
Si Si8 0.920685 0.715669 0.971218
O O1 0.270865 0.273900 0.649912
O O2 0.613670 0.871367 0.709577
O O3 0.427890 0.826558 0.496087
O O4 0.276602 0.960555 0.652956
O O5 0.320727 0.520611 0.326326
O O6 0.069864 0.392349 0.161720
O O7 0.091852 0.550911 0.385827
O O8 0.358471 0.598677 0.665006
O O9 0.693561 0.213915 0.722457
O O10 0.954604 0.968960 0.262252
O O11 0.612373 0.048555 0.141857
O O12 0.008559 0.239546 0.276761
O O13 0.038947 0.842753 0.079096
O O14 0.000000 0.500000 0.500000
O O15 0.693867 0.900193 0.973153
O O16 0.000000 0.500000 0.000000
#
# Coordination Sequence:
#
# PCOD9079190 Si02
#       8
#     2   2   2   2   2   2   1   2
#     4  11  24  41  66  91 127 165 214 269 311 370
#     4  11  24  42  67  97 124 166 216 260 319 369
#     4  11  21  40  66  96 121 160 216 269 310 365
#     4  10  21  37  67  96 122 156 212 266 316 364
#     4  11  24  40  62  95 127 167 206 254 317 379
#     4  12  28  43  59  91 136 177 208 251 318 385
#     4  10  18  36  64 100 124 150 198 266 328 362
#     4  11  21  40  70  96 126 158 208 269 315 371
#
# _framework density 22.941521000000002
#
# number of rings (size 3 to 8) (size 9 to 14) (size 15 to 20)
#    0.000    1.067    5.333    2.400    5.600    3.200 
#    0.000    0.667    0.000    0.000    0.000    0.000 
#    0.000    0.000    0.000    0.000    0.000    0.000 
#
# Total GULP energy -83697.810171 kJ/mol
# GULP energy per Si atom -5579.854011 kJ/mol
# Density = 2.288930 g / cm^3
# Si number density = 22.941521 Si / 1000 Ang^3
#
#
#
# Elastic Constant Matrix: (Units=GPa)
#
#
# Indices 1 2 3 4 5 6 
#
# 1 39.0178 7.8898 9.8141 -8.7812 -13.6051 -6.1953
# 2 7.8898 153.5318 39.6893 -15.1846 10.3314 4.3322
# 3 9.8141 39.6893 96.3876 -7.1748 0.7924 5.0826
# 4 -8.7812 -15.1846 -7.1748 31.9108 1.1310 4.6121
# 5 -13.6051 10.3314 0.7924 1.1310 29.2371 4.6091
# 6 -6.1953 4.3322 5.0826 4.6121 4.6091 26.1601
#
#
#
# Elastic Compliance Matrix: (Units=1/GPa)
#
#
# Indices 1 2 3 4 5 6 
#
# 1 0.034400 -0.001575 -0.002737 0.006828 0.015588 0.004989
# 2 -0.001575 0.007861 -0.002773 0.002957 -0.003382 -0.001061
# 3 -0.002737 -0.002773 0.012014 0.001022 -0.000240 -0.002661
# 4 0.006828 0.002957 0.001022 0.035610 0.001615 -0.005634
# 5 0.015588 -0.003382 -0.000240 0.001615 0.043162 -0.003591
# 6 0.004989 -0.001061 -0.002661 -0.005634 -0.003591 0.041727
#
#
# Mechanical properties :
#
#
# Convention : Reuss Voigt Hill
#
# Bulk Modulus (GPa) = 24.93394 44.85815 34.89605
# Shear Modulus (GPa) = 24.71436 32.89785 28.80611
#
# Velocity S-wave (km/s) = 3.28575 3.79091 3.54733
# Velocity P-wave (km/s) = 5.02861 6.22552 5.65880
#
# Compressibility (1/GPa) = 0.04010597
#
# Stress axis : x y z
#
# Youngs Moduli (GPa) = 29.06944 127.20991 83.23957
#
# Poissons Ratio (x) = 0.20030 0.22784
# Poissons Ratio (y) = 0.04577 0.23080
# Poissons Ratio (z) = 0.07957 0.35271
#
# Static dielectric constant tensor:
#      x y z
#    x 1.914010 0.035520 0.007510 
#    y 0.035520 1.876940 0.016870 
#    z 0.007510 0.016870 1.831580 
# 
# From -- ./inp_files/253091.got.cif
#   From: 2010.05.17/outbox.cif.g08.bks.cpg/sg2_127_cif.got.tgz:253091.got - 2010.06.03 11:33:40.
