data_PCOD9079494
_publ_section_title
;
Structure prediction by ZEFSAII (Michael W. Deem and Ramdas Pophale) SiO2 
 PCOD9079494
Probable space group: P -1
;
_chemical_formula_sum "Si O2"
_cell_formula_units_Z 14
_cell_length_a 15.355276
_cell_length_b 6.922171
_cell_length_c 11.998715
_cell_angle_alpha 76.370099
_cell_angle_beta 141.976111
_cell_angle_gamma 92.459439
_cell_volume 741.472877
_symmetry_space_group_name_H-M "P -1"
_symmetry_group_IT_number 2
_symmetry_cell_setting 'triclinic'
loop_
_space_group_symop_operation_xyz
x,y,z
-x,-y,-z
loop_
_atom_site_type_symbol
_atom_site_label
_atom_site_fract_x
_atom_site_fract_y
_atom_site_fract_z
Si Si1 0.767694 0.149061 0.412661
Si Si2 0.617070 0.995958 0.466911
Si Si3 0.443317 0.183643 0.070634
Si Si4 0.996488 0.629762 0.366759
Si Si5 0.568637 0.651501 0.620354
Si Si6 0.790526 0.008849 0.220373
Si Si7 0.763390 0.465220 0.047050
O O1 0.752825 0.017930 0.525174
O O2 0.598841 0.228961 0.193131
O O3 0.845762 0.327579 0.498288
O O4 0.842396 0.021933 0.398258
O O5 0.488131 0.021996 0.240826
O O6 0.558624 0.193352 0.459411
O O7 0.634470 0.796121 0.585078
O O8 0.337698 0.387549 0.984309
O O9 0.354461 0.079630 0.909620
O O10 0.000000 0.500000 0.500000
O O11 0.919686 0.521148 0.210908
O O12 0.894865 0.851261 0.265055
O O13 0.500000 0.500000 0.500000
O O14 0.686880 0.530966 0.843281
O O15 0.769253 0.233692 0.117385
#
# Coordination Sequence:
#
# PCOD9079494 Si02
#       7
#     2   2   2   2   2   2   2
#     4  10  20  38  57  85 118 152 188 235 281 334
#     4   8  19  36  55  84 115 142 186 237 283 325
#     4   8  19  36  53  89 111 147 182 241 280 328
#     4  11  23  41  55  81 121 162 185 226 283 352
#     4  10  18  37  60  83 113 147 190 233 293 330
#     4  11  20  36  58  85 118 149 193 227 287 345
#     4  10  21  36  59  86 114 152 188 231 290 338
#
# _framework density 18.881336999999998
#
# number of rings (size 3 to 8) (size 9 to 14) (size 15 to 20)
#    0.857    1.429    1.429    1.714    0.000    1.714 
#    5.143    0.714    0.000    1.714    0.000    0.000 
#    0.000    0.000    0.000    0.000    0.000    0.000 
#
# Total GULP energy -77976.457446 kJ/mol
# GULP energy per Si atom -5569.746960 kJ/mol
# Density = 1.883836 g / cm^3
# Si number density = 18.881337 Si / 1000 Ang^3
#
#
#
# Elastic Constant Matrix: (Units=GPa)
#
#
# Indices 1 2 3 4 5 6 
#
# 1 52.3332 32.9760 22.4154 -1.5464 -16.5465 23.9263
# 2 32.9760 117.1385 66.0746 9.2826 -9.3242 22.5936
# 3 22.4154 66.0746 85.4757 16.2137 -11.2625 14.0592
# 4 -1.5464 9.2826 16.2137 43.8176 9.9389 -0.8924
# 5 -16.5465 -9.3242 -11.2625 9.9389 33.6695 2.4683
# 6 23.9263 22.5936 14.0592 -0.8924 2.4683 22.1491
#
#
#
# Elastic Compliance Matrix: (Units=1/GPa)
#
#
# Indices 1 2 3 4 5 6 
#
# 1 0.068548 -0.002137 0.004522 -0.010301 0.043514 -0.080003
# 2 -0.002137 0.017071 -0.011321 0.000244 0.000401 -0.007954
# 3 0.004522 -0.011321 0.023995 -0.008904 0.010482 -0.010095
# 4 -0.010301 0.000244 -0.008904 0.030269 -0.018359 0.019796
# 5 0.043514 0.000401 0.010482 -0.018359 0.064668 -0.062014
# 6 -0.080003 -0.007954 -0.010095 0.019796 -0.062014 0.153800
#
#
# Mechanical properties :
#
#
# Convention : Reuss Voigt Hill
#
# Bulk Modulus (GPa) = 10.90007 55.31993 33.11000
# Shear Modulus (GPa) = 12.29091 28.82599 20.55845
#
# Velocity S-wave (km/s) = 2.55415 3.91153 3.30331
# Velocity P-wave (km/s) = 3.80575 7.05425 5.66772
#
# Compressibility (1/GPa) = 0.09174254
#
# Stress axis : x y z
#
# Youngs Moduli (GPa) = 14.58826 58.57811 41.67466
#
# Poissons Ratio (x) = 0.12520 -0.18847
# Poissons Ratio (y) = 0.03118 0.47180
# Poissons Ratio (z) = -0.06597 0.66317
#
# Static dielectric constant tensor:
#      x y z
#    x 1.694990 -0.003470 0.038610 
#    y -0.003470 1.650080 0.017940 
#    z 0.038610 0.017940 1.693300 
# 
# From -- ./inp_files/364786.got.cif
#   From: 2010.05.17/outbox.cif.g08.bks.cpg/sg2_183_cif.got.tgz:364786.got - 2010.06.03 11:33:40.
