data_PCOD9079053
_publ_section_title
;
Structure prediction by ZEFSAII (Michael W. Deem and Ramdas Pophale) SiO2 
 PCOD9079053
Probable space group: P -1
;
_chemical_formula_sum "Si O2"
_cell_formula_units_Z 14
_cell_length_a 10.696106
_cell_length_b 9.530359
_cell_length_c 9.926886
_cell_angle_alpha 88.473476
_cell_angle_beta 131.843892
_cell_angle_gamma 119.990330
_cell_volume 574.373609
_symmetry_space_group_name_H-M "P -1"
_symmetry_group_IT_number 2
_symmetry_cell_setting 'triclinic'
loop_
_space_group_symop_operation_xyz
x,y,z
-x,-y,-z
loop_
_atom_site_type_symbol
_atom_site_label
_atom_site_fract_x
_atom_site_fract_y
_atom_site_fract_z
Si Si1 0.514157 0.814525 0.415808
Si Si2 0.131937 0.796692 0.261102
Si Si3 0.925408 0.030279 0.088999
Si Si4 0.379471 0.882966 0.052081
Si Si5 0.262443 0.388927 0.236166
Si Si6 0.774055 0.477791 0.164224
Si Si7 0.431774 0.365615 0.113920
O O1 0.327913 0.801389 0.360745
O O2 0.520683 0.877945 0.266004
O O3 0.412435 0.604966 0.354231
O O4 0.750586 0.989857 0.638305
O O5 0.009196 0.675898 0.309422
O O6 0.942454 0.684101 0.011857
O O7 0.137098 0.242114 0.270739
O O8 0.734968 0.048555 0.956171
O O9 0.791256 0.840246 0.082035
O O10 0.000000 0.000000 0.000000
O O11 0.218015 0.671180 0.890964
O O12 0.500000 0.000000 0.000000
O O13 0.411126 0.360870 0.259082
O O14 0.653867 0.414378 0.222716
O O15 0.602549 0.492511 0.964264
#
# Coordination Sequence:
#
# PCOD9079053 Si02
#       7
#     2   2   2   2   2   2   2
#     4  11  21  36  58  92 115 153 203 246 289 357
#     4  10  20  34  60  88 116 154 199 246 291 353
#     4  10  20  33  58  92 115 157 199 243 300 352
#     4  12  21  35  61  90 117 153 203 245 293 354
#     4  10  18  36  62  82 117 157 199 236 301 347
#     4  10  19  35  59  85 118 157 197 241 300 349
#     4   9  18  33  57  87 118 156 193 242 297 359
#
# _framework density 24.374378
#
# number of rings (size 3 to 8) (size 9 to 14) (size 15 to 20)
#    0.000    1.714    5.714    1.286    0.000    0.000 
#    0.000    1.429    0.000   13.714    0.000    0.000 
#    0.000    0.000    0.000    0.000    0.000    0.000 
#
# Total GULP energy -77989.790186 kJ/mol
# GULP energy per Si atom -5570.699299 kJ/mol
# Density = 2.431890 g / cm^3
# Si number density = 24.374378 Si / 1000 Ang^3
#
#
#
# Elastic Constant Matrix: (Units=GPa)
#
#
# Indices 1 2 3 4 5 6 
#
# 1 105.9048 34.3897 29.1711 19.9968 1.7658 14.8088
# 2 34.3897 124.0529 56.5172 42.3475 -4.2985 4.7079
# 3 29.1711 56.5172 134.9045 38.1524 8.9830 5.9409
# 4 19.9968 42.3475 38.1524 45.0092 -0.7719 -3.8357
# 5 1.7658 -4.2985 8.9830 -0.7719 20.2267 17.4028
# 6 14.8088 4.7079 5.9409 -3.8357 17.4028 46.3173
#
#
#
# Elastic Compliance Matrix: (Units=1/GPa)
#
#
# Indices 1 2 3 4 5 6 
#
# 1 0.011393 -0.001247 -0.000974 -0.003425 0.003256 -0.004898
# 2 -0.001247 0.013563 -0.002907 -0.009977 0.007588 -0.004284
# 3 -0.000974 -0.002907 0.010970 -0.006143 -0.006669 0.001197
# 4 -0.003425 -0.009977 -0.006143 0.038918 -0.004246 0.007715
# 5 0.003256 0.007588 -0.006669 -0.004246 0.080820 -0.031675
# 6 -0.004898 -0.004284 0.001197 0.007715 -0.031675 0.035979
#
#
# Mechanical properties :
#
#
# Convention : Reuss Voigt Hill
#
# Bulk Modulus (GPa) = 38.95667 67.22423 53.09045
# Shear Modulus (GPa) = 23.75805 38.62959 31.19382
#
# Velocity S-wave (km/s) = 3.12543 3.98533 3.58128
# Velocity P-wave (km/s) = 5.38904 6.98691 6.23933
#
# Compressibility (1/GPa) = 0.02566955
#
# Stress axis : x y z
#
# Youngs Moduli (GPa) = 87.77476 73.73195 91.15855
#
# Poissons Ratio (x) = 0.09193 0.08877
# Poissons Ratio (y) = 0.10944 0.26502
# Poissons Ratio (z) = 0.08547 0.21436
#
# Static dielectric constant tensor:
#      x y z
#    x 1.979970 0.000030 -0.020990 
#    y 0.000030 2.143480 -0.034090 
#    z -0.020990 -0.034090 2.009190 
# 
# From -- ./inp_files/428420.got.cif
#   From: 2010.05.17/outbox.cif.g08.bks.cpg/sg2_215_cif.got.tgz:428420.got - 2010.06.03 11:33:40.
