data_PCOD9079279
_publ_section_title
;
Structure prediction by ZEFSAII (Michael W. Deem and Ramdas Pophale) SiO2 
 PCOD9079279
Probable space group: P -1
;
_chemical_formula_sum "Si O2"
_cell_formula_units_Z 16
_cell_length_a 14.508832
_cell_length_b 7.411060
_cell_length_c 9.706122
_cell_angle_alpha 93.364509
_cell_angle_beta 104.613162
_cell_angle_gamma 43.040407
_cell_volume 676.668683
_symmetry_space_group_name_H-M "P -1"
_symmetry_group_IT_number 2
_symmetry_cell_setting 'triclinic'
loop_
_space_group_symop_operation_xyz
x,y,z
-x,-y,-z
loop_
_atom_site_type_symbol
_atom_site_label
_atom_site_fract_x
_atom_site_fract_y
_atom_site_fract_z
Si Si1 0.946818 0.587413 0.246303
Si Si2 0.761629 0.613841 0.339322
Si Si3 0.262672 0.545411 0.225361
Si Si4 0.343329 0.494298 0.944585
Si Si5 0.546761 0.115846 0.441513
Si Si6 0.339084 0.913480 0.978914
Si Si7 0.070814 0.789941 0.393789
Si Si8 0.256317 0.118567 0.250491
O O1 0.904633 0.519391 0.353508
O O2 0.978026 0.748326 0.312052
O O3 0.089207 0.318543 0.215109
O O4 0.803467 0.787315 0.110975
O O5 0.726958 0.523494 0.202504
O O6 0.787972 0.482241 0.489325
O O7 0.635399 0.930676 0.332779
O O8 0.406835 0.410527 0.347224
O O9 0.127241 0.801394 0.274956
O O10 0.264970 0.322332 0.230257
O O11 0.267589 0.579128 0.067096
O O12 0.339047 0.710898 0.911818
O O13 0.510195 0.210354 0.005173
O O14 0.500000 0.000000 0.500000
O O15 0.656572 0.050508 0.586355
O O16 0.326041 0.922021 0.139230
O O17 0.000000 0.000000 0.500000
#
# Coordination Sequence:
#
# PCOD9079279 Si02
#       8
#     2   2   2   2   2   2   2   2
#     4  11  23  41  64  97 126 168 221 258 318 376
#     4  12  22  41  70  93 127 171 219 262 310 382
#     4  10  21  41  64  97 123 169 217 258 317 378
#     4  11  25  42  64  96 130 170 213 261 325 380
#     4  10  18  36  65  93 120 162 216 264 305 362
#     4  11  24  42  63  93 135 168 209 267 324 378
#     4  11  24  42  65  94 138 170 205 263 325 384
#     4  10  21  39  64  92 131 161 215 267 312 372
#
# _framework density 23.645249
#
# number of rings (size 3 to 8) (size 9 to 14) (size 15 to 20)
#    0.000    1.250    3.750    4.500    0.000    3.500 
#    0.000    4.375    0.000    0.000    0.000    0.000 
#    0.000    0.000    0.000    0.000    0.000    0.000 
#
# Total GULP energy -89479.666777 kJ/mol
# GULP energy per Si atom -5592.479174 kJ/mol
# Density = 2.359143 g / cm^3
# Si number density = 23.645249 Si / 1000 Ang^3
#
#
#
# Elastic Constant Matrix: (Units=GPa)
#
#
# Indices 1 2 3 4 5 6 
#
# 1 71.0172 25.0778 12.6588 12.0773 -1.4829 -19.4642
# 2 25.0778 58.0656 8.0858 20.9375 9.8279 -20.7769
# 3 12.6588 8.0858 90.0911 13.0596 -0.0648 -11.3358
# 4 12.0773 20.9375 13.0596 45.7300 -5.9588 -5.6141
# 5 -1.4829 9.8279 -0.0648 -5.9588 27.8918 9.2933
# 6 -19.4642 -20.7769 -11.3358 -5.6141 9.2933 36.9977
#
#
#
# Elastic Compliance Matrix: (Units=1/GPa)
#
#
# Indices 1 2 3 4 5 6 
#
# 1 0.017929 -0.005094 -0.001132 -0.001289 0.000503 0.005903
# 2 -0.005094 0.037568 0.002674 -0.017038 -0.024762 0.022871
# 3 -0.001132 0.002674 0.012253 -0.004282 -0.003519 0.004894
# 4 -0.001289 -0.017038 -0.004282 0.032038 0.016371 -0.010809
# 5 0.000503 -0.024762 -0.003519 0.016371 0.056936 -0.026537
# 6 0.005903 0.022871 0.004894 -0.010809 -0.026537 0.049503
#
#
# Mechanical properties :
#
#
# Convention : Reuss Voigt Hill
#
# Bulk Modulus (GPa) = 16.48915 34.53542 25.51228
# Shear Modulus (GPa) = 21.40895 33.68067 27.54481
#
# Velocity S-wave (km/s) = 3.01229 3.77824 3.41679
# Velocity P-wave (km/s) = 4.36889 5.80265 5.13605
#
# Compressibility (1/GPa) = 0.06064595
#
# Stress axis : x y z
#
# Youngs Moduli (GPa) = 55.77465 26.61842 81.61249
#
# Poissons Ratio (x) = 0.13559 0.09239
# Poissons Ratio (y) = 0.28411 -0.21821
# Poissons Ratio (z) = 0.06314 -0.07117
#
# Static dielectric constant tensor:
#      x y z
#    x 1.907970 0.009300 -0.033970 
#    y 0.009300 1.969100 -0.023010 
#    z -0.033970 -0.023010 1.885950 
# 
# From -- ./inp_files/208955.got.cif
#   From: 2010.05.17/outbox.cif.g08.bks.cpg/sg2_105_cif.got.tgz:208955.got - 2010.06.03 11:33:40.
