data_PCOD9079981
_publ_section_title
;
Structure prediction by ZEFSAII (Michael W. Deem and Ramdas Pophale) SiO2 
 PCOD9079981
Probable space group: P -1
;
_chemical_formula_sum "Si O2"
_cell_formula_units_Z 15
_cell_length_a 9.783326
_cell_length_b 13.002755
_cell_length_c 14.333206
_cell_angle_alpha 128.601452
_cell_angle_beta 141.222553
_cell_angle_gamma 84.209968
_cell_volume 549.895451
_symmetry_space_group_name_H-M "P -1"
_symmetry_group_IT_number 2
_symmetry_cell_setting 'triclinic'
loop_
_space_group_symop_operation_xyz
x,y,z
-x,-y,-z
loop_
_atom_site_type_symbol
_atom_site_label
_atom_site_fract_x
_atom_site_fract_y
_atom_site_fract_z
Si Si1 0.742941 0.493041 0.520299
Si Si2 0.948849 0.713462 0.925699
Si Si3 0.500000 0.000000 0.000000
Si Si4 0.781105 0.232180 0.475132
Si Si5 0.312824 0.250258 0.779074
Si Si6 0.444884 0.283263 0.070461
Si Si7 0.333172 0.673069 0.345956
Si Si8 0.647108 0.904947 0.463881
O O1 0.962280 0.700836 0.814551
O O2 0.319303 0.295195 0.205223
O O3 0.864501 0.414364 0.582420
O O4 0.739165 0.498387 0.410292
O O5 0.693361 0.475956 0.697250
O O6 0.328505 0.857901 0.252218
O O7 0.460882 0.946037 0.835109
O O8 0.440329 0.130547 0.016052
O O9 0.669717 0.214952 0.512885
O O10 0.125234 0.302155 0.701126
O O11 0.530798 0.345579 0.044313
O O12 0.430591 0.246774 0.740064
O O13 0.000000 0.000000 0.500000
O O14 0.041604 0.145777 0.791243
O O15 0.636085 0.840707 0.525863
O O16 0.000000 0.500000 0.000000
#
# Coordination Sequence:
#
# PCOD9079981 Si02
#       8
#     2   2   1   2   2   2   2   2
#     4   9  20  38  63  85 122 167 192 252 318 355
#     4   9  19  40  61  82 127 162 202 246 310 367
#     4  10  18  38  60  84 128 160 186 248 320 362
#     4  10  19  37  63  85 120 166 200 240 311 369
#     4  10  20  38  61  90 122 159 201 251 308 367
#     4  10  21  37  64  90 119 160 203 253 310 361
#     4   9  20  37  60  87 120 161 205 249 299 357
#     4  10  20  38  62  93 119 155 209 260 291 368
#
# _framework density 27.277911
#
# number of rings (size 3 to 8) (size 9 to 14) (size 15 to 20)
#    0.000    2.400    2.667    0.000    3.733    0.533 
#    2.400   16.667    0.000    0.000    0.000    0.000 
#    0.000    0.000    0.000    0.000    0.000    0.000 
#
# Total GULP energy -83592.304481 kJ/mol
# GULP energy per Si atom -5572.820299 kJ/mol
# Density = 2.721583 g / cm^3
# Si number density = 27.277911 Si / 1000 Ang^3
#
#
#
# Elastic Constant Matrix: (Units=GPa)
#
#
# Indices 1 2 3 4 5 6 
#
# 1 215.3012 52.8762 75.6599 -21.3209 -30.0454 30.1272
# 2 52.8762 107.3997 43.6898 -40.7132 16.5242 4.3358
# 3 75.6599 43.6898 124.7719 -26.3468 -18.7101 14.5045
# 4 -21.3209 -40.7132 -26.3468 38.2403 10.9692 -2.2162
# 5 -30.0454 16.5242 -18.7101 10.9692 72.2932 -14.7985
# 6 30.1272 4.3358 14.5045 -2.2162 -14.7985 50.1012
#
#
#
# Elastic Compliance Matrix: (Units=1/GPa)
#
#
# Indices 1 2 3 4 5 6 
#
# 1 0.007043 -0.003919 -0.002848 -0.003232 0.003106 -0.002297
# 2 -0.003919 0.023033 -0.002168 0.024029 -0.011367 -0.001304
# 3 -0.002848 -0.002168 0.011593 0.003585 0.001599 -0.000825
# 4 -0.003232 0.024029 0.003585 0.056560 -0.015133 -0.003142
# 5 0.003106 -0.011367 0.001599 -0.015133 0.021307 0.004277
# 6 -0.002297 -0.001304 -0.000825 -0.003142 0.004277 0.022817
#
#
# Mechanical properties :
#
#
# Convention : Reuss Voigt Hill
#
# Bulk Modulus (GPa) = 42.01825 87.99162 65.00494
# Shear Modulus (GPa) = 29.73422 50.47674 40.10548
#
# Velocity S-wave (km/s) = 3.30517 4.30637 3.83855
# Velocity P-wave (km/s) = 5.47747 7.55340 6.59760
#
# Compressibility (1/GPa) = 0.02379918
#
# Stress axis : x y z
#
# Youngs Moduli (GPa) = 141.98875 43.41621 86.25524
#
# Poissons Ratio (x) = 0.17016 0.24566
# Poissons Ratio (y) = 0.55650 0.18697
# Poissons Ratio (z) = 0.40439 0.09411
#
# Static dielectric constant tensor:
#      x y z
#    x 2.252880 -0.030760 -0.040670 
#    y -0.030760 2.118390 0.113290 
#    z -0.040670 0.113290 2.272730 
# 
# From -- ./inp_files/505516.got.cif
#   From: 2010.05.17/outbox.cif.g08.bks.cpg/sg2_253_cif.got.tgz:505516.got - 2010.06.03 11:33:40.
