data_PCOD9079584
_publ_section_title
;
Structure prediction by ZEFSAII (Michael W. Deem and Ramdas Pophale) SiO2 
 PCOD9079584
Probable space group: P -1
;
_chemical_formula_sum "Si O2"
_cell_formula_units_Z 14
_cell_length_a 8.889180
_cell_length_b 8.479718
_cell_length_c 8.940601
_cell_angle_alpha 115.532115
_cell_angle_beta 95.907883
_cell_angle_gamma 95.944185
_cell_volume 596.608395
_symmetry_space_group_name_H-M "P -1"
_symmetry_group_IT_number 2
_symmetry_cell_setting 'triclinic'
loop_
_space_group_symop_operation_xyz
x,y,z
-x,-y,-z
loop_
_atom_site_type_symbol
_atom_site_label
_atom_site_fract_x
_atom_site_fract_y
_atom_site_fract_z
Si Si1 0.805530 0.832115 0.563348
Si Si2 0.426035 0.684914 0.936468
Si Si3 0.841993 0.337671 0.683701
Si Si4 0.254598 0.407041 0.024669
Si Si5 0.909629 0.895486 0.291504
Si Si6 0.341908 0.562055 0.571250
Si Si7 0.416979 0.938481 0.306647
O O1 0.799274 0.913208 0.427222
O O2 0.762713 0.623016 0.467018
O O3 0.676221 0.903540 0.677017
O O4 0.974238 0.928980 0.669982
O O5 0.295051 0.538164 0.940619
O O6 0.372972 0.700711 0.767717
O O7 0.576839 0.593509 0.893114
O O8 0.471880 0.850641 0.123750
O O9 0.761647 0.356381 0.526181
O O10 0.710055 0.223683 0.721179
O O11 0.986621 0.241550 0.682300
O O12 0.861328 0.526248 0.844634
O O13 0.184544 0.209810 0.890509
O O14 0.500000 0.500000 0.500000
O O15 0.500000 0.000000 0.500000
#
# Coordination Sequence:
#
# PCOD9079584 Si02
#       7
#     2   2   2   2   2   2   2
#     4  10  22  38  62  88 123 163 200 254 304 360
#     4  10  21  35  66  91 121 163 208 252 307 362
#     4  10  22  35  62  92 121 160 203 253 310 363
#     4  10  18  37  61  93 116 158 216 254 288 369
#     4  10  20  39  64  88 120 166 211 247 298 367
#     4  12  22  41  63  93 129 158 201 261 315 364
#     4  10  20  38  62  91 118 161 214 254 296 362
#
# _framework density 23.465979000000001
#
# number of rings (size 3 to 8) (size 9 to 14) (size 15 to 20)
#    0.000    1.714    2.857    2.143    2.000    0.571 
#    0.000    3.571    6.286    0.000    0.000    0.000 
#    0.000    0.000    0.000    0.000    0.000    0.000 
#
# Total GULP energy -78006.322609 kJ/mol
# GULP energy per Si atom -5571.880186 kJ/mol
# Density = 2.341257 g / cm^3
# Si number density = 23.465979 Si / 1000 Ang^3
#
#
#
# Elastic Constant Matrix: (Units=GPa)
#
#
# Indices 1 2 3 4 5 6 
#
# 1 84.9542 15.3745 27.0978 -1.0484 -9.8816 -0.1144
# 2 15.3745 45.8165 8.0920 8.0293 2.5269 12.1921
# 3 27.0978 8.0920 121.9730 12.1818 -2.9988 0.4276
# 4 -1.0484 8.0293 12.1818 32.9956 -3.8529 7.2597
# 5 -9.8816 2.5269 -2.9988 -3.8529 30.9110 12.9018
# 6 -0.1144 12.1921 0.4276 7.2597 12.9018 28.2649
#
#
#
# Elastic Compliance Matrix: (Units=1/GPa)
#
#
# Indices 1 2 3 4 5 6 
#
# 1 0.014352 -0.004879 -0.003094 0.003755 0.005726 -0.001369
# 2 -0.004879 0.027087 -0.000243 -0.004302 0.000109 -0.010645
# 3 -0.003094 -0.000243 0.009260 -0.003927 -0.001188 0.001503
# 4 0.003755 -0.004302 -0.003927 0.036988 0.011046 -0.012612
# 5 0.005726 0.000109 -0.001188 0.011046 0.045240 -0.023493
# 6 -0.001369 -0.010645 0.001503 -0.012612 -0.023493 0.053906
#
#
# Mechanical properties :
#
#
# Convention : Reuss Voigt Hill
#
# Bulk Modulus (GPa) = 29.18435 39.31914 34.25174
# Shear Modulus (GPa) = 23.28974 31.91293 27.60133
#
# Velocity S-wave (km/s) = 3.15380 3.69177 3.43334
# Velocity P-wave (km/s) = 5.07206 5.91307 5.50864
#
# Compressibility (1/GPa) = 0.03426494
#
# Stress axis : x y z
#
# Youngs Moduli (GPa) = 69.67912 36.91806 107.99320
#
# Poissons Ratio (x) = 0.18013 0.33415
# Poissons Ratio (y) = 0.33997 0.02629
# Poissons Ratio (z) = 0.21560 0.00899
#
# Static dielectric constant tensor:
#      x y z
#    x 1.912780 -0.055910 -0.069530 
#    y -0.055910 1.950950 0.085750 
#    z -0.069530 0.085750 2.031100 
# 
# From -- ./inp_files/160192.got.cif
#   From: 2010.05.17/outbox.cif.g08.bks.cpg/sg2_81_cif.got.tgz:160192.got - 2010.06.03 11:33:40.
