data_PCOD9079965
_publ_section_title
;
Structure prediction by ZEFSAII (Michael W. Deem and Ramdas Pophale) SiO2 
 PCOD9079965
Probable space group: P -1
;
_chemical_formula_sum "Si O2"
_cell_formula_units_Z 14
_cell_length_a 23.293400
_cell_length_b 6.057306
_cell_length_c 7.427145
_cell_angle_alpha 76.405973
_cell_angle_beta 43.013380
_cell_angle_gamma 62.529463
_cell_volume 625.148942
_symmetry_space_group_name_H-M "P -1"
_symmetry_group_IT_number 2
_symmetry_cell_setting 'triclinic'
loop_
_space_group_symop_operation_xyz
x,y,z
-x,-y,-z
loop_
_atom_site_type_symbol
_atom_site_label
_atom_site_fract_x
_atom_site_fract_y
_atom_site_fract_z
Si Si1 0.130290 0.736843 0.860990
Si Si2 0.366732 0.840168 0.145868
Si Si3 0.330538 0.498032 0.574090
Si Si4 0.213464 0.380155 0.392450
Si Si5 0.951758 0.707457 0.225086
Si Si6 0.370028 0.538035 0.871258
Si Si7 0.518155 0.007570 0.670588
O O1 0.218346 0.634130 0.810719
O O2 0.170987 0.562797 0.624117
O O3 0.098333 0.022371 0.812227
O O4 0.036795 0.715172 0.141896
O O5 0.362708 0.617696 0.312881
O O6 0.280801 0.097070 0.352725
O O7 0.458411 0.886334 0.935672
O O8 0.354948 0.779682 0.976085
O O9 0.375123 0.193821 0.506875
O O10 0.127207 0.359170 0.492869
O O11 0.283307 0.468557 0.115477
O O12 0.000000 0.500000 0.000000
O O13 0.372031 0.557527 0.649235
O O14 0.464861 0.305831 0.770800
O O15 0.500000 0.000000 0.500000
#
# Coordination Sequence:
#
# PCOD9079965 Si02
#       7
#     2   2   2   2   2   2   2
#     4  10  19  36  60  88 117 151 194 243 287 348
#     4  11  21  40  59  85 117 160 195 237 291 341
#     4  11  21  39  59  89 115 154 202 237 287 349
#     4  10  18  38  59  85 119 156 192 236 296 342
#     4   9  18  33  61  88 116 152 191 237 298 346
#     4  10  22  39  59  84 124 155 191 245 287 339
#     4   9  22  40  56  87 120 154 197 239 290 342
#
# _framework density 22.394665
#
# number of rings (size 3 to 8) (size 9 to 14) (size 15 to 20)
#    0.000    2.000    2.857    0.429    0.000    2.857 
#   10.286    0.714    0.000   12.000    0.000    0.000 
#    0.000    0.000    0.000    0.000    0.000    0.000 
#
# Total GULP energy -78166.051102 kJ/mol
# GULP energy per Si atom -5583.289364 kJ/mol
# Density = 2.234369 g / cm^3
# Si number density = 22.394665 Si / 1000 Ang^3
#
#
#
# Elastic Constant Matrix: (Units=GPa)
#
#
# Indices 1 2 3 4 5 6 
#
# 1 84.8854 36.2426 33.8825 0.3519 -23.4276 -1.8378
# 2 36.2426 82.6055 37.9988 31.2787 -19.9711 4.1486
# 3 33.8825 37.9988 81.3768 8.6324 -28.2241 0.5886
# 4 0.3519 31.2787 8.6324 51.5364 7.1149 -9.4924
# 5 -23.4276 -19.9711 -28.2241 7.1149 46.5798 3.0222
# 6 -1.8378 4.1486 0.5886 -9.4924 3.0222 26.5129
#
#
#
# Elastic Compliance Matrix: (Units=1/GPa)
#
#
# Indices 1 2 3 4 5 6 
#
# 1 0.017114 -0.007834 -0.003399 0.005719 0.002036 0.004303
# 2 -0.007834 0.027977 -0.004383 -0.019866 0.009276 -0.012993
# 3 -0.003399 -0.004383 0.018805 -0.001889 0.008197 -0.001578
# 4 0.005719 -0.019866 -0.001889 0.036999 -0.013627 0.018347
# 5 0.002036 0.009276 0.008197 -0.013627 0.034184 -0.010268
# 6 0.004303 -0.012993 -0.001578 0.018347 -0.010268 0.047823
#
#
# Mechanical properties :
#
#
# Convention : Reuss Voigt Hill
#
# Bulk Modulus (GPa) = 30.61559 51.67949 41.14754
# Shear Modulus (GPa) = 22.22012 34.30874 28.26443
#
# Velocity S-wave (km/s) = 3.15335 3.91833 3.55647
# Velocity P-wave (km/s) = 5.19218 6.60287 5.93955
#
# Compressibility (1/GPa) = 0.03266310
#
# Stress axis : x y z
#
# Youngs Moduli (GPa) = 58.43312 35.74405 53.17752
#
# Poissons Ratio (x) = 0.28002 0.18074
# Poissons Ratio (y) = 0.45777 0.23308
# Poissons Ratio (z) = 0.19860 0.15667
#
# Static dielectric constant tensor:
#      x y z
#    x 1.845020 0.022230 -0.052580 
#    y 0.022230 1.814190 -0.015300 
#    z -0.052580 -0.015300 1.852860 
# 
# From -- ./inp_files/350734.got.cif
#   From: 2010.05.17/outbox.cif.g08.bks.cpg/sg2_176_cif.got.tgz:350734.got - 2010.06.03 11:33:40.
