data_PCOD9079723
_publ_section_title
;
Structure prediction by ZEFSAII (Michael W. Deem and Ramdas Pophale) SiO2 
 PCOD9079723
Probable space group: P -1
;
_chemical_formula_sum "Si O2"
_cell_formula_units_Z 16
_cell_length_a 13.620905
_cell_length_b 9.174825
_cell_length_c 15.832112
_cell_angle_alpha 26.747588
_cell_angle_beta 72.082021
_cell_angle_gamma 83.809091
_cell_volume 780.276228
_symmetry_space_group_name_H-M "P -1"
_symmetry_group_IT_number 2
_symmetry_cell_setting 'triclinic'
loop_
_space_group_symop_operation_xyz
x,y,z
-x,-y,-z
loop_
_atom_site_type_symbol
_atom_site_label
_atom_site_fract_x
_atom_site_fract_y
_atom_site_fract_z
Si Si1 0.966278 0.223573 0.076028
Si Si2 0.409810 0.585759 0.730453
Si Si3 0.918533 0.278998 0.710975
Si Si4 0.255469 0.902922 0.546097
Si Si5 0.494440 0.311820 0.186007
Si Si6 0.536526 0.619112 0.522694
Si Si7 0.012766 0.630217 0.683956
Si Si8 0.236836 0.360383 0.472904
O O1 0.855596 0.903966 0.302511
O O2 0.065040 0.083603 0.109902
O O3 0.000000 0.500000 0.000000
O O4 0.952975 0.395492 0.902426
O O5 0.293732 0.624761 0.728706
O O6 0.436653 0.434769 0.887398
O O7 0.442383 0.442804 0.710556
O O8 0.500000 0.000000 0.500000
O O9 0.801851 0.321527 0.702985
O O10 0.000000 0.500000 0.500000
O O11 0.964918 0.446665 0.703135
O O12 0.144774 0.720642 0.614793
O O13 0.364377 0.120349 0.348008
O O14 0.235497 0.152536 0.493365
O O15 0.550888 0.026774 0.308159
O O16 0.500000 0.500000 0.000000
O O17 0.500000 0.500000 0.500000
O O18 0.644669 0.558378 0.556791
O O19 0.000000 0.000000 0.500000
#
# Coordination Sequence:
#
# PCOD9079723 Si02
#       8
#     2   2   2   2   2   2   2   2
#     4  11  23  39  62  93 126 164 213 256 303 373
#     4   8  16  34  56  80 110 153 193 239 292 356
#     4  10  23  40  59  89 129 164 204 261 306 363
#     4  10  18  37  64  83 119 168 201 243 316 359
#     4  10  20  36  61  88 116 155 209 253 299 368
#     4  10  20  38  63  88 116 159 203 248 312 366
#     4  12  22  38  62  94 125 165 209 251 306 375
#     4  11  19  41  65  86 126 167 200 259 318 360
#
# _framework density 20.505559000000002
#
# number of rings (size 3 to 8) (size 9 to 14) (size 15 to 20)
#    0.000    2.000    6.250    1.125    0.000    5.000 
#    0.000    3.125    0.000    0.000    0.000    0.000 
#    0.000    0.000    0.000    0.000    0.000    0.000 
#
# Total GULP energy -89242.855893 kJ/mol
# GULP energy per Si atom -5577.678493 kJ/mol
# Density = 2.045889 g / cm^3
# Si number density = 20.505559 Si / 1000 Ang^3
#
#
#
# Elastic Constant Matrix: (Units=GPa)
#
#
# Indices 1 2 3 4 5 6 
#
# 1 138.9331 49.0429 26.3650 -3.1543 25.4235 -4.8922
# 2 49.0429 154.8613 37.3723 17.0832 23.4784 7.9760
# 3 26.3650 37.3723 69.9713 22.4739 20.4764 -2.3946
# 4 -3.1543 17.0832 22.4739 34.2805 2.3570 11.1643
# 5 25.4235 23.4784 20.4764 2.3570 35.6285 3.6743
# 6 -4.8922 7.9760 -2.3946 11.1643 3.6743 36.7515
#
#
#
# Elastic Compliance Matrix: (Units=1/GPa)
#
#
# Indices 1 2 3 4 5 6 
#
# 1 0.009262 -0.002194 -0.002081 0.003277 -0.004287 0.001007
# 2 -0.002194 0.008379 -0.002262 -0.002301 -0.002367 -0.001322
# 3 -0.002081 -0.002262 0.025663 -0.017854 -0.011464 0.008456
# 4 0.003277 -0.002301 -0.017854 0.046735 0.007916 -0.015216
# 5 -0.004287 -0.002367 -0.011464 0.007916 0.039490 -0.007157
# 6 0.001007 -0.001322 0.008456 -0.015216 -0.007157 0.033520
#
#
# Mechanical properties :
#
#
# Convention : Reuss Voigt Hill
#
# Bulk Modulus (GPa) = 33.08139 65.48068 49.28103
# Shear Modulus (GPa) = 26.85307 38.06447 32.45877
#
# Velocity S-wave (km/s) = 3.62270 4.31315 3.98292
# Velocity P-wave (km/s) = 5.80228 7.53703 6.72582
#
# Compressibility (1/GPa) = 0.03022847
#
# Stress axis : x y z
#
# Youngs Moduli (GPa) = 107.97295 119.34663 38.96732
#
# Poissons Ratio (x) = 0.26186 0.08110
# Poissons Ratio (y) = 0.23690 0.08814
# Poissons Ratio (z) = 0.22472 0.26995
#
# Static dielectric constant tensor:
#      x y z
#    x 1.552490 -0.255860 -0.179030 
#    y -0.255860 1.348880 -0.244960 
#    z -0.179030 -0.244960 1.628060 
# 
# From -- ./inp_files/528033.got.cif
#   From: 2010.05.17/outbox.cif.g08.bks.cpg/sg2_265_cif.got.tgz:528033.got - 2010.06.03 11:33:40.
