data_PCOD9079624
_publ_section_title
;
Structure prediction by ZEFSAII (Michael W. Deem and Ramdas Pophale) SiO2 
 PCOD9079624
Probable space group: P -1
;
_chemical_formula_sum "Si O2"
_cell_formula_units_Z 14
_cell_length_a 14.018225
_cell_length_b 14.333994
_cell_length_c 11.119714
_cell_angle_alpha 41.912271
_cell_angle_beta 31.881478
_cell_angle_gamma 65.807977
_cell_volume 612.484326
_symmetry_space_group_name_H-M "P -1"
_symmetry_group_IT_number 2
_symmetry_cell_setting 'triclinic'
loop_
_space_group_symop_operation_xyz
x,y,z
-x,-y,-z
loop_
_atom_site_type_symbol
_atom_site_label
_atom_site_fract_x
_atom_site_fract_y
_atom_site_fract_z
Si Si1 0.957955 0.699159 0.190020
Si Si2 0.433015 0.324934 0.118751
Si Si3 0.722945 0.861181 0.282877
Si Si4 0.006215 0.480821 0.195092
Si Si5 0.458750 0.672791 0.254696
Si Si6 0.960727 0.266390 0.671097
Si Si7 0.483541 0.354054 0.533560
O O1 0.940731 0.858117 0.053063
O O2 0.055463 0.665133 0.003742
O O3 0.088090 0.717395 0.154535
O O4 0.685880 0.520583 0.662927
O O5 0.398986 0.225493 0.374657
O O6 0.226766 0.338610 0.317793
O O7 0.423822 0.238744 0.084345
O O8 0.584663 0.753265 0.414143
O O9 0.806579 0.059503 0.998752
O O10 0.789258 0.370850 0.443680
O O11 0.931406 0.373015 0.504465
O O12 0.237914 0.516153 0.876176
O O13 0.414264 0.482658 0.480779
O O14 0.597566 0.759397 0.146990
#
# Coordination Sequence:
#
# PCOD9079624 Si02
#       7
#     2   2   2   2   2   2   2
#     4  10  19  35  59  90 118 156 205 242 290 356
#     4  10  18  37  62  88 115 161 198 246 287 354
#     4  11  21  37  60  91 126 157 197 241 309 358
#     4  11  20  38  63  91 115 155 207 248 290 352
#     4  10  22  38  66  90 114 154 216 244 289 350
#     4  11  21  34  58  94 128 155 191 252 305 353
#     4  11  21  41  64  88 119 160 201 251 292 353
#
# _framework density 22.857727000000001
#
# number of rings (size 3 to 8) (size 9 to 14) (size 15 to 20)
#    0.000    1.429    4.286    5.143    0.000    1.143 
#    0.000   10.714    0.000    0.000    0.000    0.000 
#    0.000    0.000    0.000    0.000    0.000    0.000 
#
# Total GULP energy -78202.552412 kJ/mol
# GULP energy per Si atom -5585.896601 kJ/mol
# Density = 2.280570 g / cm^3
# Si number density = 22.857727 Si / 1000 Ang^3
#
#
#
# Elastic Constant Matrix: (Units=GPa)
#
#
# Indices 1 2 3 4 5 6 
#
# 1 176.7995 19.9834 22.6993 3.2501 10.4977 20.7681
# 2 19.9834 48.2832 22.6289 1.0177 4.3450 2.3701
# 3 22.6993 22.6289 36.9829 3.1062 -3.0924 7.5174
# 4 3.2501 1.0177 3.1062 23.8146 -1.3030 -4.6587
# 5 10.4977 4.3450 -3.0924 -1.3030 23.9442 15.1801
# 6 20.7681 2.3701 7.5174 -4.6587 15.1801 34.4143
#
#
#
# Elastic Compliance Matrix: (Units=1/GPa)
#
#
# Indices 1 2 3 4 5 6 
#
# 1 0.006574 -0.001149 -0.002758 -0.001121 -0.001266 -0.002879
# 2 -0.001149 0.032667 -0.022875 0.002963 -0.014788 0.010365
# 3 -0.002758 -0.022875 0.049092 -0.007441 0.023153 -0.018704
# 4 -0.001121 0.002963 -0.007441 0.044747 -0.005196 0.010447
# 5 -0.001266 -0.014788 0.023153 -0.005196 0.069733 -0.034738
# 6 -0.002879 0.010365 -0.018704 0.010447 -0.034738 0.050904
#
#
# Mechanical properties :
#
#
# Convention : Reuss Voigt Hill
#
# Bulk Modulus (GPa) = 28.76192 43.63207 36.19700
# Shear Modulus (GPa) = 15.68027 29.55154 22.61591
#
# Velocity S-wave (km/s) = 2.62199 3.59952 3.14892
# Velocity P-wave (km/s) = 4.66656 6.03369 5.39361
#
# Compressibility (1/GPa) = 0.03476819
#
# Stress axis : x y z
#
# Youngs Moduli (GPa) = 152.11174 30.61170 20.36986
#
# Poissons Ratio (x) = 0.03518 0.05619
# Poissons Ratio (y) = 0.17482 0.46596
# Poissons Ratio (z) = 0.41957 0.70024
#
# Static dielectric constant tensor:
#      x y z
#    x 1.916070 0.058570 0.041140 
#    y 0.058570 1.885480 0.063280 
#    z 0.041140 0.063280 1.889170 
# 
# From -- ./inp_files/357307.got.cif
#   From: 2010.05.17/outbox.cif.g08.bks.cpg/sg2_179_cif.got.tgz:357307.got - 2010.06.03 11:33:40.
