data_PCOD9079562
_publ_section_title
;
Structure prediction by ZEFSAII (Michael W. Deem and Ramdas Pophale) SiO2 
 PCOD9079562
Probable space group: P -1
;
_chemical_formula_sum "Si O2"
_cell_formula_units_Z 16
_cell_length_a 17.050431
_cell_length_b 10.447105
_cell_length_c 12.641061
_cell_angle_alpha 65.712495
_cell_angle_beta 42.252045
_cell_angle_gamma 35.479768
_cell_volume 765.782626
_symmetry_space_group_name_H-M "P -1"
_symmetry_group_IT_number 2
_symmetry_cell_setting 'triclinic'
loop_
_space_group_symop_operation_xyz
x,y,z
-x,-y,-z
loop_
_atom_site_type_symbol
_atom_site_label
_atom_site_fract_x
_atom_site_fract_y
_atom_site_fract_z
Si Si1 0.362386 0.001544 0.161311
Si Si2 0.099276 0.206224 0.888492
Si Si3 0.442814 0.343801 0.410597
Si Si4 0.974337 0.903698 0.212955
Si Si5 0.428342 0.485221 0.834359
Si Si6 0.148445 0.244331 0.501188
Si Si7 0.918557 0.509639 0.321783
Si Si8 0.718565 0.435315 0.282953
O O1 0.329991 0.036342 0.308139
O O2 0.141865 0.239432 0.239389
O O3 0.468788 0.744581 0.124563
O O4 0.500000 0.000000 0.000000
O O5 0.067226 0.131355 0.846060
O O6 0.049238 0.415186 0.832540
O O7 0.348909 0.939742 0.747821
O O8 0.924445 0.328999 0.104083
O O9 0.442532 0.501148 0.310587
O O10 0.233146 0.467866 0.553806
O O11 0.440208 0.357841 0.537084
O O12 0.963413 0.789609 0.347070
O O13 0.808999 0.190747 0.303628
O O14 0.203739 0.740658 0.025796
O O15 0.378089 0.484528 0.764723
O O16 0.198397 0.273331 0.549381
O O17 0.000000 0.500000 0.500000
#
# Coordination Sequence:
#
# PCOD9079562 Si02
#       8
#     2   2   2   2   2   2   2   2
#     4  11  22  41  64  89 114 153 207 250 295 358
#     4  10  20  40  58  85 125 158 199 252 292 355
#     4  12  23  37  61  91 125 161 197 242 307 359
#     4  10  18  37  61  88 119 148 204 257 291 345
#     4  11  21  36  63  90 121 157 202 251 292 356
#     4   9  19  37  61  80 111 155 195 243 293 345
#     4  10  24  41  56  87 124 159 198 245 300 357
#     4  11  21  36  61  92 119 155 206 248 298 349
#
# _framework density 20.893659
#
# number of rings (size 3 to 8) (size 9 to 14) (size 15 to 20)
#    0.000    1.500    2.500    5.250    3.500    1.000 
#    2.250    0.000    0.000    4.500    0.000    0.000 
#    0.000    0.000    0.000    0.000    0.000    0.000 
#
# Total GULP energy -89337.650967 kJ/mol
# GULP energy per Si atom -5583.603185 kJ/mol
# Density = 2.084610 g / cm^3
# Si number density = 20.893659 Si / 1000 Ang^3
#
#
#
# Elastic Constant Matrix: (Units=GPa)
#
#
# Indices 1 2 3 4 5 6 
#
# 1 42.7238 18.1070 33.3749 -8.3101 -29.9529 5.1949
# 2 18.1070 132.9906 35.6146 -13.0972 -19.3556 0.3080
# 3 33.3749 35.6146 135.2833 -23.0621 -24.5854 2.3216
# 4 -8.3101 -13.0972 -23.0621 37.7453 4.5437 -0.8883
# 5 -29.9529 -19.3556 -24.5854 4.5437 39.2961 0.5680
# 6 5.1949 0.3080 2.3216 -0.8883 0.5680 10.4179
#
#
#
# Elastic Compliance Matrix: (Units=1/GPa)
#
#
# Indices 1 2 3 4 5 6 
#
# 1 0.065540 -0.000011 -0.006559 0.004113 0.045855 -0.033370
# 2 -0.000011 0.008515 -0.001376 0.001736 0.003124 0.000038
# 3 -0.006559 -0.001376 0.010098 0.004267 0.000127 0.001418
# 4 0.004113 0.001736 0.004267 0.030211 0.003176 -0.000650
# 5 0.045855 0.003124 0.000127 0.003176 0.062028 -0.026098
# 6 -0.033370 0.000038 0.001418 -0.000650 -0.026098 0.113679
#
#
# Mechanical properties :
#
#
# Convention : Reuss Voigt Hill
#
# Bulk Modulus (GPa) = 14.64947 53.91007 34.27977
# Shear Modulus (GPa) = 15.21065 32.41861 23.81463
#
# Velocity S-wave (km/s) = 2.70108 3.94331 3.37976
# Velocity P-wave (km/s) = 4.09322 6.82576 5.62785
#
# Compressibility (1/GPa) = 0.06826184
#
# Stress axis : x y z
#
# Youngs Moduli (GPa) = 15.25779 117.44259 99.02638
#
# Poissons Ratio (x) = 0.00127 0.64952
# Poissons Ratio (y) = 0.00017 0.13625
# Poissons Ratio (z) = 0.10008 0.16159
#
# Static dielectric constant tensor:
#      x y z
#    x 1.758770 0.018750 0.019560 
#    y 0.018750 1.834540 0.009670 
#    z 0.019560 0.009670 1.775370 
# 
# From -- ./inp_files/387076.got.cif
#   From: 2010.05.17/outbox.cif.g08.bks.cpg/sg2_194_cif.got.tgz:387076.got - 2010.06.03 11:33:40.
