data_PCOD9079343
_publ_section_title
;
Structure prediction by ZEFSAII (Michael W. Deem and Ramdas Pophale) SiO2 
 PCOD9079343
Probable space group: P -1
;
_chemical_formula_sum "Si O2"
_cell_formula_units_Z 16
_cell_length_a 17.951253
_cell_length_b 11.890592
_cell_length_c 9.246628
_cell_angle_alpha 132.106512
_cell_angle_beta 133.970685
_cell_angle_gamma 30.598334
_cell_volume 708.580275
_symmetry_space_group_name_H-M "P -1"
_symmetry_group_IT_number 2
_symmetry_cell_setting 'triclinic'
loop_
_space_group_symop_operation_xyz
x,y,z
-x,-y,-z
loop_
_atom_site_type_symbol
_atom_site_label
_atom_site_fract_x
_atom_site_fract_y
_atom_site_fract_z
Si Si1 0.894941 0.520257 0.159448
Si Si2 0.062959 0.778566 0.827164
Si Si3 0.431731 0.381183 0.938912
Si Si4 0.426701 0.067214 0.801960
Si Si5 0.620435 0.332885 0.389938
Si Si6 0.083036 0.169625 0.619615
Si Si7 0.170801 0.598652 0.315969
Si Si8 0.445633 0.211597 0.527532
O O1 0.982361 0.310679 0.202898
O O2 0.754568 0.729313 0.248819
O O3 0.957979 0.607783 0.256110
O O4 0.834727 0.487589 0.914768
O O5 0.248076 0.591045 0.898211
O O6 0.990605 0.829771 0.617942
O O7 0.000000 0.000000 0.000000
O O8 0.477612 0.168025 0.882498
O O9 0.468049 0.322620 0.767619
O O10 0.523488 0.402165 0.175117
O O11 0.470744 0.882076 0.596106
O O12 0.500000 0.000000 0.000000
O O13 0.500000 0.500000 0.500000
O O14 0.736833 0.346976 0.539131
O O15 0.735576 0.065662 0.340620
O O16 0.000433 0.197780 0.676928
O O17 0.268329 0.405746 0.405265
O O18 0.500000 0.000000 0.500000
#
# Coordination Sequence:
#
# PCOD9079343 Si02
#       8
#     2   2   2   2   2   2   2   2
#     4  11  24  42  73 103 136 190 241 287 349 426
#     4  11  23  46  70 104 148 185 228 299 358 421
#     4  10  22  43  66 100 141 181 236 287 352 428
#     4  10  18  36  68 100 133 178 231 292 343 407
#     4  12  27  46  75 106 139 190 246 291 359 432
#     4  12  26  47  71 105 145 186 238 296 359 427
#     4  12  25  47  70 104 145 188 235 299 362 422
#     4  10  22  40  68 100 144 179 229 291 361 407
#
# _framework density 22.580362999999998
#
# number of rings (size 3 to 8) (size 9 to 14) (size 15 to 20)
#    0.000    1.000    2.500    4.875    3.500    0.500 
#    0.000    0.000    0.000    0.000    0.000    0.000 
#    0.000    0.000    0.000    0.000    0.000    0.000 
#
# Total GULP energy -89416.907346 kJ/mol
# GULP energy per Si atom -5588.556709 kJ/mol
# Density = 2.252897 g / cm^3
# Si number density = 22.580363 Si / 1000 Ang^3
#
#
#
# Elastic Constant Matrix: (Units=GPa)
#
#
# Indices 1 2 3 4 5 6 
#
# 1 102.8626 23.7891 41.2123 17.4484 -2.3587 -5.7480
# 2 23.7891 96.8378 29.7253 8.9992 -15.4016 -2.1379
# 3 41.2123 29.7253 173.6239 15.3365 -26.5848 -26.8703
# 4 17.4484 8.9992 15.3365 29.7157 0.9488 -1.6422
# 5 -2.3587 -15.4016 -26.5848 0.9488 38.6724 2.2615
# 6 -5.7480 -2.1379 -26.8703 -1.6422 2.2615 29.0224
#
#
#
# Elastic Compliance Matrix: (Units=1/GPa)
#
#
# Indices 1 2 3 4 5 6 
#
# 1 0.011935 -0.001992 -0.002273 -0.005188 -0.001497 -0.000064
# 2 -0.001992 0.011922 -0.000861 -0.002170 0.004132 -0.000759
# 3 -0.002273 -0.000861 0.008498 -0.002574 0.005025 0.006817
# 4 -0.005188 -0.002170 -0.002574 0.038747 -0.003838 -0.001079
# 5 -0.001497 0.004132 0.005025 -0.003838 0.030842 0.002040
# 6 -0.000064 -0.000759 0.006817 -0.001079 0.002040 0.040479
#
#
# Mechanical properties :
#
#
# Convention : Reuss Voigt Hill
#
# Bulk Modulus (GPa) = 45.24062 62.53087 53.88574
# Shear Modulus (GPa) = 31.24144 38.05528 34.64836
#
# Velocity S-wave (km/s) = 3.72367 4.10973 3.92145
# Velocity P-wave (km/s) = 6.21019 7.09031 6.66480
#
# Compressibility (1/GPa) = 0.02210403
#
# Stress axis : x y z
#
# Youngs Moduli (GPa) = 83.78735 83.87588 117.66888
#
# Poissons Ratio (x) = 0.16705 0.26744
# Poissons Ratio (y) = 0.16687 0.10136
# Poissons Ratio (z) = 0.19044 0.07225
#
# Static dielectric constant tensor:
#      x y z
#    x 1.904230 0.032550 -0.002450 
#    y 0.032550 1.891470 0.026900 
#    z -0.002450 0.026900 1.806920 
# 
# From -- ./inp_files/333815.got.cif
#   From: 2010.05.17/outbox.cif.g08.bks.cpg/sg2_167_cif.got.tgz:333815.got - 2010.06.03 11:33:40.
