data_PCOD9079125
_publ_section_title
;
Structure prediction by ZEFSAII (Michael W. Deem and Ramdas Pophale) SiO2 
 PCOD9079125
Probable space group: P -1
;
_chemical_formula_sum "Si O2"
_cell_formula_units_Z 16
_cell_length_a 11.793975
_cell_length_b 8.201673
_cell_length_c 21.984985
_cell_angle_alpha 81.167103
_cell_angle_beta 145.871725
_cell_angle_gamma 127.489886
_cell_volume 584.328198
_symmetry_space_group_name_H-M "P -1"
_symmetry_group_IT_number 2
_symmetry_cell_setting 'triclinic'
loop_
_space_group_symop_operation_xyz
x,y,z
-x,-y,-z
loop_
_atom_site_type_symbol
_atom_site_label
_atom_site_fract_x
_atom_site_fract_y
_atom_site_fract_z
Si Si1 0.998714 0.486698 0.744072
Si Si2 0.195241 0.456613 0.048100
Si Si3 0.833574 0.144366 0.792109
Si Si4 0.047116 0.788625 0.491156
Si Si5 0.964165 0.133466 0.309835
Si Si6 0.614761 0.669117 0.666914
Si Si7 0.810789 0.524763 0.826581
Si Si8 0.991674 0.200105 0.665213
O O1 0.055472 0.454280 0.838412
O O2 0.502130 0.139164 0.539001
O O3 0.142106 0.772778 0.776415
O O4 0.137781 0.453455 0.757213
O O5 0.092112 0.316272 0.075693
O O6 0.626048 0.852995 0.226516
O O7 0.090453 0.262566 0.956984
O O8 0.958158 0.447790 0.915963
O O9 0.373688 0.869576 0.624218
O O10 0.801704 0.982821 0.735505
O O11 0.712456 0.547602 0.409413
O O12 0.356266 0.158584 0.621582
O O13 0.865219 0.679774 0.348588
O O14 0.375574 0.453356 0.511898
O O15 0.931516 0.934724 0.272892
O O16 0.930661 0.746349 0.817569
#
# Coordination Sequence:
#
# PCOD9079125 Si02
#       8
#     2   2   2   2   2   2   2   2
#     4  10  23  42  60  93 132 162 218 268 304 362
#     4  10  23  42  59  89 133 169 198 251 331 382
#     4  10  24  41  59  88 135 169 202 266 316 368
#     4  10  18  36  62  95 125 155 206 264 313 373
#     4  12  22  39  72  96 119 173 215 259 316 372
#     4  12  21  36  68 100 119 160 218 258 313 384
#     4  10  20  39  61  90 133 162 198 256 319 392
#     4  10  20  39  62  97 128 157 207 275 312 358
#
# _framework density 27.381875999999998
#
# number of rings (size 3 to 8) (size 9 to 14) (size 15 to 20)
#    0.000    1.500    2.500    4.125    0.000    1.000 
#    2.250    0.625    0.000    0.000    0.000    0.000 
#    0.000    0.000    0.000    0.000    0.000    0.000 
#
# Total GULP energy -89345.037328 kJ/mol
# GULP energy per Si atom -5584.064833 kJ/mol
# Density = 2.731955 g / cm^3
# Si number density = 27.381876 Si / 1000 Ang^3
#
#
#
# Elastic Constant Matrix: (Units=GPa)
#
#
# Indices 1 2 3 4 5 6 
#
# 1 149.7793 42.1904 16.1694 -13.6315 -33.4102 -13.4439
# 2 42.1904 103.3079 17.0056 -16.9426 -11.8522 -17.2637
# 3 16.1694 17.0056 63.9561 -17.9834 -26.6398 -5.9008
# 4 -13.6315 -16.9426 -17.9834 28.9821 9.4860 1.5531
# 5 -33.4102 -11.8522 -26.6398 9.4860 38.4145 -5.9351
# 6 -13.4439 -17.2637 -5.9008 1.5531 -5.9351 48.7720
#
#
#
# Elastic Compliance Matrix: (Units=1/GPa)
#
#
# Indices 1 2 3 4 5 6 
#
# 1 0.009713 -0.002522 0.003113 0.001591 0.009948 0.003321
# 2 -0.002522 0.012307 -0.000680 0.005283 0.000361 0.003455
# 3 0.003113 -0.000680 0.026642 0.011017 0.019151 0.005820
# 4 0.001591 0.005283 0.011017 0.045108 -0.000146 0.002187
# 5 0.009948 0.000361 0.019151 -0.000146 0.049852 0.011258
# 6 0.003321 0.003455 0.005820 0.002187 0.011258 0.024646
#
#
# Mechanical properties :
#
#
# Convention : Reuss Voigt Hill
#
# Bulk Modulus (GPa) = 20.62579 51.97487 36.30033
# Shear Modulus (GPa) = 27.08454 39.34558 33.21506
#
# Velocity S-wave (km/s) = 3.14847 3.79479 3.48664
# Velocity P-wave (km/s) = 4.55699 6.18249 5.43090
#
# Compressibility (1/GPa) = 0.04848299
#
# Stress axis : x y z
#
# Youngs Moduli (GPa) = 102.95710 81.25616 37.53511
#
# Poissons Ratio (x) = 0.20490 -0.11683
# Poissons Ratio (y) = 0.25963 0.02552
# Poissons Ratio (z) = -0.32046 0.05525
#
# Static dielectric constant tensor:
#      x y z
#    x 2.392090 -0.021370 0.134690 
#    y -0.021370 2.141170 0.013190 
#    z 0.134690 0.013190 2.227870 
# 
# From -- ./inp_files/593583.got.cif
#   From: 2010.05.17/outbox.cif.g08.bks.cpg/sg2_297_cif.got.tgz:593583.got - 2010.06.03 11:33:40.
