data_PCOD9079352
_publ_section_title
;
Structure prediction by ZEFSAII (Michael W. Deem and Ramdas Pophale) SiO2 
 PCOD9079352
Probable space group: P -1
;
_chemical_formula_sum "Si O2"
_cell_formula_units_Z 14
_cell_length_a 9.461908
_cell_length_b 6.507099
_cell_length_c 17.868129
_cell_angle_alpha 40.818020
_cell_angle_beta 46.864130
_cell_angle_gamma 67.400151
_cell_volume 503.901882
_symmetry_space_group_name_H-M "P -1"
_symmetry_group_IT_number 2
_symmetry_cell_setting 'triclinic'
loop_
_space_group_symop_operation_xyz
x,y,z
-x,-y,-z
loop_
_atom_site_type_symbol
_atom_site_label
_atom_site_fract_x
_atom_site_fract_y
_atom_site_fract_z
Si Si1 0.248210 0.189800 0.391279
Si Si2 0.069289 0.951676 0.072269
Si Si3 0.325281 0.546138 0.582246
Si Si4 0.149696 0.007068 0.324026
Si Si5 0.568345 0.185621 0.087347
Si Si6 0.396518 0.890550 0.633326
Si Si7 0.070075 0.352649 0.104786
O O1 0.246790 0.804522 0.488646
O O2 0.464253 0.304615 0.320287
O O3 0.066615 0.211072 0.506003
O O4 0.212977 0.274899 0.295584
O O5 0.888238 0.659531 0.249032
O O6 0.081594 0.216510 0.057158
O O7 0.293117 0.912058 0.997229
O O8 0.000000 0.000000 0.000000
O O9 0.397992 0.246635 0.593389
O O10 0.408420 0.783060 0.564849
O O11 0.362204 0.921091 0.258312
O O12 0.107101 0.136573 0.222486
O O13 0.500000 0.500000 0.000000
O O14 0.738225 0.324423 0.050396
O O15 0.165415 0.695177 0.782911
#
# Coordination Sequence:
#
# PCOD9079352 Si02
#       7
#     2   2   2   2   2   2   2
#     4   9  20  36  66  94 126 168 217 276 323 384
#     4  12  26  43  66 103 137 171 229 282 331 400
#     4  10  20  38  63  87 131 162 200 277 333 364
#     4  10  20  40  63  95 129 172 223 267 323 404
#     4  10  24  43  66  90 140 181 216 270 342 398
#     4  10  18  36  68  92 123 166 222 264 334 385
#     4  11  22  43  67  97 132 183 215 277 339 396
#
# _framework density 27.783183999999999
#
# number of rings (size 3 to 8) (size 9 to 14) (size 15 to 20)
#    0.857    0.857    2.857    2.571    4.000    2.857 
#    2.571    0.714    0.000    0.000    0.000    0.000 
#    0.000    0.000    0.000    0.000    0.000    0.000 
#
# Total GULP energy -77976.013958 kJ/mol
# GULP energy per Si atom -5569.715283 kJ/mol
# Density = 2.771995 g / cm^3
# Si number density = 27.783184 Si / 1000 Ang^3
#
#
#
# Elastic Constant Matrix: (Units=GPa)
#
#
# Indices 1 2 3 4 5 6 
#
# 1 169.5328 59.7736 73.3260 26.0674 -30.9027 0.8347
# 2 59.7736 167.0034 90.3609 55.6202 -22.8888 -17.3186
# 3 73.3260 90.3609 185.7104 53.8757 -28.3959 -9.2589
# 4 26.0674 55.6202 53.8757 73.2323 -5.5568 -16.8946
# 5 -30.9027 -22.8888 -28.3959 -5.5568 75.5977 16.6573
# 6 0.8347 -17.3186 -9.2589 -16.8946 16.6573 32.1012
#
#
#
# Elastic Compliance Matrix: (Units=1/GPa)
#
#
# Indices 1 2 3 4 5 6 
#
# 1 0.007896 -0.001493 -0.001887 -0.000874 0.002763 -0.003449
# 2 -0.001493 0.009710 -0.002677 -0.004394 0.000585 0.001889
# 3 -0.001887 -0.002677 0.008803 -0.004085 0.001859 -0.001970
# 4 -0.000874 -0.004394 -0.004085 0.022381 -0.003834 0.010242
# 5 0.002763 0.000585 0.001859 -0.003834 0.017189 -0.010157
# 6 -0.003449 0.001889 -0.001970 0.010242 -0.010157 0.042353
#
#
# Mechanical properties :
#
#
# Convention : Reuss Voigt Hill
#
# Bulk Modulus (GPa) = 69.95019 107.68530 88.81774
# Shear Modulus (GPa) = 39.93240 56.10532 48.01886
#
# Velocity S-wave (km/s) = 3.79527 4.49865 4.16184
# Velocity P-wave (km/s) = 6.66613 8.11339 7.42510
#
# Compressibility (1/GPa) = 0.01429589
#
# Stress axis : x y z
#
# Youngs Moduli (GPa) = 126.64384 102.98598 113.59158
#
# Poissons Ratio (x) = 0.15374 0.21437
# Poissons Ratio (y) = 0.18906 0.30407
# Poissons Ratio (z) = 0.23900 0.27568
#
# Static dielectric constant tensor:
#      x y z
#    x 2.235560 0.036100 -0.044030 
#    y 0.036100 2.424780 -0.099670 
#    z -0.044030 -0.099670 2.233110 
# 
# From -- ./inp_files/586486.got.cif
#   From: 2010.05.17/outbox.cif.g08.bks.cpg/sg2_294_cif.got.tgz:586486.got - 2010.06.03 11:33:40.
