data_PCOD9079393
_publ_section_title
;
Structure prediction by ZEFSAII (Michael W. Deem and Ramdas Pophale) SiO2 
 PCOD9079393
Probable space group: P -1
;
_chemical_formula_sum "Si O2"
_cell_formula_units_Z 16
_cell_length_a 11.739052
_cell_length_b 6.896940
_cell_length_c 17.308028
_cell_angle_alpha 126.011585
_cell_angle_beta 142.458907
_cell_angle_gamma 58.570090
_cell_volume 686.335986
_symmetry_space_group_name_H-M "P -1"
_symmetry_group_IT_number 2
_symmetry_cell_setting 'triclinic'
loop_
_space_group_symop_operation_xyz
x,y,z
-x,-y,-z
loop_
_atom_site_type_symbol
_atom_site_label
_atom_site_fract_x
_atom_site_fract_y
_atom_site_fract_z
Si Si1 0.806879 0.873175 0.364959
Si Si2 0.418652 0.249275 0.924961
Si Si3 0.958602 0.489998 0.174029
Si Si4 0.308639 0.408291 0.443847
Si Si5 0.487883 0.139191 0.343712
Si Si6 0.005321 0.376348 0.390566
Si Si7 0.832057 0.061286 0.118168
Si Si8 0.875922 0.823078 0.936679
O O1 0.671932 0.910891 0.226989
O O2 0.864636 0.587686 0.324461
O O3 0.676104 0.960682 0.387939
O O4 0.000000 0.000000 0.500000
O O5 0.234248 0.336066 0.896839
O O6 0.500000 0.500000 0.000000
O O7 0.610174 0.103798 0.023157
O O8 0.897481 0.265526 0.140394
O O9 0.139555 0.550958 0.335043
O O10 0.048651 0.420951 0.123563
O O11 0.391463 0.173688 0.384449
O O12 0.460111 0.591311 0.580723
O O13 0.210828 0.361348 0.460458
O O14 0.332767 0.089899 0.186321
O O15 0.933134 0.125263 0.267246
O O16 0.000000 0.500000 0.500000
O O17 0.882223 0.836833 0.035256
O O18 0.000000 0.000000 0.000000
#
# Coordination Sequence:
#
# PCOD9079393 Si02
#       8
#     2   2   2   2   2   2   2   2
#     4  12  20  32  54  83 106 134 180 225 265 306
#     4  10  15  27  47  73 103 125 166 224 262 296
#     4   8  14  24  41  68 100 123 156 208 266 301
#     4   9  17  33  47  75 106 139 165 212 269 315
#     4  10  18  28  53  78 106 127 171 225 268 304
#     4  11  22  36  51  72 111 150 174 208 264 325
#     4   9  16  28  44  69  97 129 170 210 252 300
#     4   9  16  24  43  73 102 127 161 216 269 306
#
# _framework density 23.312197000000001
#
# number of rings (size 3 to 8) (size 9 to 14) (size 15 to 20)
#    0.000    2.250    6.250    0.750    0.000    0.000 
#    0.000    0.625    0.000    3.000    0.000    0.000 
#    0.000    9.000    0.000    0.000    0.000    0.000 
#
# Total GULP energy -89082.909922 kJ/mol
# GULP energy per Si atom -5567.681870 kJ/mol
# Density = 2.325914 g / cm^3
# Si number density = 23.312197 Si / 1000 Ang^3
#
#
#
# Elastic Constant Matrix: (Units=GPa)
#
#
# Indices 1 2 3 4 5 6 
#
# 1 157.5838 26.6370 55.9024 4.2645 -15.0897 -55.1099
# 2 26.6370 22.3575 -7.2357 -2.7916 -0.1074 -14.3730
# 3 55.9024 -7.2357 142.4856 8.2233 2.9067 -6.4479
# 4 4.2645 -2.7916 8.2233 20.2217 -16.4664 -1.9533
# 5 -15.0897 -0.1074 2.9067 -16.4664 49.8680 9.0253
# 6 -55.1099 -14.3730 -6.4479 -1.9533 9.0253 45.6024
#
#
#
# Elastic Compliance Matrix: (Units=1/GPa)
#
#
# Indices 1 2 3 4 5 6 
#
# 1 0.015556 -0.011503 -0.006211 0.001458 0.003036 0.013757
# 2 -0.011503 0.068078 0.008084 0.006768 -0.003316 0.009645
# 3 -0.006211 0.008084 0.010076 -0.004802 -0.003483 -0.003050
# 4 0.001458 0.006768 -0.004802 0.071882 0.024199 0.001506
# 5 0.003036 -0.003316 -0.003483 0.024199 0.029646 -0.002700
# 6 0.013757 0.009645 -0.003050 0.001506 -0.002700 0.041761
#
#
# Mechanical properties :
#
#
# Convention : Reuss Voigt Hill
#
# Bulk Modulus (GPa) = 13.43190 52.55934 32.99562
# Shear Modulus (GPa) = 17.78885 39.61332 28.70108
#
# Velocity S-wave (km/s) = 2.76537 4.12667 3.51260
# Velocity P-wave (km/s) = 3.99633 6.73058 5.53495
#
# Compressibility (1/GPa) = 0.07444965
#
# Stress axis : x y z
#
# Youngs Moduli (GPa) = 64.28519 14.68904 99.24885
#
# Poissons Ratio (x) = 0.16896 0.61641
# Poissons Ratio (y) = 0.73945 -0.80229
# Poissons Ratio (z) = 0.39926 -0.11874
#
# Static dielectric constant tensor:
#      x y z
#    x 1.976510 0.040270 -0.111810 
#    y 0.040270 1.966370 -0.013310 
#    z -0.111810 -0.013310 2.027570 
# 
# From -- ./inp_files/532893.got.cif
#   From: 2010.05.17/outbox.cif.g08.bks.cpg/sg2_267_cif.got.tgz:532893.got - 2010.06.03 11:33:40.
