data_PCOD9079147
_publ_section_title
;
Structure prediction by ZEFSAII (Michael W. Deem and Ramdas Pophale) SiO2 
 PCOD9079147
Probable space group: P -1
;
_chemical_formula_sum "Si O2"
_cell_formula_units_Z 16
_cell_length_a 10.911054
_cell_length_b 14.434784
_cell_length_c 11.282041
_cell_angle_alpha 35.641591
_cell_angle_beta 53.007951
_cell_angle_gamma 43.565031
_cell_volume 713.227760
_symmetry_space_group_name_H-M "P -1"
_symmetry_group_IT_number 2
_symmetry_cell_setting 'triclinic'
loop_
_space_group_symop_operation_xyz
x,y,z
-x,-y,-z
loop_
_atom_site_type_symbol
_atom_site_label
_atom_site_fract_x
_atom_site_fract_y
_atom_site_fract_z
Si Si1 0.004500 0.429249 0.436701
Si Si2 0.695136 0.888797 0.555702
Si Si3 0.606141 0.026170 0.722067
Si Si4 0.288292 0.204858 0.883534
Si Si5 0.960097 0.024325 0.305367
Si Si6 0.142830 0.850455 0.162013
Si Si7 0.212841 0.734158 0.651251
Si Si8 0.528412 0.618500 0.257614
O O1 0.889038 0.612545 0.237523
O O2 0.907758 0.307872 0.624753
O O3 0.000000 0.500000 0.500000
O O4 0.187729 0.297016 0.396229
O O5 0.803042 0.998607 0.368270
O O6 0.500000 0.000000 0.500000
O O7 0.664355 0.893969 0.710966
O O8 0.402727 0.110138 0.796395
O O9 0.648873 0.189514 0.504071
O O10 0.724184 0.920573 0.877365
O O11 0.413330 0.262329 0.824033
O O12 0.099670 0.976747 0.171419
O O13 0.059232 0.862467 0.513688
O O14 0.875491 0.217699 0.218995
O O15 0.356396 0.737981 0.151032
O O16 0.000000 0.000000 0.000000
O O17 0.312180 0.527970 0.764008
O O18 0.500000 0.500000 0.500000
#
# Coordination Sequence:
#
# PCOD9079147 Si02
#       8
#     2   2   2   2   2   2   2   2
#     4  11  23  40  59  84 117 156 196 242 299 348
#     4  10  21  37  57  80 119 158 191 235 297 354
#     4  10  21  36  59  89 117 149 193 239 288 348
#     4  11  22  37  61  90 118 151 199 245 288 348
#     4   9  19  35  59  84 111 151 196 237 287 349
#     4  11  23  39  60  87 118 154 195 241 292 350
#     4  10  18  36  63  86 111 151 196 239 288 343
#     4  12  19  37  63  88 116 151 198 238 289 340
#
# _framework density 22.433228
#
# number of rings (size 3 to 8) (size 9 to 14) (size 15 to 20)
#    0.000    1.500    3.750    1.500    0.000    6.500 
#    0.000    1.875    0.000    0.000    0.000    0.000 
#    0.000    0.000    0.000    0.000    0.000    0.000 
#
# Total GULP energy -89308.504753 kJ/mol
# GULP energy per Si atom -5581.781547 kJ/mol
# Density = 2.238217 g / cm^3
# Si number density = 22.433228 Si / 1000 Ang^3
#
#
#
# Elastic Constant Matrix: (Units=GPa)
#
#
# Indices 1 2 3 4 5 6 
#
# 1 88.4523 46.8413 7.2987 -2.5113 29.9258 -0.8309
# 2 46.8413 195.6276 21.7863 -9.8721 18.7455 8.9602
# 3 7.2987 21.7863 49.1999 -9.1438 16.3669 -0.2095
# 4 -2.5113 -9.8721 -9.1438 25.8883 -9.5400 12.0824
# 5 29.9258 18.7455 16.3669 -9.5400 30.3989 -3.7641
# 6 -0.8309 8.9602 -0.2095 12.0824 -3.7641 44.1578
#
#
#
# Elastic Compliance Matrix: (Units=1/GPa)
#
#
# Indices 1 2 3 4 5 6 
#
# 1 0.020078 -0.003595 0.004754 -0.006295 -0.021962 0.000980
# 2 -0.003595 0.006311 -0.002252 0.002729 0.001471 -0.001980
# 3 0.004754 -0.002252 0.026900 0.003736 -0.016822 -0.001782
# 4 -0.006295 0.002729 0.003736 0.053237 0.017510 -0.013728
# 5 -0.021962 0.001471 -0.016822 0.017510 0.068190 0.000230
# 6 0.000980 -0.001980 -0.001782 -0.013728 0.000230 0.026834
#
#
# Mechanical properties :
#
#
# Convention : Reuss Voigt Hill
#
# Bulk Modulus (GPa) = 19.56855 53.90359 36.73607
# Shear Modulus (GPa) = 22.64807 37.24592 29.94699
#
# Velocity S-wave (km/s) = 3.18083 4.07910 3.65765
# Velocity P-wave (km/s) = 4.71510 6.80191 5.85227
#
# Compressibility (1/GPa) = 0.05110241
#
# Stress axis : x y z
#
# Youngs Moduli (GPa) = 49.80597 158.45991 37.17451
#
# Poissons Ratio (x) = 0.56966 -0.17671
# Poissons Ratio (y) = 0.17905 0.08371
# Poissons Ratio (z) = -0.23676 0.35683
#
# Static dielectric constant tensor:
#      x y z
#    x 1.863440 -0.005700 -0.036150 
#    y -0.005700 1.856750 0.043500 
#    z -0.036150 0.043500 1.892940 
# 
# From -- ./inp_files/433714.got.cif
#   From: 2010.05.17/outbox.cif.g08.bks.cpg/sg2_217_cif.got.tgz:433714.got - 2010.06.03 11:33:40.
