data_PCOD9079244
_publ_section_title
;
Structure prediction by ZEFSAII (Michael W. Deem and Ramdas Pophale) SiO2 
 PCOD9079244
Probable space group: P -1
;
_chemical_formula_sum "Si O2"
_cell_formula_units_Z 15
_cell_length_a 20.527872
_cell_length_b 9.624772
_cell_length_c 8.868213
_cell_angle_alpha 83.222454
_cell_angle_beta 54.649873
_cell_angle_gamma 129.558560
_cell_volume 698.133491
_symmetry_space_group_name_H-M "P -1"
_symmetry_group_IT_number 2
_symmetry_cell_setting 'triclinic'
loop_
_space_group_symop_operation_xyz
x,y,z
-x,-y,-z
loop_
_atom_site_type_symbol
_atom_site_label
_atom_site_fract_x
_atom_site_fract_y
_atom_site_fract_z
Si Si1 0.500000 0.000000 0.500000
Si Si2 0.264579 0.756887 0.323314
Si Si3 0.915552 0.153402 0.741267
Si Si4 0.129342 0.174715 0.937923
Si Si5 0.003455 0.241167 0.279419
Si Si6 0.728769 0.101760 0.145428
Si Si7 0.405832 0.752983 0.356599
Si Si8 0.170960 0.834453 0.685006
O O1 0.433495 0.055781 0.629220
O O2 0.422496 0.894255 0.448162
O O3 0.298339 0.665350 0.381885
O O4 0.251033 0.861155 0.446900
O O5 0.094695 0.486620 0.497836
O O6 0.419362 0.011378 0.977480
O O7 0.922814 0.103997 0.568882
O O8 0.784220 0.075872 0.948235
O O9 0.885207 0.989836 0.929379
O O10 0.302050 0.465568 0.592900
O O11 0.099119 0.251936 0.091924
O O12 0.000000 0.000000 0.000000
O O13 0.876365 0.092370 0.339513
O O14 0.132303 0.564909 0.079810
O O15 0.732693 0.021783 0.307060
O O16 0.000000 0.500000 0.000000
#
# Coordination Sequence:
#
# PCOD9079244 Si02
#       8
#     1   2   2   2   2   2   2   2
#     4  12  22  40  68  96 138 166 228 280 336 392
#     4  11  21  39  66 101 131 170 233 275 330 392
#     4  12  24  40  69 104 132 177 229 290 330 403
#     4  12  24  45  67  97 144 183 220 271 356 406
#     4  11  22  39  66 100 132 172 235 280 322 399
#     4  11  22  39  68 100 130 177 230 279 337 397
#     4  11  24  40  64 101 134 181 218 284 335 401
#     4  10  18  36  64  96 127 162 227 278 321 388
#
# _framework density 21.485862999999998
#
# number of rings (size 3 to 8) (size 9 to 14) (size 15 to 20)
#    0.000    0.800    6.667    3.200    1.867    0.000 
#    0.000    0.667    0.000    1.600    0.000    0.000 
#    0.000    0.000    0.000    0.000    0.000    0.000 
#
# Total GULP energy -83596.143004 kJ/mol
# GULP energy per Si atom -5573.076200 kJ/mol
# Density = 2.143696 g / cm^3
# Si number density = 21.485863 Si / 1000 Ang^3
#
#
#
# Elastic Constant Matrix: (Units=GPa)
#
#
# Indices 1 2 3 4 5 6 
#
# 1 110.2529 8.0509 36.3568 0.7984 6.8395 -10.4327
# 2 8.0509 46.9991 37.1086 16.0514 6.2431 -9.5291
# 3 36.3568 37.1086 124.3750 13.4285 7.4326 -7.2462
# 4 0.7984 16.0514 13.4285 32.5942 -0.9987 -0.5142
# 5 6.8395 6.2431 7.4326 -0.9987 34.2825 9.7532
# 6 -10.4327 -9.5291 -7.2462 -0.5142 9.7532 38.2214
#
#
#
# Elastic Compliance Matrix: (Units=1/GPa)
#
#
# Indices 1 2 3 4 5 6 
#
# 1 0.010498 0.001737 -0.003254 0.000200 -0.002656 0.003362
# 2 0.001737 0.035590 -0.008555 -0.014142 -0.008118 0.009607
# 3 -0.003254 -0.008555 0.011553 -0.000482 -0.000079 -0.000817
# 4 0.000200 -0.014142 -0.000482 0.037923 0.004974 -0.004322
# 5 -0.002656 -0.008118 -0.000079 0.004974 0.034620 -0.011531
# 6 0.003362 0.009607 -0.000817 -0.004322 -0.011531 0.032206
#
#
# Mechanical properties :
#
#
# Convention : Reuss Voigt Hill
#
# Bulk Modulus (GPa) = 26.66838 49.40662 38.03750
# Shear Modulus (GPa) = 25.63693 34.36034 29.99864
#
# Velocity S-wave (km/s) = 3.45802 4.00335 3.74063
# Velocity P-wave (km/s) = 5.32756 6.66438 6.03311
#
# Compressibility (1/GPa) = 0.03749759
#
# Stress axis : x y z
#
# Youngs Moduli (GPa) = 95.25955 28.09793 86.55766
#
# Poissons Ratio (x) = -0.04881 0.28165
# Poissons Ratio (y) = -0.16548 0.74048
# Poissons Ratio (z) = 0.30996 0.24037
#
# Static dielectric constant tensor:
#      x y z
#    x 1.843870 0.034230 -0.004040 
#    y 0.034230 1.784470 -0.000370 
#    z -0.004040 -0.000370 1.779800 
# 
# From -- ./inp_files/343522.got.cif
#   From: 2010.05.17/outbox.cif.g08.bks.cpg/sg2_172_cif.got.tgz:343522.got - 2010.06.03 11:33:40.
