data_PCOD9079667
_publ_section_title
;
Structure prediction by ZEFSAII (Michael W. Deem and Ramdas Pophale) SiO2 
 PCOD9079667
Probable space group: P -1
;
_chemical_formula_sum "Si O2"
_cell_formula_units_Z 16
_cell_length_a 6.787141
_cell_length_b 15.492566
_cell_length_c 16.661649
_cell_angle_alpha 154.962716
_cell_angle_beta 113.726790
_cell_angle_gamma 76.953100
_cell_volume 633.713172
_symmetry_space_group_name_H-M "P -1"
_symmetry_group_IT_number 2
_symmetry_cell_setting 'triclinic'
loop_
_space_group_symop_operation_xyz
x,y,z
-x,-y,-z
loop_
_atom_site_type_symbol
_atom_site_label
_atom_site_fract_x
_atom_site_fract_y
_atom_site_fract_z
Si Si1 0.335584 0.717536 0.641025
Si Si2 0.915916 0.287299 0.181529
Si Si3 0.864026 0.713948 0.343380
Si Si4 0.667873 0.205988 0.462339
Si Si5 0.779132 0.371721 0.780994
Si Si6 0.247829 0.076544 0.011662
Si Si7 0.609004 0.267161 0.969817
Si Si8 0.852697 0.176417 0.779097
O O1 0.104356 0.508269 0.432887
O O2 0.443754 0.734601 0.584236
O O3 0.283074 0.940990 0.828777
O O4 0.522799 0.741548 0.760992
O O5 0.711563 0.302261 0.106079
O O6 0.060402 0.184617 0.061172
O O7 0.827969 0.110813 0.089496
O O8 0.004499 0.705932 0.278169
O O9 0.633209 0.503469 0.138354
O O10 0.055943 0.681549 0.408177
O O11 0.842524 0.940931 0.551618
O O12 0.613427 0.293949 0.611924
O O13 0.614826 0.949427 0.246967
O O14 0.707076 0.257084 0.757412
O O15 0.896372 0.631446 0.021863
O O16 0.761368 0.191843 0.866063
#
# Coordination Sequence:
#
# PCOD9079667 Si02
#       8
#     2   2   2   2   2   2   2   2
#     4  11  20  41  58  82 112 145 188 228 282 333
#     4  11  21  39  58  83 115 143 186 232 281 327
#     4   9  20  38  57  81 111 155 182 231 280 324
#     4  10  21  39  56  81 120 148 183 237 276 326
#     4   8  19  36  61  85 113 148 184 238 277 323
#     4  10  24  36  61  84 107 148 185 232 282 334
#     4  11  22  37  56  84 118 150 185 234 276 332
#     4  10  18  37  63  83 112 151 193 222 284 337
#
# _framework density 25.248014000000001
#
# number of rings (size 3 to 8) (size 9 to 14) (size 15 to 20)
#    0.750    1.250    2.500    1.125    1.750    0.500 
#    2.250    0.625    0.000    0.000    0.000    0.000 
#    0.000    0.000    0.000    0.000    0.000    0.000 
#
# Total GULP energy -89338.780930 kJ/mol
# GULP energy per Si atom -5583.673808 kJ/mol
# Density = 2.519055 g / cm^3
# Si number density = 25.248014 Si / 1000 Ang^3
#
#
#
# Elastic Constant Matrix: (Units=GPa)
#
#
# Indices 1 2 3 4 5 6 
#
# 1 32.0045 4.0710 13.6797 1.5952 4.1825 6.9872
# 2 4.0710 72.1568 38.9957 -17.5126 -5.5688 11.2635
# 3 13.6797 38.9957 164.4499 5.2211 11.0634 6.1718
# 4 1.5952 -17.5126 5.2211 35.0414 -1.1402 -2.7111
# 5 4.1825 -5.5688 11.0634 -1.1402 39.6187 6.4254
# 6 6.9872 11.2635 6.1718 -2.7111 6.4254 20.5078
#
#
#
# Elastic Compliance Matrix: (Units=1/GPa)
#
#
# Indices 1 2 3 4 5 6 
#
# 1 0.034957 0.000628 -0.002497 -0.001823 -0.001109 -0.011397
# 2 0.000628 0.021784 -0.005601 0.011050 0.006682 -0.011126
# 3 -0.002497 -0.005601 0.007873 -0.003803 -0.003164 0.002046
# 4 -0.001823 0.011050 -0.003803 0.034765 0.003962 -0.000949
# 5 -0.001109 0.006682 -0.003164 0.003962 0.029066 -0.010923
# 6 -0.011397 -0.011126 0.002046 -0.000949 -0.010923 0.061437
#
#
# Mechanical properties :
#
#
# Convention : Reuss Voigt Hill
#
# Bulk Modulus (GPa) = 20.13045 42.45601 31.29323
# Shear Modulus (GPa) = 22.58560 33.15791 27.87176
#
# Velocity S-wave (km/s) = 2.99415 3.62786 3.32613
# Velocity P-wave (km/s) = 4.46583 5.86520 5.21269
#
# Compressibility (1/GPa) = 0.04967599
#
# Stress axis : x y z
#
# Youngs Moduli (GPa) = 28.60667 45.90465 127.00927
#
# Poissons Ratio (x) = -0.02882 0.31708
# Poissons Ratio (y) = -0.01796 0.71134
# Poissons Ratio (z) = 0.07142 0.25710
#
# Static dielectric constant tensor:
#      x y z
#    x 2.067530 0.002960 -0.006990 
#    y 0.002960 1.983530 -0.030710 
#    z -0.006990 -0.030710 1.989210 
# 
# From -- ./inp_files/562137.got.cif
#   From: 2010.05.17/outbox.cif.g08.bks.cpg/sg2_282_cif.got.tgz:562137.got - 2010.06.03 11:33:40.
