data_PCOD9079143
_publ_section_title
;
Structure prediction by ZEFSAII (Michael W. Deem and Ramdas Pophale) SiO2 
 PCOD9079143
Probable space group: P -1
;
_chemical_formula_sum "Si O2"
_cell_formula_units_Z 16
_cell_length_a 11.432045
_cell_length_b 8.232433
_cell_length_c 7.983385
_cell_angle_alpha 87.416225
_cell_angle_beta 89.649424
_cell_angle_gamma 53.591229
_cell_volume 603.870600
_symmetry_space_group_name_H-M "P -1"
_symmetry_group_IT_number 2
_symmetry_cell_setting 'triclinic'
loop_
_space_group_symop_operation_xyz
x,y,z
-x,-y,-z
loop_
_atom_site_type_symbol
_atom_site_label
_atom_site_fract_x
_atom_site_fract_y
_atom_site_fract_z
Si Si1 0.946043 0.620300 0.778357
Si Si2 0.444236 0.879732 0.155438
Si Si3 0.719060 0.123653 0.165309
Si Si4 0.684101 0.676695 0.920589
Si Si5 0.165233 0.714582 0.444341
Si Si6 0.984130 0.088800 0.209854
Si Si7 0.568868 0.472900 0.726861
Si Si8 0.118746 0.258957 0.596028
O O1 0.851346 0.583252 0.897693
O O2 0.857082 0.730104 0.599905
O O3 0.971726 0.771356 0.855613
O O4 0.096405 0.427586 0.712158
O O5 0.424244 0.729224 0.264988
O O6 0.396257 0.104451 0.187942
O O7 0.352726 0.911333 0.986715
O O8 0.610850 0.746679 0.099022
O O9 0.866802 0.089783 0.101589
O O10 0.594846 0.339569 0.236397
O O11 0.771297 0.956478 0.315167
O O12 0.651278 0.521689 0.861853
O O13 0.114408 0.808089 0.623720
O O14 0.336554 0.544609 0.432705
O O15 0.046881 0.675552 0.400563
O O16 0.121881 0.883565 0.296387
#
# Coordination Sequence:
#
# PCOD9079143 Si02
#       8
#     2   2   2   2   2   2   2   2
#     4  10  18  36  63  85 113 159 191 233 308 357
#     4  10  23  41  61  82 123 161 201 247 293 341
#     4  10  21  39  55  87 123 152 193 252 292 340
#     4  10  20  39  64  87 108 163 210 237 284 363
#     4   9  17  35  61  85 112 156 193 234 299 364
#     4   9  19  34  58  88 119 147 189 245 300 353
#     4  11  21  40  66  83 116 164 200 243 298 348
#     4   9  19  36  60  85 123 145 190 246 295 355
#
# _framework density 26.495744999999999
#
# number of rings (size 3 to 8) (size 9 to 14) (size 15 to 20)
#    0.000    2.250    1.250    3.000    0.000    0.500 
#    9.000    8.750    0.000    0.000    0.000    0.000 
#    0.000    0.000    0.000    0.000    0.000    0.000 
#
# Total GULP energy -89374.283958 kJ/mol
# GULP energy per Si atom -5585.892747 kJ/mol
# Density = 2.643544 g / cm^3
# Si number density = 26.495745 Si / 1000 Ang^3
#
#
#
# Elastic Constant Matrix: (Units=GPa)
#
#
# Indices 1 2 3 4 5 6 
#
# 1 124.1189 23.3293 22.3950 -7.0257 -6.8093 -17.8322
# 2 23.3293 91.5765 14.3770 -4.3613 -5.2548 5.4499
# 3 22.3950 14.3770 60.6052 -5.7718 -4.1264 -10.2016
# 4 -7.0257 -4.3613 -5.7718 42.7511 -4.0535 -4.3035
# 5 -6.8093 -5.2548 -4.1264 -4.0535 36.7663 14.2971
# 6 -17.8322 5.4499 -10.2016 -4.3035 14.2971 39.3737
#
#
#
# Elastic Compliance Matrix: (Units=1/GPa)
#
#
# Indices 1 2 3 4 5 6 
#
# 1 0.009571 -0.002314 -0.002134 0.001458 -0.000342 0.004386
# 2 -0.002314 0.012356 -0.002594 0.000352 0.002799 -0.004409
# 3 -0.002134 -0.002594 0.018896 0.002383 -0.000176 0.004613
# 4 0.001458 0.000352 0.002383 0.024502 0.002061 0.003159
# 5 -0.000342 0.002799 -0.000176 0.002061 0.032469 -0.012153
# 6 0.004386 -0.004409 0.004613 0.003159 -0.012153 0.033947
#
#
# Mechanical properties :
#
#
# Convention : Reuss Voigt Hill
#
# Bulk Modulus (GPa) = 37.39969 44.05592 40.72780
# Shear Modulus (GPa) = 32.31276 38.19151 35.25213
#
# Velocity S-wave (km/s) = 3.49599 3.80072 3.65154
# Velocity P-wave (km/s) = 5.51742 5.99369 5.76048
#
# Compressibility (1/GPa) = 0.02673819
#
# Stress axis : x y z
#
# Youngs Moduli (GPa) = 104.48649 80.92957 52.92243
#
# Poissons Ratio (x) = 0.18730 0.11293
# Poissons Ratio (y) = 0.24182 0.13728
# Poissons Ratio (z) = 0.22295 0.20993
#
# Static dielectric constant tensor:
#      x y z
#    x 2.152360 0.058690 0.070420 
#    y 0.058690 2.147630 0.026070 
#    z 0.070420 0.026070 2.150390 
# 
# From -- ./inp_files/417123.got.cif
#   From: 2010.05.17/outbox.cif.g08.bks.cpg/sg2_209_cif.got.tgz:417123.got - 2010.06.03 11:33:40.
