data_PCOD9079857
_publ_section_title
;
Structure prediction by ZEFSAII (Michael W. Deem and Ramdas Pophale) SiO2 
 PCOD9079857
Probable space group: P -1
;
_chemical_formula_sum "Si O2"
_cell_formula_units_Z 14
_cell_length_a 8.760336
_cell_length_b 9.052796
_cell_length_c 11.290761
_cell_angle_alpha 75.121642
_cell_angle_beta 65.399725
_cell_angle_gamma 113.050428
_cell_volume 648.032819
_symmetry_space_group_name_H-M "P -1"
_symmetry_group_IT_number 2
_symmetry_cell_setting 'triclinic'
loop_
_space_group_symop_operation_xyz
x,y,z
-x,-y,-z
loop_
_atom_site_type_symbol
_atom_site_label
_atom_site_fract_x
_atom_site_fract_y
_atom_site_fract_z
Si Si1 0.492366 0.814574 0.566096
Si Si2 0.865895 0.599099 0.792203
Si Si3 0.751689 0.722660 0.197076
Si Si4 0.763930 0.339939 0.078347
Si Si5 0.086898 0.882024 0.867317
Si Si6 0.860538 0.520794 0.378434
Si Si7 0.705097 0.640789 0.604911
O O1 0.371799 0.719131 0.748583
O O2 0.355599 0.674038 0.534201
O O3 0.686166 0.803650 0.527542
O O4 0.500000 0.000000 0.500000
O O5 0.031360 0.775968 0.781832
O O6 0.764559 0.659233 0.718794
O O7 0.972688 0.519793 0.697708
O O8 0.719801 0.432702 0.966472
O O9 0.866328 0.651193 0.247972
O O10 0.519077 0.551291 0.296473
O O11 0.870127 0.797093 0.019222
O O12 0.788894 0.898864 0.217140
O O13 0.779399 0.167381 0.087594
O O14 0.000000 0.500000 0.000000
O O15 0.853944 0.612251 0.482895
#
# Coordination Sequence:
#
# PCOD9079857 Si02
#       7
#     2   2   2   2   2   2   2
#     4  11  23  39  66  95 119 165 216 259 308 374
#     4  11  21  41  64  92 122 170 208 255 311 376
#     4  10  21  39  63  93 115 163 213 258 306 368
#     4  10  18  37  67  87 116 165 213 247 298 383
#     4  10  20  37  68  88 119 159 218 254 298 380
#     4  11  21  39  61  85 128 173 204 244 314 382
#     4  11  25  38  60  94 133 158 203 267 317 354
#
# _framework density 21.603843999999999
#
# number of rings (size 3 to 8) (size 9 to 14) (size 15 to 20)
#    0.000    1.429    4.286    4.714    4.000    2.286 
#    0.000    5.000    0.000    0.000    0.000    0.000 
#    0.000    0.000    0.000    0.000    0.000    0.000 
#
# Total GULP energy -78097.235155 kJ/mol
# GULP energy per Si atom -5578.373940 kJ/mol
# Density = 2.155467 g / cm^3
# Si number density = 21.603844 Si / 1000 Ang^3
#
#
#
# Elastic Constant Matrix: (Units=GPa)
#
#
# Indices 1 2 3 4 5 6 
#
# 1 58.7500 40.2621 22.6853 -3.4253 34.9869 -13.8711
# 2 40.2621 118.6895 23.8350 -4.4366 18.5702 -36.7986
# 3 22.6853 23.8350 109.0662 11.7148 9.8504 -3.2073
# 4 -3.4253 -4.4366 11.7148 29.4459 -5.0579 5.9590
# 5 34.9869 18.5702 9.8504 -5.0579 33.6379 -0.9622
# 6 -13.8711 -36.7986 -3.2073 5.9590 -0.9622 27.3197
#
#
#
# Elastic Compliance Matrix: (Units=1/GPa)
#
#
# Indices 1 2 3 4 5 6 
#
# 1 0.068050 -0.002148 -0.005775 -0.007965 -0.068233 0.030315
# 2 -0.002148 0.017438 -0.001828 -0.002586 -0.006602 0.022514
# 3 -0.005775 -0.001828 0.010833 -0.004086 0.003140 -0.003121
# 4 -0.007965 -0.002586 -0.004086 0.040393 0.016518 -0.016235
# 5 -0.068233 -0.006602 0.003140 0.016518 0.104675 -0.043085
# 6 0.030315 0.022514 -0.003121 -0.016235 -0.043085 0.083979
#
#
# Mechanical properties :
#
#
# Convention : Reuss Voigt Hill
#
# Bulk Modulus (GPa) = 13.01754 51.11896 32.06825
# Shear Modulus (GPa) = 13.49617 31.39560 22.44589
#
# Velocity S-wave (km/s) = 2.50213 3.81628 3.22681
# Velocity P-wave (km/s) = 3.79292 6.56749 5.36275
#
# Compressibility (1/GPa) = 0.07681940
#
# Stress axis : x y z
#
# Youngs Moduli (GPa) = 14.69498 57.34714 92.31079
#
# Poissons Ratio (x) = 0.12315 0.53312
# Poissons Ratio (y) = 0.03156 0.16874
# Poissons Ratio (z) = 0.08487 0.10483
#
# Static dielectric constant tensor:
#      x y z
#    x 1.799240 -0.049830 -0.025180 
#    y -0.049830 1.816630 0.026810 
#    z -0.025180 0.026810 1.895640 
# 
# From -- ./inp_files/238589.got.cif
#   From: 2010.05.17/outbox.cif.g08.bks.cpg/sg2_120_cif.got.tgz:238589.got - 2010.06.03 11:33:40.
