data_PCOD9079301
_publ_section_title
;
Structure prediction by ZEFSAII (Michael W. Deem and Ramdas Pophale) SiO2 
 PCOD9079301
Probable space group: P -1
;
_chemical_formula_sum "Si O2"
_cell_formula_units_Z 16
_cell_length_a 17.399192
_cell_length_b 8.824996
_cell_length_c 18.272958
_cell_angle_alpha 148.933092
_cell_angle_beta 34.348033
_cell_angle_gamma 150.275102
_cell_volume 680.267371
_symmetry_space_group_name_H-M "P -1"
_symmetry_group_IT_number 2
_symmetry_cell_setting 'triclinic'
loop_
_space_group_symop_operation_xyz
x,y,z
-x,-y,-z
loop_
_atom_site_type_symbol
_atom_site_label
_atom_site_fract_x
_atom_site_fract_y
_atom_site_fract_z
Si Si1 0.712062 0.459288 0.592323
Si Si2 0.442054 0.661072 0.498612
Si Si3 0.310973 0.418401 0.798345
Si Si4 0.498083 0.673764 0.898554
Si Si5 0.965898 0.383443 0.305404
Si Si6 0.132909 0.570406 0.762152
Si Si7 0.751590 0.707140 0.943788
Si Si8 0.865894 0.190899 0.923310
O O1 0.648480 0.406506 0.536531
O O2 0.667557 0.707954 0.769193
O O3 0.896231 0.562228 0.484302
O O4 0.587036 0.071608 0.564343
O O5 0.544918 0.483784 0.332426
O O6 0.296731 0.565976 0.629073
O O7 0.376284 0.389217 0.814627
O O8 0.151739 0.028812 0.750297
O O9 0.254050 0.684763 0.952411
O O10 0.420083 0.551779 0.988737
O O11 0.500000 0.000000 0.000000
O O12 0.931951 0.434362 0.269773
O O13 0.146718 0.473131 0.204933
O O14 0.987834 0.243723 0.785120
O O15 0.171930 0.932236 0.919158
O O16 0.770239 0.838234 0.900627
O O17 0.000000 0.500000 0.000000
#
# Coordination Sequence:
#
# PCOD9079301 Si02
#       8
#     2   2   2   2   2   2   2   2
#     4   8  15  28  45  74  98 119 158 205 248 283
#     4   8  14  25  48  71 100 126 149 199 253 289
#     4  10  17  32  50  76 102 127 159 198 250 293
#     4  11  21  34  53  72  95 133 171 199 232 285
#     4  10  16  28  55  76  97 124 154 209 262 281
#     4  10  15  27  46  74 100 127 152 192 252 300
#     4  11  19  31  45  75 104 126 160 202 241 290
#     4  10  20  29  45  74 110 125 155 195 251 305
#
# _framework density 23.520164999999999
#
# number of rings (size 3 to 8) (size 9 to 14) (size 15 to 20)
#    0.000    2.250    5.000    2.625    0.000    0.000 
#    0.000    5.000    0.000    0.000    0.000    8.750 
#    0.000    0.000    0.000    0.000    0.000    0.000 
#
# Total GULP energy -89306.084208 kJ/mol
# GULP energy per Si atom -5581.630263 kJ/mol
# Density = 2.346663 g / cm^3
# Si number density = 23.520165 Si / 1000 Ang^3
#
#
#
# Elastic Constant Matrix: (Units=GPa)
#
#
# Indices 1 2 3 4 5 6 
#
# 1 47.9806 22.3405 14.6387 -22.9001 -0.7498 -4.9969
# 2 22.3405 96.5444 57.0352 -38.1602 10.7135 -21.5782
# 3 14.6387 57.0352 166.1501 -52.9038 7.3071 -8.6260
# 4 -22.9001 -38.1602 -52.9038 39.9169 18.7256 1.4508
# 5 -0.7498 10.7135 7.3071 18.7256 -9.3132 -4.1806
# 6 -4.9969 -21.5782 -8.6260 1.4508 -4.1806 34.1176
#
#
#
# Elastic Compliance Matrix: (Units=1/GPa)
#
#
# Indices 1 2 3 4 5 6 
#
# 1 0.026853 -0.004311 0.001503 0.008486 0.010020 0.002453
# 2 -0.004311 0.015101 -0.004687 0.000380 0.010750 0.009036
# 3 0.001503 -0.004687 0.008286 0.003567 0.008077 0.000189
# 4 0.008486 0.000380 0.003567 0.017941 0.035923 0.006024
# 5 0.010020 0.010750 0.008077 0.035923 -0.020086 0.006320
# 6 0.002453 0.009036 0.000189 0.006024 0.006320 0.035950
#
#
# Mechanical properties :
#
#
# Convention : Reuss Voigt Hill
#
# Bulk Modulus (GPa) = 28.36869 55.41154 41.89011
# Shear Modulus (GPa) = 45.13264 27.38828 36.26046
#
# Velocity S-wave (km/s) = 4.38527 3.41612 3.93068
# Velocity P-wave (km/s) = 6.14234 6.25861 6.20075
#
# Compressibility (1/GPa) = 0.03525013
#
# Stress axis : x y z
#
# Youngs Moduli (GPa) = 37.23997 66.22039 120.69245
#
# Poissons Ratio (x) = 0.28547 -0.18137
# Poissons Ratio (y) = 0.16054 0.56563
# Poissons Ratio (z) = -0.05596 0.31035
#
# Static dielectric constant tensor:
#      x y z
#    x 1.940280 0.059010 0.052510 
#    y 0.059010 1.906700 0.015910 
#    z 0.052510 0.015910 1.953120 
# 
# From -- ./inp_files/254249.got.cif
#   From: 2010.05.17/outbox.cif.g08.bks.cpg/sg2_128_cif.got.tgz:254249.got - 2010.06.03 11:33:40.
