data_PCOD9079292
_publ_section_title
;
Structure prediction by ZEFSAII (Michael W. Deem and Ramdas Pophale) SiO2 
 PCOD9079292
Probable space group: P -1
;
_chemical_formula_sum "Si O2"
_cell_formula_units_Z 15
_cell_length_a 7.839717
_cell_length_b 10.651416
_cell_length_c 13.321948
_cell_angle_alpha 123.420065
_cell_angle_beta 138.991260
_cell_angle_gamma 57.067312
_cell_volume 592.376090
_symmetry_space_group_name_H-M "P -1"
_symmetry_group_IT_number 2
_symmetry_cell_setting 'triclinic'
loop_
_space_group_symop_operation_xyz
x,y,z
-x,-y,-z
loop_
_atom_site_type_symbol
_atom_site_label
_atom_site_fract_x
_atom_site_fract_y
_atom_site_fract_z
Si Si1 0.448794 0.611494 0.916845
Si Si2 0.000000 0.500000 0.000000
Si Si3 0.895040 0.312199 0.471636
Si Si4 0.907774 0.191707 0.841075
Si Si5 0.297420 0.900395 0.830881
Si Si6 0.222084 0.104630 0.140370
Si Si7 0.418929 0.197276 0.763683
Si Si8 0.111693 0.366078 0.373609
O O1 0.341013 0.772254 0.879888
O O2 0.185341 0.547502 0.759103
O O3 0.714887 0.520694 0.941975
O O4 0.504630 0.669541 0.075778
O O5 0.953818 0.334201 0.859643
O O6 0.109939 0.234533 0.614599
O O7 0.745533 0.491039 0.501554
O O8 0.690583 0.205600 0.308572
O O9 0.065432 0.316796 0.445335
O O10 0.616853 0.190715 0.753413
O O11 0.019625 0.026905 0.765967
O O12 0.110594 0.198723 0.030327
O O13 0.500000 0.000000 0.000000
O O14 0.211430 0.225272 0.279561
O O15 0.487050 0.967024 0.209155
O O16 0.000000 0.000000 0.000000
#
# Coordination Sequence:
#
# PCOD9079292 Si02
#       8
#     2   1   2   2   2   2   2   2
#     4  11  21  40  66  96 130 174 211 269 322 399
#     4  12  26  34  60 102 128 170 222 252 332 386
#     4  10  23  36  62 102 130 171 213 278 330 372
#     4  11  22  39  66  99 127 175 220 266 317 400
#     4  11  22  45  68  84 134 184 218 254 337 408
#     4  10  18  36  66 100 126 171 215 268 319 380
#     4  11  21  39  69 104 127 159 231 279 312 371
#     4  10  20  39  62  95 140 166 213 269 333 377
#
# _framework density 25.321750000000002
#
# number of rings (size 3 to 8) (size 9 to 14) (size 15 to 20)
#    0.000    1.333    5.333    3.200    1.867    3.200 
#    0.000    0.667    0.000    4.000    0.000    0.000 
#    0.000    0.000    0.000    0.000    0.000    0.000 
#
# Total GULP energy -83553.664013 kJ/mol
# GULP energy per Si atom -5570.244268 kJ/mol
# Density = 2.526412 g / cm^3
# Si number density = 25.321750 Si / 1000 Ang^3
#
#
#
# Elastic Constant Matrix: (Units=GPa)
#
#
# Indices 1 2 3 4 5 6 
#
# 1 32.2296 4.8593 -6.0505 8.2860 0.6215 -15.0027
# 2 4.8593 83.3946 27.2002 20.6982 -3.0758 -11.2250
# 3 -6.0505 27.2002 104.6518 17.1890 -6.7551 -1.2189
# 4 8.2860 20.6982 17.1890 55.8076 -2.6078 -2.6945
# 5 0.6215 -3.0758 -6.7551 -2.6078 31.8359 14.9565
# 6 -15.0027 -11.2250 -1.2189 -2.6945 14.9565 41.0455
#
#
#
# Elastic Compliance Matrix: (Units=1/GPa)
#
#
# Indices 1 2 3 4 5 6 
#
# 1 0.042154 0.000409 0.003072 -0.006900 -0.009433 0.018595
# 2 0.000409 0.014595 -0.003107 -0.004384 -0.001669 0.004369
# 3 0.003072 -0.003107 0.011095 -0.002645 0.001901 -0.000264
# 4 -0.006900 -0.004384 -0.002645 0.021339 0.002443 -0.003289
# 5 -0.009433 -0.001669 0.001901 0.002443 0.040745 -0.018534
# 6 0.018595 0.004369 -0.000264 -0.003289 -0.018534 0.038885
#
#
# Mechanical properties :
#
#
# Convention : Reuss Voigt Hill
#
# Bulk Modulus (GPa) = 14.57875 30.25490 22.41683
# Shear Modulus (GPa) = 26.18787 38.68892 32.43840
#
# Velocity S-wave (km/s) = 3.21939 3.91307 3.58306
# Velocity P-wave (km/s) = 4.42597 5.69124 5.09801
#
# Compressibility (1/GPa) = 0.06859296
#
# Stress axis : x y z
#
# Youngs Moduli (GPa) = 23.72253 68.51555 90.13384
#
# Poissons Ratio (x) = -0.02805 -0.27687
# Poissons Ratio (y) = -0.00971 0.28000
# Poissons Ratio (z) = -0.07287 0.21285
#
# Static dielectric constant tensor:
#      x y z
#    x 2.150230 0.046740 0.035020 
#    y 0.046740 2.090520 -0.002180 
#    z 0.035020 -0.002180 2.040580 
# 
# From -- ./inp_files/435386.got.cif
#   From: 2010.05.17/outbox.cif.g08.bks.cpg/sg2_218_cif.got.tgz:435386.got - 2010.06.03 11:33:40.
