data_PCOD9079611
_publ_section_title
;
Structure prediction by ZEFSAII (Michael W. Deem and Ramdas Pophale) SiO2 
 PCOD9079611
Probable space group: P -1
;
_chemical_formula_sum "Si O2"
_cell_formula_units_Z 16
_cell_length_a 11.933147
_cell_length_b 9.367002
_cell_length_c 11.063275
_cell_angle_alpha 99.883568
_cell_angle_beta 103.847836
_cell_angle_gamma 37.315297
_cell_volume 727.488932
_symmetry_space_group_name_H-M "P -1"
_symmetry_group_IT_number 2
_symmetry_cell_setting 'triclinic'
loop_
_space_group_symop_operation_xyz
x,y,z
-x,-y,-z
loop_
_atom_site_type_symbol
_atom_site_label
_atom_site_fract_x
_atom_site_fract_y
_atom_site_fract_z
Si Si1 0.201402 0.318498 0.595344
Si Si2 0.380876 0.823477 0.594166
Si Si3 0.223419 0.887737 0.312461
Si Si4 0.313931 0.680606 0.058984
Si Si5 0.937880 0.922522 0.291754
Si Si6 0.934289 0.658925 0.769945
Si Si7 0.239798 0.448576 0.403803
Si Si8 0.007547 0.221337 0.973444
O O1 0.302660 0.332947 0.536003
O O2 0.000000 0.500000 0.500000
O O3 0.136829 0.435127 0.726669
O O4 0.310133 0.060631 0.596312
O O5 0.324332 0.798621 0.453419
O O6 0.602507 0.614902 0.629978
O O7 0.272087 0.862812 0.684352
O O8 0.344374 0.700238 0.207943
O O9 0.036941 0.973731 0.290430
O O10 0.158336 0.110612 0.285586
O O11 0.195280 0.648275 0.028880
O O12 0.500000 0.500000 0.000000
O O13 0.164728 0.945384 0.007541
O O14 0.055851 0.730836 0.402460
O O15 0.967112 0.789154 0.164805
O O16 0.808223 0.646269 0.700153
O O17 0.954483 0.679499 0.917725
#
# Coordination Sequence:
#
# PCOD9079611 Si02
#       8
#     2   2   2   2   2   2   2   2
#     4  10  18  37  62  86 115 153 199 248 291 344
#     4  12  22  39  62  88 121 161 192 249 302 343
#     4  10  21  37  65  90 118 153 200 245 297 357
#     4   9  19  39  61  90 118 154 201 247 289 353
#     4  11  23  41  57  88 126 159 193 244 299 358
#     4  10  19  41  64  88 114 160 204 240 293 352
#     4  11  23  38  61  86 124 153 202 245 291 357
#     4   9  21  38  61  84 122 160 194 245 296 344
#
# _framework density 21.993462000000001
#
# number of rings (size 3 to 8) (size 9 to 14) (size 15 to 20)
#    0.000    1.750    5.000    1.500    0.000    4.000 
#    2.250    3.125    0.000    0.000    0.000    0.000 
#    0.000    0.000    0.000    0.000    0.000    0.000 
#
# Total GULP energy -89421.240612 kJ/mol
# GULP energy per Si atom -5588.827538 kJ/mol
# Density = 2.194340 g / cm^3
# Si number density = 21.993462 Si / 1000 Ang^3
#
#
#
# Elastic Constant Matrix: (Units=GPa)
#
#
# Indices 1 2 3 4 5 6 
#
# 1 115.0962 25.7241 48.2787 23.9399 -15.8251 -23.6410
# 2 25.7241 55.5569 9.0177 8.4480 -3.5188 -5.8239
# 3 48.2787 9.0177 117.1833 25.5915 -5.4832 -7.8142
# 4 23.9399 8.4480 25.5915 27.0370 2.1115 -13.7265
# 5 -15.8251 -3.5188 -5.4832 2.1115 32.0025 7.9497
# 6 -23.6410 -5.8239 -7.8142 -13.7265 7.9497 36.1469
#
#
#
# Elastic Compliance Matrix: (Units=1/GPa)
#
#
# Indices 1 2 3 4 5 6 
#
# 1 0.013953 -0.004210 -0.003628 -0.005806 0.005122 0.004332
# 2 -0.004210 0.020368 0.001066 -0.004245 0.000880 -0.001047
# 3 -0.003628 0.001066 0.012154 -0.010927 0.002170 -0.004200
# 4 -0.005806 -0.004245 -0.010927 0.065838 -0.014877 0.021430
# 5 0.005122 0.000880 0.002170 -0.014877 0.037710 -0.009982
# 6 0.004332 -0.001047 -0.004200 0.021430 -0.009982 0.039754
#
#
# Mechanical properties :
#
#
# Convention : Reuss Voigt Hill
#
# Bulk Modulus (GPa) = 30.36805 50.43082 40.39944
# Shear Modulus (GPa) = 23.33196 32.69166 28.01181
#
# Velocity S-wave (km/s) = 3.26062 3.85960 3.57268
# Velocity P-wave (km/s) = 5.29275 6.54536 5.95210
#
# Compressibility (1/GPa) = 0.03292934
#
# Stress axis : x y z
#
# Youngs Moduli (GPa) = 71.67032 49.09768 82.27701
#
# Poissons Ratio (x) = 0.20671 0.29850
# Poissons Ratio (y) = 0.30175 -0.08769
# Poissons Ratio (z) = 0.26002 -0.05232
#
# Static dielectric constant tensor:
#      x y z
#    x 1.838630 0.017180 -0.033980 
#    y 0.017180 1.794510 -0.021600 
#    z -0.033980 -0.021600 1.850840 
# 
# From -- ./inp_files/417595.got.cif
#   From: 2010.05.17/outbox.cif.g08.bks.cpg/sg2_209_cif.got.tgz:417595.got - 2010.06.03 11:33:40.
