data_PCOD9079799
_publ_section_title
;
Structure prediction by ZEFSAII (Michael W. Deem and Ramdas Pophale) SiO2 
 PCOD9079799
Probable space group: P -1
;
_chemical_formula_sum "Si O2"
_cell_formula_units_Z 16
_cell_length_a 16.585032
_cell_length_b 11.820126
_cell_length_c 10.555866
_cell_angle_alpha 119.718671
_cell_angle_beta 145.203857
_cell_angle_gamma 38.263563
_cell_volume 663.092490
_symmetry_space_group_name_H-M "P -1"
_symmetry_group_IT_number 2
_symmetry_cell_setting 'triclinic'
loop_
_space_group_symop_operation_xyz
x,y,z
-x,-y,-z
loop_
_atom_site_type_symbol
_atom_site_label
_atom_site_fract_x
_atom_site_fract_y
_atom_site_fract_z
Si Si1 0.700855 0.188656 0.509059
Si Si2 0.233589 0.650016 0.122322
Si Si3 0.995031 0.858602 0.509446
Si Si4 0.481878 0.064081 0.157376
Si Si5 0.651690 0.189096 0.061288
Si Si6 0.169650 0.558209 0.755435
Si Si7 0.440479 0.150524 0.609682
Si Si8 0.049773 0.512100 0.827965
O O1 0.485042 0.422490 0.321762
O O2 0.786209 0.201625 0.749640
O O3 0.624278 0.094553 0.373749
O O4 0.877282 0.051486 0.550913
O O5 0.163592 0.692699 0.910114
O O6 0.098504 0.626712 0.001624
O O7 0.237623 0.746925 0.747761
O O8 0.023171 0.700880 0.527049
O O9 0.830935 0.971626 0.242418
O O10 0.554980 0.918402 0.282938
O O11 0.237846 0.285913 0.991763
O O12 0.500000 0.000000 0.000000
O O13 0.417886 0.357040 0.923965
O O14 0.595347 0.166975 0.839253
O O15 0.912372 0.489934 0.275695
O O16 0.190602 0.364008 0.381008
O O17 0.500000 0.000000 0.500000
#
# Coordination Sequence:
#
# PCOD9079799 Si02
#       8
#     2   2   2   2   2   2   2   2
#     4  10  18  37  65  95 122 165 214 272 328 379
#     4   8  19  36  63  95 124 152 215 276 324 376
#     4  11  22  38  66  90 126 173 210 270 337 381
#     4  11  23  43  71  99 131 174 226 270 323 395
#     4  11  25  42  58  92 134 171 219 268 324 401
#     4  10  20  41  65  96 123 162 226 278 329 380
#     4  12  28  44  63  97 138 177 222 266 331 404
#     4   9  22  43  67  92 127 170 214 281 326 376
#
# _framework density 24.129365
#
# number of rings (size 3 to 8) (size 9 to 14) (size 15 to 20)
#    0.750    1.000    1.250    2.625    1.750    6.000 
#    0.000    0.000    0.000    0.000    0.000    0.000 
#    0.000    0.000    0.000    0.000    0.000    0.000 
#
# Total GULP energy -89384.970198 kJ/mol
# GULP energy per Si atom -5586.560637 kJ/mol
# Density = 2.407445 g / cm^3
# Si number density = 24.129365 Si / 1000 Ang^3
#
#
#
# Elastic Constant Matrix: (Units=GPa)
#
#
# Indices 1 2 3 4 5 6 
#
# 1 27.9992 12.1501 0.5756 -1.5607 3.3116 4.2077
# 2 12.1501 88.7954 50.8257 26.2456 15.7491 -4.7941
# 3 0.5756 50.8257 125.0929 8.6824 10.5981 -14.0204
# 4 -1.5607 26.2456 8.6824 61.4343 -6.9209 -6.0528
# 5 3.3116 15.7491 10.5981 -6.9209 23.0505 -5.4701
# 6 4.2077 -4.7941 -14.0204 -6.0528 -5.4701 30.4381
#
#
#
# Elastic Compliance Matrix: (Units=1/GPa)
#
#
# Indices 1 2 3 4 5 6 
#
# 1 0.040243 -0.007745 0.002284 0.003267 -0.001843 -0.005412
# 2 -0.007745 0.022052 -0.007354 -0.010574 -0.014595 -0.003569
# 3 0.002284 -0.007354 0.011202 0.002183 0.001231 0.004341
# 4 0.003267 -0.010574 0.002183 0.022728 0.013981 0.005920
# 5 -0.001843 -0.014595 0.001231 0.013981 0.060125 0.012109
# 6 -0.005412 -0.003569 0.004341 0.005920 0.012109 0.038393
#
#
# Mechanical properties :
#
#
# Convention : Reuss Voigt Hill
#
# Bulk Modulus (GPa) = 20.89063 40.99891 30.94477
# Shear Modulus (GPa) = 21.15704 34.87365 28.01534
#
# Velocity S-wave (km/s) = 2.96432 3.80581 3.41111
# Velocity P-wave (km/s) = 4.51584 6.02830 5.32603
#
# Compressibility (1/GPa) = 0.04786836
#
# Stress axis : x y z
#
# Youngs Moduli (GPa) = 24.84916 45.34660 89.26848
#
# Poissons Ratio (x) = 0.35122 -0.20393
# Poissons Ratio (y) = 0.19246 0.65647
# Poissons Ratio (z) = -0.05677 0.33347
#
# Static dielectric constant tensor:
#      x y z
#    x 1.995630 0.039870 0.049000 
#    y 0.039870 1.926270 0.062600 
#    z 0.049000 0.062600 2.000860 
# 
# From -- ./inp_files/471941.got.cif
#   From: 2010.05.17/outbox.cif.g08.bks.cpg/sg2_236_cif.got.tgz:471941.got - 2010.06.03 11:33:40.
