data_PCOD9079512
_publ_section_title
;
Structure prediction by ZEFSAII (Michael W. Deem and Ramdas Pophale) SiO2 
 PCOD9079512
Probable space group: P -1
;
_chemical_formula_sum "Si O2"
_cell_formula_units_Z 16
_cell_length_a 13.711301
_cell_length_b 13.700343
_cell_length_c 7.529777
_cell_angle_alpha 106.639405
_cell_angle_beta 87.273779
_cell_angle_gamma 149.297943
_cell_volume 632.330499
_symmetry_space_group_name_H-M "P -1"
_symmetry_group_IT_number 2
_symmetry_cell_setting 'triclinic'
loop_
_space_group_symop_operation_xyz
x,y,z
-x,-y,-z
loop_
_atom_site_type_symbol
_atom_site_label
_atom_site_fract_x
_atom_site_fract_y
_atom_site_fract_z
Si Si1 0.162632 0.306977 0.948757
Si Si2 0.483545 0.320337 0.414843
Si Si3 0.792772 0.848790 0.344846
Si Si4 0.949334 0.758929 0.682908
Si Si5 0.467938 0.723192 0.963419
Si Si6 0.289492 0.862116 0.882664
Si Si7 0.810565 0.124025 0.741457
Si Si8 0.908952 0.524658 0.375145
O O1 0.246601 0.277139 0.857805
O O2 0.357251 0.563652 0.049934
O O3 0.979268 0.187596 0.780842
O O4 0.065901 0.216840 0.103895
O O5 0.372013 0.285411 0.554559
O O6 0.722605 0.576363 0.526014
O O7 0.428008 0.259256 0.178213
O O8 0.411999 0.139078 0.388248
O O9 0.000000 0.000000 0.500000
O O10 0.863819 0.015684 0.321098
O O11 0.938004 0.626234 0.592746
O O12 0.278872 0.600135 0.798253
O O13 0.624967 0.957219 0.124224
O O14 0.160736 0.655452 0.689001
O O15 0.180436 0.802911 0.040172
O O16 0.500000 0.000000 0.000000
O O17 0.884478 0.265092 0.651373
#
# Coordination Sequence:
#
# PCOD9079512 Si02
#       8
#     2   2   2   2   2   2   2   2
#     4  11  23  40  57  87 128 160 191 253 298 359
#     4  10  20  39  61  87 114 157 203 245 291 343
#     4  12  22  41  65  88 116 159 210 246 294 350
#     4  11  24  40  59  90 128 154 201 244 300 357
#     4   8  18  35  57  85 120 150 198 245 295 344
#     4   9  17  31  59  93 113 146 207 252 286 347
#     4  10  18  37  60  88 116 160 199 245 300 345
#     4   9  16  34  59  84 115 153 197 249 287 347
#
# _framework density 25.303221000000001
#
# number of rings (size 3 to 8) (size 9 to 14) (size 15 to 20)
#    0.000    2.000    2.500    3.000    0.000    2.500 
#    4.500    1.250    0.000    0.000    0.000    0.000 
#    0.000    0.000    0.000    0.000    0.000    0.000 
#
# Total GULP energy -89451.335795 kJ/mol
# GULP energy per Si atom -5590.708487 kJ/mol
# Density = 2.524563 g / cm^3
# Si number density = 25.303221 Si / 1000 Ang^3
#
#
#
# Elastic Constant Matrix: (Units=GPa)
#
#
# Indices 1 2 3 4 5 6 
#
# 1 87.5142 19.2260 29.8183 5.2429 -24.5153 -7.1044
# 2 19.2260 118.0000 11.6904 3.3256 -5.0702 -0.0931
# 3 29.8183 11.6904 74.7795 14.0140 -18.5315 -1.0409
# 4 5.2429 3.3256 14.0140 39.7563 6.6406 -7.5578
# 5 -24.5153 -5.0702 -18.5315 6.6406 38.6245 -0.5487
# 6 -7.1044 -0.0931 -1.0409 -7.5578 -0.5487 33.9015
#
#
#
# Elastic Compliance Matrix: (Units=1/GPa)
#
#
# Indices 1 2 3 4 5 6 
#
# 1 0.015706 -0.001801 -0.003609 -0.001467 0.008295 0.002983
# 2 -0.001801 0.008832 -0.000677 -0.000303 -0.000263 -0.000446
# 3 -0.003609 -0.000677 0.018179 -0.007477 0.007603 -0.001744
# 4 -0.001467 -0.000303 -0.007477 0.030813 -0.009768 0.006173
# 5 0.008295 -0.000263 0.007603 -0.009768 0.036454 0.000383
# 6 0.002983 -0.000446 -0.001744 0.006173 0.000383 0.031450
#
#
# Mechanical properties :
#
#
# Convention : Reuss Voigt Hill
#
# Bulk Modulus (GPa) = 32.74173 44.64033 38.69103
# Shear Modulus (GPa) = 30.52724 37.09372 33.81048
#
# Velocity S-wave (km/s) = 3.47718 3.83295 3.65939
# Velocity P-wave (km/s) = 5.39341 6.10484 5.76012
#
# Compressibility (1/GPa) = 0.03054207
#
# Stress axis : x y z
#
# Youngs Moduli (GPa) = 63.67036 113.22410 55.00962
#
# Poissons Ratio (x) = 0.20395 0.19853
# Poissons Ratio (y) = 0.11469 0.03724
# Poissons Ratio (z) = 0.22979 0.07664
#
# Static dielectric constant tensor:
#      x y z
#    x 2.108910 0.052140 0.051670 
#    y 0.052140 1.977870 0.043060 
#    z 0.051670 0.043060 2.056510 
# 
# From -- ./inp_files/315746.got.cif
#   From: 2010.05.17/outbox.cif.g08.bks.cpg/sg2_158_cif.got.tgz:315746.got - 2010.06.03 11:33:40.
