data_PCOD9079509
_publ_section_title
;
Structure prediction by ZEFSAII (Michael W. Deem and Ramdas Pophale) SiO2 
 PCOD9079509
Probable space group: P -1
;
_chemical_formula_sum "Si O2"
_cell_formula_units_Z 16
_cell_length_a 19.948553
_cell_length_b 9.979280
_cell_length_c 11.994302
_cell_angle_alpha 126.328873
_cell_angle_beta 154.866529
_cell_angle_gamma 42.707848
_cell_volume 665.504139
_symmetry_space_group_name_H-M "P -1"
_symmetry_group_IT_number 2
_symmetry_cell_setting 'triclinic'
loop_
_space_group_symop_operation_xyz
x,y,z
-x,-y,-z
loop_
_atom_site_type_symbol
_atom_site_label
_atom_site_fract_x
_atom_site_fract_y
_atom_site_fract_z
Si Si1 0.775973 0.823290 0.588008
Si Si2 0.606942 0.235971 0.651825
Si Si3 0.057250 0.379565 0.726805
Si Si4 0.339653 0.961249 0.713735
Si Si5 0.632308 0.583532 0.847127
Si Si6 0.921700 0.786530 0.100338
Si Si7 0.990327 0.093177 0.410298
Si Si8 0.691240 0.651455 0.548314
O O1 0.631034 0.772822 0.399312
O O2 0.966418 0.593662 0.758527
O O3 0.747052 0.005483 0.706750
O O4 0.759312 0.898147 0.474556
O O5 0.708429 0.352611 0.864809
O O6 0.447103 0.347101 0.364723
O O7 0.485238 0.278997 0.601760
O O8 0.153566 0.217070 0.891650
O O9 0.915347 0.329317 0.432103
O O10 0.209378 0.371601 0.870823
O O11 0.450345 0.728650 0.724111
O O12 0.195024 0.006753 0.617317
O O13 0.500000 0.000000 0.000000
O O14 0.151368 0.593706 0.348191
O O15 0.811078 0.728965 0.824572
O O16 0.899149 0.997943 0.154712
O O17 0.000000 0.000000 0.500000
#
# Coordination Sequence:
#
# PCOD9079509 Si02
#       8
#     2   2   2   2   2   2   2   2
#     4  10  24  37  58  89 122 154 199 250 302 352
#     4  10  20  36  59  88 122 160 200 246 294 361
#     4  10  19  39  58  87 123 157 201 246 295 351
#     4  11  22  42  63  87 115 161 198 248 303 359
#     4  10  20  36  62  87 117 162 204 241 297 359
#     4   9  19  34  62  92 115 159 200 245 292 357
#     4  10  21  38  65  90 115 156 207 246 290 364
#     4  10  18  37  60  87 126 156 194 248 302 352
#
# _framework density 24.041923000000001
#
# number of rings (size 3 to 8) (size 9 to 14) (size 15 to 20)
#    0.000    2.000    2.500    1.125    0.000    1.000 
#    2.250    0.000    0.000    8.250    0.000    0.000 
#    0.000    0.000    0.000    0.000    0.000    0.000 
#
# Total GULP energy -89234.982054 kJ/mol
# GULP energy per Si atom -5577.186378 kJ/mol
# Density = 2.398720 g / cm^3
# Si number density = 24.041923 Si / 1000 Ang^3
#
#
#
# Elastic Constant Matrix: (Units=GPa)
#
#
# Indices 1 2 3 4 5 6 
#
# 1 153.9449 36.0602 23.6817 2.3381 24.6295 -3.7492
# 2 36.0602 148.9003 38.7803 23.0180 15.1504 12.6364
# 3 23.6817 38.7803 52.8513 20.4051 14.9906 7.9599
# 4 2.3381 23.0180 20.4051 29.0507 5.9583 8.8802
# 5 24.6295 15.1504 14.9906 5.9583 26.6323 -0.1384
# 6 -3.7492 12.6364 7.9599 8.8802 -0.1384 26.3793
#
#
#
# Elastic Compliance Matrix: (Units=1/GPa)
#
#
# Indices 1 2 3 4 5 6 
#
# 1 0.008120 -0.001317 -0.002224 0.002748 -0.006115 0.001499
# 2 -0.001317 0.008868 -0.004136 -0.003207 -0.000792 -0.002112
# 3 -0.002224 -0.004136 0.032667 -0.016563 -0.010286 -0.002670
# 4 0.002748 -0.003207 -0.016563 0.052292 -0.003149 -0.010695
# 5 -0.006115 -0.000792 -0.010286 -0.003149 0.050169 0.003937
# 6 0.001499 -0.002112 -0.002670 -0.010695 0.003937 0.043560
#
#
# Mechanical properties :
#
#
# Convention : Reuss Voigt Hill
#
# Bulk Modulus (GPa) = 29.15441 61.41567 45.28504
# Shear Modulus (GPa) = 22.47588 33.55739 28.01664
#
# Velocity S-wave (km/s) = 3.06087 3.74008 3.41739
# Velocity P-wave (km/s) = 4.96434 6.65219 5.86925
#
# Compressibility (1/GPa) = 0.03430013
#
# Stress axis : x y z
#
# Youngs Moduli (GPa) = 123.15940 112.77103 30.61225
#
# Poissons Ratio (x) = 0.14851 0.06809
# Poissons Ratio (y) = 0.16219 0.12660
# Poissons Ratio (z) = 0.27395 0.46637
#
# Static dielectric constant tensor:
#      x y z
#    x 2.083820 0.080170 -0.210450 
#    y 0.080170 2.071840 -0.169390 
#    z -0.210450 -0.169390 2.230590 
# 
# From -- ./inp_files/462379.got.cif
#   From: 2010.05.17/outbox.cif.g08.bks.cpg/sg2_232_cif.got.tgz:462379.got - 2010.06.03 11:33:40.
