data_PCOD9079253
_publ_section_title
;
Structure prediction by ZEFSAII (Michael W. Deem and Ramdas Pophale) SiO2 
 PCOD9079253
Probable space group: P -1
;
_chemical_formula_sum "Si O2"
_cell_formula_units_Z 16
_cell_length_a 14.702494
_cell_length_b 10.231240
_cell_length_c 7.125937
_cell_angle_alpha 43.896001
_cell_angle_beta 58.864438
_cell_angle_gamma 53.074549
_cell_volume 587.253247
_symmetry_space_group_name_H-M "P -1"
_symmetry_group_IT_number 2
_symmetry_cell_setting 'triclinic'
loop_
_space_group_symop_operation_xyz
x,y,z
-x,-y,-z
loop_
_atom_site_type_symbol
_atom_site_label
_atom_site_fract_x
_atom_site_fract_y
_atom_site_fract_z
Si Si1 0.055518 0.744060 0.478318
Si Si2 0.730395 0.847378 0.425114
Si Si3 0.452540 0.548744 0.288617
Si Si4 0.734507 0.615478 0.291885
Si Si5 0.852846 0.091861 0.479641
Si Si6 0.854743 0.406385 0.857017
Si Si7 0.673585 0.242112 0.236631
Si Si8 0.436379 0.152484 0.079835
O O1 0.129741 0.516702 0.710920
O O2 0.118869 0.880647 0.366761
O O3 0.069195 0.717110 0.269709
O O4 0.927308 0.866953 0.559966
O O5 0.709675 0.786108 0.301612
O O6 0.832639 0.643944 0.609067
O O7 0.743984 0.061259 0.208122
O O8 0.620096 0.910036 0.617509
O O9 0.500000 0.500000 0.500000
O O10 0.329962 0.534698 0.425521
O O11 0.538606 0.361426 0.267586
O O12 0.477323 0.751075 0.024817
O O13 0.676487 0.695707 0.071736
O O14 0.723011 0.154457 0.482408
O O15 0.890866 0.257900 0.152560
O O16 0.724399 0.415314 0.966067
O O17 0.500000 0.000000 0.000000
#
# Coordination Sequence:
#
# PCOD9079253 Si02
#       8
#     2   2   2   2   2   2   2   2
#     4  10  18  36  65  85 113 160 190 243 302 336
#     4  11  21  40  58  85 121 155 195 243 293 338
#     4  10  19  37  59  83 118 152 194 240 287 349
#     4  10  23  38  58  87 119 152 201 243 284 358
#     4   9  19  36  63  88 115 150 202 238 290 358
#     4   9  20  38  59  85 117 153 196 237 295 347
#     4  10  21  38  60  86 119 155 197 243 285 354
#     4  11  22  38  58  85 117 161 194 238 298 343
#
# _framework density 27.245488000000002
#
# number of rings (size 3 to 8) (size 9 to 14) (size 15 to 20)
#    0.750    1.250    1.250    4.125    0.000    2.500 
#    6.750    2.500    0.000    2.250    0.000    0.000 
#    0.000    0.000    0.000    0.000    0.000    0.000 
#
# Total GULP energy -89360.602976 kJ/mol
# GULP energy per Si atom -5585.037686 kJ/mol
# Density = 2.718348 g / cm^3
# Si number density = 27.245488 Si / 1000 Ang^3
#
#
#
# Elastic Constant Matrix: (Units=GPa)
#
#
# Indices 1 2 3 4 5 6 
#
# 1 52.4430 20.9184 23.9308 -4.6260 19.8139 -0.9511
# 2 20.9184 212.1171 30.6483 -16.9980 2.8564 10.4993
# 3 23.9308 30.6483 55.6683 -6.0048 13.5227 1.5832
# 4 -4.6260 -16.9980 -6.0048 38.5607 2.7969 3.5056
# 5 19.8139 2.8564 13.5227 2.7969 27.2860 -5.3890
# 6 -0.9511 10.4993 1.5832 3.5056 -5.3890 57.8073
#
#
#
# Elastic Compliance Matrix: (Units=1/GPa)
#
#
# Indices 1 2 3 4 5 6 
#
# 1 0.030337 -0.001360 -0.007337 0.003352 -0.018793 -0.001008
# 2 -0.001360 0.005379 -0.002465 0.001815 0.001278 -0.000923
# 3 -0.007337 -0.002465 0.024479 0.002459 -0.007024 -0.001147
# 4 0.003352 0.001815 0.002459 0.028295 -0.007284 -0.002737
# 5 -0.018793 0.001278 -0.007024 -0.007284 0.055429 0.005260
# 6 -0.001008 -0.000923 -0.001147 -0.002737 0.005260 0.018138
#
#
# Mechanical properties :
#
#
# Convention : Reuss Voigt Hill
#
# Bulk Modulus (GPa) = 26.40587 52.35815 39.38201
# Shear Modulus (GPa) = 25.38031 41.04619 33.21325
#
# Velocity S-wave (km/s) = 3.05543 3.88562 3.49526
# Velocity P-wave (km/s) = 4.70748 6.27611 5.54752
#
# Compressibility (1/GPa) = 0.03787037
#
# Stress axis : x y z
#
# Youngs Moduli (GPa) = 32.96341 185.92319 40.85162
#
# Poissons Ratio (x) = 0.25286 0.29973
# Poissons Ratio (y) = 0.04483 0.10069
# Poissons Ratio (z) = 0.24185 0.45828
#
# Static dielectric constant tensor:
#      x y z
#    x 2.139860 0.057860 -0.032600 
#    y 0.057860 2.198390 -0.037010 
#    z -0.032600 -0.037010 2.191040 
# 
# From -- ./inp_files/325582.got.cif
#   From: 2010.05.17/outbox.cif.g08.bks.cpg/sg2_163_cif.got.tgz:325582.got - 2010.06.03 11:33:40.
