data_PCOD9079642
_publ_section_title
;
Structure prediction by ZEFSAII (Michael W. Deem and Ramdas Pophale) SiO2 
 PCOD9079642
Probable space group: P -1
;
_chemical_formula_sum "Si O2"
_cell_formula_units_Z 16
_cell_length_a 9.348480
_cell_length_b 18.728870
_cell_length_c 13.552755
_cell_angle_alpha 157.736764
_cell_angle_beta 95.226248
_cell_angle_gamma 98.095762
_cell_volume 718.421457
_symmetry_space_group_name_H-M "P -1"
_symmetry_group_IT_number 2
_symmetry_cell_setting 'triclinic'
loop_
_space_group_symop_operation_xyz
x,y,z
-x,-y,-z
loop_
_atom_site_type_symbol
_atom_site_label
_atom_site_fract_x
_atom_site_fract_y
_atom_site_fract_z
Si Si1 0.202040 0.761787 0.644268
Si Si2 0.152692 0.726002 0.937170
Si Si3 0.290797 0.852511 0.316435
Si Si4 0.896102 0.975181 0.362429
Si Si5 0.930401 0.699956 0.396915
Si Si6 0.120726 0.980138 0.078780
Si Si7 0.373826 0.532439 0.397225
Si Si8 0.291740 0.452233 0.522173
O O1 0.359310 0.732676 0.608993
O O2 0.043663 0.517931 0.375485
O O3 0.114818 0.766174 0.542659
O O4 0.223838 0.956659 0.966536
O O5 0.277830 0.645747 0.818322
O O6 0.206010 0.851645 0.205926
O O7 0.156196 0.876100 0.042310
O O8 0.500000 0.000000 0.500000
O O9 0.237132 0.959746 0.532777
O O10 0.199175 0.578814 0.982270
O O11 0.782157 0.713329 0.977221
O O12 0.000000 0.000000 0.500000
O O13 0.024101 0.155585 0.515481
O O14 0.850037 0.785202 0.580084
O O15 0.907486 0.793945 0.804172
O O16 0.340470 0.518347 0.494733
O O17 0.555243 0.554824 0.428612
#
# Coordination Sequence:
#
# PCOD9079642 Si02
#       8
#     2   2   2   2   2   2   2   2
#     4  10  19  35  61  95 129 166 213 265 325 404
#     4  10  18  37  62  91 123 171 224 262 322 401
#     4  11  25  43  65  94 128 177 229 284 331 381
#     4  12  24  44  69  94 133 184 230 269 323 403
#     4  11  23  40  66  97 132 174 228 276 330 395
#     4  11  18  37  62  95 128 175 213 269 328 406
#     4  11  20  36  61  97 126 173 218 266 333 387
#     4  10  19  33  64  92 131 163 217 272 331 386
#
# _framework density 22.271049999999999
#
# number of rings (size 3 to 8) (size 9 to 14) (size 15 to 20)
#    0.000    1.250    3.750    4.500    0.000    0.000 
#    0.000    3.125    0.000   12.000    0.000    0.000 
#    0.000    0.000    0.000    0.000    0.000    0.000 
#
# Total GULP energy -89548.600964 kJ/mol
# GULP energy per Si atom -5596.787560 kJ/mol
# Density = 2.222036 g / cm^3
# Si number density = 22.271050 Si / 1000 Ang^3
#
#
#
# Elastic Constant Matrix: (Units=GPa)
#
#
# Indices 1 2 3 4 5 6 
#
# 1 150.3552 33.9598 38.4827 1.1537 -20.4436 -14.5239
# 2 33.9598 104.8102 40.5285 4.1808 -4.0956 -19.8738
# 3 38.4827 40.5285 87.3427 -0.2854 -20.9361 -5.3493
# 4 1.1537 4.1808 -0.2854 19.7941 2.7865 -9.6412
# 5 -20.4436 -4.0956 -20.9361 2.7865 42.2381 -2.4861
# 6 -14.5239 -19.8738 -5.3493 -9.6412 -2.4861 40.4330
#
#
#
# Elastic Compliance Matrix: (Units=1/GPa)
#
#
# Indices 1 2 3 4 5 6 
#
# 1 0.008090 -0.001261 -0.002160 0.000481 0.002826 0.002289
# 2 -0.001261 0.013012 -0.005609 -0.000023 -0.001828 0.005083
# 3 -0.002160 -0.005609 0.016515 0.000190 0.006531 -0.000901
# 4 0.000481 -0.000023 0.000190 0.057572 -0.002664 0.013751
# 5 0.002826 -0.001828 0.006531 -0.002664 0.028402 0.002092
# 6 0.002289 0.005083 -0.000901 0.013751 0.002092 0.031341
#
#
# Mechanical properties :
#
#
# Convention : Reuss Voigt Hill
#
# Bulk Modulus (GPa) = 51.13535 63.16110 57.14822
# Shear Modulus (GPa) = 27.85343 35.79551 31.82447
#
# Velocity S-wave (km/s) = 3.54030 4.01342 3.78426
# Velocity P-wave (km/s) = 6.30253 7.06389 6.69404
#
# Compressibility (1/GPa) = 0.01955594
#
# Stress axis : x y z
#
# Youngs Moduli (GPa) = 123.60573 76.85334 60.55225
#
# Poissons Ratio (x) = 0.09688 0.13082
# Poissons Ratio (y) = 0.15582 0.33965
# Poissons Ratio (z) = 0.26705 0.43109
#
# Static dielectric constant tensor:
#      x y z
#    x 1.877410 -0.016850 -0.000700 
#    y -0.016850 1.836850 0.024080 
#    z -0.000700 0.024080 1.790600 
# 
# From -- ./inp_files/508201.got.cif
#   From: 2010.05.17/outbox.cif.g08.bks.cpg/sg2_255_cif.got.tgz:508201.got - 2010.06.03 11:33:40.
