data_PCOD9079855
_publ_section_title
;
Structure prediction by ZEFSAII (Michael W. Deem and Ramdas Pophale) SiO2 
 PCOD9079855
Probable space group: P -1
;
_chemical_formula_sum "Si O2"
_cell_formula_units_Z 16
_cell_length_a 10.957905
_cell_length_b 18.780513
_cell_length_c 20.177782
_cell_angle_alpha 29.006614
_cell_angle_beta 161.667037
_cell_angle_gamma 145.302923
_cell_volume 632.478172
_symmetry_space_group_name_H-M "P -1"
_symmetry_group_IT_number 2
_symmetry_cell_setting 'triclinic'
loop_
_space_group_symop_operation_xyz
x,y,z
-x,-y,-z
loop_
_atom_site_type_symbol
_atom_site_label
_atom_site_fract_x
_atom_site_fract_y
_atom_site_fract_z
Si Si1 0.544205 0.516202 0.230852
Si Si2 0.620466 0.825246 0.987177
Si Si3 0.692586 0.033682 0.412296
Si Si4 0.448979 0.260752 0.484780
Si Si5 0.824083 0.048304 0.012849
Si Si6 0.138821 0.901064 0.415651
Si Si7 0.332968 0.550834 0.799979
Si Si8 0.370408 0.626933 0.380840
O O1 0.470815 0.689179 0.061131
O O2 0.362984 0.397332 0.280689
O O3 0.466632 0.480240 0.142680
O O4 0.000000 0.500000 0.500000
O O5 0.082548 0.789574 0.237445
O O6 0.385253 0.844376 0.782630
O O7 0.596231 0.974378 0.895773
O O8 0.965604 0.062911 0.591270
O O9 0.757904 0.879935 0.534255
O O10 0.266590 0.031200 0.228120
O O11 0.362274 0.315792 0.469482
O O12 0.750045 0.222601 0.842304
O O13 0.822791 0.949537 0.158346
O O14 0.242935 0.726622 0.610611
O O15 0.500000 0.000000 0.500000
O O16 0.962761 0.451621 0.686652
O O17 0.500000 0.500000 0.000000
O O18 0.500000 0.500000 0.500000
#
# Coordination Sequence:
#
# PCOD9079855 Si02
#       8
#     2   2   2   2   2   2   2   2
#     4  10  17  29  54  87 115 143 187 255 287 330
#     4  10  15  27  53  81 109 135 191 248 287 322
#     4  10  16  30  54  85 109 142 185 246 287 339
#     4  10  18  32  55  84 113 147 201 241 292 340
#     4  10  18  33  51  81 112 149 195 236 288 343
#     4  10  20  31  54  86 121 147 179 243 312 342
#     4  12  22  37  61  94 128 149 194 250 304 351
#     4  12  24  39  58  85 125 165 195 237 298 368
#
# _framework density 25.297318000000001
#
# number of rings (size 3 to 8) (size 9 to 14) (size 15 to 20)
#    0.000    1.500    5.000    6.000    0.000    0.000 
#    0.000    0.625    0.000    3.750    0.000    0.000 
#    0.000    0.000    0.000    0.000    0.000    0.000 
#
# Total GULP energy -89482.350868 kJ/mol
# GULP energy per Si atom -5592.646929 kJ/mol
# Density = 2.523974 g / cm^3
# Si number density = 25.297318 Si / 1000 Ang^3
#
#
#
# Elastic Constant Matrix: (Units=GPa)
#
#
# Indices 1 2 3 4 5 6 
#
# 1 94.1872 29.6019 62.4755 -9.8387 -24.9491 -25.5261
# 2 29.6019 142.6249 60.7866 -30.1026 -10.7885 -18.1609
# 3 62.4755 60.7866 126.4864 -33.1582 -32.9349 -9.0913
# 4 -9.8387 -30.1026 -33.1582 53.8289 5.4832 4.1918
# 5 -24.9491 -10.7885 -32.9349 5.4832 55.4779 -5.4187
# 6 -25.5261 -18.1609 -9.0913 4.1918 -5.4187 56.6541
#
#
#
# Elastic Compliance Matrix: (Units=1/GPa)
#
#
# Indices 1 2 3 4 5 6 
#
# 1 0.019428 0.000525 -0.008727 -0.002648 0.004718 0.008168
# 2 0.000525 0.009472 -0.003999 0.002778 -0.000337 0.002394
# 3 -0.008727 -0.003999 0.016719 0.006224 0.004357 -0.002575
# 4 -0.002648 0.002778 0.006224 0.023494 0.000627 -0.000982
# 5 0.004718 -0.000337 0.004357 0.000627 0.023082 0.004878
# 6 0.008168 0.002394 -0.002575 -0.000982 0.004878 0.022225
#
#
# Mechanical properties :
#
#
# Convention : Reuss Voigt Hill
#
# Bulk Modulus (GPa) = 47.12988 74.33625 60.73307
# Shear Modulus (GPa) = 34.27155 47.22115 40.74635
#
# Velocity S-wave (km/s) = 3.68469 4.32516 4.01770
# Velocity P-wave (km/s) = 6.06411 7.37506 6.75148
#
# Compressibility (1/GPa) = 0.02121796
#
# Stress axis : x y z
#
# Youngs Moduli (GPa) = 51.47343 105.57000 59.81101
#
# Poissons Ratio (x) = -0.05546 0.52196
# Poissons Ratio (y) = -0.02704 0.23919
# Poissons Ratio (z) = 0.44920 0.42219
#
# Static dielectric constant tensor:
#      x y z
#    x 9.292930 7.897400 -1.983590 
#    y 7.897400 10.567930 -2.144080 
#    z -1.983590 -2.144080 2.666250 
# 
# From -- ./inp_files/595998.got.cif
#   From: 2010.05.17/outbox.cif.g08.bks.cpg/sg2_298_cif.got.tgz:595998.got - 2010.06.03 11:33:40.
