data_PCOD9079159
_publ_section_title
;
Structure prediction by ZEFSAII (Michael W. Deem and Ramdas Pophale) SiO2 
 PCOD9079159
Probable space group: P -1
;
_chemical_formula_sum "Si O2"
_cell_formula_units_Z 16
_cell_length_a 17.002764
_cell_length_b 14.130990
_cell_length_c 11.500864
_cell_angle_alpha 32.342306
_cell_angle_beta 121.623696
_cell_angle_gamma 141.801964
_cell_volume 828.733311
_symmetry_space_group_name_H-M "P -1"
_symmetry_group_IT_number 2
_symmetry_cell_setting 'triclinic'
loop_
_space_group_symop_operation_xyz
x,y,z
-x,-y,-z
loop_
_atom_site_type_symbol
_atom_site_label
_atom_site_fract_x
_atom_site_fract_y
_atom_site_fract_z
Si Si1 0.867212 0.991256 0.341924
Si Si2 0.849719 0.428792 0.109664
Si Si3 0.455117 0.699563 0.474493
Si Si4 0.192243 0.399673 0.463375
Si Si5 0.891137 0.085557 0.538635
Si Si6 0.425282 0.435345 0.130387
Si Si7 0.296687 0.891657 0.914926
Si Si8 0.441244 0.863706 0.721818
O O1 0.881051 0.018888 0.463197
O O2 0.766852 0.008703 0.208921
O O3 0.811713 0.727257 0.523544
O O4 0.019797 0.253847 0.134652
O O5 0.902083 0.314344 0.314872
O O6 0.785256 0.290556 0.076302
O O7 0.723021 0.323253 0.196815
O O8 0.292010 0.445024 0.584531
O O9 0.525923 0.638067 0.660766
O O10 0.480356 0.905403 0.361655
O O11 0.542698 0.855198 0.262146
O O12 0.031248 0.201887 0.577459
O O13 0.263182 0.691349 0.188709
O O14 0.742041 0.818966 0.752600
O O15 0.500000 0.500000 0.000000
O O16 0.459675 0.682108 0.941795
O O17 0.500000 0.000000 0.500000
#
# Coordination Sequence:
#
# PCOD9079159 Si02
#       8
#     2   2   2   2   2   2   2   2
#     4  11  20  35  60  89 124 163 210 236 301 362
#     4  10  18  36  63  89 119 153 215 250 286 355
#     4  11  25  41  57  96 125 157 204 251 307 359
#     4  12  24  35  60  93 132 163 194 246 310 361
#     4  11  20  39  63  90 122 163 206 250 290 364
#     4  12  23  43  70  89 114 156 214 259 294 359
#     4  10  20  37  57  87 129 164 196 246 287 368
#     4  11  22  41  69  86 112 158 208 255 303 354
#
# _framework density 19.306571999999999
#
# number of rings (size 3 to 8) (size 9 to 14) (size 15 to 20)
#    0.000    1.000    7.500    2.250    3.500    1.500 
#    0.000    0.625    0.000    1.500    0.000    0.000 
#    0.000    0.000    0.000    0.000    0.000    0.000 
#
# Total GULP energy -89413.190447 kJ/mol
# GULP energy per Si atom -5588.324403 kJ/mol
# Density = 1.926263 g / cm^3
# Si number density = 19.306572 Si / 1000 Ang^3
#
#
#
# Elastic Constant Matrix: (Units=GPa)
#
#
# Indices 1 2 3 4 5 6 
#
# 1 117.4929 37.7715 38.0810 -9.8436 2.9974 17.9508
# 2 37.7715 77.4207 17.4925 -16.2822 -5.1009 30.0248
# 3 38.0810 17.4925 72.8951 -12.3229 -1.3932 7.6420
# 4 -9.8436 -16.2822 -12.3229 13.3962 5.5747 -1.3586
# 5 2.9974 -5.1009 -1.3932 5.5747 48.7647 -4.6269
# 6 17.9508 30.0248 7.6420 -1.3586 -4.6269 23.5293
#
#
#
# Elastic Compliance Matrix: (Units=1/GPa)
#
#
# Indices 1 2 3 4 5 6 
#
# 1 0.011785 -0.003335 -0.004970 0.000345 -0.001578 -0.003411
# 2 -0.003335 0.047097 0.006028 0.057294 -0.006704 -0.057522
# 3 -0.004970 0.006028 0.019423 0.021359 -0.001837 -0.009337
# 4 0.000345 0.057294 0.021359 0.164659 -0.019320 -0.074602
# 5 -0.001578 -0.006704 -0.001837 -0.019320 0.023371 0.013835
# 6 -0.003411 -0.057522 -0.009337 -0.074602 0.013835 0.119949
#
#
# Mechanical properties :
#
#
# Convention : Reuss Voigt Hill
#
# Bulk Modulus (GPa) = 13.55934 50.49988 32.02961
# Shear Modulus (GPa) = 12.03597 28.76897 20.40247
#
# Velocity S-wave (km/s) = 2.49953 3.86439 3.25432
# Velocity P-wave (km/s) = 3.92029 6.79153 5.54498
#
# Compressibility (1/GPa) = 0.07374991
#
# Stress axis : x y z
#
# Youngs Moduli (GPa) = 84.85704 21.23277 51.48615
#
# Poissons Ratio (x) = 0.07081 0.25590
# Poissons Ratio (y) = 0.28300 -0.31037
# Poissons Ratio (z) = 0.42177 -0.12800
#
# Static dielectric constant tensor:
#      x y z
#    x 1.677890 0.031240 0.011410 
#    y 0.031240 1.670740 -0.005830 
#    z 0.011410 -0.005830 1.682770 
# 
# From -- ./inp_files/432689.got.cif
#   From: 2010.05.17/outbox.cif.g08.bks.cpg/sg2_217_cif.got.tgz:432689.got - 2010.06.03 11:33:40.
