data_PCOD9079738
_publ_section_title
;
Structure prediction by ZEFSAII (Michael W. Deem and Ramdas Pophale) SiO2 
 PCOD9079738
Probable space group: P -1
;
_chemical_formula_sum "Si O2"
_cell_formula_units_Z 12
_cell_length_a 24.447596
_cell_length_b 25.573177
_cell_length_c 13.940790
_cell_angle_alpha 20.842369
_cell_angle_beta 159.591889
_cell_angle_gamma 168.836265
_cell_volume 573.603348
_symmetry_space_group_name_H-M "P -1"
_symmetry_group_IT_number 2
_symmetry_cell_setting 'triclinic'
loop_
_space_group_symop_operation_xyz
x,y,z
-x,-y,-z
loop_
_atom_site_type_symbol
_atom_site_label
_atom_site_fract_x
_atom_site_fract_y
_atom_site_fract_z
Si Si1 0.351551 0.884574 0.170926
Si Si2 0.889251 0.033221 0.454846
Si Si3 0.160602 0.328541 0.977444
Si Si4 0.500553 0.876774 0.631461
Si Si5 0.360809 0.481202 0.623028
Si Si6 0.993884 0.582479 0.747459
O O1 0.209414 0.661877 0.243125
O O2 0.357384 0.826238 0.386614
O O3 0.686037 0.166963 0.202170
O O4 0.174766 0.897375 0.849053
O O5 0.597303 0.798753 0.445544
O O6 0.579753 0.516513 0.935572
O O7 0.168730 0.295570 0.530127
O O8 0.847880 0.114681 0.781666
O O9 0.303938 0.576472 0.845841
O O10 0.102270 0.131283 0.279123
O O11 0.500000 0.000000 0.500000
O O12 0.138412 0.361863 0.541905
O O13 0.000000 0.500000 0.000000
#
# Coordination Sequence:
#
# PCOD9079738 Si02
#       6
#     2   2   2   2   2   2
#     4  12  24  38  63 101 126 162 220 255 292 377
#     4  10  18  37  64  88 127 161 204 248 308 355
#     4  10  21  44  65  87 123 171 202 259 318 375
#     4  12  26  46  66  86 124 170 212 267 319 358
#     4  10  19  34  65  89 126 165 195 238 321 363
#     4  12  20  36  63 100 133 164 197 254 312 370
#
# _framework density 20.920380000000002
#
# number of rings (size 3 to 8) (size 9 to 14) (size 15 to 20)
#    1.000    0.000    5.000    3.000    0.000    0.000 
#    0.000    6.667    0.000    0.000    0.000    0.000 
#    0.000    0.000    0.000    0.000    0.000    0.000 
#
# Total GULP energy -66921.868989 kJ/mol
# GULP energy per Si atom -5576.822416 kJ/mol
# Density = 2.087276 g / cm^3
# Si number density = 20.920380 Si / 1000 Ang^3
#
#
#
# Elastic Constant Matrix: (Units=GPa)
#
#
# Indices 1 2 3 4 5 6 
#
# 1 96.1535 25.9961 47.8036 -21.7626 -38.8781 -52.8486
# 2 25.9961 174.9307 50.8973 26.6186 12.5618 -21.4382
# 3 47.8036 50.8973 125.6826 15.3483 23.4992 -20.7142
# 4 -21.7626 26.6186 15.3483 55.0871 29.5363 26.5066
# 5 -38.8781 12.5618 23.4992 29.5363 62.9396 27.0484
# 6 -52.8486 -21.4382 -20.7142 26.5066 27.0484 48.9333
#
#
#
# Elastic Compliance Matrix: (Units=1/GPa)
#
#
# Indices 1 2 3 4 5 6 
#
# 1 0.040137 0.001332 -0.013534 -0.006198 0.019185 0.030955
# 2 0.001332 0.007997 -0.001454 -0.006520 -0.000719 0.008256
# 3 -0.013534 -0.001454 0.016509 -0.002260 -0.013309 0.000316
# 4 -0.006198 -0.006520 -0.002260 0.035905 -0.007422 -0.025854
# 5 0.019185 -0.000719 -0.013309 -0.007422 0.037063 -0.001695
# 6 0.030955 0.008256 0.000316 -0.025854 -0.001695 0.072561
#
#
# Mechanical properties :
#
#
# Convention : Reuss Voigt Hill
#
# Bulk Modulus (GPa) = 26.78656 71.79563 49.29109
# Shear Modulus (GPa) = 20.00588 51.53000 35.76794
#
# Velocity S-wave (km/s) = 3.09574 4.96840 4.13936
# Velocity P-wave (km/s) = 5.06063 8.20404 6.81602
#
# Compressibility (1/GPa) = 0.03733216
#
# Stress axis : x y z
#
# Youngs Moduli (GPa) = 24.91486 125.04369 60.57155
#
# Poissons Ratio (x) = -0.16659 0.81977
# Poissons Ratio (y) = -0.03319 0.08807
# Poissons Ratio (z) = 0.33719 0.18181
#
# Static dielectric constant tensor:
#      x y z
#    x 1.767360 0.046530 -0.004400 
#    y 0.046530 1.729330 -0.018880 
#    z -0.004400 -0.018880 1.869800 
# 
# From -- ./inp_files/322418.got.cif
#   From: 2010.05.17/outbox.cif.g08.bks.cpg/sg2_162_cif.got.tgz:322418.got - 2010.06.03 11:33:40.
