data_PCOD9079322
_publ_section_title
;
Structure prediction by ZEFSAII (Michael W. Deem and Ramdas Pophale) SiO2 
 PCOD9079322
Probable space group: P -1
;
_chemical_formula_sum "Si O2"
_cell_formula_units_Z 15
_cell_length_a 11.197216
_cell_length_b 11.165629
_cell_length_c 8.685101
_cell_angle_alpha 91.283782
_cell_angle_beta 85.095252
_cell_angle_gamma 143.774284
_cell_volume 637.347376
_symmetry_space_group_name_H-M "P -1"
_symmetry_group_IT_number 2
_symmetry_cell_setting 'triclinic'
loop_
_space_group_symop_operation_xyz
x,y,z
-x,-y,-z
loop_
_atom_site_type_symbol
_atom_site_label
_atom_site_fract_x
_atom_site_fract_y
_atom_site_fract_z
Si Si1 0.500000 0.500000 0.500000
Si Si2 0.633653 0.916183 0.110050
Si Si3 0.116712 0.059015 0.697565
Si Si4 0.322486 0.847675 0.641736
Si Si5 0.538931 0.293817 0.362713
Si Si6 0.087670 0.830649 0.479786
Si Si7 0.390815 0.534077 0.960294
Si Si8 0.035510 0.832953 0.153723
O O1 0.294431 0.282228 0.607008
O O2 0.591381 0.434865 0.488434
O O3 0.773588 0.936601 0.190553
O O4 0.611743 0.015364 0.219314
O O5 0.439432 0.682079 0.074565
O O6 0.761422 0.047483 0.946375
O O7 0.961749 0.025006 0.793962
O O8 0.007407 0.879344 0.587444
O O9 0.318440 0.705026 0.678737
O O10 0.122254 0.744312 0.582888
O O11 0.500000 0.000000 0.500000
O O12 0.519963 0.357802 0.213167
O O13 0.317456 0.063669 0.423311
O O14 0.001201 0.739543 0.317464
O O15 0.152577 0.329432 0.946916
O O16 0.500000 0.500000 0.000000
#
# Coordination Sequence:
#
# PCOD9079322 Si02
#       8
#     1   2   2   2   2   2   2   2
#     4  10  18  36  66  98 126 162 228 266 328 396
#     4  11  23  42  66  98 134 177 227 272 337 408
#     4  10  20  36  65  93 133 177 218 278 332 384
#     4   9  21  43  73  90 125 182 231 270 336 400
#     4  10  19  39  66  91 129 173 215 277 327 391
#     4   9  20  38  63  97 125 176 230 269 326 396
#     4  12  24  39  63 100 136 174 218 272 344 392
#     4  12  22  39  66  99 139 175 219 283 336 394
#
# _framework density 23.535045
#
# number of rings (size 3 to 8) (size 9 to 14) (size 15 to 20)
#    0.000    1.600    4.000    1.600    0.000    0.533 
#    0.000    4.000    0.000    0.000    0.000    0.000 
#    0.000    0.000    0.000    0.000    0.000    0.000 
#
# Total GULP energy -83563.432769 kJ/mol
# GULP energy per Si atom -5570.895518 kJ/mol
# Density = 2.348148 g / cm^3
# Si number density = 23.535045 Si / 1000 Ang^3
#
#
#
# Elastic Constant Matrix: (Units=GPa)
#
#
# Indices 1 2 3 4 5 6 
#
# 1 125.5779 47.6235 40.1888 32.1323 -13.5308 -39.5021
# 2 47.6235 86.2201 33.9419 20.9758 -1.7034 -17.8973
# 3 40.1888 33.9419 96.0722 30.0257 -11.9445 -8.3828
# 4 32.1323 20.9758 30.0257 35.9734 -1.3907 -8.1105
# 5 -13.5308 -1.7034 -11.9445 -1.3907 49.9827 0.9509
# 6 -39.5021 -17.8973 -8.3828 -8.1105 0.9509 28.0136
#
#
#
# Elastic Compliance Matrix: (Units=1/GPa)
#
#
# Indices 1 2 3 4 5 6 
#
# 1 0.019381 -0.003193 -0.001795 -0.008822 0.004044 0.022061
# 2 -0.003193 0.016186 -0.003243 -0.003017 -0.001248 0.004036
# 3 -0.001795 -0.003243 0.015543 -0.010034 0.002895 -0.002954
# 4 -0.008822 -0.003017 -0.010034 0.044704 -0.003563 -0.004306
# 5 0.004044 -0.001248 0.002895 -0.003563 0.021576 0.004007
# 6 0.022061 0.004036 -0.002954 -0.004306 0.004007 0.067117
#
#
# Mechanical properties :
#
#
# Convention : Reuss Voigt Hill
#
# Bulk Modulus (GPa) = 28.86079 61.26429 45.06254
# Shear Modulus (GPa) = 23.52765 35.20168 29.36467
#
# Velocity S-wave (km/s) = 3.16521 3.87164 3.53611
# Velocity P-wave (km/s) = 5.06435 6.78776 5.98838
#
# Compressibility (1/GPa) = 0.03464908
#
# Stress axis : x y z
#
# Youngs Moduli (GPa) = 51.59741 61.78274 64.33686
#
# Poissons Ratio (x) = 0.19728 0.11545
# Poissons Ratio (y) = 0.16476 0.20862
# Poissons Ratio (z) = 0.09259 0.20034
#
# Static dielectric constant tensor:
#      x y z
#    x 1.853510 -0.022750 0.043940 
#    y -0.022750 1.903690 0.059060 
#    z 0.043940 0.059060 1.973830 
# 
# From -- ./inp_files/258583.got.cif
#   From: 2010.05.17/outbox.cif.g08.bks.cpg/sg2_130_cif.got.tgz:258583.got - 2010.06.03 11:33:40.
