data_PCOD9079635
_publ_section_title
;
Structure prediction by ZEFSAII (Michael W. Deem and Ramdas Pophale) SiO2 
 PCOD9079635
Probable space group: P -1
;
_chemical_formula_sum "Si O2"
_cell_formula_units_Z 16
_cell_length_a 6.581550
_cell_length_b 9.155622
_cell_length_c 18.072944
_cell_angle_alpha 118.981726
_cell_angle_beta 92.719336
_cell_angle_gamma 128.457306
_cell_volume 642.061508
_symmetry_space_group_name_H-M "P -1"
_symmetry_group_IT_number 2
_symmetry_cell_setting 'triclinic'
loop_
_space_group_symop_operation_xyz
x,y,z
-x,-y,-z
loop_
_atom_site_type_symbol
_atom_site_label
_atom_site_fract_x
_atom_site_fract_y
_atom_site_fract_z
Si Si1 0.839657 0.095467 0.531819
Si Si2 0.979879 0.176254 0.396512
Si Si3 0.555822 0.582527 0.906314
Si Si4 0.290384 0.124069 0.882961
Si Si5 0.942123 0.286737 0.741075
Si Si6 0.616590 0.409711 0.733796
Si Si7 0.385755 0.861812 0.734053
Si Si8 0.653273 0.695561 0.690008
O O1 0.922058 0.171857 0.636986
O O2 0.500000 0.000000 0.500000
O O3 0.985771 0.253225 0.497168
O O4 0.000000 0.000000 0.500000
O O5 0.690839 0.873223 0.318142
O O6 0.271474 0.269205 0.387015
O O7 0.889573 0.257906 0.353461
O O8 0.503049 0.384474 0.906621
O O9 0.711898 0.609381 0.842106
O O10 0.241345 0.453498 0.834962
O O11 0.698351 0.807980 0.016156
O O12 0.390392 0.996490 0.834168
O O13 0.965463 0.942952 0.794527
O O14 0.875396 0.431703 0.747550
O O15 0.676362 0.073307 0.739675
O O16 0.581018 0.473166 0.669667
O O17 0.411084 0.683792 0.708648
#
# Coordination Sequence:
#
# PCOD9079635 Si02
#       8
#     2   2   2   2   2   2   2   2
#     4  12  23  38  73 103 135 180 231 282 345 412
#     4  10  22  43  62  96 131 167 222 270 333 401
#     4  11  21  39  61  92 125 166 217 276 324 403
#     4  10  22  36  61  92 125 162 221 268 326 400
#     4  11  22  39  67  93 126 173 219 269 339 398
#     4  11  22  40  65  92 130 169 215 271 333 401
#     4  10  18  37  62  89 125 166 215 262 329 393
#     4  11  22  40  65  93 129 174 211 274 336 395
#
# _framework density 24.919730999999999
#
# number of rings (size 3 to 8) (size 9 to 14) (size 15 to 20)
#    0.000    1.250    7.500    1.500    0.000    4.000 
#    0.000    1.875    0.000    6.000    0.000    0.000 
#    0.000    0.000    0.000    0.000    0.000    0.000 
#
# Total GULP energy -89254.599868 kJ/mol
# GULP energy per Si atom -5578.412492 kJ/mol
# Density = 2.486301 g / cm^3
# Si number density = 24.919731 Si / 1000 Ang^3
#
#
#
# Elastic Constant Matrix: (Units=GPa)
#
#
# Indices 1 2 3 4 5 6 
#
# 1 149.9303 31.7860 39.2043 3.8687 -33.6210 -14.1820
# 2 31.7860 85.7406 18.0957 -9.6168 -16.0288 -3.2681
# 3 39.2043 18.0957 174.0809 -9.4717 -18.5590 21.8893
# 4 3.8687 -9.6168 -9.4717 26.5809 8.0936 -2.3369
# 5 -33.6210 -16.0288 -18.5590 8.0936 39.6194 -4.6512
# 6 -14.1820 -3.2681 21.8893 -2.3369 -4.6512 35.7326
#
#
#
# Elastic Compliance Matrix: (Units=1/GPa)
#
#
# Indices 1 2 3 4 5 6 
#
# 1 0.010346 -0.002094 -0.002234 -0.005160 0.008653 0.006072
# 2 -0.002094 0.013614 -0.000596 0.004309 0.002738 0.001417
# 3 -0.002234 -0.000596 0.007085 0.002140 0.000144 -0.005123
# 4 -0.005160 0.004309 0.002140 0.043839 -0.010765 -0.001499
# 5 0.008653 0.002738 0.000144 -0.010765 0.036860 0.007691
# 6 0.006072 0.001417 -0.005123 -0.001499 0.007691 0.034566
#
#
# Mechanical properties :
#
#
# Convention : Reuss Voigt Hill
#
# Bulk Modulus (GPa) = 47.17240 65.32487 56.24863
# Shear Modulus (GPa) = 30.63281 41.76432 36.19857
#
# Velocity S-wave (km/s) = 3.50988 4.09828 3.81544
# Velocity P-wave (km/s) = 5.94950 6.97607 6.48314
#
# Compressibility (1/GPa) = 0.02119884
#
# Stress axis : x y z
#
# Youngs Moduli (GPa) = 96.65929 73.45296 141.13476
#
# Poissons Ratio (x) = 0.15378 0.31531
# Poissons Ratio (y) = 0.20236 0.08405
# Poissons Ratio (z) = 0.21594 0.04374
#
# Static dielectric constant tensor:
#      x y z
#    x 2.121670 -0.022690 -0.009690 
#    y -0.022690 2.032180 0.023280 
#    z -0.009690 0.023280 2.026750 
# 
# From -- ./inp_files/106285.got.cif
#   From: 2010.05.17/outbox.cif.g08.bks.cpg/sg2_54_cif.got.tgz:106285.got - 2010.06.03 11:33:40.
