data_PCOD9079586
_publ_section_title
;
Structure prediction by ZEFSAII (Michael W. Deem and Ramdas Pophale) SiO2 
 PCOD9079586
Probable space group: P -1
;
_chemical_formula_sum "Si O2"
_cell_formula_units_Z 14
_cell_length_a 8.603465
_cell_length_b 12.990581
_cell_length_c 11.989289
_cell_angle_alpha 32.591691
_cell_angle_beta 99.876314
_cell_angle_gamma 82.844166
_cell_volume 612.883932
_symmetry_space_group_name_H-M "P -1"
_symmetry_group_IT_number 2
_symmetry_cell_setting 'triclinic'
loop_
_space_group_symop_operation_xyz
x,y,z
-x,-y,-z
loop_
_atom_site_type_symbol
_atom_site_label
_atom_site_fract_x
_atom_site_fract_y
_atom_site_fract_z
Si Si1 0.652803 0.306966 0.987770
Si Si2 0.349632 0.959019 0.577976
Si Si3 0.071900 0.106008 0.226746
Si Si4 0.030869 0.351350 0.532315
Si Si5 0.616461 0.111155 0.945490
Si Si6 0.165239 0.873174 0.227369
Si Si7 0.163771 0.421252 0.253940
O O1 0.873870 0.124924 0.184665
O O2 0.574955 0.250767 0.138604
O O3 0.565840 0.270622 0.899531
O O4 0.669714 0.526518 0.782984
O O5 0.217846 0.948306 0.478224
O O6 0.229814 0.182070 0.431944
O O7 0.500000 0.000000 0.500000
O O8 0.148669 0.038731 0.172409
O O9 0.009675 0.359756 0.019603
O O10 0.197503 0.106428 0.796269
O O11 0.092251 0.435300 0.357774
O O12 0.000000 0.500000 0.500000
O O13 0.858402 0.314041 0.541872
O O14 0.500000 0.000000 0.000000
O O15 0.656657 0.210870 0.749519
O O16 0.000000 0.000000 0.000000
#
# Coordination Sequence:
#
# PCOD9079586 Si02
#       7
#     2   2   2   2   2   2   2
#     4  10  22  43  65  88 127 166 214 252 313 378
#     4  12  25  41  64  93 127 167 212 262 315 365
#     4  10  21  40  68  87 122 167 214 252 309 374
#     4  11  19  37  65  95 123 158 211 258 303 382
#     4  11  22  38  65  89 132 167 198 259 325 366
#     4  10  18  37  61  94 120 161 209 251 305 377
#     4  10  21  41  67  91 126 164 212 259 310 372
#
# _framework density 22.842827
#
# number of rings (size 3 to 8) (size 9 to 14) (size 15 to 20)
#    0.857    0.571    4.286    3.429    2.000    0.571 
#    0.000    4.286    0.000    0.000    0.000    0.000 
#    0.000    0.000    0.000    0.000    0.000    0.000 
#
# Total GULP energy -78049.719039 kJ/mol
# GULP energy per Si atom -5574.979931 kJ/mol
# Density = 2.279084 g / cm^3
# Si number density = 22.842827 Si / 1000 Ang^3
#
#
#
# Elastic Constant Matrix: (Units=GPa)
#
#
# Indices 1 2 3 4 5 6 
#
# 1 75.2366 9.0835 19.5426 19.2903 -28.7349 4.3582
# 2 9.0835 116.4309 21.8688 12.2434 -4.7600 3.6126
# 3 19.5426 21.8688 64.8322 -0.1169 -31.2289 -6.7359
# 4 19.2903 12.2434 -0.1169 23.9055 -10.3733 -8.5898
# 5 -28.7349 -4.7600 -31.2289 -10.3733 36.0614 2.6460
# 6 4.3582 3.6126 -6.7359 -8.5898 2.6460 32.9238
#
#
#
# Elastic Compliance Matrix: (Units=1/GPa)
#
#
# Indices 1 2 3 4 5 6 
#
# 1 0.023628 0.001336 -0.002704 -0.017865 0.012218 -0.009470
# 2 0.001336 0.011318 -0.008858 -0.012632 -0.008316 -0.005858
# 3 -0.002704 -0.008858 0.038533 0.027840 0.037063 0.013498
# 4 -0.017865 -0.012632 0.027840 0.086979 0.031051 0.029644
# 5 0.012218 -0.008316 0.037063 0.031051 0.076751 0.008811
# 6 -0.009470 -0.005858 0.013498 0.029644 0.008811 0.042057
#
#
# Mechanical properties :
#
#
# Convention : Reuss Voigt Hill
#
# Bulk Modulus (GPa) = 18.85756 39.72105 29.28931
# Shear Modulus (GPa) = 15.75337 32.31180 24.03258
#
# Velocity S-wave (km/s) = 2.62895 3.76510 3.24710
# Velocity P-wave (km/s) = 4.18192 6.02726 5.18731
#
# Compressibility (1/GPa) = 0.05302913
#
# Stress axis : x y z
#
# Youngs Moduli (GPa) = 42.32274 88.35197 25.95189
#
# Poissons Ratio (x) = -0.11808 0.07017
# Poissons Ratio (y) = -0.05656 0.22987
# Poissons Ratio (z) = 0.11443 0.78259
#
# Static dielectric constant tensor:
#      x y z
#    x 2.042660 -0.005850 -0.052100 
#    y -0.005850 1.827550 -0.000670 
#    z -0.052100 -0.000670 1.904560 
# 
# From -- ./inp_files/386554.got.cif
#   From: 2010.05.17/outbox.cif.g08.bks.cpg/sg2_194_cif.got.tgz:386554.got - 2010.06.03 11:33:40.
