data_PCOD9079005
_publ_section_title
;
Structure prediction by ZEFSAII (Michael W. Deem and Ramdas Pophale) SiO2 
 PCOD9079005
Probable space group: P -1
;
_chemical_formula_sum "Si O2"
_cell_formula_units_Z 13
_cell_length_a 13.901205
_cell_length_b 12.662420
_cell_length_c 8.563279
_cell_angle_alpha 72.506621
_cell_angle_beta 138.060617
_cell_angle_gamma 138.457125
_cell_volume 545.236796
_symmetry_space_group_name_H-M "P -1"
_symmetry_group_IT_number 2
_symmetry_cell_setting 'triclinic'
loop_
_space_group_symop_operation_xyz
x,y,z
-x,-y,-z
loop_
_atom_site_type_symbol
_atom_site_label
_atom_site_fract_x
_atom_site_fract_y
_atom_site_fract_z
Si Si1 0.000000 0.000000 0.500000
Si Si2 0.601593 0.325255 0.528729
Si Si3 0.291674 0.413647 0.667970
Si Si4 0.035858 0.426354 0.904449
Si Si5 0.425004 0.101607 0.924874
Si Si6 0.303519 0.955227 0.193700
Si Si7 0.895519 0.280811 0.453405
O O1 0.104842 0.193305 0.503732
O O2 0.713973 0.869792 0.248134
O O3 0.588136 0.439752 0.392107
O O4 0.838347 0.402214 0.708241
O O5 0.348760 0.101152 0.268131
O O6 0.678881 0.368034 0.785040
O O7 0.128853 0.401225 0.571590
O O8 0.500000 0.500000 0.000000
O O9 0.983125 0.345969 0.706659
O O10 0.271257 0.719095 0.800637
O O11 0.954758 0.273917 0.990933
O O12 0.292817 0.942416 0.704714
O O13 0.375991 0.015032 0.075121
O O14 0.500000 0.000000 0.500000
#
# Coordination Sequence:
#
# PCOD9079005 Si02
#       7
#     1   2   2   2   2   2   2
#     4  10  22  40  62  84 124 170 196 250 316 370
#     4  10  21  37  60  93 123 165 205 249 312 378
#     4  11  24  42  63  90 128 168 209 256 315 370
#     4  10  20  38  61  94 125 158 206 259 309 367
#     4  10  19  38  64  96 120 161 215 250 312 371
#     4  10  18  36  61  88 123 163 198 251 313 368
#     4  10  21  37  63  98 124 157 215 266 302 364
#
# _framework density 23.842852000000001
#
# number of rings (size 3 to 8) (size 9 to 14) (size 15 to 20)
#    0.000    1.846    3.077    2.769    0.000    0.615 
#    0.000    2.308    0.000   19.385    0.000    0.000 
#    0.000    0.000    0.000    0.000    0.000    0.000 
#
# Total GULP energy -72387.584645 kJ/mol
# GULP energy per Si atom -5568.275742 kJ/mol
# Density = 2.378859 g / cm^3
# Si number density = 23.842852 Si / 1000 Ang^3
#
#
#
# Elastic Constant Matrix: (Units=GPa)
#
#
# Indices 1 2 3 4 5 6 
#
# 1 87.8568 7.8679 43.5362 -16.4302 7.5889 -18.6860
# 2 7.8679 128.0428 30.8323 -5.8550 -9.2443 -26.5828
# 3 43.5362 30.8323 104.5374 -7.6926 -7.4754 -14.0822
# 4 -16.4302 -5.8550 -7.6926 36.4604 -8.5826 6.3651
# 5 7.5889 -9.2443 -7.4754 -8.5826 56.7286 3.8105
# 6 -18.6860 -26.5828 -14.0822 6.3651 3.8105 22.6899
#
#
#
# Elastic Compliance Matrix: (Units=1/GPa)
#
#
# Indices 1 2 3 4 5 6 
#
# 1 0.018535 0.003449 -0.006698 0.004226 -0.003134 0.014489
# 2 0.003449 0.011235 -0.002813 0.000317 0.000096 0.014152
# 3 -0.006698 -0.002813 0.013213 0.000021 0.002249 -0.000995
# 4 0.004226 0.000317 0.000021 0.031481 0.004638 -0.005746
# 5 -0.003134 0.000096 0.002249 0.004638 0.019439 -0.005638
# 6 0.014489 0.014152 -0.000995 -0.005746 -0.005638 0.074525
#
#
# Mechanical properties :
#
#
# Convention : Reuss Voigt Hill
#
# Bulk Modulus (GPa) = 32.40593 53.87888 43.14241
# Shear Modulus (GPa) = 26.19996 39.05582 32.62789
#
# Velocity S-wave (km/s) = 3.31850 4.05168 3.70328
# Velocity P-wave (km/s) = 5.32017 6.67343 6.03485
#
# Compressibility (1/GPa) = 0.03085855
#
# Stress axis : x y z
#
# Youngs Moduli (GPa) = 53.95260 89.00898 75.68054
#
# Poissons Ratio (x) = -0.30697 0.50688
# Poissons Ratio (y) = -0.18607 0.21292
# Poissons Ratio (z) = 0.36136 0.25042
#
# Static dielectric constant tensor:
#      x y z
#    x 1.930030 0.048330 -0.017590 
#    y 0.048330 2.026670 0.060810 
#    z -0.017590 0.060810 1.947090 
# 
# From -- ./inp_files/300658.got.cif
#   From: 2010.05.17/outbox.cif.g08.bks.cpg/sg2_151_cif.got.tgz:300658.got - 2010.06.03 11:33:40.
