data_PCOD9079786
_publ_section_title
;
Structure prediction by ZEFSAII (Michael W. Deem and Ramdas Pophale) SiO2 
 PCOD9079786
Probable space group: P -1
;
_chemical_formula_sum "Si O2"
_cell_formula_units_Z 12
_cell_length_a 23.197400
_cell_length_b 7.015497
_cell_length_c 13.901207
_cell_angle_alpha 50.274078
_cell_angle_beta 157.528002
_cell_angle_gamma 140.358776
_cell_volume 526.753153
_symmetry_space_group_name_H-M "P -1"
_symmetry_group_IT_number 2
_symmetry_cell_setting 'triclinic'
loop_
_space_group_symop_operation_xyz
x,y,z
-x,-y,-z
loop_
_atom_site_type_symbol
_atom_site_label
_atom_site_fract_x
_atom_site_fract_y
_atom_site_fract_z
Si Si1 0.627234 0.390827 0.258691
Si Si2 0.444412 0.345150 0.358312
Si Si3 0.275844 0.676508 0.926058
Si Si4 0.217554 0.709792 0.303746
Si Si5 0.096374 0.560262 0.477448
Si Si6 0.815691 0.934056 0.690545
O O1 0.703436 0.453448 0.466104
O O2 0.807821 0.535375 0.418857
O O3 0.500000 0.500000 0.000000
O O4 0.477010 0.016179 0.130837
O O5 0.500000 0.500000 0.500000
O O6 0.643594 0.567701 0.537719
O O7 0.348239 0.982359 0.339570
O O8 0.304345 0.415393 0.078345
O O9 0.192876 0.619435 0.710068
O O10 0.129826 0.660432 0.780624
O O11 0.225612 0.900365 0.346609
O O12 0.000000 0.500000 0.000000
O O13 0.143770 0.878357 0.404664
O O14 0.000000 0.000000 0.000000
#
# Coordination Sequence:
#
# PCOD9079786 Si02
#       6
#     2   2   2   2   2   2
#     4  11  24  41  64  91 136 169 206 266 325 385
#     4  10  18  37  65  90 120 165 213 260 315 376
#     4  11  21  40  69  93 122 163 221 270 307 389
#     4  10  22  41  61  91 132 165 210 265 322 376
#     4  10  22  38  65  97 121 164 217 263 322 372
#     4  10  20  36  66  92 123 163 215 268 312 382
#
# _framework density 22.781071000000001
#
# number of rings (size 3 to 8) (size 9 to 14) (size 15 to 20)
#    0.000    1.667    5.000    2.500    0.000    4.667 
#    0.000    2.500    0.000    0.000    0.000    0.000 
#    0.000    0.000    0.000    0.000    0.000    0.000 
#
# Total GULP energy -66978.421698 kJ/mol
# GULP energy per Si atom -5581.535141 kJ/mol
# Density = 2.272922 g / cm^3
# Si number density = 22.781071 Si / 1000 Ang^3
#
#
#
# Elastic Constant Matrix: (Units=GPa)
#
#
# Indices 1 2 3 4 5 6 
#
# 1 77.2435 27.8458 29.0861 -8.7366 5.9229 18.7272
# 2 27.8458 81.1218 51.5837 -21.4713 -11.4143 15.0081
# 3 29.0861 51.5837 176.6094 -32.1612 1.2671 20.3282
# 4 -8.7366 -21.4713 -32.1612 51.7395 6.8139 -3.9678
# 5 5.9229 -11.4143 1.2671 6.8139 35.7100 -2.5928
# 6 18.7272 15.0081 20.3282 -3.9678 -2.5928 33.0068
#
#
#
# Elastic Compliance Matrix: (Units=1/GPa)
#
#
# Indices 1 2 3 4 5 6 
#
# 1 0.017117 -0.004724 -0.000385 0.000769 -0.005036 -0.007630
# 2 -0.004724 0.018603 -0.003746 0.003609 0.005988 -0.002567
# 3 -0.000385 -0.003746 0.007735 0.003280 -0.002224 -0.002623
# 4 0.000769 0.003609 0.003280 0.023355 -0.003661 -0.001577
# 5 -0.005036 0.005988 -0.002224 -0.003661 0.031789 0.003562
# 6 -0.007630 -0.002567 -0.002623 -0.001577 0.003562 0.037498
#
#
# Mechanical properties :
#
#
# Convention : Reuss Voigt Hill
#
# Bulk Modulus (GPa) = 38.84266 61.33397 50.08831
# Shear Modulus (GPa) = 30.79017 39.18855 34.98936
#
# Velocity S-wave (km/s) = 3.68036 4.15206 3.92330
# Velocity P-wave (km/s) = 5.92853 7.06879 6.52362
#
# Compressibility (1/GPa) = 0.02574489
#
# Stress axis : x y z
#
# Youngs Moduli (GPa) = 58.42147 53.75363 129.28486
#
# Poissons Ratio (x) = 0.25396 0.04975
# Poissons Ratio (y) = 0.27601 0.48429
# Poissons Ratio (z) = 0.02248 0.20136
#
# Static dielectric constant tensor:
#      x y z
#    x 1.956130 0.001650 0.114100 
#    y 0.001650 1.944690 -0.049790 
#    z 0.114100 -0.049790 1.874650 
# 
# From -- ./inp_files/446886.got.cif
#   From: 2010.05.17/outbox.cif.g08.bks.cpg/sg2_224_cif.got.tgz:446886.got - 2010.06.03 11:33:40.
