data_PCOD9079956
_publ_section_title
;
Structure prediction by ZEFSAII (Michael W. Deem and Ramdas Pophale) SiO2 
 PCOD9079956
Probable space group: P -1
;
_chemical_formula_sum "Si O2"
_cell_formula_units_Z 10
_cell_length_a 10.537692
_cell_length_b 13.190416
_cell_length_c 5.559884
_cell_angle_alpha 79.277211
_cell_angle_beta 115.146308
_cell_angle_gamma 149.154597
_cell_volume 331.008266
_symmetry_space_group_name_H-M "P -1"
_symmetry_group_IT_number 2
_symmetry_cell_setting 'triclinic'
loop_
_space_group_symop_operation_xyz
x,y,z
-x,-y,-z
loop_
_atom_site_type_symbol
_atom_site_label
_atom_site_fract_x
_atom_site_fract_y
_atom_site_fract_z
Si Si1 0.053708 0.911431 0.125403
Si Si2 0.840738 0.298929 0.311105
Si Si3 0.684691 0.958146 0.268322
Si Si4 0.684329 0.685924 0.374567
Si Si5 0.892086 0.578257 0.026109
O O1 0.784512 0.711833 0.184136
O O2 0.047313 0.791741 0.055164
O O3 0.333710 0.096546 0.448975
O O4 0.000000 0.000000 0.000000
O O5 0.981345 0.396927 0.646515
O O6 0.739097 0.113576 0.307682
O O7 0.567462 0.193012 0.063070
O O8 0.037835 0.425692 0.173322
O O9 0.982723 0.093663 0.348677
O O10 0.500000 0.500000 0.500000
O O11 0.457299 0.629663 0.162858
#
# Coordination Sequence:
#
# PCOD9079956 Si02
#       5
#     2   2   2   2   2
#     4   9  20  35  58  87 121 153 193 239 297 355
#     4  10  20  35  56  92 114 150 193 255 283 348
#     4   8  19  34  56  87 115 151 193 242 293 343
#     4  10  18  38  58  91 113 152 203 244 287 341
#     4  11  20  37  62  88 115 149 202 247 292 333
#
# _framework density 30.210725
#
# number of rings (size 3 to 8) (size 9 to 14) (size 15 to 20)
#    1.200    1.200    2.000    0.600    0.000    7.200 
#    0.000    9.000    0.000    2.400    0.000    1.400 
#    0.000    0.000    0.000    0.000    0.000    0.000 
#
# Total GULP energy -55749.525434 kJ/mol
# GULP energy per Si atom -5574.952543 kJ/mol
# Density = 3.014196 g / cm^3
# Si number density = 30.210725 Si / 1000 Ang^3
#
#
#
# Elastic Constant Matrix: (Units=GPa)
#
#
# Indices 1 2 3 4 5 6 
#
# 1 183.8180 66.0537 115.8744 2.9905 13.2734 4.3769
# 2 66.0537 119.1928 96.0452 31.3750 13.3861 6.7667
# 3 115.8744 96.0452 255.6851 19.4676 73.9508 -9.2880
# 4 2.9905 31.3750 19.4676 78.2146 -15.4626 5.9150
# 5 13.2734 13.3861 73.9508 -15.4626 87.1034 4.2808
# 6 4.3769 6.7667 -9.2880 5.9150 4.2808 51.9082
#
#
#
# Elastic Compliance Matrix: (Units=1/GPa)
#
#
# Indices 1 2 3 4 5 6 
#
# 1 0.008712 -0.002299 -0.004235 0.002392 0.003130 -0.001723
# 2 -0.002299 0.014341 -0.004494 -0.004122 0.001334 -0.002120
# 3 -0.004235 -0.004494 0.010101 -0.002377 -0.007842 0.003668
# 4 0.002392 -0.004122 -0.002377 0.016160 0.005272 -0.002366
# 5 0.003130 0.001334 -0.007842 0.005272 0.018587 -0.003975
# 6 -0.001723 -0.002120 0.003668 -0.002366 -0.003975 0.020940
#
#
# Mechanical properties :
#
#
# Convention : Reuss Voigt Hill
#
# Bulk Modulus (GPa) = 90.11103 123.84916 106.98010
# Shear Modulus (GPa) = 43.63178 62.16008 52.89593
#
# Velocity S-wave (km/s) = 3.80445 4.54094 4.18891
# Velocity P-wave (km/s) = 7.01361 8.28116 7.67360
#
# Compressibility (1/GPa) = 0.01109742
#
# Stress axis : x y z
#
# Youngs Moduli (GPa) = 114.78691 69.73138 99.00471
#
# Poissons Ratio (x) = 0.16032 0.41925
# Poissons Ratio (y) = 0.26390 0.44494
# Poissons Ratio (z) = 0.48608 0.31338
#
# Static dielectric constant tensor:
#      x y z
#    x 1.532520 -0.184660 0.460180 
#    y -0.184660 2.699630 -0.003650 
#    z 0.460180 -0.003650 2.349200 
# 
# From -- ./inp_files/75905.got.cif
#   From: 2010.05.17/outbox.cif.g08.bks.cpg/sg2_38_cif.got.tgz:75905.got - 2010.06.03 11:33:40.
