data_PCOD9079766
_publ_section_title
;
Structure prediction by ZEFSAII (Michael W. Deem and Ramdas Pophale) SiO2 
 PCOD9079766
Probable space group: P -1
;
_chemical_formula_sum "Si O2"
_cell_formula_units_Z 16
_cell_length_a 11.618951
_cell_length_b 22.636079
_cell_length_c 8.024743
_cell_angle_alpha 131.718452
_cell_angle_beta 124.918873
_cell_angle_gamma 30.747704
_cell_volume 805.424988
_symmetry_space_group_name_H-M "P -1"
_symmetry_group_IT_number 2
_symmetry_cell_setting 'triclinic'
loop_
_space_group_symop_operation_xyz
x,y,z
-x,-y,-z
loop_
_atom_site_type_symbol
_atom_site_label
_atom_site_fract_x
_atom_site_fract_y
_atom_site_fract_z
Si Si1 0.303473 0.015060 0.245872
Si Si2 0.820601 0.414773 0.605906
Si Si3 0.561913 0.580279 0.024840
Si Si4 0.842758 0.072484 0.242159
Si Si5 0.429281 0.464151 0.702805
Si Si6 0.334168 0.844452 0.376351
Si Si7 0.160311 0.760626 0.565066
Si Si8 0.655901 0.829081 0.461949
O O1 0.347079 0.078255 0.306609
O O2 0.110123 0.121641 0.423251
O O3 0.524562 0.889879 0.290912
O O4 0.208797 0.987917 0.000377
O O5 0.689798 0.507058 0.512996
O O6 0.773152 0.340057 0.442957
O O7 0.085598 0.308825 0.604172
O O8 0.730148 0.492370 0.847001
O O9 0.668921 0.533397 0.210743
O O10 0.422329 0.721171 0.154651
O O11 0.411846 0.566784 0.889118
O O12 0.710882 0.139029 0.432093
O O13 0.786436 0.169395 0.250825
O O14 0.102473 0.964452 0.312091
O O15 0.696127 0.327386 0.643996
O O16 0.517210 0.830468 0.462710
#
# Coordination Sequence:
#
# PCOD9079766 Si02
#       8
#     2   2   2   2   2   2   2   2
#     4  10  22  39  64  89 125 168 205 257 319 377
#     4  10  23  39  64  92 128 175 205 252 321 381
#     4  10  21  39  63  94 127 163 212 270 304 370
#     4  11  23  38  64  98 120 163 210 267 317 365
#     4  10  21  38  64  98 124 163 213 262 319 365
#     4  11  24  40  61  95 130 157 212 266 316 374
#     4  10  18  37  64  95 118 154 215 261 308 371
#     4  10  23  42  59  91 129 166 209 249 318 394
#
# _framework density 19.865290000000002
#
# number of rings (size 3 to 8) (size 9 to 14) (size 15 to 20)
#    0.000    1.750    2.500    1.875    5.250    1.000 
#    2.250    0.625    0.000    0.000    0.000    0.000 
#    0.000    0.000    0.000    0.000    0.000    0.000 
#
# Total GULP energy -89184.039964 kJ/mol
# GULP energy per Si atom -5574.002498 kJ/mol
# Density = 1.982008 g / cm^3
# Si number density = 19.865290 Si / 1000 Ang^3
#
#
#
# Elastic Constant Matrix: (Units=GPa)
#
#
# Indices 1 2 3 4 5 6 
#
# 1 110.3506 40.4403 52.8503 15.7181 1.6766 1.1150
# 2 40.4403 72.3599 40.3450 10.4382 -16.7494 -6.1069
# 3 52.8503 40.3450 85.8239 7.9101 -2.1639 -2.4550
# 4 15.7181 10.4382 7.9101 25.3692 10.1709 1.2980
# 5 1.6766 -16.7494 -2.1639 10.1709 27.6677 0.5110
# 6 1.1150 -6.1069 -2.4550 1.2980 0.5110 27.4604
#
#
#
# Elastic Compliance Matrix: (Units=1/GPa)
#
#
# Indices 1 2 3 4 5 6 
#
# 1 0.014516 -0.004803 -0.006466 -0.003744 -0.002880 -0.002005
# 2 -0.004803 0.029658 -0.008718 -0.016218 0.023408 0.006342
# 3 -0.006466 -0.008718 0.019297 0.003438 -0.004640 -0.000027
# 4 -0.003744 -0.016218 0.003438 0.060182 -0.031346 -0.005409
# 5 -0.002880 0.023408 -0.004640 -0.031346 0.061552 0.005244
# 6 -0.002005 0.006342 -0.000027 -0.005409 0.005244 0.038064
#
#
# Mechanical properties :
#
#
# Convention : Reuss Voigt Hill
#
# Bulk Modulus (GPa) = 42.55806 59.53395 51.04601
# Shear Modulus (GPa) = 18.44502 25.09272 21.76887
#
# Velocity S-wave (km/s) = 3.05044 3.55793 3.31392
# Velocity P-wave (km/s) = 5.82038 6.84926 6.35567
#
# Compressibility (1/GPa) = 0.02349731
#
# Stress axis : x y z
#
# Youngs Moduli (GPa) = 68.88732 33.71767 51.82129
#
# Poissons Ratio (x) = 0.16196 0.33508
# Poissons Ratio (y) = 0.33089 0.45177
# Poissons Ratio (z) = 0.44543 0.29394
#
# Static dielectric constant tensor:
#      x y z
#    x 1.712640 0.024650 -0.003660 
#    y 0.024650 1.715350 -0.001930 
#    z -0.003660 -0.001930 1.716840 
# 
# From -- ./inp_files/284965.got.cif
#   From: 2010.05.17/outbox.cif.g08.bks.cpg/sg2_143_cif.got.tgz:284965.got - 2010.06.03 11:33:40.
