data_PCOD9079555
_publ_section_title
;
Structure prediction by ZEFSAII (Michael W. Deem and Ramdas Pophale) SiO2 
 PCOD9079555
Probable space group: P -1
;
_chemical_formula_sum "Si O2"
_cell_formula_units_Z 14
_cell_length_a 8.786631
_cell_length_b 21.079836
_cell_length_c 9.270353
_cell_angle_alpha 150.346644
_cell_angle_beta 110.453359
_cell_angle_gamma 60.390632
_cell_volume 725.719519
_symmetry_space_group_name_H-M "P -1"
_symmetry_group_IT_number 2
_symmetry_cell_setting 'triclinic'
loop_
_space_group_symop_operation_xyz
x,y,z
-x,-y,-z
loop_
_atom_site_type_symbol
_atom_site_label
_atom_site_fract_x
_atom_site_fract_y
_atom_site_fract_z
Si Si1 0.169626 0.432321 0.317163
Si Si2 0.866504 0.277776 0.111894
Si Si3 0.697590 0.062894 0.661091
Si Si4 0.171049 0.877939 0.740530
Si Si5 0.999639 0.757855 0.230203
Si Si6 0.737433 0.949875 0.136800
Si Si7 0.513528 0.807110 0.890745
O O1 0.194430 0.567996 0.536049
O O2 0.335562 0.335235 0.278120
O O3 0.000000 0.500000 0.500000
O O4 0.113613 0.337411 0.000424
O O5 0.749081 0.195284 0.951596
O O6 0.874498 0.286490 0.957176
O O7 0.068852 0.176656 0.022218
O O8 0.861294 0.919072 0.477152
O O9 0.677671 0.043133 0.446239
O O10 0.544564 0.095376 0.792599
O O11 0.335617 0.806716 0.762535
O O12 0.108041 0.767019 0.423991
O O13 0.238747 0.957007 0.798499
O O14 0.000000 0.000000 0.000000
O O15 0.601724 0.874984 0.937860
#
# Coordination Sequence:
#
# PCOD9079555 Si02
#       7
#     2   2   2   2   2   2   2
#     4  10  21  38  61  87 119 161 205 246 287 357
#     4  10  18  37  64  85 116 160 206 240 292 348
#     4  11  19  35  65  91 116 151 214 247 288 350
#     4  12  23  38  59  94 129 153 190 254 315 352
#     4  10  18  37  61  87 115 160 195 246 296 349
#     4  11  20  37  62  90 118 158 202 252 295 350
#     4  12  23  35  60  95 122 154 199 251 304 349
#
# _framework density 19.291198999999999
#
# number of rings (size 3 to 8) (size 9 to 14) (size 15 to 20)
#    0.000    1.143    8.571    1.714    0.000    0.571 
#    0.000    2.857    0.000    3.429    0.000    0.000 
#    0.000    0.000    0.000    0.000    0.000    0.000 
#
# Total GULP energy -78060.595103 kJ/mol
# GULP energy per Si atom -5575.756793 kJ/mol
# Density = 1.924729 g / cm^3
# Si number density = 19.291199 Si / 1000 Ang^3
#
#
#
# Elastic Constant Matrix: (Units=GPa)
#
#
# Indices 1 2 3 4 5 6 
#
# 1 72.2847 34.1035 34.8551 5.5388 0.8679 0.2650
# 2 34.1035 76.5980 59.5396 -6.3486 -1.1984 -21.4392
# 3 34.8551 59.5396 111.7200 4.8656 30.9805 -4.7392
# 4 5.5388 -6.3486 4.8656 23.7169 9.5483 6.9028
# 5 0.8679 -1.1984 30.9805 9.5483 32.5158 -2.1250
# 6 0.2650 -21.4392 -4.7392 6.9028 -2.1250 37.6850
#
#
#
# Elastic Compliance Matrix: (Units=1/GPa)
#
#
# Indices 1 2 3 4 5 6 
#
# 1 0.019370 -0.008476 -0.002219 -0.006367 0.002899 -0.003907
# 2 -0.008476 0.050126 -0.032602 0.000432 0.034732 0.026356
# 3 -0.002219 -0.032602 0.036836 0.004769 -0.038747 -0.016958
# 4 -0.006367 0.000432 0.004769 0.054192 -0.020940 -0.010217
# 5 0.002899 0.034732 -0.038747 -0.020940 0.076528 0.023017
# 6 -0.003907 0.026356 -0.016958 -0.010217 0.023017 0.042594
#
#
# Mechanical properties :
#
#
# Convention : Reuss Voigt Hill
#
# Bulk Modulus (GPa) = 50.65887 57.51101 54.08494
# Shear Modulus (GPa) = 13.41139 27.59051 20.50095
#
# Velocity S-wave (km/s) = 2.63954 3.78592 3.26346
# Velocity P-wave (km/s) = 5.96713 6.99912 6.50363
#
# Compressibility (1/GPa) = 0.01973988
#
# Stress axis : x y z
#
# Youngs Moduli (GPa) = 51.62594 19.94965 27.14769
#
# Poissons Ratio (x) = 0.16909 0.06023
# Poissons Ratio (y) = 0.43756 0.88506
# Poissons Ratio (z) = 0.11453 0.65039
#
# Static dielectric constant tensor:
#      x y z
#    x 1.727220 -0.010180 0.058640 
#    y -0.010180 1.668720 -0.017210 
#    z 0.058640 -0.017210 1.722880 
# 
# From -- ./inp_files/159909.got.cif
#   From: 2010.05.17/outbox.cif.g08.bks.cpg/sg2_80_cif.got.tgz:159909.got - 2010.06.03 11:33:40.
