data_PCOD9079528
_publ_section_title
;
Structure prediction by ZEFSAII (Michael W. Deem and Ramdas Pophale) SiO2 
 PCOD9079528
Probable space group: P -1
;
_chemical_formula_sum "Si O2"
_cell_formula_units_Z 16
_cell_length_a 9.424921
_cell_length_b 9.204748
_cell_length_c 12.866114
_cell_angle_alpha 138.452741
_cell_angle_beta 78.332639
_cell_angle_gamma 112.884369
_cell_volume 674.787903
_symmetry_space_group_name_H-M "P -1"
_symmetry_group_IT_number 2
_symmetry_cell_setting 'triclinic'
loop_
_space_group_symop_operation_xyz
x,y,z
-x,-y,-z
loop_
_atom_site_type_symbol
_atom_site_label
_atom_site_fract_x
_atom_site_fract_y
_atom_site_fract_z
Si Si1 0.664236 0.834426 0.799660
Si Si2 0.669063 0.130653 0.157243
Si Si3 0.033238 0.453482 0.588829
Si Si4 0.817798 0.980683 0.393180
Si Si5 0.272154 0.032618 0.371707
Si Si6 0.341138 0.275328 0.908144
Si Si7 0.390738 0.700998 0.442760
Si Si8 0.218812 0.549051 0.206759
O O1 0.483050 0.808935 0.811473
O O2 0.739058 0.921838 0.723506
O O3 0.672954 0.574875 0.666593
O O4 0.721104 0.012548 0.985562
O O5 0.798883 0.369567 0.307922
O O6 0.629452 0.938250 0.152607
O O7 0.916808 0.502368 0.715947
O O8 0.000000 0.500000 0.500000
O O9 0.989651 0.172073 0.451950
O O10 0.798165 0.910330 0.478504
O O11 0.747955 0.769584 0.212262
O O12 0.714176 0.137520 0.457200
O O13 0.454267 0.169188 0.447949
O O14 0.213371 0.750467 0.239354
O O15 0.500000 0.500000 0.000000
O O16 0.218867 0.323961 0.028778
O O17 0.390347 0.667632 0.299866
#
# Coordination Sequence:
#
# PCOD9079528 Si02
#       8
#     2   2   2   2   2   2   2   2
#     4  11  23  38  61  95 133 170 206 261 328 389
#     4  11  24  40  60  98 130 169 210 266 324 375
#     4  10  21  43  65  91 127 167 217 273 307 373
#     4  10  22  38  66  94 124 162 215 272 311 365
#     4  10  20  37  59  92 127 162 205 260 320 376
#     4  12  21  38  64  99 132 156 211 273 316 372
#     4  10  18  37  60  96 120 161 212 262 317 374
#     4  10  22  38  66  94 121 171 216 261 322 364
#
# _framework density 23.711155000000002
#
# number of rings (size 3 to 8) (size 9 to 14) (size 15 to 20)
#    0.000    1.750    2.500    4.875    1.750    0.500 
#    0.000    2.500    0.000    3.000    0.000    0.000 
#    0.000    0.000    0.000    0.000    0.000    0.000 
#
# Total GULP energy -89191.434135 kJ/mol
# GULP energy per Si atom -5574.464633 kJ/mol
# Density = 2.365719 g / cm^3
# Si number density = 23.711155 Si / 1000 Ang^3
#
#
#
# Elastic Constant Matrix: (Units=GPa)
#
#
# Indices 1 2 3 4 5 6 
#
# 1 49.8702 24.3902 37.9208 -1.7268 5.6534 5.1981
# 2 24.3902 132.8245 40.3667 -18.2425 11.7149 1.3811
# 3 37.9208 40.3667 118.0631 -21.6120 19.4947 11.0823
# 4 -1.7268 -18.2425 -21.6120 34.6146 7.4997 7.1478
# 5 5.6534 11.7149 19.4947 7.4997 38.7147 2.5874
# 6 5.1981 1.3811 11.0823 7.1478 2.5874 29.1245
#
#
#
# Elastic Compliance Matrix: (Units=1/GPa)
#
#
# Indices 1 2 3 4 5 6 
#
# 1 0.028680 -0.003565 -0.009937 -0.007445 0.003312 0.000364
# 2 -0.003565 0.009330 -0.000550 0.005167 -0.002987 -0.000600
# 3 -0.009937 -0.000550 0.016177 0.012537 -0.008511 -0.006677
# 4 -0.007445 0.005167 0.012537 0.045009 -0.014611 -0.013435
# 5 0.003312 -0.002987 -0.008511 -0.014611 0.033137 0.003431
# 6 0.000364 -0.000600 -0.006677 -0.013435 0.003431 0.039832
#
#
# Mechanical properties :
#
#
# Convention : Reuss Voigt Hill
#
# Bulk Modulus (GPa) = 38.33823 56.23479 47.28651
# Shear Modulus (GPa) = 23.92782 33.69609 28.81196
#
# Velocity S-wave (km/s) = 3.18014 3.77385 3.48964
# Velocity P-wave (km/s) = 5.44870 6.53891 6.01854
#
# Compressibility (1/GPa) = 0.02608362
#
# Stress axis : x y z
#
# Youngs Moduli (GPa) = 34.86710 107.18497 61.81727
#
# Poissons Ratio (x) = 0.38212 0.61428
# Poissons Ratio (y) = 0.12430 0.03397
# Poissons Ratio (z) = 0.34647 0.05890
#
# Static dielectric constant tensor:
#      x y z
#    x 2.016090 0.035550 -0.016480 
#    y 0.035550 1.916000 0.018720 
#    z -0.016480 0.018720 2.032690 
# 
# From -- ./inp_files/420005.got.cif
#   From: 2010.05.17/outbox.cif.g08.bks.cpg/sg2_211_cif.got.tgz:420005.got - 2010.06.03 11:33:40.
