data_PCOD9079211
_publ_section_title
;
Structure prediction by ZEFSAII (Michael W. Deem and Ramdas Pophale) SiO2 
 PCOD9079211
Probable space group: P -1
;
_chemical_formula_sum "Si O2"
_cell_formula_units_Z 16
_cell_length_a 18.577843
_cell_length_b 11.963883
_cell_length_c 8.820028
_cell_angle_alpha 55.370864
_cell_angle_beta 80.131978
_cell_angle_gamma 128.072987
_cell_volume 752.433081
_symmetry_space_group_name_H-M "P -1"
_symmetry_group_IT_number 2
_symmetry_cell_setting 'triclinic'
loop_
_space_group_symop_operation_xyz
x,y,z
-x,-y,-z
loop_
_atom_site_type_symbol
_atom_site_label
_atom_site_fract_x
_atom_site_fract_y
_atom_site_fract_z
Si Si1 0.161224 0.242916 0.837817
Si Si2 0.363893 0.124479 0.603595
Si Si3 0.154569 0.224601 0.360481
Si Si4 0.672217 0.242675 0.450016
Si Si5 0.296462 0.303640 0.487504
Si Si6 0.632338 0.872354 0.769560
Si Si7 0.678713 0.244463 0.081356
Si Si8 0.713882 0.724228 0.989220
O O1 0.220364 0.473709 0.723815
O O2 0.285021 0.394463 0.553153
O O3 0.160288 0.120064 0.056786
O O4 0.000000 0.000000 0.000000
O O5 0.283844 0.129818 0.685006
O O6 0.365124 0.133851 0.410379
O O7 0.294642 0.868804 0.879754
O O8 0.543887 0.426642 0.349662
O O9 0.157416 0.111618 0.571136
O O10 0.274297 0.364033 0.084778
O O11 0.211305 0.454718 0.242749
O O12 0.000000 0.000000 0.500000
O O13 0.696246 0.280186 0.230739
O O14 0.691684 0.120246 0.594091
O O15 0.494021 0.997652 0.717873
O O16 0.458206 0.577720 0.126628
O O17 0.721658 0.889391 0.794249
#
# Coordination Sequence:
#
# PCOD9079211 Si02
#       8
#     2   2   2   2   2   2   2   2
#     4  12  26  41  56  86 130 167 193 231 301 376
#     4  10  18  36  66  94 115 143 204 262 297 332
#     4  12  21  36  60  90 120 157 202 239 292 358
#     4  10  19  38  61  90 116 154 200 247 297 342
#     4  11  22  37  58  91 122 156 196 246 298 353
#     4  10  19  36  66  92 115 142 206 267 290 331
#     4  10  18  36  64  90 113 150 203 254 292 338
#     4  11  19  39  61  85 117 162 198 241 299 348
#
# _framework density 21.264351000000001
#
# number of rings (size 3 to 8) (size 9 to 14) (size 15 to 20)
#    0.000    1.250    6.250    2.250    0.000    2.500 
#    0.000    2.500    0.000    0.000    0.000    0.000 
#    0.000    0.000    0.000    0.000    0.000    0.000 
#
# Total GULP energy -89335.902497 kJ/mol
# GULP energy per Si atom -5583.493906 kJ/mol
# Density = 2.121595 g / cm^3
# Si number density = 21.264351 Si / 1000 Ang^3
#
#
#
# Elastic Constant Matrix: (Units=GPa)
#
#
# Indices 1 2 3 4 5 6 
#
# 1 189.6734 57.3761 32.9716 -26.9323 27.2403 -1.2888
# 2 57.3761 81.3662 12.2304 -24.9339 1.8804 10.2437
# 3 32.9716 12.2304 25.1589 -9.4800 1.0509 -5.1903
# 4 -26.9323 -24.9339 -9.4800 26.5759 -1.3128 1.0760
# 5 27.2403 1.8804 1.0509 -1.3128 20.4914 -4.8009
# 6 -1.2888 10.2437 -5.1903 1.0760 -4.8009 39.7055
#
#
#
# Elastic Compliance Matrix: (Units=1/GPa)
#
#
# Indices 1 2 3 4 5 6 
#
# 1 0.010888 -0.004960 -0.010886 0.001882 -0.013691 -0.001496
# 2 -0.004960 0.020938 0.000818 0.015341 0.004361 -0.005344
# 3 -0.010886 0.000818 0.058983 0.011125 0.014087 0.008548
# 4 0.001882 0.015341 0.011125 0.057981 -0.001755 -0.004226
# 5 -0.013691 0.004361 0.014087 -0.001755 0.067760 0.008512
# 6 -0.001496 -0.005344 0.008548 -0.004226 0.008512 0.028777
#
#
# Mechanical properties :
#
#
# Convention : Reuss Voigt Hill
#
# Bulk Modulus (GPa) = 16.46009 55.70607 36.08308
# Shear Modulus (GPa) = 16.91272 30.26259 23.58766
#
# Velocity S-wave (km/s) = 2.82326 3.77657 3.33417
# Velocity P-wave (km/s) = 4.28780 6.72833 5.64162
#
# Compressibility (1/GPa) = 0.06075302
#
# Stress axis : x y z
#
# Youngs Moduli (GPa) = 91.84170 47.75966 16.95400
#
# Poissons Ratio (x) = 0.23690 0.18456
# Poissons Ratio (y) = 0.45556 -0.01387
# Poissons Ratio (z) = 0.99978 -0.03906
#
# Static dielectric constant tensor:
#      x y z
#    x 1.799840 0.000660 0.016630 
#    y 0.000660 1.774340 0.042070 
#    z 0.016630 0.042070 1.816530 
# 
# From -- ./inp_files/321059.got.cif
#   From: 2010.05.17/outbox.cif.g08.bks.cpg/sg2_161_cif.got.tgz:321059.got - 2010.06.03 11:33:40.
