data_PCOD9079779
_publ_section_title
;
Structure prediction by ZEFSAII (Michael W. Deem and Ramdas Pophale) SiO2 
 PCOD9079779
Probable space group: P -1
;
_chemical_formula_sum "Si O2"
_cell_formula_units_Z 16
_cell_length_a 17.946036
_cell_length_b 8.918897
_cell_length_c 17.326496
_cell_angle_alpha 139.370701
_cell_angle_beta 149.389478
_cell_angle_gamma 30.066451
_cell_volume 706.408300
_symmetry_space_group_name_H-M "P -1"
_symmetry_group_IT_number 2
_symmetry_cell_setting 'triclinic'
loop_
_space_group_symop_operation_xyz
x,y,z
-x,-y,-z
loop_
_atom_site_type_symbol
_atom_site_label
_atom_site_fract_x
_atom_site_fract_y
_atom_site_fract_z
Si Si1 0.049385 0.767244 0.779311
Si Si2 0.069186 0.891306 0.414609
Si Si3 0.620425 0.123569 0.223674
Si Si4 0.720599 0.297299 0.627125
Si Si5 0.045238 0.656178 0.043414
Si Si6 0.449261 0.203704 0.853574
Si Si7 0.378266 0.578097 0.800803
Si Si8 0.075308 0.439547 0.814285
O O1 0.227807 0.478636 0.783672
O O2 0.009661 0.698355 0.798895
O O3 0.853266 0.943694 0.625864
O O4 0.095011 0.989124 0.924611
O O5 0.173963 0.722149 0.362465
O O6 0.045244 0.670033 0.347333
O O7 0.207376 0.922535 0.595214
O O8 0.852836 0.199753 0.328809
O O9 0.521886 0.068765 0.181729
O O10 0.714592 0.845409 0.139102
O O11 0.541033 0.402816 0.202587
O O12 0.500000 0.500000 0.500000
O O13 0.762937 0.418487 0.784046
O O14 0.059913 0.548164 0.928871
O O15 0.000000 0.500000 0.000000
O O16 0.457517 0.268174 0.794615
O O17 0.577980 0.260554 0.036060
#
# Coordination Sequence:
#
# PCOD9079779 Si02
#       8
#     2   2   2   2   2   2   2   2
#     4   9  20  37  61  87 120 149 200 253 297 348
#     4  11  21  42  61  84 127 162 194 242 303 363
#     4  10  23  38  61  91 129 163 193 247 307 357
#     4  10  22  42  60  85 117 157 202 241 297 361
#     4  10  19  37  67  82 114 159 199 251 294 350
#     4  10  20  38  61  90 124 156 202 251 293 363
#     4  10  19  37  61  89 122 158 203 241 297 359
#     4  10  18  37  65  88 114 158 201 242 306 347
#
# _framework density 22.649788999999998
#
# number of rings (size 3 to 8) (size 9 to 14) (size 15 to 20)
#    0.750    1.250    2.500    2.250    1.750    0.500 
#   11.250    0.625    0.000    0.000    0.000    0.000 
#    0.000    0.000    0.000    0.000    0.000    0.000 
#
# Total GULP energy -89121.284106 kJ/mol
# GULP energy per Si atom -5570.080257 kJ/mol
# Density = 2.259824 g / cm^3
# Si number density = 22.649789 Si / 1000 Ang^3
#
#
#
# Elastic Constant Matrix: (Units=GPa)
#
#
# Indices 1 2 3 4 5 6 
#
# 1 103.1516 44.9776 -10.4027 -2.1351 1.7923 38.2575
# 2 44.9776 47.2017 1.4646 -6.6885 2.5052 17.2444
# 3 -10.4027 1.4646 79.2990 -15.5678 2.8337 11.7258
# 4 -2.1351 -6.6885 -15.5678 25.2885 -0.3534 1.9918
# 5 1.7923 2.5052 2.8337 -0.3534 19.8361 2.1736
# 6 38.2575 17.2444 11.7258 1.9918 2.1736 56.2251
#
#
#
# Elastic Compliance Matrix: (Units=1/GPa)
#
#
# Indices 1 2 3 4 5 6 
#
# 1 0.021264 -0.016420 0.004880 0.001294 0.000631 -0.010521
# 2 -0.016420 0.038369 -0.001087 0.008093 -0.003004 -0.000539
# 3 0.004880 -0.001087 0.016438 0.010750 -0.001723 -0.006729
# 4 0.001294 0.008093 0.010750 0.048972 -0.001002 -0.007301
# 5 0.000631 -0.003004 -0.001723 -0.001002 0.051083 -0.001088
# 6 -0.010521 -0.000539 -0.006729 -0.007301 -0.001088 0.026814
#
#
# Mechanical properties :
#
#
# Convention : Reuss Voigt Hill
#
# Bulk Modulus (GPa) = 19.67856 33.52567 26.60211
# Shear Modulus (GPa) = 20.39712 33.17747 26.78729
#
# Velocity S-wave (km/s) = 3.00416 3.83143 3.44273
# Velocity P-wave (km/s) = 4.55416 5.86575 5.25106
#
# Compressibility (1/GPa) = 0.05081674
#
# Stress axis : x y z
#
# Youngs Moduli (GPa) = 47.02752 26.06274 60.83561
#
# Poissons Ratio (x) = 0.42795 -0.29687
# Poissons Ratio (y) = 0.77220 0.06612
# Poissons Ratio (z) = -0.22949 0.02833
#
# Static dielectric constant tensor:
#      x y z
#    x 1.889520 0.039100 -0.011760 
#    y 0.039100 1.895930 -0.024490 
#    z -0.011760 -0.024490 1.846030 
# 
# From -- ./inp_files/575320.got.cif
#   From: 2010.05.17/outbox.cif.g08.bks.cpg/sg2_288_cif.got.tgz:575320.got - 2010.06.03 11:33:40.
