data_PCOD9079810
_publ_section_title
;
Structure prediction by ZEFSAII (Michael W. Deem and Ramdas Pophale) SiO2 
 PCOD9079810
Probable space group: P -1
;
_chemical_formula_sum "Si O2"
_cell_formula_units_Z 16
_cell_length_a 13.007082
_cell_length_b 9.941343
_cell_length_c 11.633534
_cell_angle_alpha 124.014831
_cell_angle_beta 37.917431
_cell_angle_gamma 131.570873
_cell_volume 689.486348
_symmetry_space_group_name_H-M "P -1"
_symmetry_group_IT_number 2
_symmetry_cell_setting 'triclinic'
loop_
_space_group_symop_operation_xyz
x,y,z
-x,-y,-z
loop_
_atom_site_type_symbol
_atom_site_label
_atom_site_fract_x
_atom_site_fract_y
_atom_site_fract_z
Si Si1 0.317522 0.029685 0.644774
Si Si2 0.960158 0.007722 0.296250
Si Si3 0.508287 0.409907 0.729853
Si Si4 0.889769 0.598073 0.583808
Si Si5 0.944321 0.229878 0.079951
Si Si6 0.972601 0.243267 0.717482
Si Si7 0.301298 0.589389 0.680448
Si Si8 0.306282 0.610564 0.939693
O O1 0.321076 0.548770 0.317131
O O2 0.138710 0.860913 0.769935
O O3 0.254862 0.039750 0.572872
O O4 0.346604 0.207705 0.777194
O O5 0.081907 0.221178 0.289788
O O6 0.999313 0.927440 0.342749
O O7 0.015675 0.904065 0.099877
O O8 0.582780 0.406923 0.532324
O O9 0.447274 0.570657 0.875615
O O10 0.500000 0.000000 0.500000
O O11 0.964430 0.678530 0.428663
O O12 0.000000 0.500000 0.500000
O O13 0.776594 0.263278 0.191622
O O14 0.119463 0.422633 0.026342
O O15 0.118229 0.398931 0.746579
O O16 0.768090 0.238350 0.907176
O O17 0.386405 0.617451 0.744333
#
# Coordination Sequence:
#
# PCOD9079810 Si02
#       8
#     2   2   2   2   2   2   2   2
#     4  12  24  40  65 101 134 167 224 275 323 381
#     4  12  23  43  69  97 129 177 224 265 330 396
#     4  11  23  40  64  98 132 172 217 271 329 386
#     4  11  27  46  65  89 136 182 216 267 339 401
#     4  11  21  37  66 100 131 171 211 272 325 390
#     4  10  21  41  67  94 130 176 221 265 327 405
#     4  10  18  37  65  98 137 161 213 269 337 378
#     4  11  20  38  69 100 130 165 219 276 334 381
#
# _framework density 23.205680000000001
#
# number of rings (size 3 to 8) (size 9 to 14) (size 15 to 20)
#    0.000    1.000    5.000    2.625    3.500    1.000 
#    0.000    4.375    0.000    0.000    0.000    0.000 
#    0.000    0.000    0.000    0.000    0.000    0.000 
#
# Total GULP energy -89287.777530 kJ/mol
# GULP energy per Si atom -5580.486096 kJ/mol
# Density = 2.315286 g / cm^3
# Si number density = 23.205680 Si / 1000 Ang^3
#
#
#
# Elastic Constant Matrix: (Units=GPa)
#
#
# Indices 1 2 3 4 5 6 
#
# 1 113.9376 30.8556 13.3643 8.6176 -9.3919 -28.2613
# 2 30.8556 93.5161 1.8968 9.5504 -1.3181 -18.7347
# 3 13.3643 1.8968 43.3934 3.5162 -1.4328 -9.8552
# 4 8.6176 9.5504 3.5162 35.1614 -8.5234 -6.5242
# 5 -9.3919 -1.3181 -1.4328 -8.5234 17.7959 12.0300
# 6 -28.2613 -18.7347 -9.8552 -6.5242 12.0300 39.1585
#
#
#
# Elastic Compliance Matrix: (Units=1/GPa)
#
#
# Indices 1 2 3 4 5 6 
#
# 1 0.011296 -0.002413 -0.001922 -0.000482 0.001322 0.006028
# 2 -0.002413 0.012947 0.001648 -0.003395 -0.005952 0.006131
# 3 -0.001922 0.001648 0.025133 -0.002342 -0.004541 0.006732
# 4 -0.000482 -0.003395 -0.002342 0.033375 0.016740 -0.002144
# 5 0.001322 -0.005952 -0.004541 0.016740 0.081114 -0.025166
# 6 0.006028 0.006131 0.006732 -0.002144 -0.025166 0.041889
#
#
# Mechanical properties :
#
#
# Convention : Reuss Voigt Hill
#
# Bulk Modulus (GPa) = 22.72520 38.12005 30.42263
# Shear Modulus (GPa) = 22.14387 32.07186 27.10786
#
# Velocity S-wave (km/s) = 3.09243 3.72165 3.42154
# Velocity P-wave (km/s) = 4.75027 5.91019 5.36169
#
# Compressibility (1/GPa) = 0.04400401
#
# Stress axis : x y z
#
# Youngs Moduli (GPa) = 88.52513 77.23771 39.78755
#
# Poissons Ratio (x) = 0.18635 0.07646
# Poissons Ratio (y) = 0.21358 -0.06557
# Poissons Ratio (z) = 0.17012 -0.12729
#
# Static dielectric constant tensor:
#      x y z
#    x 1.918000 -0.068400 -0.001260 
#    y -0.068400 1.930920 -0.015020 
#    z -0.001260 -0.015020 1.918280 
# 
# From -- ./inp_files/448006.got.cif
#   From: 2010.05.17/outbox.cif.g08.bks.cpg/sg2_225_cif.got.tgz:448006.got - 2010.06.03 11:33:40.
