data_PCOD9079685
_publ_section_title
;
Structure prediction by ZEFSAII (Michael W. Deem and Ramdas Pophale) SiO2 
 PCOD9079685
Probable space group: P -1
;
_chemical_formula_sum "Si O2"
_cell_formula_units_Z 14
_cell_length_a 15.650684
_cell_length_b 7.380576
_cell_length_c 8.969491
_cell_angle_alpha 86.720443
_cell_angle_beta 88.339613
_cell_angle_gamma 133.426499
_cell_volume 747.884090
_symmetry_space_group_name_H-M "P -1"
_symmetry_group_IT_number 2
_symmetry_cell_setting 'triclinic'
loop_
_space_group_symop_operation_xyz
x,y,z
-x,-y,-z
loop_
_atom_site_type_symbol
_atom_site_label
_atom_site_fract_x
_atom_site_fract_y
_atom_site_fract_z
Si Si1 0.172030 0.046473 0.665987
Si Si2 0.429115 0.248261 0.610157
Si Si3 0.248841 0.540758 0.726785
Si Si4 0.506611 0.968503 0.176676
Si Si5 0.316002 0.822399 0.414074
Si Si6 0.053430 0.528743 0.838236
Si Si7 0.901418 0.229763 0.598796
O O1 0.185968 0.254094 0.742549
O O2 0.169977 0.575079 0.814121
O O3 0.087534 0.774542 0.757412
O O4 0.128745 0.982576 0.498113
O O5 0.500000 0.500000 0.500000
O O6 0.302159 0.148518 0.653916
O O7 0.474671 0.212974 0.758331
O O8 0.412349 0.062229 0.501556
O O9 0.257704 0.600052 0.546467
O O10 0.380527 0.752305 0.777975
O O11 0.384692 0.846382 0.268921
O O12 0.500000 0.000000 0.000000
O O13 0.216493 0.822958 0.378260
O O14 0.957432 0.281742 0.754092
O O15 0.000000 0.500000 0.000000
O O16 0.000000 0.500000 0.500000
#
# Coordination Sequence:
#
# PCOD9079685 Si02
#       7
#     2   2   2   2   2   2   2
#     4  10  20  38  64  88 117 156 215 260 301 373
#     4  10  18  37  63  88 120 163 209 254 311 372
#     4  11  21  41  63  89 120 166 211 255 313 374
#     4  11  23  37  59  95 132 162 201 265 322 373
#     4  10  19  36  61  85 120 160 208 255 304 372
#     4  11  23  40  61  85 130 164 198 260 321 367
#     4   9  18  38  58  88 112 155 207 252 295 359
#
# _framework density 18.719477999999999
#
# number of rings (size 3 to 8) (size 9 to 14) (size 15 to 20)
#    0.000    1.714    5.714    3.429    2.000    1.143 
#    0.000    7.143    0.000    0.000    0.000    0.000 
#    0.000    0.000    0.000    0.000    0.000    0.000 
#
# Total GULP energy -77951.378119 kJ/mol
# GULP energy per Si atom -5567.955580 kJ/mol
# Density = 1.867687 g / cm^3
# Si number density = 18.719478 Si / 1000 Ang^3
#
#
#
# Elastic Constant Matrix: (Units=GPa)
#
#
# Indices 1 2 3 4 5 6 
#
# 1 61.6253 12.5536 40.2402 2.0974 -13.0627 11.1790
# 2 12.5536 93.5862 24.6017 -0.4326 0.5696 -9.3552
# 3 40.2402 24.6017 112.0086 -9.0774 -17.5037 5.8852
# 4 2.0974 -0.4326 -9.0774 21.2622 -0.5525 -0.2304
# 5 -13.0627 0.5696 -17.5037 -0.5525 29.2800 2.3040
# 6 11.1790 -9.3552 5.8852 -0.2304 2.3040 21.8144
#
#
#
# Elastic Compliance Matrix: (Units=1/GPa)
#
#
# Indices 1 2 3 4 5 6 
#
# 1 0.025889 -0.003054 -0.007060 -0.005560 0.008355 -0.013614
# 2 -0.003054 0.012661 -0.002777 -0.000640 -0.003922 0.008151
# 3 -0.007060 -0.002777 0.013511 0.006526 0.005238 -0.001702
# 4 -0.005560 -0.000640 0.006526 0.050425 0.002298 0.001104
# 5 0.008355 -0.003922 0.005238 0.002298 0.042060 -0.011795
# 6 -0.013614 0.008151 -0.001702 0.001104 -0.011795 0.058030
#
#
# Mechanical properties :
#
#
# Convention : Reuss Voigt Hill
#
# Bulk Modulus (GPa) = 38.05262 46.89011 42.47136
# Shear Modulus (GPa) = 21.08667 27.12630 24.10649
#
# Velocity S-wave (km/s) = 3.35991 3.81083 3.59245
# Velocity P-wave (km/s) = 5.95180 6.66831 6.32022
#
# Compressibility (1/GPa) = 0.02627940
#
# Stress axis : x y z
#
# Youngs Moduli (GPa) = 38.62651 78.98445 74.01427
#
# Poissons Ratio (x) = 0.24124 0.52251
# Poissons Ratio (y) = 0.11798 0.20551
# Poissons Ratio (z) = 0.27269 0.21931
#
# Static dielectric constant tensor:
#      x y z
#    x 1.665310 -0.013220 0.054500 
#    y -0.013220 1.682840 -0.012640 
#    z 0.054500 -0.012640 1.640740 
# 
# From -- ./inp_files/135880.got.cif
#   From: 2010.05.17/outbox.cif.g08.bks.cpg/sg2_68_cif.got.tgz:135880.got - 2010.06.03 11:33:40.
