data_PCOD9079767
_publ_section_title
;
Structure prediction by ZEFSAII (Michael W. Deem and Ramdas Pophale) SiO2 
 PCOD9079767
Probable space group: P -1
;
_chemical_formula_sum "Si O2"
_cell_formula_units_Z 16
_cell_length_a 13.949719
_cell_length_b 10.896682
_cell_length_c 11.389726
_cell_angle_alpha 62.495003
_cell_angle_beta 39.602254
_cell_angle_gamma 43.882543
_cell_volume 747.686719
_symmetry_space_group_name_H-M "P -1"
_symmetry_group_IT_number 2
_symmetry_cell_setting 'triclinic'
loop_
_space_group_symop_operation_xyz
x,y,z
-x,-y,-z
loop_
_atom_site_type_symbol
_atom_site_label
_atom_site_fract_x
_atom_site_fract_y
_atom_site_fract_z
Si Si1 0.790650 0.525050 0.840934
Si Si2 0.991895 0.776364 0.412142
Si Si3 0.487356 0.174080 0.414461
Si Si4 0.086612 0.573589 0.631673
Si Si5 0.858994 0.389508 0.085056
Si Si6 0.127812 0.927577 0.789762
Si Si7 0.426194 0.135978 0.229360
Si Si8 0.204654 0.270726 0.943958
O O1 0.607498 0.733455 0.899651
O O2 0.840102 0.408927 0.731947
O O3 0.975253 0.517033 0.691523
O O4 0.786402 0.434957 0.999750
O O5 0.780985 0.822191 0.578737
O O6 0.059039 0.724223 0.507630
O O7 0.966877 0.929652 0.291009
O O8 0.301800 0.381563 0.533394
O O9 0.671779 0.121900 0.334383
O O10 0.485892 0.180966 0.271293
O O11 0.500000 0.000000 0.500000
O O12 0.954043 0.668979 0.830876
O O13 0.831878 0.251371 0.214843
O O14 0.763995 0.582976 0.146065
O O15 0.092394 0.285778 0.926261
O O16 0.000000 0.000000 0.000000
O O17 0.595947 0.926626 0.136233
#
# Coordination Sequence:
#
# PCOD9079767 Si02
#       8
#     2   2   2   2   2   2   2   2
#     4  10  18  37  64  95 127 159 213 269 317 366
#     4  11  20  38  63  95 133 164 209 272 323 365
#     4  12  23  38  68  99 126 166 223 263 317 378
#     4  10  21  40  62  94 127 170 214 264 314 379
#     4  10  23  41  61  89 131 168 208 262 319 372
#     4  12  24  39  65  99 134 164 212 272 322 372
#     4  11  21  37  65 100 123 171 219 260 314 389
#     4  10  24  41  67  91 129 173 219 257 317 393
#
# _framework density 21.399338
#
# number of rings (size 3 to 8) (size 9 to 14) (size 15 to 20)
#    0.000    1.250    5.000    1.500    7.000    4.500 
#    0.000    6.875    0.000    0.000    0.000    0.000 
#    0.000    0.000    0.000    0.000    0.000    0.000 
#
# Total GULP energy -89248.658029 kJ/mol
# GULP energy per Si atom -5578.041127 kJ/mol
# Density = 2.135063 g / cm^3
# Si number density = 21.399338 Si / 1000 Ang^3
#
#
#
# Elastic Constant Matrix: (Units=GPa)
#
#
# Indices 1 2 3 4 5 6 
#
# 1 54.5785 38.6418 19.5671 -3.3380 1.4635 -2.6646
# 2 38.6418 184.4932 50.8306 1.5661 -2.4092 -21.2347
# 3 19.5671 50.8306 46.9575 -0.0629 18.0000 -5.5976
# 4 -3.3380 1.5661 -0.0629 43.9214 -6.8558 2.2377
# 5 1.4635 -2.4092 18.0000 -6.8558 30.9816 -8.0739
# 6 -2.6646 -21.2347 -5.5976 2.2377 -8.0739 33.6291
#
#
#
# Elastic Compliance Matrix: (Units=1/GPa)
#
#
# Indices 1 2 3 4 5 6 
#
# 1 0.023198 -0.002492 -0.008607 0.002509 0.004180 -0.000332
# 2 -0.002492 0.010715 -0.013969 0.000781 0.011022 0.006838
# 3 -0.008607 -0.013969 0.052120 -0.004997 -0.034345 -0.008740
# 4 0.002509 0.000781 -0.004997 0.024201 0.008262 0.000233
# 5 0.004180 0.011022 -0.034345 0.008262 0.058656 0.015107
# 6 -0.000332 0.006838 -0.008740 0.000233 0.015107 0.036184
#
#
# Mechanical properties :
#
#
# Convention : Reuss Voigt Hill
#
# Bulk Modulus (GPa) = 27.85794 56.01202 41.93498
# Shear Modulus (GPa) = 18.71420 33.50574 26.10997
#
# Velocity S-wave (km/s) = 2.96044 3.96123 3.49682
# Velocity P-wave (km/s) = 4.97313 6.86683 5.99522
#
# Compressibility (1/GPa) = 0.03589641
#
# Stress axis : x y z
#
# Youngs Moduli (GPa) = 43.10785 93.32442 19.18634
#
# Poissons Ratio (x) = 0.23259 0.16513
# Poissons Ratio (y) = 0.10744 0.26802
# Poissons Ratio (z) = 0.37102 1.30368
#
# Static dielectric constant tensor:
#      x y z
#    x 1.799040 -0.024480 0.047840 
#    y -0.024480 1.803180 -0.030950 
#    z 0.047840 -0.030950 1.837220 
# 
# From -- ./inp_files/308310.got.cif
#   From: 2010.05.17/outbox.cif.g08.bks.cpg/sg2_155_cif.got.tgz:308310.got - 2010.06.03 11:33:40.
