data_PCOD9079574
_publ_section_title
;
Structure prediction by ZEFSAII (Michael W. Deem and Ramdas Pophale) SiO2 
 PCOD9079574
Probable space group: P -1
;
_chemical_formula_sum "Si O2"
_cell_formula_units_Z 14
_cell_length_a 14.305237
_cell_length_b 16.116200
_cell_length_c 10.865841
_cell_angle_alpha 53.275814
_cell_angle_beta 30.842004
_cell_angle_gamma 35.585643
_cell_volume 703.866951
_symmetry_space_group_name_H-M "P -1"
_symmetry_group_IT_number 2
_symmetry_cell_setting 'triclinic'
loop_
_space_group_symop_operation_xyz
x,y,z
-x,-y,-z
loop_
_atom_site_type_symbol
_atom_site_label
_atom_site_fract_x
_atom_site_fract_y
_atom_site_fract_z
Si Si1 0.591698 0.002808 0.092677
Si Si2 0.756586 0.283297 0.975594
Si Si3 0.197080 0.577743 0.427888
Si Si4 0.390820 0.781366 0.028504
Si Si5 0.893233 0.883876 0.602770
Si Si6 0.790990 0.851251 0.251078
Si Si7 0.058975 0.518200 0.281161
O O1 0.751009 0.959199 0.826050
O O2 0.506297 0.146787 0.123335
O O3 0.773315 0.876232 0.103292
O O4 0.337664 0.039845 0.305881
O O5 0.827554 0.344818 0.741118
O O6 0.658966 0.229474 0.047314
O O7 0.003839 0.162698 0.891808
O O8 0.508393 0.422527 0.214494
O O9 0.067843 0.706235 0.560251
O O10 0.045587 0.531664 0.640651
O O11 0.105847 0.882307 0.325610
O O12 0.619739 0.610056 0.973307
O O13 0.902217 0.689329 0.288731
O O14 0.500000 0.000000 0.500000
O O15 0.000000 0.500000 0.500000
#
# Coordination Sequence:
#
# PCOD9079574 Si02
#       7
#     2   2   2   2   2   2   2
#     4  11  24  42  62  91 127 160 200 257 306 351
#     4  10  20  34  61  91 122 153 208 248 301 361
#     4  10  18  37  61  91 114 163 208 247 288 366
#     4  11  21  39  68  90 115 165 214 241 297 371
#     4  10  22  42  67  85 120 167 211 244 297 368
#     4  12  24  38  57  94 130 153 195 259 315 356
#     4  12  20  37  64  90 122 163 203 246 306 363
#
# _framework density 19.890122999999999
#
# number of rings (size 3 to 8) (size 9 to 14) (size 15 to 20)
#    0.000    1.143    4.286    4.714    0.000    0.571 
#    2.571    3.571    0.000    0.000    0.000    0.000 
#    0.000    0.000    0.000    0.000    0.000    0.000 
#
# Total GULP energy -78146.278377 kJ/mol
# GULP energy per Si atom -5581.877027 kJ/mol
# Density = 1.984485 g / cm^3
# Si number density = 19.890123 Si / 1000 Ang^3
#
#
#
# Elastic Constant Matrix: (Units=GPa)
#
#
# Indices 1 2 3 4 5 6 
#
# 1 101.5023 42.6541 19.8487 9.3143 -21.2489 -2.2386
# 2 42.6541 90.7510 8.7737 12.7338 -7.0029 -5.7292
# 3 19.8487 8.7737 66.5198 24.0206 -20.7089 -14.8441
# 4 9.3143 12.7338 24.0206 30.9089 -0.0829 -8.2561
# 5 -21.2489 -7.0029 -20.7089 -0.0829 25.2726 4.6712
# 6 -2.2386 -5.7292 -14.8441 -8.2561 4.6712 35.1301
#
#
#
# Elastic Compliance Matrix: (Units=1/GPa)
#
#
# Indices 1 2 3 4 5 6 
#
# 1 0.014890 -0.005842 0.000685 -0.003121 0.011825 -0.002020
# 2 -0.005842 0.014495 0.002535 -0.005752 0.000868 0.001595
# 3 0.000685 0.002535 0.033657 -0.026036 0.027875 0.004853
# 4 -0.003121 -0.005752 -0.026036 0.057101 -0.026247 0.004771
# 5 0.011825 0.000868 0.027875 -0.026247 0.073101 -0.003215
# 6 -0.002020 0.001595 0.004853 0.004771 -0.003215 0.032197
#
#
# Mechanical properties :
#
#
# Convention : Reuss Voigt Hill
#
# Bulk Modulus (GPa) = 17.30166 44.59179 30.94673
# Shear Modulus (GPa) = 20.00379 30.76210 25.38295
#
# Velocity S-wave (km/s) = 3.17474 3.93695 3.57621
# Velocity P-wave (km/s) = 4.70703 6.56764 5.71358
#
# Compressibility (1/GPa) = 0.05779792
#
# Stress axis : x y z
#
# Youngs Moduli (GPa) = 67.15730 68.99037 29.71116
#
# Poissons Ratio (x) = 0.40305 -0.02035
# Poissons Ratio (y) = 0.39234 -0.07531
# Poissons Ratio (z) = -0.04600 -0.17488
#
# Static dielectric constant tensor:
#      x y z
#    x 1.733300 0.026260 -0.034960 
#    y 0.026260 1.711260 0.001240 
#    z -0.034960 0.001240 1.745030 
# 
# From -- ./inp_files/236563.got.cif
#   From: 2010.05.17/outbox.cif.g08.bks.cpg/sg2_119_cif.got.tgz:236563.got - 2010.06.03 11:33:40.
