data_PCOD9079595
_publ_section_title
;
Structure prediction by ZEFSAII (Michael W. Deem and Ramdas Pophale) SiO2 
 PCOD9079595
Probable space group: P -1
;
_chemical_formula_sum "Si O2"
_cell_formula_units_Z 14
_cell_length_a 10.681442
_cell_length_b 9.531875
_cell_length_c 8.350697
_cell_angle_alpha 132.507613
_cell_angle_beta 86.581925
_cell_angle_gamma 84.184098
_cell_volume 613.960832
_symmetry_space_group_name_H-M "P -1"
_symmetry_group_IT_number 2
_symmetry_cell_setting 'triclinic'
loop_
_space_group_symop_operation_xyz
x,y,z
-x,-y,-z
loop_
_atom_site_type_symbol
_atom_site_label
_atom_site_fract_x
_atom_site_fract_y
_atom_site_fract_z
Si Si1 0.655788 0.316739 0.418312
Si Si2 0.924584 0.753403 0.829226
Si Si3 0.391940 0.464230 0.104741
Si Si4 0.384451 0.037557 0.666232
Si Si5 0.193129 0.859199 0.981050
Si Si6 0.072434 0.665200 0.437350
Si Si7 0.809797 0.141720 0.649616
O O1 0.591483 0.495711 0.674122
O O2 0.686756 0.298729 0.213451
O O3 0.805496 0.287965 0.439994
O O4 0.592855 0.139290 0.345304
O O5 0.897912 0.564231 0.772878
O O6 0.054590 0.800154 0.928226
O O7 0.956585 0.700184 0.598616
O O8 0.817849 0.945844 0.974803
O O9 0.278594 0.642632 0.201440
O O10 0.500000 0.500000 0.000000
O O11 0.372880 0.247760 0.906109
O O12 0.500000 0.000000 0.500000
O O13 0.255584 0.007591 0.561539
O O14 0.200340 0.903865 0.200511
O O15 0.060384 0.809048 0.399315
#
# Coordination Sequence:
#
# PCOD9079595 Si02
#       7
#     2   2   2   2   2   2   2
#     4   9  20  33  58  83 111 145 193 222 275 348
#     4   9  18  36  61  73 117 157 185 222 287 336
#     4  10  18  37  62  79 107 152 190 228 277 338
#     4  10  18  37  62  80 106 151 192 225 281 335
#     4  10  21  37  52  89 117 147 182 237 281 332
#     4   8  17  36  55  83 104 154 195 226 269 337
#     4  10  22  36  56  89 118 136 195 237 271 332
#
# _framework density 22.802755999999999
#
# number of rings (size 3 to 8) (size 9 to 14) (size 15 to 20)
#    0.000    2.857    2.857    0.000    4.000    1.143 
#    7.714    1.429    0.000    0.000    0.000    0.000 
#    0.000    0.000    0.000    0.000    0.000    0.000 
#
# Total GULP energy -77975.896842 kJ/mol
# GULP energy per Si atom -5569.706917 kJ/mol
# Density = 2.275086 g / cm^3
# Si number density = 22.802756 Si / 1000 Ang^3
#
#
#
# Elastic Constant Matrix: (Units=GPa)
#
#
# Indices 1 2 3 4 5 6 
#
# 1 27.9500 23.4122 13.5243 5.6590 -10.4132 10.5123
# 2 23.4122 82.9314 42.3335 21.6273 8.3978 24.8085
# 3 13.5243 42.3335 154.4844 20.3687 -4.8816 15.3937
# 4 5.6590 21.6273 20.3687 53.0584 12.3009 -3.8407
# 5 -10.4132 8.3978 -4.8816 12.3009 27.2697 3.6732
# 6 10.5123 24.8085 15.3937 -3.8407 3.6732 31.4017
#
#
#
# Elastic Compliance Matrix: (Units=1/GPa)
#
#
# Indices 1 2 3 4 5 6 
#
# 1 0.075858 -0.018285 0.003489 -0.013580 0.043970 -0.019464
# 2 -0.018285 0.024872 -0.003877 -0.004766 -0.011726 -0.010839
# 3 0.003489 -0.003877 0.008222 -0.003591 0.006060 -0.003284
# 4 -0.013580 -0.004766 -0.003591 0.029352 -0.019752 0.015972
# 5 0.043970 -0.011726 0.006060 -0.019752 0.069625 -0.018987
# 6 -0.019464 -0.010839 -0.003284 0.015972 -0.018987 0.052709
#
#
# Mechanical properties :
#
#
# Convention : Reuss Voigt Hill
#
# Bulk Modulus (GPa) = 13.96531 47.10064 30.53298
# Shear Modulus (GPa) = 15.53512 34.75235 25.14373
#
# Velocity S-wave (km/s) = 2.61297 3.90813 3.32424
# Velocity P-wave (km/s) = 3.90400 6.40821 5.30596
#
# Compressibility (1/GPa) = 0.07160598
#
# Stress axis : x y z
#
# Youngs Moduli (GPa) = 13.18261 40.20608 121.62015
#
# Poissons Ratio (x) = 0.73516 -0.42433
# Poissons Ratio (y) = 0.24104 0.47152
# Poissons Ratio (z) = -0.04599 0.15588
#
# Static dielectric constant tensor:
#      x y z
#    x 1.946520 -0.011150 -0.075020 
#    y -0.011150 1.920020 -0.071050 
#    z -0.075020 -0.071050 1.979570 
# 
# From -- ./inp_files/197068.got.cif
#   From: 2010.05.17/outbox.cif.g08.bks.cpg/sg2_99_cif.got.tgz:197068.got - 2010.06.03 11:33:40.
