data_PCOD9079226
_publ_section_title
;
Structure prediction by ZEFSAII (Michael W. Deem and Ramdas Pophale) SiO2 
 PCOD9079226
Probable space group: P -1
;
_chemical_formula_sum "Si O2"
_cell_formula_units_Z 16
_cell_length_a 19.331023
_cell_length_b 11.148117
_cell_length_c 8.458547
_cell_angle_alpha 97.732688
_cell_angle_beta 128.015586
_cell_angle_gamma 39.359202
_cell_volume 664.581148
_symmetry_space_group_name_H-M "P -1"
_symmetry_group_IT_number 2
_symmetry_cell_setting 'triclinic'
loop_
_space_group_symop_operation_xyz
x,y,z
-x,-y,-z
loop_
_atom_site_type_symbol
_atom_site_label
_atom_site_fract_x
_atom_site_fract_y
_atom_site_fract_z
Si Si1 0.256941 0.391635 0.846022
Si Si2 0.719227 0.373710 0.523361
Si Si3 0.350594 0.039382 0.793826
Si Si4 0.845235 0.604869 0.719294
Si Si5 0.017215 0.796634 0.343951
Si Si6 0.782867 0.010662 0.571353
Si Si7 0.786829 0.501359 0.866513
Si Si8 0.366347 0.758455 0.266998
O O1 0.249277 0.253969 0.812614
O O2 0.072781 0.686286 0.577873
O O3 0.319819 0.368222 0.096833
O O4 0.426389 0.211886 0.930110
O O5 0.827220 0.297300 0.512198
O O6 0.757950 0.184679 0.547288
O O7 0.803619 0.350509 0.782228
O O8 0.497342 0.662006 0.301615
O O9 0.270233 0.185575 0.539089
O O10 0.309848 0.948073 0.697344
O O11 0.949613 0.367919 0.734846
O O12 0.718408 0.686274 0.680832
O O13 0.000000 0.500000 0.000000
O O14 0.809242 0.086613 0.046252
O O15 0.704661 0.079346 0.651642
O O16 0.002990 0.713826 0.831391
O O17 0.500000 0.500000 0.500000
#
# Coordination Sequence:
#
# PCOD9079226 Si02
#       8
#     2   2   2   2   2   2   2   2
#     4  10  24  42  63  90 135 174 212 265 324 390
#     4  10  22  39  70  95 124 170 216 266 324 373
#     4  10  21  42  62  88 131 172 214 269 315 381
#     4  10  18  36  64  92 122 164 217 273 316 362
#     4  10  21  43  61  94 135 167 213 270 315 387
#     4  11  20  38  66  95 129 160 220 270 311 381
#     4  11  21  37  66  96 125 172 207 267 332 374
#     4  10  20  35  67  98 120 165 218 271 313 371
#
# _framework density 24.075316999999998
#
# number of rings (size 3 to 8) (size 9 to 14) (size 15 to 20)
#    0.000    1.750    3.750    1.125    1.750    1.000 
#    2.250    6.250    0.000    0.000    0.000    0.000 
#    0.000    0.000    0.000    0.000    0.000    0.000 
#
# Total GULP energy -89262.698693 kJ/mol
# GULP energy per Si atom -5578.918668 kJ/mol
# Density = 2.402052 g / cm^3
# Si number density = 24.075317 Si / 1000 Ang^3
#
#
#
# Elastic Constant Matrix: (Units=GPa)
#
#
# Indices 1 2 3 4 5 6 
#
# 1 65.3614 23.7502 17.2895 6.7954 9.7399 10.6633
# 2 23.7502 50.8775 6.6770 6.8346 -5.5175 20.0233
# 3 17.2895 6.6770 76.0296 -4.1153 -0.3145 11.0810
# 4 6.7954 6.8346 -4.1153 40.4583 -1.7823 13.5915
# 5 9.7399 -5.5175 -0.3145 -1.7823 36.6867 1.8825
# 6 10.6633 20.0233 11.0810 13.5915 1.8825 35.9011
#
#
#
# Elastic Compliance Matrix: (Units=1/GPa)
#
#
# Indices 1 2 3 4 5 6 
#
# 1 0.021538 -0.010942 -0.004577 -0.003536 -0.007722 0.002862
# 2 -0.010942 0.031540 0.002306 0.002675 0.008646 -0.016519
# 3 -0.004577 0.002306 0.015138 0.004125 0.002214 -0.006277
# 4 -0.003536 0.002675 0.004125 0.029870 0.003505 -0.013207
# 5 -0.007722 0.008646 0.002214 0.003505 0.031114 -0.006171
# 6 0.002862 -0.016519 -0.006277 -0.013207 -0.006171 0.043478
#
#
# Mechanical properties :
#
#
# Convention : Reuss Voigt Hill
#
# Bulk Modulus (GPa) = 23.92927 31.96689 27.94808
# Shear Modulus (GPa) = 23.47053 32.24600 27.85826
#
# Velocity S-wave (km/s) = 3.12569 3.66372 3.40535
# Velocity P-wave (km/s) = 4.79453 5.58604 5.20535
#
# Compressibility (1/GPa) = 0.04178983
#
# Stress axis : x y z
#
# Youngs Moduli (GPa) = 46.43022 31.70622 66.05682
#
# Poissons Ratio (x) = 0.34693 0.30236
# Poissons Ratio (y) = 0.50804 -0.15236
# Poissons Ratio (z) = 0.21253 -0.07313
#
# Static dielectric constant tensor:
#      x y z
#    x 2.049080 -0.027820 -0.017640 
#    y -0.027820 1.969120 -0.006650 
#    z -0.017640 -0.006650 1.945520 
# 
# From -- ./inp_files/346201.got.cif
#   From: 2010.05.17/outbox.cif.g08.bks.cpg/sg2_174_cif.got.tgz:346201.got - 2010.06.03 11:33:40.
