data_PCOD9079093
_publ_section_title
;
Structure prediction by ZEFSAII (Michael W. Deem and Ramdas Pophale) SiO2 
 PCOD9079093
Probable space group: P -1
;
_chemical_formula_sum "Si O2"
_cell_formula_units_Z 15
_cell_length_a 7.900602
_cell_length_b 10.662771
_cell_length_c 8.338786
_cell_angle_alpha 114.485673
_cell_angle_beta 68.194445
_cell_angle_gamma 122.516369
_cell_volume 528.870369
_symmetry_space_group_name_H-M "P -1"
_symmetry_group_IT_number 2
_symmetry_cell_setting 'triclinic'
loop_
_space_group_symop_operation_xyz
x,y,z
-x,-y,-z
loop_
_atom_site_type_symbol
_atom_site_label
_atom_site_fract_x
_atom_site_fract_y
_atom_site_fract_z
Si Si1 0.715447 0.469642 0.936030
Si Si2 0.570921 0.283997 0.366450
Si Si3 0.580909 0.552761 0.725887
Si Si4 0.262839 0.895841 0.988027
Si Si5 0.688043 0.866792 0.125821
Si Si6 0.500000 0.000000 0.500000
Si Si7 0.106144 0.738303 0.302966
Si Si8 0.176989 0.150160 0.594830
O O1 0.725645 0.579134 0.842242
O O2 0.515877 0.297344 0.906802
O O3 0.895701 0.424648 0.821443
O O4 0.644738 0.525537 0.149133
O O5 0.625864 0.434946 0.537491
O O6 0.434406 0.310420 0.290629
O O7 0.731291 0.239015 0.200654
O O8 0.399242 0.153724 0.475450
O O9 0.202959 0.025364 0.006495
O O10 0.166926 0.823766 0.154095
O O11 0.500000 0.000000 0.000000
O O12 0.605801 0.977817 0.293440
O O13 0.817422 0.847943 0.214887
O O14 0.267471 0.836313 0.434743
O O15 0.882651 0.726566 0.403510
O O16 0.000000 0.000000 0.500000
#
# Coordination Sequence:
#
# PCOD9079093 Si02
#       8
#     2   2   2   2   2   1   2   2
#     4  10  20  39  67  95 116 169 229 263 306 379
#     4  11  23  40  65  98 126 169 223 261 319 379
#     4  10  21  40  69  90 122 170 233 265 292 381
#     4  12  21  37  65  97 130 166 218 261 312 392
#     4  11  21  36  63  96 132 166 210 267 326 384
#     4  10  18  36  62  88 122 170 210 248 308 394
#     4  11  23  38  62  95 130 172 211 261 326 384
#     4  12  24  39  61  99 141 168 200 268 346 385
#
# _framework density 28.36234
#
# number of rings (size 3 to 8) (size 9 to 14) (size 15 to 20)
#    0.000    1.067    6.667    1.600    1.867    0.533 
#    0.000    1.333    0.000    0.800    0.000    0.000 
#    0.000    0.000    0.000    0.000    0.000    0.000 
#
# Total GULP energy -83525.899472 kJ/mol
# GULP energy per Si atom -5568.393298 kJ/mol
# Density = 2.829779 g / cm^3
# Si number density = 28.362340 Si / 1000 Ang^3
#
#
#
# Elastic Constant Matrix: (Units=GPa)
#
#
# Indices 1 2 3 4 5 6 
#
# 1 121.5010 4.8546 8.5927 15.8058 5.2677 -9.3007
# 2 4.8546 88.7712 17.8346 -2.0719 16.3978 -0.7051
# 3 8.5927 17.8346 115.2115 19.7883 16.3785 18.8145
# 4 15.8058 -2.0719 19.7883 52.7599 -9.5606 -0.3119
# 5 5.2677 16.3978 16.3785 -9.5606 40.9295 4.6959
# 6 -9.3007 -0.7051 18.8145 -0.3119 4.6959 39.2845
#
#
#
# Elastic Compliance Matrix: (Units=1/GPa)
#
#
# Indices 1 2 3 4 5 6 
#
# 1 0.008905 -0.000121 -0.000267 -0.002911 -0.001951 0.002444
# 2 -0.000121 0.012426 -0.001584 0.000326 -0.004423 0.001484
# 3 -0.000267 -0.001584 0.011257 -0.005038 -0.004440 -0.004992
# 4 -0.002911 0.000326 -0.005038 0.023101 0.007540 0.001012
# 5 -0.001951 -0.004423 -0.004440 0.007540 0.030219 -0.001967
# 6 0.002444 0.001484 -0.004992 0.001012 -0.001967 0.028695
#
#
# Mechanical properties :
#
#
# Convention : Reuss Voigt Hill
#
# Bulk Modulus (GPa) = 34.91362 43.11639 39.01500
# Shear Modulus (GPa) = 39.03382 46.20823 42.62102
#
# Velocity S-wave (km/s) = 3.71382 4.04073 3.88072
# Velocity P-wave (km/s) = 5.54315 6.08317 5.81943
#
# Compressibility (1/GPa) = 0.02864212
#
# Stress axis : x y z
#
# Youngs Moduli (GPa) = 112.30254 80.47495 88.83756
#
# Poissons Ratio (x) = 0.00978 0.02372
# Poissons Ratio (y) = 0.01364 0.14072
# Poissons Ratio (z) = 0.02999 0.12748
#
# Static dielectric constant tensor:
#      x y z
#    x 2.176440 0.092700 -0.049240 
#    y 0.092700 2.116470 0.108750 
#    z -0.049240 0.108750 2.296490 
# 
# From -- ./inp_files/181325.got.cif
#   From: 2010.05.17/outbox.cif.g08.bks.cpg/sg2_91_cif.got.tgz:181325.got - 2010.06.03 11:33:40.
