data_PCOD9079925
_publ_section_title
;
Structure prediction by ZEFSAII (Michael W. Deem and Ramdas Pophale) SiO2 
 PCOD9079925
Probable space group: P -1
;
_chemical_formula_sum "Si O2"
_cell_formula_units_Z 16
_cell_length_a 15.335691
_cell_length_b 9.229408
_cell_length_c 20.057541
_cell_angle_alpha 48.459006
_cell_angle_beta 159.141967
_cell_angle_gamma 130.281550
_cell_volume 752.724786
_symmetry_space_group_name_H-M "P -1"
_symmetry_group_IT_number 2
_symmetry_cell_setting 'triclinic'
loop_
_space_group_symop_operation_xyz
x,y,z
-x,-y,-z
loop_
_atom_site_type_symbol
_atom_site_label
_atom_site_fract_x
_atom_site_fract_y
_atom_site_fract_z
Si Si1 0.681969 0.778755 0.484417
Si Si2 0.666465 0.547928 0.204652
Si Si3 0.778273 0.671555 0.095426
Si Si4 0.696261 0.108758 0.911345
Si Si5 0.322879 0.739334 0.490800
Si Si6 0.272522 0.317724 0.595885
Si Si7 0.252537 0.165421 0.340132
Si Si8 0.027053 0.806706 0.462624
O O1 0.770953 0.658465 0.521930
O O2 0.707045 0.721261 0.596045
O O3 0.401082 0.807745 0.253243
O O4 0.847164 0.985023 0.530694
O O5 0.751965 0.590417 0.176584
O O6 0.773136 0.735332 0.264952
O O7 0.795971 0.358898 0.376582
O O8 0.376790 0.482375 0.015279
O O9 0.065353 0.722328 0.271637
O O10 0.660329 0.876058 0.950583
O O11 0.975165 0.166780 0.114847
O O12 0.505647 0.192513 0.801257
O O13 0.326932 0.537121 0.594739
O O14 0.555789 0.759222 0.602631
O O15 0.309002 0.939471 0.460357
O O16 0.046724 0.210722 0.507191
#
# Coordination Sequence:
#
# PCOD9079925 Si02
#       8
#     2   2   2   2   2   2   2   2
#     4  10  22  39  61  83 126 160 189 239 304 352
#     4  10  20  30  62  86 117 156 191 245 294 348
#     4  10  18  38  55  88 120 152 197 242 295 351
#     4   9  21  38  58  84 120 160 189 242 298 348
#     4  10  21  39  65  86 117 151 206 250 284 346
#     4  10  22  38  59  89 120 155 193 248 292 353
#     4  10  22  43  64  84 116 164 197 244 297 344
#     4  11  19  36  56  91 116 156 195 238 299 351
#
# _framework density 21.256108999999999
#
# number of rings (size 3 to 8) (size 9 to 14) (size 15 to 20)
#    0.750    1.250    2.500    1.875    1.750    1.000 
#    2.250    8.125    0.000    0.000    0.000    0.000 
#    0.000    0.000    0.000    0.000    0.000    0.000 
#
# Total GULP energy -89180.726525 kJ/mol
# GULP energy per Si atom -5573.795408 kJ/mol
# Density = 2.120773 g / cm^3
# Si number density = 21.256109 Si / 1000 Ang^3
#
#
#
# Elastic Constant Matrix: (Units=GPa)
#
#
# Indices 1 2 3 4 5 6 
#
# 1 67.5477 2.0380 22.8839 8.9840 6.0537 -15.7267
# 2 2.0380 46.1017 12.0333 -4.6954 0.2190 -8.0791
# 3 22.8839 12.0333 71.7771 7.7152 5.6987 -10.9163
# 4 8.9840 -4.6954 7.7152 23.4178 -5.9053 -5.2587
# 5 6.0537 0.2190 5.6987 -5.9053 28.5954 4.2373
# 6 -15.7267 -8.0791 -10.9163 -5.2587 4.2373 22.0706
#
#
#
# Elastic Compliance Matrix: (Units=1/GPa)
#
#
# Indices 1 2 3 4 5 6 
#
# 1 0.020390 0.001984 -0.003736 -0.004817 -0.006586 0.013524
# 2 0.001984 0.025367 -0.004192 0.008152 0.000348 0.010502
# 3 -0.003736 -0.004192 0.017340 -0.005324 -0.004316 0.003940
# 4 -0.004817 0.008152 -0.005324 0.052525 0.011803 0.007167
# 5 -0.006586 0.000348 -0.004316 0.011803 0.041414 -0.011839
# 6 0.013524 0.010502 0.003940 0.007167 -0.011839 0.064720
#
#
# Mechanical properties :
#
#
# Convention : Reuss Voigt Hill
#
# Bulk Modulus (GPa) = 19.52755 28.81521 24.17138
# Shear Modulus (GPa) = 19.94317 24.71486 22.32901
#
# Velocity S-wave (km/s) = 3.06638 3.41356 3.24462
# Velocity P-wave (km/s) = 4.66301 5.39650 5.04311
#
# Compressibility (1/GPa) = 0.05120971
#
# Stress axis : x y z
#
# Youngs Moduli (GPa) = 49.04399 39.42178 57.67014
#
# Poissons Ratio (x) = -0.07823 0.21544
# Poissons Ratio (y) = -0.09733 0.24176
# Poissons Ratio (z) = 0.18322 0.16526
#
# Static dielectric constant tensor:
#      x y z
#    x 1.768510 -0.010320 -0.028690 
#    y -0.010320 1.797080 0.008230 
#    z -0.028690 0.008230 1.785500 
# 
# From -- ./inp_files/597357.got.cif
#   From: 2010.05.17/outbox.cif.g08.bks.cpg/sg2_299_cif.got.tgz:597357.got - 2010.06.03 11:33:40.
