data_PCOD9079144
_publ_section_title
;
Structure prediction by ZEFSAII (Michael W. Deem and Ramdas Pophale) SiO2 
 PCOD9079144
Probable space group: P -1
;
_chemical_formula_sum "Si O2"
_cell_formula_units_Z 16
_cell_length_a 8.697722
_cell_length_b 16.944499
_cell_length_c 8.786808
_cell_angle_alpha 70.091058
_cell_angle_beta 133.651280
_cell_angle_gamma 128.877334
_cell_volume 719.490524
_symmetry_space_group_name_H-M "P -1"
_symmetry_group_IT_number 2
_symmetry_cell_setting 'triclinic'
loop_
_space_group_symop_operation_xyz
x,y,z
-x,-y,-z
loop_
_atom_site_type_symbol
_atom_site_label
_atom_site_fract_x
_atom_site_fract_y
_atom_site_fract_z
Si Si1 0.580113 0.741990 0.873024
Si Si2 0.858094 0.396424 0.571475
Si Si3 0.477078 0.901285 0.843947
Si Si4 0.702474 0.613094 0.221819
Si Si5 0.120947 0.247225 0.449709
Si Si6 0.493061 0.431182 0.408400
Si Si7 0.896102 0.066709 0.833149
Si Si8 0.859274 0.918803 0.324136
O O1 0.401548 0.692666 0.636180
O O2 0.496236 0.810822 0.846780
O O3 0.540668 0.650404 0.009124
O O4 0.895045 0.821548 0.025574
O O5 0.734161 0.422053 0.604964
O O6 0.000000 0.500000 0.500000
O O7 0.067630 0.370544 0.738859
O O8 0.177927 0.845787 0.712242
O O9 0.608979 0.997899 0.753489
O O10 0.657142 0.934464 0.093575
O O11 0.837877 0.684216 0.418560
O O12 0.533021 0.495006 0.241409
O O13 0.232708 0.319580 0.331774
O O14 0.269996 0.194393 0.621177
O O15 0.500000 0.500000 0.500000
O O16 0.950943 0.074535 0.684965
O O17 0.000000 0.000000 0.000000
O O18 0.000000 0.000000 0.500000
#
# Coordination Sequence:
#
# PCOD9079144 Si02
#       8
#     2   2   2   2   2   2   2   2
#     4  10  18  36  63  85 119 148 201 259 288 349
#     4  10  21  37  62  88 114 152 204 250 297 353
#     4  10  21  38  62  87 118 164 206 248 299 361
#     4  10  19  39  63  88 113 155 204 248 296 355
#     4  11  20  39  62  84 123 164 197 242 309 358
#     4   9  22  38  58  86 123 158 189 242 309 362
#     4   8  18  36  58  86 116 158 202 248 298 345
#     4  10  21  38  58  88 127 159 199 252 305 358
#
# _framework density 22.237959
#
# number of rings (size 3 to 8) (size 9 to 14) (size 15 to 20)
#    0.000    2.500    3.750    0.000    0.000    6.000 
#    0.000    4.375    0.000    0.000    0.000    0.000 
#    0.000    0.000    0.000    0.000    0.000    0.000 
#
# Total GULP energy -89156.247108 kJ/mol
# GULP energy per Si atom -5572.265444 kJ/mol
# Density = 2.218734 g / cm^3
# Si number density = 22.237959 Si / 1000 Ang^3
#
#
#
# Elastic Constant Matrix: (Units=GPa)
#
#
# Indices 1 2 3 4 5 6 
#
# 1 66.1770 27.6088 15.8430 12.3768 3.4445 4.5508
# 2 27.6088 111.6023 22.7374 -8.1849 -7.4716 20.3140
# 3 15.8430 22.7374 72.5638 8.8625 -6.0440 5.9829
# 4 12.3768 -8.1849 8.8625 34.6457 -6.6579 -1.0212
# 5 3.4445 -7.4716 -6.0440 -6.6579 19.0529 7.8083
# 6 4.5508 20.3140 5.9829 -1.0212 7.8083 42.6207
#
#
#
# Elastic Compliance Matrix: (Units=1/GPa)
#
#
# Indices 1 2 3 4 5 6 
#
# 1 0.021041 -0.006975 -0.002409 -0.010850 -0.012508 0.003448
# 2 -0.006975 0.013960 -0.002251 0.008466 0.012097 -0.007606
# 3 -0.002409 -0.002251 0.015874 -0.002963 0.004271 -0.001752
# 4 -0.010850 0.008466 -0.002963 0.039223 0.020187 -0.005219
# 5 -0.012508 0.012097 0.004271 0.020187 0.075426 -0.018364
# 6 0.003448 -0.007606 -0.001752 -0.005219 -0.018364 0.030205
#
#
# Mechanical properties :
#
#
# Convention : Reuss Voigt Hill
#
# Bulk Modulus (GPa) = 36.22502 42.52463 39.37482
# Shear Modulus (GPa) = 21.91057 31.54080 26.72569
#
# Velocity S-wave (km/s) = 3.14232 3.77016 3.47047
# Velocity P-wave (km/s) = 5.43053 6.17383 5.81407
#
# Compressibility (1/GPa) = 0.02760523
#
# Stress axis : x y z
#
# Youngs Moduli (GPa) = 47.52643 71.63486 62.99518
#
# Poissons Ratio (x) = 0.49966 0.15177
# Poissons Ratio (y) = 0.33150 0.14177
# Poissons Ratio (z) = 0.11450 0.16122
#
# Static dielectric constant tensor:
#      x y z
#    x 1.909520 0.037470 -0.014840 
#    y 0.037470 1.871020 0.004730 
#    z -0.014840 0.004730 1.859590 
# 
# From -- ./inp_files/214962.got.cif
#   From: 2010.05.17/outbox.cif.g08.bks.cpg/sg2_108_cif.got.tgz:214962.got - 2010.06.03 11:33:40.
