data_PCOD9079552
_publ_section_title
;
Structure prediction by ZEFSAII (Michael W. Deem and Ramdas Pophale) SiO2 
 PCOD9079552
Probable space group: P -1
;
_chemical_formula_sum "Si O2"
_cell_formula_units_Z 16
_cell_length_a 18.023663
_cell_length_b 11.775417
_cell_length_c 11.791237
_cell_angle_alpha 52.868283
_cell_angle_beta 74.250016
_cell_angle_gamma 31.153568
_cell_volume 830.032439
_symmetry_space_group_name_H-M "P -1"
_symmetry_group_IT_number 2
_symmetry_cell_setting 'triclinic'
loop_
_space_group_symop_operation_xyz
x,y,z
-x,-y,-z
loop_
_atom_site_type_symbol
_atom_site_label
_atom_site_fract_x
_atom_site_fract_y
_atom_site_fract_z
Si Si1 0.487905 0.486102 0.180324
Si Si2 0.686679 0.812975 0.137733
Si Si3 0.927579 0.895988 0.039842
Si Si4 0.289900 0.526037 0.769574
Si Si5 0.651819 0.281329 0.477855
Si Si6 0.514734 0.227288 0.149896
Si Si7 0.010447 0.470672 0.148555
Si Si8 0.877144 0.160747 0.106978
O O1 0.572221 0.371999 0.334636
O O2 0.575677 0.203864 0.252052
O O3 0.507808 0.597120 0.030744
O O4 0.279210 0.795226 0.084331
O O5 0.758898 0.543228 0.224734
O O6 0.825971 0.703666 0.119028
O O7 0.645115 0.897225 0.237540
O O8 0.493723 0.164241 0.948306
O O9 0.029162 0.589069 0.135035
O O10 0.942846 0.913373 0.156741
O O11 0.995054 0.921413 0.927615
O O12 0.296354 0.639730 0.606058
O O13 0.166301 0.772264 0.781012
O O14 0.500000 0.500000 0.500000
O O15 0.825738 0.902091 0.662916
O O16 0.318425 0.486563 0.080862
O O17 0.000000 0.500000 0.000000
#
# Coordination Sequence:
#
# PCOD9079552 Si02
#       8
#     2   2   2   2   2   2   2   2
#     4  10  18  37  61  86 117 155 199 239 292 357
#     4  10  19  36  61  88 114 157 199 242 292 359
#     4  10  19  35  61  91 118 155 205 239 295 355
#     4  10  20  37  60  86 122 156 199 244 299 357
#     4  12  25  39  58  86 121 158 200 251 302 352
#     4   9  17  33  65  86 116 156 197 235 293 359
#     4  12  24  38  58  84 117 157 205 250 299 355
#     4   9  18  33  61  92 118 156 194 248 291 357
#
# _framework density 19.276354000000001
#
# number of rings (size 3 to 8) (size 9 to 14) (size 15 to 20)
#    0.000    1.750    3.750    2.250    0.000    2.500 
#    0.000    2.500    0.000   12.000    0.000    0.000 
#    0.000    0.000    0.000    0.000    0.000    0.000 
#
# Total GULP energy -89215.250166 kJ/mol
# GULP energy per Si atom -5575.953135 kJ/mol
# Density = 1.923248 g / cm^3
# Si number density = 19.276354 Si / 1000 Ang^3
#
#
#
# Elastic Constant Matrix: (Units=GPa)
#
#
# Indices 1 2 3 4 5 6 
#
# 1 114.6689 30.8117 18.7585 -1.0271 -14.0224 14.6009
# 2 30.8117 90.8221 15.2604 2.9087 -12.2447 15.5924
# 3 18.7585 15.2604 47.4719 5.3691 -9.4564 7.9965
# 4 -1.0271 2.9087 5.3691 17.3289 1.2598 2.6846
# 5 -14.0224 -12.2447 -9.4564 1.2598 18.8346 -5.3051
# 6 14.6009 15.5924 7.9965 2.6846 -5.3051 49.7002
#
#
#
# Elastic Compliance Matrix: (Units=1/GPa)
#
#
# Indices 1 2 3 4 5 6 
#
# 1 0.010514 -0.002331 -0.002426 0.001680 0.004539 -0.001573
# 2 -0.002331 0.013314 -0.001619 -0.001879 0.005517 -0.002541
# 3 -0.002426 -0.001619 0.025767 -0.008387 0.010251 -0.001378
# 4 0.001680 -0.001879 -0.008387 0.061828 -0.009125 -0.002868
# 5 0.004539 0.005517 0.010251 -0.009125 0.066631 0.002892
# 6 -0.001573 -0.002541 -0.001378 -0.002868 0.002892 0.022065
#
#
# Mechanical properties :
#
#
# Convention : Reuss Voigt Hill
#
# Bulk Modulus (GPa) = 27.14296 42.51378 34.82837
# Shear Modulus (GPa) = 22.20702 29.71490 25.96096
#
# Velocity S-wave (km/s) = 3.39785 3.93048 3.67383
# Velocity P-wave (km/s) = 5.43188 6.53460 6.00859
#
# Compressibility (1/GPa) = 0.03684196
#
# Stress axis : x y z
#
# Youngs Moduli (GPa) = 95.10697 75.11084 38.80931
#
# Poissons Ratio (x) = 0.17509 0.09416
# Poissons Ratio (y) = 0.22171 0.06284
# Poissons Ratio (z) = 0.23075 0.12162
#
# Static dielectric constant tensor:
#      x y z
#    x 1.706090 0.015330 -0.008560 
#    y 0.015330 1.797900 0.012010 
#    z -0.008560 0.012010 1.642330 
# 
# From -- ./inp_files/464372.got.cif
#   From: 2010.05.17/outbox.cif.g08.bks.cpg/sg2_233_cif.got.tgz:464372.got - 2010.06.03 11:33:40.
