data_PCOD9079661
_publ_section_title
;
Structure prediction by ZEFSAII (Michael W. Deem and Ramdas Pophale) SiO2 
 PCOD9079661
Probable space group: P -1
;
_chemical_formula_sum "Si O2"
_cell_formula_units_Z 16
_cell_length_a 9.301980
_cell_length_b 17.237220
_cell_length_c 10.492225
_cell_angle_alpha 29.185131
_cell_angle_beta 121.355358
_cell_angle_gamma 124.855130
_cell_volume 672.222656
_symmetry_space_group_name_H-M "P -1"
_symmetry_group_IT_number 2
_symmetry_cell_setting 'triclinic'
loop_
_space_group_symop_operation_xyz
x,y,z
-x,-y,-z
loop_
_atom_site_type_symbol
_atom_site_label
_atom_site_fract_x
_atom_site_fract_y
_atom_site_fract_z
Si Si1 0.222072 0.771783 0.332481
Si Si2 0.084585 0.861096 0.377857
Si Si3 0.309693 0.307945 0.498842
Si Si4 0.809637 0.442860 0.057847
Si Si5 0.107993 0.100283 0.281233
Si Si6 0.364213 0.774493 0.117423
Si Si7 0.011544 0.420795 0.803778
Si Si8 0.592811 0.859900 0.461209
O O1 0.150199 0.893207 0.215708
O O2 0.299522 0.823604 0.155346
O O3 0.075460 0.596049 0.511472
O O4 0.395533 0.748401 0.515190
O O5 0.205662 0.748387 0.649750
O O6 0.880715 0.753507 0.435493
O O7 0.096265 0.996879 0.295683
O O8 0.469938 0.293922 0.680907
O O9 0.310598 0.187215 0.551124
O O10 0.323851 0.488032 0.185086
O O11 0.859007 0.545821 0.063210
O O12 0.000000 0.500000 0.000000
O O13 0.305248 0.162221 0.334788
O O14 0.042688 0.257720 0.992254
O O15 0.000000 0.000000 0.500000
O O16 0.196558 0.636974 0.180284
O O17 0.409672 0.948228 0.816232
#
# Coordination Sequence:
#
# PCOD9079661 Si02
#       8
#     2   2   2   2   2   2   2   2
#     4  10  24  42  62  93 138 164 206 264 336 368
#     4  10  21  38  64  94 129 169 204 269 325 369
#     4  10  18  37  62  95 120 168 218 248 317 385
#     4   9  18  35  61  90 125 163 204 258 316 372
#     4  12  20  38  71  99 120 166 228 259 309 379
#     4  11  23  40  67  97 126 171 219 260 305 389
#     4  11  21  40  67  97 123 167 215 270 310 373
#     4  11  22  40  68  95 125 170 220 262 303 394
#
# _framework density 23.801638000000001
#
# number of rings (size 3 to 8) (size 9 to 14) (size 15 to 20)
#    0.000    1.500    3.750    2.625    0.000    1.000 
#    2.250   11.250    0.000    0.000    0.000    0.875 
#    0.000    0.000    0.000    0.000    0.000    0.000 
#
# Total GULP energy -89325.120864 kJ/mol
# GULP energy per Si atom -5582.820054 kJ/mol
# Density = 2.374746 g / cm^3
# Si number density = 23.801638 Si / 1000 Ang^3
#
#
#
# Elastic Constant Matrix: (Units=GPa)
#
#
# Indices 1 2 3 4 5 6 
#
# 1 76.7998 21.0792 9.2472 3.2804 13.4544 -5.8126
# 2 21.0792 95.1999 23.1970 -0.8123 18.2993 13.1587
# 3 9.2472 23.1970 121.9226 5.9134 29.8867 12.9051
# 4 3.2804 -0.8123 5.9134 35.6030 3.9465 12.6044
# 5 13.4544 18.2993 29.8867 3.9465 33.5664 3.6114
# 6 -5.8126 13.1587 12.9051 12.6044 3.6114 48.7341
#
#
#
# Elastic Compliance Matrix: (Units=1/GPa)
#
#
# Indices 1 2 3 4 5 6 
#
# 1 0.014989 -0.002971 0.000352 -0.002184 -0.004813 0.003418
# 2 -0.002971 0.012880 -0.000682 0.002648 -0.005109 -0.003958
# 3 0.000352 -0.000682 0.010749 -0.000148 -0.009117 -0.001906
# 4 -0.002184 0.002648 -0.000148 0.031899 -0.003225 -0.008948
# 5 -0.004813 -0.005109 -0.009117 -0.003225 0.042909 0.000874
# 6 0.003418 -0.003958 -0.001906 -0.008948 0.000874 0.024750
#
#
# Mechanical properties :
#
#
# Convention : Reuss Voigt Hill
#
# Bulk Modulus (GPa) = 31.23399 44.55212 37.89305
# Shear Modulus (GPa) = 32.16484 39.60729 35.88607
#
# Velocity S-wave (km/s) = 3.68009 4.08371 3.88714
# Velocity P-wave (km/s) = 5.58646 6.40268 6.00845
#
# Compressibility (1/GPa) = 0.03201641
#
# Stress axis : x y z
#
# Youngs Moduli (GPa) = 66.71566 77.64019 93.03302
#
# Poissons Ratio (x) = 0.23064 -0.03278
# Poissons Ratio (y) = 0.19819 0.06349
# Poissons Ratio (z) = -0.02351 0.05298
#
# Static dielectric constant tensor:
#      x y z
#    x 2.056240 -0.213430 -0.004140 
#    y -0.213430 2.269380 -0.052190 
#    z -0.004140 -0.052190 1.983830 
# 
# From -- ./inp_files/401722.got.cif
#   From: 2010.05.17/outbox.cif.g08.bks.cpg/sg2_201_cif.got.tgz:401722.got - 2010.06.03 11:33:40.
