data_PCOD9079486
_publ_section_title
;
Structure prediction by ZEFSAII (Michael W. Deem and Ramdas Pophale) SiO2 
 PCOD9079486
Probable space group: P -1
;
_chemical_formula_sum "Si O2"
_cell_formula_units_Z 12
_cell_length_a 8.315663
_cell_length_b 9.431003
_cell_length_c 6.583122
_cell_angle_alpha 62.878459
_cell_angle_beta 79.380304
_cell_angle_gamma 80.694703
_cell_volume 449.857368
_symmetry_space_group_name_H-M "P -1"
_symmetry_group_IT_number 2
_symmetry_cell_setting 'triclinic'
loop_
_space_group_symop_operation_xyz
x,y,z
-x,-y,-z
loop_
_atom_site_type_symbol
_atom_site_label
_atom_site_fract_x
_atom_site_fract_y
_atom_site_fract_z
Si Si1 0.389275 0.641089 0.166855
Si Si2 0.516476 0.949613 0.792164
Si Si3 0.501173 0.300147 0.469990
Si Si4 0.899341 0.868479 0.706327
Si Si5 0.136330 0.604880 0.711096
Si Si6 0.956848 0.333599 0.864400
O O1 0.416602 0.448001 0.262180
O O2 0.516870 0.660572 0.309542
O O3 0.195190 0.681370 0.237091
O O4 0.426972 0.784208 0.909441
O O5 0.708248 0.908817 0.733789
O O6 0.458774 0.116654 0.579888
O O7 0.500000 0.000000 0.000000
O O8 0.697248 0.311970 0.402453
O O9 0.967742 0.717871 0.651366
O O10 0.000000 0.000000 0.500000
O O11 0.964210 0.827833 0.946228
O O12 0.103792 0.441699 0.711940
O O13 0.134903 0.578889 0.974478
#
# Coordination Sequence:
#
# PCOD9079486 Si02
#       6
#     2   2   2   2   2   2
#     4  10  22  37  58  85 120 146 195 235 286 339
#     4  10  20  38  59  82 114 153 189 233 289 340
#     4  10  20  39  58  82 114 159 185 236 287 340
#     4  10  18  37  60  80 115 151 189 236 285 338
#     4   9  19  37  57  79 113 150 194 228 288 333
#     4   9  20  37  56  88 109 154 188 241 279 342
#
# _framework density 26.675124
#
# number of rings (size 3 to 8) (size 9 to 14) (size 15 to 20)
#    1.000    1.333    1.667    1.000    0.000    1.333 
#    3.000    5.000    0.000    0.000    0.000    0.000 
#    0.000    0.000    0.000    0.000    0.000    0.000 
#
# Total GULP energy -66915.249723 kJ/mol
# GULP energy per Si atom -5576.270810 kJ/mol
# Density = 2.661441 g / cm^3
# Si number density = 26.675124 Si / 1000 Ang^3
#
#
#
# Elastic Constant Matrix: (Units=GPa)
#
#
# Indices 1 2 3 4 5 6 
#
# 1 153.7043 43.1637 64.1210 -6.8867 5.2743 -8.5350
# 2 43.1637 96.3761 45.5142 -36.2427 5.4406 0.3039
# 3 64.1210 45.5142 169.1139 -62.3816 -11.3708 7.2806
# 4 -6.8867 -36.2427 -62.3816 52.7468 3.3234 0.3560
# 5 5.2743 5.4406 -11.3708 3.3234 54.4214 0.6850
# 6 -8.5350 0.3039 7.2806 0.3560 0.6850 39.9644
#
#
#
# Elastic Compliance Matrix: (Units=1/GPa)
#
#
# Indices 1 2 3 4 5 6 
#
# 1 0.010449 -0.005272 -0.006373 -0.009740 -0.001267 0.003541
# 2 -0.005272 0.016900 0.002660 0.014174 -0.001465 -0.001840
# 3 -0.006373 0.002660 0.014685 0.018244 0.002360 -0.004260
# 4 -0.009740 0.014174 0.018244 0.049016 0.000420 -0.005955
# 5 -0.001267 -0.001465 0.002360 0.000420 0.019125 -0.001021
# 6 0.003541 -0.001840 -0.004260 -0.005955 -0.001021 0.026639
#
#
# Mechanical properties :
#
#
# Convention : Reuss Voigt Hill
#
# Bulk Modulus (GPa) = 41.55787 80.53246 61.04516
# Shear Modulus (GPa) = 30.71127 47.18621 38.94874
#
# Velocity S-wave (km/s) = 3.39677 4.21042 3.82529
# Velocity P-wave (km/s) = 5.56751 7.34115 6.51497
#
# Compressibility (1/GPa) = 0.02406283
#
# Stress axis : x y z
#
# Youngs Moduli (GPa) = 95.70174 59.17160 68.09474
#
# Poissons Ratio (x) = 0.31198 0.43400
# Poissons Ratio (y) = 0.50458 -0.18113
# Poissons Ratio (z) = 0.60995 -0.15739
#
# Static dielectric constant tensor:
#      x y z
#    x 1.991320 0.001580 -0.000360 
#    y 0.001580 2.265110 0.065210 
#    z -0.000360 0.065210 2.221930 
# 
# From -- ./inp_files/174157.got.cif
#   From: 2010.05.17/outbox.cif.g08.bks.cpg/sg2_88_cif.got.tgz:174157.got - 2010.06.03 11:33:40.
