data_PCOD9079598
_publ_section_title
;
Structure prediction by ZEFSAII (Michael W. Deem and Ramdas Pophale) SiO2 
 PCOD9079598
Probable space group: P -1
;
_chemical_formula_sum "Si O2"
_cell_formula_units_Z 16
_cell_length_a 20.186767
_cell_length_b 7.525512
_cell_length_c 8.754776
_cell_angle_alpha 114.612088
_cell_angle_beta 71.273348
_cell_angle_gamma 144.780952
_cell_volume 696.858435
_symmetry_space_group_name_H-M "P -1"
_symmetry_group_IT_number 2
_symmetry_cell_setting 'triclinic'
loop_
_space_group_symop_operation_xyz
x,y,z
-x,-y,-z
loop_
_atom_site_type_symbol
_atom_site_label
_atom_site_fract_x
_atom_site_fract_y
_atom_site_fract_z
Si Si1 0.529787 0.035882 0.164274
Si Si2 0.793742 0.504092 0.694948
Si Si3 0.555140 0.922428 0.509106
Si Si4 0.184863 0.089825 0.371472
Si Si5 0.025344 0.774767 0.640361
Si Si6 0.410497 0.433683 0.222820
Si Si7 0.266780 0.732567 0.998575
Si Si8 0.045310 0.454137 0.078061
O O1 0.503931 0.180079 0.320775
O O2 0.446178 0.676419 0.159422
O O3 0.661059 0.254768 0.154474
O O4 0.500000 0.000000 0.000000
O O5 0.825139 0.791017 0.723884
O O6 0.749822 0.383146 0.857396
O O7 0.910528 0.641891 0.642754
O O8 0.690046 0.221046 0.554585
O O9 0.521139 0.669630 0.334598
O O10 0.500000 0.000000 0.500000
O O11 0.316137 0.317184 0.365708
O O12 0.129659 0.060970 0.552368
O O13 0.122438 0.755467 0.243017
O O14 0.000000 0.500000 0.500000
O O15 0.043933 0.827606 0.830017
O O16 0.351519 0.111046 0.082978
O O17 0.138122 0.507316 0.961497
O O18 0.000000 0.500000 0.000000
#
# Coordination Sequence:
#
# PCOD9079598 Si02
#       8
#     2   2   2   2   2   2   2   2
#     4  11  19  37  58  84 116 157 196 236 291 353
#     4  11  19  37  62  84 115 157 191 238 304 336
#     4  10  20  37  59  86 123 147 199 245 284 345
#     4  10  18  37  62  83 116 152 191 241 298 349
#     4   9  20  37  59  85 110 148 194 236 289 352
#     4  10  21  38  59  86 123 156 194 244 293 338
#     4  10  21  37  62  85 119 161 194 239 298 357
#     4   9  20  40  60  83 117 147 194 247 293 344
#
# _framework density 22.960186
#
# number of rings (size 3 to 8) (size 9 to 14) (size 15 to 20)
#    0.000    2.000    3.750    1.500    0.000    0.500 
#    9.000    6.250    0.000    0.000    0.000    0.000 
#    0.000    0.000    0.000    0.000    0.000    0.000 
#
# Total GULP energy -89180.311505 kJ/mol
# GULP energy per Si atom -5573.769469 kJ/mol
# Density = 2.290793 g / cm^3
# Si number density = 22.960186 Si / 1000 Ang^3
#
#
#
# Elastic Constant Matrix: (Units=GPa)
#
#
# Indices 1 2 3 4 5 6 
#
# 1 51.6307 9.9868 -3.1532 -9.5393 7.1909 11.3885
# 2 9.9868 64.9094 24.2933 -25.4557 0.7482 4.6892
# 3 -3.1532 24.2933 54.0479 -15.9469 11.8520 7.3253
# 4 -9.5393 -25.4557 -15.9469 33.2752 2.3852 -5.8336
# 5 7.1909 0.7482 11.8520 2.3852 36.2021 -4.9568
# 6 11.3885 4.6892 7.3253 -5.8336 -4.9568 46.1508
#
#
#
# Elastic Compliance Matrix: (Units=1/GPa)
#
#
# Indices 1 2 3 4 5 6 
#
# 1 0.024756 -0.003085 0.008135 0.008048 -0.009011 -0.007037
# 2 -0.003085 0.024061 -0.007439 0.014085 0.001825 0.001474
# 3 0.008135 -0.007439 0.028888 0.010347 -0.012404 -0.005861
# 4 0.008048 0.014085 0.010347 0.048733 -0.008462 0.000192
# 5 -0.009011 0.001825 -0.012404 -0.008462 0.034909 0.006687
# 6 -0.007037 0.001474 -0.005861 0.000192 0.006687 0.024928
#
#
# Mechanical properties :
#
#
# Convention : Reuss Voigt Hill
#
# Bulk Modulus (GPa) = 13.71239 25.87130 19.79185
# Shear Modulus (GPa) = 23.21672 32.42301 27.81986
#
# Velocity S-wave (km/s) = 3.18334 3.76192 3.48466
# Velocity P-wave (km/s) = 4.41552 5.49197 4.98290
#
# Compressibility (1/GPa) = 0.07292676
#
# Stress axis : x y z
#
# Youngs Moduli (GPa) = 40.39413 41.56072 34.61673
#
# Poissons Ratio (x) = 0.12823 -0.28162
# Poissons Ratio (y) = 0.12463 0.25752
# Poissons Ratio (z) = -0.32862 0.30917
#
# Static dielectric constant tensor:
#      x y z
#    x 1.925290 0.005910 0.003590 
#    y 0.005910 1.995330 -0.028570 
#    z 0.003590 -0.028570 1.951630 
# 
# From -- ./inp_files/218569.got.cif
#   From: 2010.05.17/outbox.cif.g08.bks.cpg/sg2_110_cif.got.tgz:218569.got - 2010.06.03 11:33:40.
