data_PCOD9079355
_publ_section_title
;
Structure prediction by ZEFSAII (Michael W. Deem and Ramdas Pophale) SiO2 
 PCOD9079355
Probable space group: P -1
;
_chemical_formula_sum "Si O2"
_cell_formula_units_Z 13
_cell_length_a 8.393815
_cell_length_b 11.967793
_cell_length_c 14.560671
_cell_angle_alpha 31.390480
_cell_angle_beta 87.988778
_cell_angle_gamma 109.102116
_cell_volume 553.837894
_symmetry_space_group_name_H-M "P -1"
_symmetry_group_IT_number 2
_symmetry_cell_setting 'triclinic'
loop_
_space_group_symop_operation_xyz
x,y,z
-x,-y,-z
loop_
_atom_site_type_symbol
_atom_site_label
_atom_site_fract_x
_atom_site_fract_y
_atom_site_fract_z
Si Si1 0.736997 0.797280 0.140697
Si Si2 0.850765 0.267510 0.925545
Si Si3 0.909916 0.667334 0.956032
Si Si4 0.646913 0.799966 0.927601
Si Si5 0.829583 0.657678 0.764852
Si Si6 0.500000 0.000000 0.500000
Si Si7 0.674503 0.273636 0.502371
O O1 0.631586 0.473698 0.399221
O O2 0.677468 0.781134 0.047321
O O3 0.692049 0.968330 0.080726
O O4 0.000000 0.000000 0.000000
O O5 0.799914 0.461794 0.820605
O O6 0.075150 0.494868 0.702836
O O7 0.895517 0.192260 0.075137
O O8 0.839257 0.852085 0.834747
O O9 0.924647 0.636186 0.869619
O O10 0.710810 0.348243 0.226843
O O11 0.648350 0.052658 0.727507
O O12 0.417230 0.488342 0.114664
O O13 0.000000 0.000000 0.500000
O O14 0.526914 0.085727 0.549073
#
# Coordination Sequence:
#
# PCOD9079355 Si02
#       7
#     2   2   2   2   2   1   2
#     4  10  21  44  67  96 132 173 226 272 319 396
#     4  10  23  44  62  96 138 172 213 275 333 392
#     4  11  22  41  70  92 129 175 223 273 331 392
#     4  12  23  41  72  98 127 178 225 272 323 399
#     4  12  27  41  62 102 140 167 217 279 341 389
#     4  10  18  36  68  96 126 158 228 274 318 374
#     4  10  21  38  70  98 127 173 225 272 321 392
#
# _framework density 23.472570999999999
#
# number of rings (size 3 to 8) (size 9 to 14) (size 15 to 20)
#    0.000    1.231    6.154    1.846    4.308    3.077 
#    5.538    0.769    0.000    0.000    0.000    0.000 
#    0.000    0.000    0.000    0.000    0.000    0.000 
#
# Total GULP energy -72422.796147 kJ/mol
# GULP energy per Si atom -5570.984319 kJ/mol
# Density = 2.341915 g / cm^3
# Si number density = 23.472571 Si / 1000 Ang^3
#
#
#
# Elastic Constant Matrix: (Units=GPa)
#
#
# Indices 1 2 3 4 5 6 
#
# 1 44.5902 20.0075 20.1816 -10.3813 10.2552 -2.3804
# 2 20.0075 90.8882 31.8435 -10.1060 14.5878 1.8601
# 3 20.1816 31.8435 122.5151 1.2195 24.2504 9.0124
# 4 -10.3813 -10.1060 1.2195 37.7429 -5.9904 10.0692
# 5 10.2552 14.5878 24.2504 -5.9904 19.8455 -2.8609
# 6 -2.3804 1.8601 9.0124 10.0692 -2.8609 41.7375
#
#
#
# Elastic Compliance Matrix: (Units=1/GPa)
#
#
# Indices 1 2 3 4 5 6 
#
# 1 0.028088 -0.003584 -0.002342 0.005574 -0.007275 0.000424
# 2 -0.003584 0.013563 -0.001774 0.002188 -0.005482 -0.001329
# 3 -0.002342 -0.001774 0.011871 -0.002850 -0.013262 -0.002839
# 4 0.005574 0.002188 -0.002850 0.031587 0.007626 -0.006262
# 5 -0.007275 -0.005482 -0.013262 0.007626 0.077575 0.006171
# 6 0.000424 -0.001329 -0.002839 -0.006262 0.006171 0.026589
#
#
# Mechanical properties :
#
#
# Convention : Reuss Voigt Hill
#
# Bulk Modulus (GPa) = 26.23098 44.67321 35.45210
# Shear Modulus (GPa) = 23.00106 32.26256 27.63181
#
# Velocity S-wave (km/s) = 3.13375 3.71142 3.43475
# Velocity P-wave (km/s) = 4.92882 6.11879 5.55576
#
# Compressibility (1/GPa) = 0.03812286
#
# Stress axis : x y z
#
# Youngs Moduli (GPa) = 35.60240 73.72866 84.23603
#
# Poissons Ratio (x) = 0.26423 0.19729
# Poissons Ratio (y) = 0.12759 0.14943
# Poissons Ratio (z) = 0.08339 0.13079
#
# Static dielectric constant tensor:
#      x y z
#    x 2.039620 -0.074100 0.024600 
#    y -0.074100 1.857380 -0.012710 
#    z 0.024600 -0.012710 1.856870 
# 
# From -- ./inp_files/196442.got.cif
#   From: 2010.05.17/outbox.cif.g08.bks.cpg/sg2_99_cif.got.tgz:196442.got - 2010.06.03 11:33:40.
