data_PCOD9079461
_publ_section_title
;
Structure prediction by ZEFSAII (Michael W. Deem and Ramdas Pophale) SiO2 
 PCOD9079461
Probable space group: P -1
;
_chemical_formula_sum "Si O2"
_cell_formula_units_Z 16
_cell_length_a 7.651228
_cell_length_b 13.602238
_cell_length_c 6.844611
_cell_angle_alpha 107.103913
_cell_angle_beta 72.088146
_cell_angle_gamma 75.120798
_cell_volume 598.760588
_symmetry_space_group_name_H-M "P -1"
_symmetry_group_IT_number 2
_symmetry_cell_setting 'triclinic'
loop_
_space_group_symop_operation_xyz
x,y,z
-x,-y,-z
loop_
_atom_site_type_symbol
_atom_site_label
_atom_site_fract_x
_atom_site_fract_y
_atom_site_fract_z
Si Si1 0.705398 0.393304 0.907035
Si Si2 0.475464 0.617824 0.666677
Si Si3 0.579521 0.812046 0.635306
Si Si4 0.277453 0.829675 0.314564
Si Si5 0.192019 0.019235 0.018442
Si Si6 0.724095 0.775840 0.978704
Si Si7 0.174578 0.067963 0.524616
Si Si8 0.138762 0.456054 0.242612
O O1 0.714019 0.292836 0.703357
O O2 0.869878 0.442925 0.832082
O O3 0.500000 0.500000 0.000000
O O4 0.709326 0.348323 0.100426
O O5 0.500000 0.500000 0.500000
O O6 0.499885 0.712455 0.575192
O O7 0.650794 0.590609 0.746672
O O8 0.394980 0.914907 0.846593
O O9 0.734839 0.768052 0.733446
O O10 0.691908 0.857406 0.462402
O O11 0.058234 0.872690 0.314120
O O12 0.255216 0.941800 0.508693
O O13 0.493673 0.802979 0.128457
O O14 0.208959 0.122070 0.952676
O O15 0.184738 0.043453 0.268709
O O16 0.000000 0.000000 0.000000
O O17 0.860057 0.653041 0.931671
O O18 0.000000 0.500000 0.500000
#
# Coordination Sequence:
#
# PCOD9079461 Si02
#       8
#     2   2   2   2   2   2   2   2
#     4  10  19  36  59  88 119 151 198 248 293 347
#     4  10  21  38  60  85 119 158 193 241 307 354
#     4  10  18  38  57  80 115 154 199 234 285 363
#     4  11  18  35  63  85 108 150 209 240 282 341
#     4  11  21  35  56  86 117 147 185 245 303 345
#     4  10  18  37  59  80 113 156 196 239 284 358
#     4  10  21  34  63  86 107 154 205 237 282 365
#     4  10  22  37  61  88 116 156 207 245 291 355
#
# _framework density 26.721862000000002
#
# number of rings (size 3 to 8) (size 9 to 14) (size 15 to 20)
#    0.000    1.750    6.250    0.750    5.250    1.000 
#    2.250    1.250    5.500    0.000    0.000    0.000 
#    0.000    0.000    0.000    0.000    0.000    0.000 
#
# Total GULP energy -89260.504211 kJ/mol
# GULP energy per Si atom -5578.781513 kJ/mol
# Density = 2.666104 g / cm^3
# Si number density = 26.721862 Si / 1000 Ang^3
#
#
#
# Elastic Constant Matrix: (Units=GPa)
#
#
# Indices 1 2 3 4 5 6 
#
# 1 92.5740 56.0542 27.4267 1.7063 -5.0719 21.8231
# 2 56.0542 245.8196 65.4369 31.6132 -9.1374 69.8815
# 3 27.4267 65.4369 81.1690 5.5701 -20.9122 9.5533
# 4 1.7063 31.6132 5.5701 50.6683 3.2567 3.7727
# 5 -5.0719 -9.1374 -20.9122 3.2567 41.8689 -9.0065
# 6 21.8231 69.8815 9.5533 3.7727 -9.0065 46.9624
#
#
#
# Elastic Compliance Matrix: (Units=1/GPa)
#
#
# Indices 1 2 3 4 5 6 
#
# 1 0.013429 -0.001078 -0.003598 0.001023 -0.001401 -0.004254
# 2 -0.001078 0.010903 -0.007492 -0.004576 -0.004289 -0.014654
# 3 -0.003598 -0.007492 0.021000 0.001024 0.010596 0.010498
# 4 0.001023 -0.004576 0.001024 0.022216 -0.001207 0.004109
# 5 -0.001401 -0.004289 0.010596 -0.001207 0.030493 0.010823
# 6 -0.004254 -0.014654 0.010498 0.004109 0.010823 0.044686
#
#
# Mechanical properties :
#
#
# Convention : Reuss Voigt Hill
#
# Bulk Modulus (GPa) = 47.63256 79.71093 63.67175
# Shear Modulus (GPa) = 28.72534 45.94289 37.33411
#
# Velocity S-wave (km/s) = 3.28224 4.15094 3.74189
# Velocity P-wave (km/s) = 5.67698 7.27106 6.52290
#
# Compressibility (1/GPa) = 0.02099404
#
# Stress axis : x y z
#
# Youngs Moduli (GPa) = 74.46815 91.71600 47.61942
#
# Poissons Ratio (x) = 0.09892 0.17135
# Poissons Ratio (y) = 0.08031 0.35676
# Poissons Ratio (z) = 0.26796 0.68713
#
# Static dielectric constant tensor:
#      x y z
#    x 2.135720 0.063480 0.140840 
#    y 0.063480 2.253130 -0.047340 
#    z 0.140840 -0.047340 2.264750 
# 
# From -- ./inp_files/203573.got.cif
#   From: 2010.05.17/outbox.cif.g08.bks.cpg/sg2_102_cif.got.tgz:203573.got - 2010.06.03 11:33:40.
