data_PCOD9079384
_publ_section_title
;
Structure prediction by ZEFSAII (Michael W. Deem and Ramdas Pophale) SiO2 
 PCOD9079384
Probable space group: P -1
;
_chemical_formula_sum "Si O2"
_cell_formula_units_Z 16
_cell_length_a 5.411890
_cell_length_b 17.870947
_cell_length_c 26.219645
_cell_angle_alpha 18.865832
_cell_angle_beta 80.558753
_cell_angle_gamma 88.979355
_cell_volume 729.963438
_symmetry_space_group_name_H-M "P -1"
_symmetry_group_IT_number 2
_symmetry_cell_setting 'triclinic'
loop_
_space_group_symop_operation_xyz
x,y,z
-x,-y,-z
loop_
_atom_site_type_symbol
_atom_site_label
_atom_site_fract_x
_atom_site_fract_y
_atom_site_fract_z
Si Si1 0.906128 0.218926 0.840666
Si Si2 0.086855 0.549721 0.047563
Si Si3 0.912624 0.098001 0.277188
Si Si4 0.053732 0.831331 0.967335
Si Si5 0.513689 0.829438 0.030341
Si Si6 0.903260 0.706865 0.390450
Si Si7 0.347296 0.081815 0.208665
Si Si8 0.502665 0.335265 0.488524
O O1 0.714123 0.290746 0.839343
O O2 0.192480 0.457972 0.665629
O O3 0.713625 0.100540 0.874560
O O4 0.000000 0.000000 0.000000
O O5 0.926145 0.256592 0.224791
O O6 0.073114 0.716643 0.891212
O O7 0.004126 0.649211 0.037240
O O8 0.416622 0.634108 0.989225
O O9 0.191147 0.064811 0.278044
O O10 0.662842 0.821291 0.454402
O O11 0.159468 0.133964 0.754568
O O12 0.311074 0.825377 0.994091
O O13 0.752074 0.739689 0.064265
O O14 0.675185 0.572438 0.528447
O O15 0.000000 0.500000 0.500000
O O16 0.135581 0.949616 0.256027
O O17 0.488806 0.890370 0.331583
#
# Coordination Sequence:
#
# PCOD9079384 Si02
#       8
#     2   2   2   2   2   2   2   2
#     4  11  25  48  69  90 122 181 236 277 316 396
#     4  10  19  35  62  91 136 172 219 257 325 401
#     4   9  19  36  61  94 128 179 214 263 326 389
#     4  12  23  44  64 101 139 168 218 273 333 397
#     4  11  27  43  69  94 126 177 225 273 326 383
#     4  11  25  36  59  93 144 181 205 265 336 406
#     4  10  18  37  53  96 130 177 214 259 318 395
#     4  10  23  41  62  94 129 168 229 271 325 387
#
# _framework density 21.918904999999999
#
# number of rings (size 3 to 8) (size 9 to 14) (size 15 to 20)
#    0.000    1.500    5.000    1.125    3.500    4.500 
#    0.000    0.625    0.000    1.500    0.000    0.000 
#    0.000    0.000    0.000    0.000    0.000    0.000 
#
# Total GULP energy -89214.755203 kJ/mol
# GULP energy per Si atom -5575.922200 kJ/mol
# Density = 2.186902 g / cm^3
# Si number density = 21.918905 Si / 1000 Ang^3
#
#
#
# Elastic Constant Matrix: (Units=GPa)
#
#
# Indices 1 2 3 4 5 6 
#
# 1 116.5211 59.2609 32.1081 -12.3214 -26.7684 -13.4197
# 2 59.2609 152.9571 40.0304 -32.5561 -20.7692 -15.6571
# 3 32.1081 40.0304 55.0720 -15.9214 -30.5241 -14.5053
# 4 -12.3214 -32.5561 -15.9214 17.9726 -4.2203 1.5020
# 5 -26.7684 -20.7692 -30.5241 -4.2203 41.9277 13.6706
# 6 -13.4197 -15.6571 -14.5053 1.5020 13.6706 28.0289
#
#
#
# Elastic Compliance Matrix: (Units=1/GPa)
#
#
# Indices 1 2 3 4 5 6 
#
# 1 0.012080 -0.002418 0.001200 0.006713 0.007769 0.000905
# 2 -0.002418 0.017038 0.017114 0.049571 0.023303 0.003194
# 3 0.001200 0.017114 0.100269 0.141916 0.093680 0.008729
# 4 0.006713 0.049571 0.141916 0.312698 0.160617 0.009253
# 5 0.007769 0.023303 0.093680 0.160617 0.126357 -0.005019
# 6 0.000905 0.003194 0.008729 0.009253 -0.005019 0.044364
#
#
# Mechanical properties :
#
#
# Convention : Reuss Voigt Hill
#
# Bulk Modulus (GPa) = 6.20432 65.26098 35.73265
# Shear Modulus (GPa) = 7.87722 30.46257 19.16990
#
# Velocity S-wave (km/s) = 1.89779 3.73203 2.96054
# Velocity P-wave (km/s) = 2.76385 6.95767 5.29377
#
# Compressibility (1/GPa) = 0.16117808
#
# Stress axis : x y z
#
# Youngs Moduli (GPa) = 82.78096 58.69331 9.97315
#
# Poissons Ratio (x) = 0.14191 -0.01196
# Poissons Ratio (y) = 0.20014 -0.17068
# Poissons Ratio (z) = -0.09931 -1.00446
#
# Static dielectric constant tensor:
#      x y z
#    x 1.981750 0.013450 0.027770 
#    y 0.013450 1.869260 0.027540 
#    z 0.027770 0.027540 1.814860 
# 
# From -- ./inp_files/615824.got.cif
#   From: 2010.05.17/outbox.cif.g08.bks.cpg/sg2_308_cif.got.tgz:615824.got - 2010.06.03 11:33:40.
