data_PCOD9079367
_publ_section_title
;
Structure prediction by ZEFSAII (Michael W. Deem and Ramdas Pophale) SiO2 
 PCOD9079367
Probable space group: P -1
;
_chemical_formula_sum "Si O2"
_cell_formula_units_Z 15
_cell_length_a 8.644160
_cell_length_b 14.130123
_cell_length_c 9.151468
_cell_angle_alpha 65.749468
_cell_angle_beta 53.386226
_cell_angle_gamma 102.988899
_cell_volume 627.310152
_symmetry_space_group_name_H-M "P -1"
_symmetry_group_IT_number 2
_symmetry_cell_setting 'triclinic'
loop_
_space_group_symop_operation_xyz
x,y,z
-x,-y,-z
loop_
_atom_site_type_symbol
_atom_site_label
_atom_site_fract_x
_atom_site_fract_y
_atom_site_fract_z
Si Si1 0.500000 0.500000 0.500000
Si Si2 0.096410 0.263242 0.603441
Si Si3 0.243473 0.787305 0.613180
Si Si4 0.742888 0.853034 0.205425
Si Si5 0.949478 0.864181 0.585204
Si Si6 0.986710 0.572954 0.643170
Si Si7 0.097175 0.679253 0.080181
Si Si8 0.524757 0.684565 0.150202
O O1 0.530261 0.570559 0.281042
O O2 0.799294 0.570629 0.284257
O O3 0.023027 0.157256 0.586277
O O4 0.153263 0.386462 0.397153
O O5 0.883893 0.232402 0.853716
O O6 0.280403 0.263065 0.611454
O O7 0.522622 0.855041 0.366990
O O8 0.146128 0.864339 0.567015
O O9 0.070136 0.648741 0.703482
O O10 0.225626 0.763898 0.809502
O O11 0.703087 0.805511 0.091637
O O12 0.000000 0.000000 0.000000
O O13 0.000000 0.000000 0.500000
O O14 0.670711 0.743124 0.879338
O O15 0.246080 0.634149 0.371189
O O16 0.837741 0.415996 0.855059
#
# Coordination Sequence:
#
# PCOD9079367 Si02
#       8
#     1   2   2   2   2   2   2   2
#     4  10  18  36  70  88 124 168 210 258 318 384
#     4  11  23  40  60  97 135 159 223 272 322 373
#     4  10  22  42  66  95 125 175 224 254 326 402
#     4  11  23  42  65  94 128 173 224 270 313 386
#     4  11  23  42  65  94 131 174 220 270 331 384
#     4   9  22  38  64  95 133 168 212 267 334 386
#     4  11  20  40  67  95 132 172 215 266 320 397
#     4  10  20  41  65  92 126 178 215 258 331 395
#
# _framework density 23.911615000000001
#
# number of rings (size 3 to 8) (size 9 to 14) (size 15 to 20)
#    0.000    1.600    2.667    1.600    0.000    2.133 
#    0.000   12.000    0.000    0.000    0.000    0.000 
#    0.000    0.000    0.000    0.000    0.000    0.000 
#
# Total GULP energy -83637.121310 kJ/mol
# GULP energy per Si atom -5575.808087 kJ/mol
# Density = 2.385719 g / cm^3
# Si number density = 23.911615 Si / 1000 Ang^3
#
#
#
# Elastic Constant Matrix: (Units=GPa)
#
#
# Indices 1 2 3 4 5 6 
#
# 1 117.2060 64.6890 33.9948 0.3778 -4.5087 -14.0322
# 2 64.6890 120.7762 47.0811 30.5876 15.2415 -16.1732
# 3 33.9948 47.0811 78.3168 22.9838 6.0507 6.4458
# 4 0.3778 30.5876 22.9838 29.8510 13.3427 6.7403
# 5 -4.5087 15.2415 6.0507 13.3427 36.7058 7.1057
# 6 -14.0322 -16.1732 6.4458 6.7403 7.1057 48.6725
#
#
#
# Elastic Compliance Matrix: (Units=1/GPa)
#
#
# Indices 1 2 3 4 5 6 
#
# 1 0.015352 -0.009993 -0.004490 0.012568 0.002279 -0.000373
# 2 -0.009993 0.021302 -0.003161 -0.019217 -0.004090 0.007874
# 3 -0.004490 -0.003161 0.020489 -0.012894 0.002782 -0.003679
# 4 0.012568 -0.019217 -0.012894 0.070458 -0.012215 -0.009029
# 5 0.002279 -0.004090 0.002782 -0.012215 0.034046 -0.004349
# 6 -0.000373 0.007874 -0.003679 -0.009029 -0.004349 0.025427
#
#
# Mechanical properties :
#
#
# Convention : Reuss Voigt Hill
#
# Bulk Modulus (GPa) = 45.75438 67.53653 56.64545
# Shear Modulus (GPa) = 21.77258 34.41480 28.09369
#
# Velocity S-wave (km/s) = 3.02080 3.79786 3.43140
# Velocity P-wave (km/s) = 5.59851 6.89472 6.28015
#
# Compressibility (1/GPa) = 0.02185583
#
# Stress axis : x y z
#
# Youngs Moduli (GPa) = 65.13721 46.94472 48.80557
#
# Poissons Ratio (x) = 0.46912 0.21915
# Poissons Ratio (y) = 0.65091 0.15425
# Poissons Ratio (z) = 0.29249 0.14837
#
# Static dielectric constant tensor:
#      x y z
#    x 1.939450 0.107110 -0.019680 
#    y 0.107110 2.430190 -0.236180 
#    z -0.019680 -0.236180 1.982620 
# 
# From -- ./inp_files/200686.got.cif
#   From: 2010.05.17/outbox.cif.g08.bks.cpg/sg2_101_cif.got.tgz:200686.got - 2010.06.03 11:33:40.
