data_PCOD9079958
_publ_section_title
;
Structure prediction by ZEFSAII (Michael W. Deem and Ramdas Pophale) SiO2 
 PCOD9079958
Probable space group: P -1
;
_chemical_formula_sum "Si O2"
_cell_formula_units_Z 15
_cell_length_a 10.710659
_cell_length_b 11.583535
_cell_length_c 8.527318
_cell_angle_alpha 42.101016
_cell_angle_beta 89.376888
_cell_angle_gamma 103.573022
_cell_volume 661.126013
_symmetry_space_group_name_H-M "P -1"
_symmetry_group_IT_number 2
_symmetry_cell_setting 'triclinic'
loop_
_space_group_symop_operation_xyz
x,y,z
-x,-y,-z
loop_
_atom_site_type_symbol
_atom_site_label
_atom_site_fract_x
_atom_site_fract_y
_atom_site_fract_z
Si Si1 0.476274 0.857298 0.784762
Si Si2 0.939926 0.416677 0.872334
Si Si3 0.709653 0.845843 0.012741
Si Si4 0.716641 0.478814 0.027167
Si Si5 0.000000 0.500000 0.500000
Si Si6 0.721642 0.157635 0.927204
Si Si7 0.100294 0.169424 0.236162
Si Si8 0.282048 0.530617 0.591003
O O1 0.604839 0.884411 0.859521
O O2 0.417914 0.649024 0.926226
O O3 0.364120 0.883330 0.873730
O O4 0.500000 0.000000 0.500000
O O5 0.830082 0.429104 0.980421
O O6 0.871909 0.301706 0.826624
O O7 0.021329 0.306567 0.061687
O O8 0.012578 0.598578 0.587394
O O9 0.842810 0.883204 0.870131
O O10 0.657890 0.628793 0.275791
O O11 0.728979 0.980512 0.022400
O O12 0.710657 0.433168 0.258602
O O13 0.768722 0.701164 0.799240
O O14 0.131315 0.443131 0.612352
O O15 0.660852 0.276249 0.696873
O O16 0.000000 0.000000 0.500000
#
# Coordination Sequence:
#
# PCOD9079958 Si02
#       8
#     2   2   2   2   1   2   2   2
#     4  11  25  46  74 100 136 182 236 285 346 406
#     4  10  21  40  63  97 133 178 227 271 357 401
#     4  11  24  45  68 102 139 182 236 282 340 414
#     4  10  22  43  67  98 132 185 224 282 338 405
#     4  10  18  38  58  92 136 172 218 270 334 418
#     4  10  24  43  69 100 137 180 227 289 348 406
#     4  11  25  39  65 106 137 174 228 282 345 409
#     4  10  22  41  67  98 137 179 229 275 351 405
#
# _framework density 22.688565000000001
#
# number of rings (size 3 to 8) (size 9 to 14) (size 15 to 20)
#    0.000    1.600    2.667    1.600    5.600    4.267 
#    7.200    1.333    0.000    0.000    0.000    0.000 
#    0.000    0.000    0.000    0.000    0.000    0.000 
#
# Total GULP energy -83538.261870 kJ/mol
# GULP energy per Si atom -5569.217458 kJ/mol
# Density = 2.263693 g / cm^3
# Si number density = 22.688565 Si / 1000 Ang^3
#
#
#
# Elastic Constant Matrix: (Units=GPa)
#
#
# Indices 1 2 3 4 5 6 
#
# 1 39.5412 15.0421 3.6251 5.5360 -1.1007 -4.0970
# 2 15.0421 148.7653 39.0119 2.5846 -8.0802 -14.7179
# 3 3.6251 39.0119 82.1695 10.3899 -25.3149 -13.5197
# 4 5.5360 2.5846 10.3899 20.6683 -2.9618 2.8197
# 5 -1.1007 -8.0802 -25.3149 -2.9618 30.8864 8.1366
# 6 -4.0970 -14.7179 -13.5197 2.8197 8.1366 35.0596
#
#
#
# Elastic Compliance Matrix: (Units=1/GPa)
#
#
# Indices 1 2 3 4 5 6 
#
# 1 0.027717 -0.002767 0.001702 -0.008407 -0.000049 0.003421
# 2 -0.002767 0.008150 -0.004146 0.001317 -0.001710 0.001790
# 3 0.001702 -0.004146 0.019907 -0.008512 0.013505 0.003685
# 4 -0.008407 0.001317 -0.008512 0.055982 0.000640 -0.008363
# 5 -0.000049 -0.001710 0.013505 0.000640 0.044618 -0.005922
# 6 0.003421 0.001790 0.003685 -0.008363 -0.005922 0.033142
#
#
# Mechanical properties :
#
#
# Convention : Reuss Voigt Hill
#
# Bulk Modulus (GPa) = 22.05035 42.87047 32.46041
# Shear Modulus (GPa) = 23.24981 31.50933 27.37957
#
# Velocity S-wave (km/s) = 3.20462 3.73067 3.47761
# Velocity P-wave (km/s) = 4.84073 6.12319 5.51933
#
# Compressibility (1/GPa) = 0.04535075
#
# Stress axis : x y z
#
# Youngs Moduli (GPa) = 36.07918 122.69254 50.23466
#
# Poissons Ratio (x) = 0.33948 -0.08549
# Poissons Ratio (y) = 0.09983 0.20829
# Poissons Ratio (z) = -0.06140 0.50873
#
# Static dielectric constant tensor:
#      x y z
#    x 1.979290 0.006490 -0.129580 
#    y 0.006490 1.918530 0.018200 
#    z -0.129580 0.018200 2.048720 
# 
# From -- ./inp_files/251436.got.cif
#   From: 2010.05.17/outbox.cif.g08.bks.cpg/sg2_126_cif.got.tgz:251436.got - 2010.06.03 11:33:40.
