data_PCOD9079225
_publ_section_title
;
Structure prediction by ZEFSAII (Michael W. Deem and Ramdas Pophale) SiO2 
 PCOD9079225
Probable space group: P -1
;
_chemical_formula_sum "Si O2"
_cell_formula_units_Z 16
_cell_length_a 7.216890
_cell_length_b 15.191748
_cell_length_c 11.238926
_cell_angle_alpha 138.764609
_cell_angle_beta 112.449889
_cell_angle_gamma 91.141048
_cell_volume 648.309716
_symmetry_space_group_name_H-M "P -1"
_symmetry_group_IT_number 2
_symmetry_cell_setting 'triclinic'
loop_
_space_group_symop_operation_xyz
x,y,z
-x,-y,-z
loop_
_atom_site_type_symbol
_atom_site_label
_atom_site_fract_x
_atom_site_fract_y
_atom_site_fract_z
Si Si1 0.734244 0.642222 0.638045
Si Si2 0.565389 0.836515 0.068825
Si Si3 0.267264 0.795082 0.716513
Si Si4 0.022838 0.448286 0.226346
Si Si5 0.533788 0.915222 0.652769
Si Si6 0.931193 0.983503 0.129618
Si Si7 0.438245 0.470838 0.186377
Si Si8 0.255205 0.611563 0.121081
O O1 0.500000 0.500000 0.500000
O O2 0.951177 0.629132 0.725993
O O3 0.798268 0.814190 0.862922
O O4 0.662522 0.602378 0.443947
O O5 0.410242 0.796781 0.869236
O O6 0.830185 0.947175 0.201828
O O7 0.554438 0.685043 0.962801
O O8 0.488910 0.935593 0.229683
O O9 0.098211 0.621052 0.457012
O O10 0.431147 0.867588 0.713529
O O11 0.143423 0.895312 0.811643
O O12 0.218006 0.445927 0.186892
O O13 0.796169 0.379042 0.019636
O O14 0.797756 0.955122 0.749751
O O15 0.375934 0.774193 0.383750
O O16 0.401440 0.531313 0.114455
O O17 0.000000 0.500000 0.000000
#
# Coordination Sequence:
#
# PCOD9079225 Si02
#       8
#     2   2   2   2   2   2   2   2
#     4  10  18  36  65  88 125 168 207 258 315 371
#     4  11  22  39  64  93 129 168 207 258 323 377
#     4  11  22  39  65  94 128 170 208 255 325 378
#     4  10  18  38  67  90 122 172 213 253 313 380
#     4  11  24  40  60  96 130 164 209 266 317 374
#     4  11  23  38  61  97 129 165 208 266 316 372
#     4  10  18  36  64  92 120 169 211 255 313 374
#     4  10  21  39  66  90 125 171 214 259 313 380
#
# _framework density 24.679561
#
# number of rings (size 3 to 8) (size 9 to 14) (size 15 to 20)
#    0.000    1.500    6.250    2.250    1.750    2.000 
#    0.000    6.875    0.000    0.000    0.000    0.000 
#    0.000    0.000    0.000    0.000    0.000    0.000 
#
# Total GULP energy -89564.594681 kJ/mol
# GULP energy per Si atom -5597.787168 kJ/mol
# Density = 2.462339 g / cm^3
# Si number density = 24.679561 Si / 1000 Ang^3
#
#
#
# Elastic Constant Matrix: (Units=GPa)
#
#
# Indices 1 2 3 4 5 6 
#
# 1 154.7842 51.2642 65.4655 10.4255 6.2058 -21.6939
# 2 51.2642 203.3604 113.7354 2.6300 -12.2292 -60.4978
# 3 65.4655 113.7354 180.5936 14.9910 6.8745 -37.3305
# 4 10.4255 2.6300 14.9910 52.9832 -11.4977 -10.0815
# 5 6.2058 -12.2292 6.8745 -11.4977 18.0954 10.6403
# 6 -21.6939 -60.4978 -37.3305 -10.0815 10.6403 32.8358
#
#
#
# Elastic Compliance Matrix: (Units=1/GPa)
#
#
# Indices 1 2 3 4 5 6 
#
# 1 0.008197 -0.000038 -0.001500 -0.001569 -0.006327 0.005209
# 2 -0.000038 0.014066 -0.005033 0.005254 0.002424 0.020996
# 3 -0.001500 -0.005033 0.011243 -0.004466 -0.013183 0.005420
# 4 -0.001569 0.005254 -0.004466 0.025251 0.018746 0.005246
# 5 -0.006327 0.002424 -0.013183 0.018746 0.100375 -0.041472
# 6 0.005209 0.020996 0.005420 0.005246 -0.041472 0.093790
#
#
# Mechanical properties :
#
#
# Convention : Reuss Voigt Hill
#
# Bulk Modulus (GPa) = 49.10513 111.07427 80.08970
# Shear Modulus (GPa) = 18.32492 41.33440 29.82966
#
# Velocity S-wave (km/s) = 2.72787 4.09692 3.48038
# Velocity P-wave (km/s) = 5.46461 8.21487 6.97660
#
# Compressibility (1/GPa) = 0.02036447
#
# Stress axis : x y z
#
# Youngs Moduli (GPa) = 121.99809 71.09500 88.94158
#
# Poissons Ratio (x) = 0.00272 0.13337
# Poissons Ratio (y) = 0.00467 0.44763
# Poissons Ratio (z) = 0.18294 0.35781
#
# Static dielectric constant tensor:
#      x y z
#    x 2.079390 0.064190 0.036910 
#    y 0.064190 2.024490 0.010310 
#    z 0.036910 0.010310 1.924930 
# 
# From -- ./inp_files/448855.got.cif
#   From: 2010.05.17/outbox.cif.g08.bks.cpg/sg2_225_cif.got.tgz:448855.got - 2010.06.03 11:33:40.
