data_PCOD9079169
_publ_section_title
;
Structure prediction by ZEFSAII (Michael W. Deem and Ramdas Pophale) SiO2 
 PCOD9079169
Probable space group: P -1
;
_chemical_formula_sum "Si O2"
_cell_formula_units_Z 16
_cell_length_a 15.933063
_cell_length_b 8.534482
_cell_length_c 9.191645
_cell_angle_alpha 35.369242
_cell_angle_beta 61.425648
_cell_angle_gamma 71.492986
_cell_volume 628.850785
_symmetry_space_group_name_H-M "P -1"
_symmetry_group_IT_number 2
_symmetry_cell_setting 'triclinic'
loop_
_space_group_symop_operation_xyz
x,y,z
-x,-y,-z
loop_
_atom_site_type_symbol
_atom_site_label
_atom_site_fract_x
_atom_site_fract_y
_atom_site_fract_z
Si Si1 0.893320 0.968423 0.678581
Si Si2 0.244660 0.425985 0.555944
Si Si3 0.683118 0.000246 0.382428
Si Si4 0.607866 0.462356 0.384704
Si Si5 0.380068 0.604250 0.074721
Si Si6 0.445294 0.130334 0.081845
Si Si7 0.145717 0.677723 0.819301
Si Si8 0.957943 0.840597 0.012923
O O1 0.842847 0.159591 0.467426
O O2 0.852347 0.645653 0.948208
O O3 0.910121 0.022217 0.795365
O O4 0.000000 0.000000 0.500000
O O5 0.267585 0.138699 0.689770
O O6 0.312839 0.485521 0.594632
O O7 0.130548 0.389293 0.697333
O O8 0.289038 0.630179 0.236816
O O9 0.364355 0.284074 0.288042
O O10 0.614980 0.192167 0.217561
O O11 0.769606 0.178565 0.258822
O O12 0.500000 0.500000 0.500000
O O13 0.626357 0.686001 0.073217
O O14 0.471751 0.679688 0.044216
O O15 0.400478 0.855561 0.411415
O O16 0.500000 0.000000 0.000000
O O17 0.044028 0.720073 0.947894
O O18 0.000000 0.000000 0.000000
#
# Coordination Sequence:
#
# PCOD9079169 Si02
#       8
#     2   2   2   2   2   2   2   2
#     4  10  23  43  63  80 111 161 206 236 285 356
#     4  10  21  32  51  85 120 144 194 241 293 342
#     4  10  19  33  52  80 112 148 187 240 281 332
#     4  10  17  28  47  70 111 159 177 221 291 359
#     4  10  18  30  47  82 114 148 185 239 282 348
#     4  10  15  27  45  65 109 155 180 212 292 348
#     4  11  22  44  61  82 116 166 200 235 285 354
#     4  11  21  42  60  91 119 158 190 249 297 336
#
# _framework density 25.443238999999998
#
# number of rings (size 3 to 8) (size 9 to 14) (size 15 to 20)
#    0.750    1.000    3.750    4.500    0.000    0.000 
#    6.750    6.250    0.000    0.000    0.000    0.000 
#    0.000   34.000    0.000    0.000    0.000    0.000 
#
# Total GULP energy -89527.976172 kJ/mol
# GULP energy per Si atom -5595.498511 kJ/mol
# Density = 2.538533 g / cm^3
# Si number density = 25.443239 Si / 1000 Ang^3
#
#
#
# Elastic Constant Matrix: (Units=GPa)
#
#
# Indices 1 2 3 4 5 6 
#
# 1 130.4271 66.2890 56.3132 -19.9788 0.5718 22.2957
# 2 66.2890 121.7998 41.2222 -36.4925 11.8048 20.9048
# 3 56.3132 41.2222 158.8640 -17.8096 13.3775 -5.3579
# 4 -19.9788 -36.4925 -17.8096 55.1682 -16.2735 -6.6737
# 5 0.5718 11.8048 13.3775 -16.2735 63.6285 3.2287
# 6 22.2957 20.9048 -5.3579 -6.6737 3.2287 53.8024
#
#
#
# Elastic Compliance Matrix: (Units=1/GPa)
#
#
# Indices 1 2 3 4 5 6 
#
# 1 0.012294 -0.005114 -0.003285 0.000093 0.001732 -0.003527
# 2 -0.005114 0.013773 -0.001079 0.006458 -0.000503 -0.002509
# 3 -0.003285 -0.001079 0.008020 0.000590 -0.001444 0.002739
# 4 0.000093 0.006458 0.000590 0.024070 0.004823 0.000207
# 5 0.001732 -0.000503 -0.001444 0.004823 0.017387 -0.001111
# 6 -0.003527 -0.002509 0.002739 0.000207 -0.001111 0.021388
#
#
# Mechanical properties :
#
#
# Convention : Reuss Voigt Hill
#
# Bulk Modulus (GPa) = 66.09479 82.08216 74.08847
# Shear Modulus (GPa) = 41.34522 51.00427 46.17475
#
# Velocity S-wave (km/s) = 4.03550 4.48217 4.26468
# Velocity P-wave (km/s) = 6.90995 7.68878 7.30975
#
# Compressibility (1/GPa) = 0.01512979
#
# Stress axis : x y z
#
# Youngs Moduli (GPa) = 81.33825 72.60659 124.69475
#
# Poissons Ratio (x) = 0.37129 0.40968
# Poissons Ratio (y) = 0.41594 0.13459
# Poissons Ratio (z) = 0.26723 0.07837
#
# Static dielectric constant tensor:
#      x y z
#    x 1.922330 -0.046780 0.035620 
#    y -0.046780 2.108260 0.094270 
#    z 0.035620 0.094270 2.177390 
# 
# From -- ./inp_files/261734.got.cif
#   From: 2010.05.17/outbox.cif.g08.bks.cpg/sg2_131_cif.got.tgz:261734.got - 2010.06.03 11:33:40.
