data_PCOD9079136
_publ_section_title
;
Structure prediction by ZEFSAII (Michael W. Deem and Ramdas Pophale) SiO2 
 PCOD9079136
Probable space group: P -1
;
_chemical_formula_sum "Si O2"
_cell_formula_units_Z 16
_cell_length_a 19.409909
_cell_length_b 7.290523
_cell_length_c 8.490923
_cell_angle_alpha 61.880830
_cell_angle_beta 46.353992
_cell_angle_gamma 46.049899
_cell_volume 625.889656
_symmetry_space_group_name_H-M "P -1"
_symmetry_group_IT_number 2
_symmetry_cell_setting 'triclinic'
loop_
_space_group_symop_operation_xyz
x,y,z
-x,-y,-z
loop_
_atom_site_type_symbol
_atom_site_label
_atom_site_fract_x
_atom_site_fract_y
_atom_site_fract_z
Si Si1 0.235000 0.683236 0.347932
Si Si2 0.006338 0.356640 0.799152
Si Si3 0.762168 0.089392 0.264885
Si Si4 0.589121 0.442461 0.142123
Si Si5 0.354166 0.213659 0.945652
Si Si6 0.099703 0.628179 0.343589
Si Si7 0.231676 0.459975 0.758988
Si Si8 0.355066 0.833927 0.288029
O O1 0.132568 0.775147 0.347935
O O2 0.238708 0.499365 0.548099
O O3 0.243055 0.884598 0.352535
O O4 0.350630 0.560015 0.111456
O O5 0.044452 0.519629 0.584782
O O6 0.980626 0.236028 0.737845
O O7 0.106622 0.153240 0.839543
O O8 0.886947 0.508248 0.022807
O O9 0.686141 0.192619 0.186039
O O10 0.767032 0.315756 0.243240
O O11 0.693563 0.036190 0.520750
O O12 0.457551 0.536995 0.280117
O O13 0.574987 0.668341 0.178480
O O14 0.225959 0.402176 0.158912
O O15 0.406684 0.948224 0.053265
O O16 0.332744 0.214814 0.794022
#
# Coordination Sequence:
#
# PCOD9079136 Si02
#       8
#     2   2   2   2   2   2   2   2
#     4  10  22  39  54  83 123 149 178 236 285 332
#     4  10  18  36  63  82 109 149 193 228 277 334
#     4  10  20  36  60  88 109 143 196 235 270 334
#     4  10  21  38  59  83 114 152 189 231 277 330
#     4   9  18  37  59  86 109 147 194 232 269 336
#     4   9  19  36  61  84 112 146 185 235 282 333
#     4   9  20  35  57  81 120 147 179 230 286 331
#     4  11  20  37  61  84 114 148 188 235 284 325
#
# _framework density 25.563611999999999
#
# number of rings (size 3 to 8) (size 9 to 14) (size 15 to 20)
#    0.000    2.250    1.250    2.250    0.000    0.500 
#    2.250    6.250    0.000    0.000    0.000    0.000 
#    0.000    0.000    0.000    0.000    0.000    0.000 
#
# Total GULP energy -89391.902708 kJ/mol
# GULP energy per Si atom -5586.993919 kJ/mol
# Density = 2.550543 g / cm^3
# Si number density = 25.563612 Si / 1000 Ang^3
#
#
#
# Elastic Constant Matrix: (Units=GPa)
#
#
# Indices 1 2 3 4 5 6 
#
# 1 122.4050 35.6351 20.6667 -1.1934 11.9204 -12.9249
# 2 35.6351 49.8224 -0.8098 -7.9474 11.2612 -25.9641
# 3 20.6667 -0.8098 67.8153 -3.8007 13.8386 -0.0613
# 4 -1.1934 -7.9474 -3.8007 29.4012 -11.2214 -5.1424
# 5 11.9204 11.2612 13.8386 -11.2214 33.5034 -6.3586
# 6 -12.9249 -25.9641 -0.0613 -5.1424 -6.3586 31.4522
#
#
#
# Elastic Compliance Matrix: (Units=1/GPa)
#
#
# Indices 1 2 3 4 5 6 
#
# 1 0.011803 -0.012346 -0.003744 -0.005006 -0.001404 -0.006451
# 2 -0.012346 0.056334 0.005911 0.023114 -0.000686 0.045082
# 3 -0.003744 0.005911 0.017462 0.001427 -0.006972 0.002199
# 4 -0.005006 0.023114 0.001427 0.051394 0.016080 0.028680
# 5 -0.001404 -0.000686 -0.006972 0.016080 0.040684 0.009697
# 6 -0.006451 0.045082 0.002199 0.028680 0.009697 0.073013
#
#
# Mechanical properties :
#
#
# Convention : Reuss Voigt Hill
#
# Bulk Modulus (GPa) = 15.32765 39.00295 27.16530
# Shear Modulus (GPa) = 17.07685 31.17475 24.12580
#
# Velocity S-wave (km/s) = 2.58740 3.49592 3.07539
# Velocity P-wave (km/s) = 3.86459 5.62011 4.82290
#
# Compressibility (1/GPa) = 0.06524158
#
# Stress axis : x y z
#
# Youngs Moduli (GPa) = 84.72675 17.75141 57.26617
#
# Poissons Ratio (x) = 0.21915 0.21441
# Poissons Ratio (y) = 1.04600 -0.33852
# Poissons Ratio (z) = 0.31723 -0.10493
#
# Static dielectric constant tensor:
#      x y z
#    x 2.100300 0.051200 0.027420 
#    y 0.051200 2.020910 -0.038520 
#    z 0.027420 -0.038520 2.004560 
# 
# From -- ./inp_files/208934.got.cif
#   From: 2010.05.17/outbox.cif.g08.bks.cpg/sg2_105_cif.got.tgz:208934.got - 2010.06.03 11:33:40.
