data_PCOD9079240
_publ_section_title
;
Structure prediction by ZEFSAII (Michael W. Deem and Ramdas Pophale) SiO2 
 PCOD9079240
Probable space group: P -1
;
_chemical_formula_sum "Si O2"
_cell_formula_units_Z 14
_cell_length_a 16.016750
_cell_length_b 13.922775
_cell_length_c 21.775436
_cell_angle_alpha 158.573942
_cell_angle_beta 159.111249
_cell_angle_gamma 35.078125
_cell_volume 581.274088
_symmetry_space_group_name_H-M "P -1"
_symmetry_group_IT_number 2
_symmetry_cell_setting 'triclinic'
loop_
_space_group_symop_operation_xyz
x,y,z
-x,-y,-z
loop_
_atom_site_type_symbol
_atom_site_label
_atom_site_fract_x
_atom_site_fract_y
_atom_site_fract_z
Si Si1 0.180259 0.430727 0.263235
Si Si2 0.596083 0.057716 0.670437
Si Si3 0.196651 0.846262 0.710917
Si Si4 0.776413 0.687593 0.647656
Si Si5 0.396307 0.472210 0.760627
Si Si6 0.059125 0.175465 0.708489
Si Si7 0.162103 0.899339 0.864190
O O1 0.319531 0.482045 0.455276
O O2 0.141273 0.672351 0.339256
O O3 0.249504 0.203684 0.137419
O O4 0.889755 0.263180 0.987187
O O5 0.571796 0.780367 0.527090
O O6 0.500000 0.000000 0.500000
O O7 0.456881 0.255969 0.718437
O O8 0.128057 0.518721 0.448616
O O9 0.159648 0.895727 0.786298
O O10 0.054699 0.984829 0.650498
O O11 0.500000 0.000000 0.000000
O O12 0.000000 0.000000 0.000000
O O13 0.332002 0.725023 0.896182
O O14 0.135683 0.280829 0.432637
O O15 0.643097 0.613827 0.971357
O O16 0.000000 0.000000 0.500000
#
# Coordination Sequence:
#
# PCOD9079240 Si02
#       7
#     2   2   2   2   2   2   2
#     4  10  22  40  67  94 134 175 224 279 339 397
#     4  10  18  36  64  95 129 174 224 266 331 406
#     4  12  25  43  69 100 136 183 228 275 349 412
#     4  10  23  40  66  98 132 181 227 274 333 417
#     4  10  22  39  67  98 136 176 220 277 340 404
#     4  11  23  45  68  96 139 183 221 274 352 414
#     4  11  23  41  68 106 133 173 232 286 336 399
#
# _framework density 24.085023
#
# number of rings (size 3 to 8) (size 9 to 14) (size 15 to 20)
#    0.000    1.429    4.286    0.857    8.000    0.571 
#    0.000    5.714    0.000    0.000    0.000    0.000 
#    0.000    0.000    0.000    0.000    0.000    0.000 
#
# Total GULP energy -78199.453582 kJ/mol
# GULP energy per Si atom -5585.675256 kJ/mol
# Density = 2.403020 g / cm^3
# Si number density = 24.085023 Si / 1000 Ang^3
#
#
#
# Elastic Constant Matrix: (Units=GPa)
#
#
# Indices 1 2 3 4 5 6 
#
# 1 113.2063 77.5008 24.1849 4.0287 -23.4718 12.2723
# 2 77.5008 269.2653 0.4633 22.5152 -25.4285 19.0636
# 3 24.1849 0.4633 49.3206 2.4738 -8.2500 5.4047
# 4 4.0287 22.5152 2.4738 32.7274 -14.0887 -9.1704
# 5 -23.4718 -25.4285 -8.2500 -14.0887 40.7898 -0.6152
# 6 12.2723 19.0636 5.4047 -9.1704 -0.6152 44.2126
#
#
#
# Elastic Compliance Matrix: (Units=1/GPa)
#
#
# Indices 1 2 3 4 5 6 
#
# 1 0.013691 -0.003640 -0.005835 0.003478 0.005619 -0.000718
# 2 -0.003640 0.005274 0.002231 -0.003890 0.000266 -0.002339
# 3 -0.005835 0.002231 0.023871 -0.002563 0.001934 -0.002765
# 4 0.003478 -0.003890 -0.002563 0.041599 0.013574 0.009842
# 5 0.005619 0.000266 0.001934 0.013574 0.033015 0.001364
# 6 -0.000718 -0.002339 -0.002765 0.009842 0.001364 0.026224
#
#
# Mechanical properties :
#
#
# Convention : Reuss Voigt Hill
#
# Bulk Modulus (GPa) = 35.27589 70.67668 52.97629
# Shear Modulus (GPa) = 29.83100 45.52216 37.67658
#
# Velocity S-wave (km/s) = 3.52315 4.35220 3.95943
# Velocity P-wave (km/s) = 5.58823 7.39350 6.55333
#
# Compressibility (1/GPa) = 0.02834797
#
# Stress axis : x y z
#
# Youngs Moduli (GPa) = 73.04063 189.62547 41.89190
#
# Poissons Ratio (x) = 0.69021 0.24444
# Poissons Ratio (y) = 0.26586 -0.09347
# Poissons Ratio (z) = 0.42620 -0.42309
#
# Static dielectric constant tensor:
#      x y z
#    x 1.940410 0.024620 -0.008200 
#    y 0.024620 2.054770 0.001170 
#    z -0.008200 0.001170 2.076720 
# 
# From -- ./inp_files/613271.got.cif
#   From: 2010.05.17/outbox.cif.g08.bks.cpg/sg2_307_cif.got.tgz:613271.got - 2010.06.03 11:33:40.
