data_PCOD9079195
_publ_section_title
;
Structure prediction by ZEFSAII (Michael W. Deem and Ramdas Pophale) SiO2 
 PCOD9079195
Probable space group: P -1
;
_chemical_formula_sum "Si O2"
_cell_formula_units_Z 16
_cell_length_a 11.585655
_cell_length_b 18.790551
_cell_length_c 6.956696
_cell_angle_alpha 104.937057
_cell_angle_beta 77.011386
_cell_angle_gamma 154.467411
_cell_volume 630.608179
_symmetry_space_group_name_H-M "P -1"
_symmetry_group_IT_number 2
_symmetry_cell_setting 'triclinic'
loop_
_space_group_symop_operation_xyz
x,y,z
-x,-y,-z
loop_
_atom_site_type_symbol
_atom_site_label
_atom_site_fract_x
_atom_site_fract_y
_atom_site_fract_z
Si Si1 0.425835 0.401897 0.628485
Si Si2 0.376029 0.579878 0.084747
Si Si3 0.049679 0.114323 0.050162
Si Si4 0.955631 0.694883 0.232678
Si Si5 0.486615 0.813266 0.162407
Si Si6 0.035988 0.629969 0.452707
Si Si7 0.881996 0.064949 0.649776
Si Si8 0.334899 0.717000 0.707928
O O1 0.500000 0.500000 0.500000
O O2 0.595817 0.444961 0.736306
O O3 0.277469 0.379464 0.803769
O O4 0.157505 0.206957 0.525499
O O5 0.412141 0.687945 0.164594
O O6 0.629677 0.697900 0.933712
O O7 0.104259 0.405876 0.955650
O O8 0.975269 0.094821 0.848127
O O9 0.803094 0.009148 0.194997
O O10 0.000000 0.000000 0.000000
O O11 0.929404 0.647401 0.423855
O O12 0.187463 0.885753 0.287179
O O13 0.294512 0.760445 0.311259
O O14 0.411853 0.774744 0.937997
O O15 0.146250 0.673479 0.651920
O O16 0.819203 0.445963 0.361172
O O17 0.609980 0.868930 0.586891
#
# Coordination Sequence:
#
# PCOD9079195 Si02
#       8
#     2   2   2   2   2   2   2   2
#     4   9  20  37  58  86 120 156 196 238 299 361
#     4  10  18  36  64  83 122 154 194 249 298 350
#     4   8  16  32  59  85 113 154 190 240 300 342
#     4  10  21  37  58  88 121 156 195 240 299 355
#     4  10  20  39  64  90 116 158 203 246 297 355
#     4  11  23  38  62  90 117 159 210 240 295 360
#     4   8  19  37  56  80 124 152 190 240 305 346
#     4  10  21  40  59  83 124 158 194 255 290 343
#
# _framework density 25.372330999999999
#
# number of rings (size 3 to 8) (size 9 to 14) (size 15 to 20)
#    0.750    1.750    1.250    0.750    0.000    2.500 
#    2.250    2.500    0.000    5.250    0.000    0.000 
#    0.000    0.000    0.000    0.000    0.000    0.000 
#
# Total GULP energy -89131.661119 kJ/mol
# GULP energy per Si atom -5570.728820 kJ/mol
# Density = 2.531458 g / cm^3
# Si number density = 25.372331 Si / 1000 Ang^3
#
#
#
# Elastic Constant Matrix: (Units=GPa)
#
#
# Indices 1 2 3 4 5 6 
#
# 1 102.7364 14.0972 30.0201 -9.0147 46.4470 -3.1453
# 2 14.0972 100.5974 36.0043 -9.9323 12.4121 -4.6172
# 3 30.0201 36.0043 102.0547 -16.5082 33.7302 -13.4835
# 4 -9.0147 -9.9323 -16.5082 38.2270 -5.3665 2.6356
# 5 46.4470 12.4121 33.7302 -5.3665 50.2626 -12.8410
# 6 -3.1453 -4.6172 -13.4835 2.6356 -12.8410 26.2229
#
#
#
# Elastic Compliance Matrix: (Units=1/GPa)
#
#
# Indices 1 2 3 4 5 6 
#
# 1 0.017897 -0.000496 0.000363 0.002170 -0.018184 -0.006877
# 2 -0.000496 0.011454 -0.003791 0.001264 0.000318 0.000037
# 3 0.000363 -0.003791 0.014745 0.004142 -0.008208 0.002522
# 4 0.002170 0.001264 0.004142 0.028548 -0.002417 -0.001440
# 5 -0.018184 0.000318 -0.008208 -0.002417 0.046076 0.016460
# 6 -0.006877 0.000037 0.002522 -0.001440 0.016460 0.046818
#
#
# Mechanical properties :
#
#
# Convention : Reuss Voigt Hill
#
# Bulk Modulus (GPa) = 27.58681 51.73688 39.66185
# Shear Modulus (GPa) = 26.95866 37.96029 32.45948
#
# Velocity S-wave (km/s) = 3.26317 3.87218 3.58065
# Velocity P-wave (km/s) = 5.00940 6.35823 5.72369
#
# Compressibility (1/GPa) = 0.03624920
#
# Stress axis : x y z
#
# Youngs Moduli (GPa) = 55.87657 87.30482 67.81775
#
# Poissons Ratio (x) = 0.04327 -0.02462
# Poissons Ratio (y) = 0.02769 0.25709
# Poissons Ratio (z) = -0.02028 0.33096
#
# Static dielectric constant tensor:
#      x y z
#    x 2.028330 0.058250 -0.062120 
#    y 0.058250 2.196350 -0.064400 
#    z -0.062120 -0.064400 2.047470 
# 
# From -- ./inp_files/319826.got.cif
#   From: 2010.05.17/outbox.cif.g08.bks.cpg/sg2_160_cif.got.tgz:319826.got - 2010.06.03 11:33:40.
