data_PCOD9079474
_publ_section_title
;
Structure prediction by ZEFSAII (Michael W. Deem and Ramdas Pophale) SiO2 
 PCOD9079474
Probable space group: P -1
;
_chemical_formula_sum "Si O2"
_cell_formula_units_Z 16
_cell_length_a 10.225358
_cell_length_b 10.849362
_cell_length_c 12.592106
_cell_angle_alpha 116.331960
_cell_angle_beta 81.839100
_cell_angle_gamma 139.683602
_cell_volume 762.247480
_symmetry_space_group_name_H-M "P -1"
_symmetry_group_IT_number 2
_symmetry_cell_setting 'triclinic'
loop_
_space_group_symop_operation_xyz
x,y,z
-x,-y,-z
loop_
_atom_site_type_symbol
_atom_site_label
_atom_site_fract_x
_atom_site_fract_y
_atom_site_fract_z
Si Si1 0.294271 0.419703 0.130201
Si Si2 0.382164 0.684597 0.417834
Si Si3 0.867294 0.154014 0.006140
Si Si4 0.476227 0.649748 0.823784
Si Si5 0.719736 0.474622 0.408472
Si Si6 0.354991 0.904216 0.783615
Si Si7 0.205335 0.835315 0.542780
Si Si8 0.264082 0.599001 0.025982
O O1 0.297002 0.526005 0.269846
O O2 0.428734 0.399166 0.139884
O O3 0.376823 0.573800 0.078044
O O4 0.045898 0.192817 0.042045
O O5 0.390363 0.604967 0.494684
O O6 0.230080 0.692721 0.459157
O O7 0.611467 0.935378 0.455648
O O8 0.764939 0.145423 0.115692
O O9 0.016897 0.380058 0.006964
O O10 0.676612 0.916165 0.880998
O O11 0.370050 0.513137 0.674655
O O12 0.309779 0.594067 0.897939
O O13 0.674150 0.280893 0.301211
O O14 0.972151 0.695903 0.484744
O O15 0.257282 0.891762 0.683396
O O16 0.601815 0.155422 0.865607
#
# Coordination Sequence:
#
# PCOD9079474 Si02
#       8
#     2   2   2   2   2   2   2   2
#     4  10  19  39  62  79 106 145 197 233 261 318
#     4  10  20  37  61  86 105 145 190 233 267 321
#     4   9  20  35  61  84 101 144 194 232 269 313
#     4  11  23  39  51  83 121 150 176 224 280 335
#     4  11  24  34  55  85 124 145 171 223 290 342
#     4  10  18  37  59  87 107 137 189 235 276 320
#     4  10  19  36  61  84 112 141 186 232 275 322
#     4   9  21  36  62  82 103 144 193 237 267 309
#
# _framework density 20.990558
#
# number of rings (size 3 to 8) (size 9 to 14) (size 15 to 20)
#    0.750    1.250    1.250    3.750    0.000    3.500 
#    0.000    1.875    0.000    0.000    0.000    0.000 
#    0.000    0.000    0.000    0.000    0.000    0.000 
#
# Total GULP energy -89313.877398 kJ/mol
# GULP energy per Si atom -5582.117337 kJ/mol
# Density = 2.094278 g / cm^3
# Si number density = 20.990558 Si / 1000 Ang^3
#
#
#
# Elastic Constant Matrix: (Units=GPa)
#
#
# Indices 1 2 3 4 5 6 
#
# 1 33.9146 19.0708 21.1739 -1.8818 13.2392 6.3344
# 2 19.0708 92.0084 24.6101 -1.2756 8.9529 18.4281
# 3 21.1739 24.6101 91.9138 -9.0998 24.7627 17.2350
# 4 -1.8818 -1.2756 -9.0998 31.4184 -4.5241 4.9331
# 5 13.2392 8.9529 24.7627 -4.5241 23.0258 -0.2832
# 6 6.3344 18.4281 17.2350 4.9331 -0.2832 24.6789
#
#
#
# Elastic Compliance Matrix: (Units=1/GPa)
#
#
# Indices 1 2 3 4 5 6 
#
# 1 0.042714 -0.005143 -0.001726 -0.000187 -0.020815 -0.006119
# 2 -0.005143 0.014089 -0.000051 0.001404 -0.002307 -0.009472
# 3 -0.001726 -0.000051 0.019756 0.005108 -0.019410 -0.014560
# 4 -0.000187 0.001404 0.005108 0.035301 0.000862 -0.011614
# 5 -0.020815 -0.002307 -0.019410 0.000862 0.077600 0.021338
# 6 -0.006119 -0.009472 -0.014560 -0.011614 0.021338 0.061899
#
#
# Mechanical properties :
#
#
# Convention : Reuss Voigt Hill
#
# Bulk Modulus (GPa) = 15.94424 38.61626 27.28025
# Shear Modulus (GPa) = 17.47607 26.02342 21.74974
#
# Velocity S-wave (km/s) = 2.88856 3.52485 3.22245
# Velocity P-wave (km/s) = 4.32867 5.91634 5.18365
#
# Compressibility (1/GPa) = 0.06271859
#
# Stress axis : x y z
#
# Youngs Moduli (GPa) = 23.41178 70.97550 50.61750
#
# Poissons Ratio (x) = 0.36505 0.08736
# Poissons Ratio (y) = 0.12041 0.00258
# Poissons Ratio (z) = 0.04041 0.00362
#
# Static dielectric constant tensor:
#      x y z
#    x 1.796360 -0.035020 0.034820 
#    y -0.035020 1.760530 -0.020840 
#    z 0.034820 -0.020840 1.722570 
# 
# From -- ./inp_files/423927.got.cif
#   From: 2010.05.17/outbox.cif.g08.bks.cpg/sg2_212_cif.got.tgz:423927.got - 2010.06.03 11:33:40.
