data_PCOD9079713
_publ_section_title
;
Structure prediction by ZEFSAII (Michael W. Deem and Ramdas Pophale) SiO2 
 PCOD9079713
Probable space group: P -1
;
_chemical_formula_sum "Si O2"
_cell_formula_units_Z 14
_cell_length_a 9.434744
_cell_length_b 15.398982
_cell_length_c 9.585629
_cell_angle_alpha 107.152517
_cell_angle_beta 96.093791
_cell_angle_gamma 143.580404
_cell_volume 628.767827
_symmetry_space_group_name_H-M "P -1"
_symmetry_group_IT_number 2
_symmetry_cell_setting 'triclinic'
loop_
_space_group_symop_operation_xyz
x,y,z
-x,-y,-z
loop_
_atom_site_type_symbol
_atom_site_label
_atom_site_fract_x
_atom_site_fract_y
_atom_site_fract_z
Si Si1 0.890624 0.679873 0.777341
Si Si2 0.630955 0.391147 0.191568
Si Si3 0.773111 0.706941 0.060997
Si Si4 0.669682 0.184764 0.552040
Si Si5 0.345788 0.298802 0.394257
Si Si6 0.197245 0.051435 0.442265
Si Si7 0.769029 0.296609 0.309210
O O1 0.546443 0.453527 0.611310
O O2 0.910366 0.775691 0.716895
O O3 0.086850 0.704258 0.764264
O O4 0.920670 0.735244 0.961524
O O5 0.628025 0.173050 0.374004
O O6 0.561627 0.406907 0.334783
O O7 0.595783 0.265788 0.170556
O O8 0.379720 0.286749 0.011419
O O9 0.004837 0.859507 0.277535
O O10 0.500000 0.500000 0.000000
O O11 0.027917 0.393097 0.715070
O O12 0.500000 0.000000 0.500000
O O13 0.504193 0.181702 0.594058
O O14 0.255743 0.149369 0.363456
O O15 0.000000 0.000000 0.500000
O O16 0.000000 0.500000 0.500000
#
# Coordination Sequence:
#
# PCOD9079713 Si02
#       7
#     2   2   2   2   2   2   2
#     4  10  20  35  67  92 127 172 221 263 324 393
#     4  10  20  41  68  93 128 175 220 265 328 392
#     4  11  25  43  64  97 137 172 220 279 335 390
#     4  11  22  38  66  97 134 171 220 274 324 391
#     4  10  19  38  67  94 125 177 224 260 320 406
#     4  12  26  43  65  96 135 174 224 275 338 397
#     4  10  18  37  63  96 126 171 220 260 323 393
#
# _framework density 22.265771999999998
#
# number of rings (size 3 to 8) (size 9 to 14) (size 15 to 20)
#    0.000    1.429    4.286    2.571    2.000    2.286 
#    0.000    5.000    0.000    0.000    0.000    0.000 
#    0.000    0.000    0.000    0.000    0.000    0.000 
#
# Total GULP energy -78173.548014 kJ/mol
# GULP energy per Si atom -5583.824858 kJ/mol
# Density = 2.221509 g / cm^3
# Si number density = 22.265772 Si / 1000 Ang^3
#
#
#
# Elastic Constant Matrix: (Units=GPa)
#
#
# Indices 1 2 3 4 5 6 
#
# 1 182.9600 24.0316 18.6449 -15.6556 -3.4844 -2.1927
# 2 24.0316 99.8089 0.8715 -12.0628 3.4315 -7.1821
# 3 18.6449 0.8715 41.0863 3.3666 -5.1687 9.8837
# 4 -15.6556 -12.0628 3.3666 27.7498 -3.7517 6.3423
# 5 -3.4844 3.4315 -5.1687 -3.7517 29.2297 -9.0561
# 6 -2.1927 -7.1821 9.8837 6.3423 -9.0561 38.8420
#
#
#
# Elastic Compliance Matrix: (Units=1/GPa)
#
#
# Indices 1 2 3 4 5 6 
#
# 1 0.006240 -0.001049 -0.003119 0.003431 0.000946 0.000612
# 2 -0.001049 0.010849 -0.000453 0.003802 -0.000587 0.001305
# 3 -0.003119 -0.000453 0.027839 -0.003609 0.002208 -0.006240
# 4 0.003431 0.003802 -0.003609 0.041470 0.003354 -0.004174
# 5 0.000946 -0.000587 0.002208 0.003354 0.037567 0.007594
# 6 0.000612 0.001305 -0.006240 -0.004174 0.007594 0.030061
#
#
# Mechanical properties :
#
#
# Convention : Reuss Voigt Hill
#
# Bulk Modulus (GPa) = 28.02269 45.66124 36.84196
# Shear Modulus (GPa) = 28.54472 37.85146 33.19809
#
# Velocity S-wave (km/s) = 3.58439 4.12756 3.86553
# Velocity P-wave (km/s) = 5.45374 6.57781 6.04197
#
# Compressibility (1/GPa) = 0.03568537
#
# Stress axis : x y z
#
# Youngs Moduli (GPa) = 160.25038 92.17250 35.92147
#
# Poissons Ratio (x) = 0.09670 0.11204
# Poissons Ratio (y) = 0.16811 0.01628
# Poissons Ratio (z) = 0.49982 0.04177
#
# Static dielectric constant tensor:
#      x y z
#    x 1.883870 0.001400 0.038270 
#    y 0.001400 1.871680 -0.000840 
#    z 0.038270 -0.000840 1.838910 
# 
# From -- ./inp_files/202588.got.cif
#   From: 2010.05.17/outbox.cif.g08.bks.cpg/sg2_102_cif.got.tgz:202588.got - 2010.06.03 11:33:40.
