data_PCOD9079546
_publ_section_title
;
Structure prediction by ZEFSAII (Michael W. Deem and Ramdas Pophale) SiO2 
 PCOD9079546
Probable space group: P -1
;
_chemical_formula_sum "Si O2"
_cell_formula_units_Z 16
_cell_length_a 8.242637
_cell_length_b 13.825875
_cell_length_c 10.231805
_cell_angle_alpha 72.649620
_cell_angle_beta 47.721245
_cell_angle_gamma 94.439098
_cell_volume 756.975058
_symmetry_space_group_name_H-M "P -1"
_symmetry_group_IT_number 2
_symmetry_cell_setting 'triclinic'
loop_
_space_group_symop_operation_xyz
x,y,z
-x,-y,-z
loop_
_atom_site_type_symbol
_atom_site_label
_atom_site_fract_x
_atom_site_fract_y
_atom_site_fract_z
Si Si1 0.512263 0.286448 0.058944
Si Si2 0.394673 0.876877 0.550968
Si Si3 0.024737 0.087521 0.335598
Si Si4 0.889515 0.510334 0.694291
Si Si5 0.237379 0.421046 0.642873
Si Si6 0.796437 0.697075 0.565462
Si Si7 0.079382 0.094963 0.746184
Si Si8 0.117679 0.794159 0.996958
O O1 0.272745 0.193703 0.167084
O O2 0.437720 0.302279 0.239851
O O3 0.632102 0.408308 0.883230
O O4 0.715328 0.237809 0.979168
O O5 0.635481 0.859225 0.394474
O O6 0.199676 0.875897 0.550646
O O7 0.500000 0.000000 0.500000
O O8 0.244628 0.811518 0.782615
O O9 0.000000 0.000000 0.500000
O O10 0.004249 0.021326 0.236704
O O11 0.890710 0.631878 0.645449
O O12 0.000000 0.500000 0.500000
O O13 0.058421 0.484313 0.716698
O O14 0.500000 0.500000 0.500000
O O15 0.245580 0.374688 0.512582
O O16 0.127812 0.312435 0.833991
O O17 0.944621 0.820050 0.384590
O O18 0.935559 0.107130 0.946403
#
# Coordination Sequence:
#
# PCOD9079546 Si02
#       8
#     2   2   2   2   2   2   2   2
#     4  11  20  38  61  90 121 164 203 245 308 357
#     4  10  21  39  62  84 122 161 201 253 298 360
#     4  11  22  39  63  92 124 155 208 255 291 374
#     4   9  20  36  58  83 123 161 196 250 301 356
#     4   9  20  38  60  88 119 156 205 252 296 366
#     4  10  18  37  61  84 124 156 194 248 307 353
#     4  10  21  41  65  89 125 169 198 251 312 352
#     4  10  21  40  63  86 125 164 199 251 310 356
#
# _framework density 21.136759999999999
#
# number of rings (size 3 to 8) (size 9 to 14) (size 15 to 20)
#    0.000    2.000    2.500    1.875    0.000    4.500 
#    4.500    3.750    0.000    0.000    0.000    0.000 
#    0.000    0.000    0.000    0.000    0.000    0.000 
#
# Total GULP energy -89151.389639 kJ/mol
# GULP energy per Si atom -5571.961852 kJ/mol
# Density = 2.108865 g / cm^3
# Si number density = 21.136760 Si / 1000 Ang^3
#
#
#
# Elastic Constant Matrix: (Units=GPa)
#
#
# Indices 1 2 3 4 5 6 
#
# 1 64.8824 27.8879 20.9795 -12.9949 -17.1544 -10.7247
# 2 27.8879 74.7574 12.5901 1.0129 -15.6170 -15.5097
# 3 20.9795 12.5901 87.3084 -2.2085 -10.5232 8.0773
# 4 -12.9949 1.0129 -2.2085 44.2222 5.5750 -10.3316
# 5 -17.1544 -15.6170 -10.5232 5.5750 36.5199 -1.6712
# 6 -10.7247 -15.5097 8.0773 -10.3316 -1.6712 21.7972
#
#
#
# Elastic Compliance Matrix: (Units=1/GPa)
#
#
# Indices 1 2 3 4 5 6 
#
# 1 0.026333 -0.003276 -0.006307 0.010821 0.008356 0.018733
# 2 -0.003276 0.019245 -0.002473 0.000910 0.006477 0.013926
# 3 -0.006307 -0.002473 0.014359 -0.003910 0.000164 -0.012024
# 4 0.010821 0.000910 -0.003910 0.030629 0.000676 0.021990
# 5 0.008356 0.006477 0.000164 0.000676 0.034553 0.011629
# 6 0.018733 0.013926 -0.012024 0.021990 0.011629 0.080774
#
#
# Mechanical properties :
#
#
# Convention : Reuss Voigt Hill
#
# Bulk Modulus (GPa) = 27.91311 38.87370 33.39340
# Shear Modulus (GPa) = 20.66565 31.54057 26.10311
#
# Velocity S-wave (km/s) = 3.13023 3.86711 3.51802
# Velocity P-wave (km/s) = 5.12826 6.19442 5.68638
#
# Compressibility (1/GPa) = 0.03582546
#
# Stress axis : x y z
#
# Youngs Moduli (GPa) = 37.97508 51.96174 69.64209
#
# Poissons Ratio (x) = 0.17021 0.43926
# Poissons Ratio (y) = 0.12439 0.17221
# Poissons Ratio (z) = 0.23952 0.12849
#
# Static dielectric constant tensor:
#      x y z
#    x 1.837260 -0.071670 0.015900 
#    y -0.071670 1.799230 -0.001430 
#    z 0.015900 -0.001430 1.780190 
# 
# From -- ./inp_files/285528.got.cif
#   From: 2010.05.17/outbox.cif.g08.bks.cpg/sg2_143_cif.got.tgz:285528.got - 2010.06.03 11:33:40.
