data_PCOD9079310
_publ_section_title
;
Structure prediction by ZEFSAII (Michael W. Deem and Ramdas Pophale) SiO2 
 PCOD9079310
Probable space group: P -1
;
_chemical_formula_sum "Si O2"
_cell_formula_units_Z 16
_cell_length_a 21.480509
_cell_length_b 18.682940
_cell_length_c 7.249763
_cell_angle_alpha 139.036702
_cell_angle_beta 47.444905
_cell_angle_gamma 161.684188
_cell_volume 587.661271
_symmetry_space_group_name_H-M "P -1"
_symmetry_group_IT_number 2
_symmetry_cell_setting 'triclinic'
loop_
_space_group_symop_operation_xyz
x,y,z
-x,-y,-z
loop_
_atom_site_type_symbol
_atom_site_label
_atom_site_fract_x
_atom_site_fract_y
_atom_site_fract_z
Si Si1 0.257437 0.611468 0.449089
Si Si2 0.809809 0.158356 0.579934
Si Si3 0.761884 0.553392 0.516953
Si Si4 0.796651 0.318208 0.622391
Si Si5 0.753423 0.597814 0.201513
Si Si6 0.497003 0.389979 0.912198
Si Si7 0.082820 0.798799 0.203744
Si Si8 0.764086 0.858808 0.695394
O O1 0.314419 0.646285 0.612076
O O2 0.319101 0.786472 0.538445
O O3 0.012522 0.345130 0.442428
O O4 0.324644 0.587432 0.139889
O O5 0.724869 0.153132 0.606711
O O6 0.871621 0.249941 0.848834
O O7 0.636865 0.867109 0.396308
O O8 0.692917 0.507679 0.361708
O O9 0.719698 0.600367 0.837138
O O10 0.997277 0.799968 0.496125
O O11 0.000000 0.500000 0.500000
O O12 0.889116 0.533987 0.955386
O O13 0.704743 0.666327 0.379747
O O14 0.996027 0.871012 0.229586
O O15 0.500000 0.500000 0.000000
O O16 0.360221 0.259316 0.106082
O O17 0.251109 0.052790 0.235063
#
# Coordination Sequence:
#
# PCOD9079310 Si02
#       8
#     2   2   2   2   2   2   2   2
#     4  10  19  38  65  89 119 157 209 253 304 357
#     4  10  22  37  63  93 118 161 205 251 308 358
#     4  10  22  37  61  90 122 163 201 245 307 362
#     4  10  18  36  66  93 117 150 203 267 300 346
#     4  10  18  37  60  85 118 160 203 248 293 358
#     4  12  23  41  57  88 131 161 199 256 301 359
#     4  10  20  40  64  91 120 156 210 250 302 369
#     4  10  19  35  59  84 119 157 198 250 296 354
#
# _framework density 27.226568
#
# number of rings (size 3 to 8) (size 9 to 14) (size 15 to 20)
#    0.000    1.750    5.000    1.125    0.000    1.000 
#    2.250    6.250    0.000    0.000    0.000    0.000 
#    0.000    0.000    0.000    0.000    0.000    0.000 
#
# Total GULP energy -89224.134349 kJ/mol
# GULP energy per Si atom -5576.508397 kJ/mol
# Density = 2.716460 g / cm^3
# Si number density = 27.226568 Si / 1000 Ang^3
#
#
#
# Elastic Constant Matrix: (Units=GPa)
#
#
# Indices 1 2 3 4 5 6 
#
# 1 136.1367 58.8373 4.7168 -4.8640 -8.3835 -57.3047
# 2 58.8373 160.2538 28.9638 -19.9596 0.8865 -57.4959
# 3 4.7168 28.9638 89.9060 -32.2977 -7.3001 -16.2065
# 4 -4.8640 -19.9596 -32.2977 48.4084 -9.3260 0.9951
# 5 -8.3835 0.8865 -7.3001 -9.3260 32.7609 2.3316
# 6 -57.3047 -57.4959 -16.2065 0.9951 2.3316 66.6274
#
#
#
# Elastic Compliance Matrix: (Units=1/GPa)
#
#
# Indices 1 2 3 4 5 6 
#
# 1 0.012424 -0.000979 0.003149 0.003535 0.004173 0.010407
# 2 -0.000979 0.009785 -0.000574 0.003359 -0.000215 0.007419
# 3 0.003149 -0.000574 0.017669 0.013308 0.008118 0.006027
# 4 0.003535 0.003359 0.013308 0.033564 0.012748 0.008229
# 5 0.004173 -0.000215 0.008118 0.012748 0.036758 0.003901
# 6 0.010407 0.007419 0.006027 0.008229 0.003901 0.031569
#
#
# Mechanical properties :
#
#
# Convention : Reuss Voigt Hill
#
# Bulk Modulus (GPa) = 23.21920 63.48137 43.35028
# Shear Modulus (GPa) = 32.69366 49.14456 40.91911
#
# Velocity S-wave (km/s) = 3.46902 4.25316 3.88095
# Velocity P-wave (km/s) = 4.95904 6.89099 6.00324
#
# Compressibility (1/GPa) = 0.04306781
#
# Stress axis : x y z
#
# Youngs Moduli (GPa) = 80.49027 102.19867 56.59606
#
# Poissons Ratio (x) = 0.10008 -0.17820
# Poissons Ratio (y) = 0.07882 0.03250
# Poissons Ratio (z) = -0.25343 0.05869
#
# Static dielectric constant tensor:
#      x y z
#    x 2.292280 0.009250 0.027120 
#    y 0.009250 2.144780 0.086650 
#    z 0.027120 0.086650 2.434500 
# 
# From -- ./inp_files/355038.got.cif
#   From: 2010.05.17/outbox.cif.g08.bks.cpg/sg2_178_cif.got.tgz:355038.got - 2010.06.03 11:33:40.
