data_PCOD9079313
_publ_section_title
;
Structure prediction by ZEFSAII (Michael W. Deem and Ramdas Pophale) SiO2 
 PCOD9079313
Probable space group: P -1
;
_chemical_formula_sum "Si O2"
_cell_formula_units_Z 15
_cell_length_a 14.354184
_cell_length_b 6.485162
_cell_length_c 11.275721
_cell_angle_alpha 95.950620
_cell_angle_beta 39.310990
_cell_angle_gamma 84.746287
_cell_volume 636.347956
_symmetry_space_group_name_H-M "P -1"
_symmetry_group_IT_number 2
_symmetry_cell_setting 'triclinic'
loop_
_space_group_symop_operation_xyz
x,y,z
-x,-y,-z
loop_
_atom_site_type_symbol
_atom_site_label
_atom_site_fract_x
_atom_site_fract_y
_atom_site_fract_z
Si Si1 0.561092 0.895965 0.705771
Si Si2 0.014386 0.865352 0.803886
Si Si3 0.166713 0.480772 0.500963
Si Si4 0.500000 0.000000 0.500000
Si Si5 0.241558 0.802399 0.793748
Si Si6 0.428739 0.672967 0.183199
Si Si7 0.990305 0.168600 0.622916
Si Si8 0.678042 0.372045 0.059843
O O1 0.555183 0.982415 0.584401
O O2 0.580389 0.074817 0.793124
O O3 0.705078 0.685607 0.558021
O O4 0.410107 0.815795 0.873629
O O5 0.024779 0.642051 0.716095
O O6 0.145963 0.798294 0.769712
O O7 0.037322 0.039661 0.694462
O O8 0.856433 0.976621 0.032110
O O9 0.263520 0.633741 0.362678
O O10 0.094983 0.320480 0.489914
O O11 0.591880 0.181145 0.396157
O O12 0.257542 0.624543 0.870005
O O13 0.549641 0.584489 0.164434
O O14 0.500000 0.500000 0.000000
O O15 0.819025 0.310510 0.827612
O O16 0.000000 0.000000 0.500000
#
# Coordination Sequence:
#
# PCOD9079313 Si02
#       8
#     2   2   2   1   2   2   2   2
#     4  10  23  42  64  93 130 165 216 268 314 381
#     4  10  22  43  63  93 129 173 206 255 327 377
#     4  11  24  41  64  93 124 172 214 258 322 380
#     4  10  18  36  66  94 122 164 204 266 318 358
#     4   9  19  40  67  92 133 161 209 265 309 384
#     4  11  25  41  66  91 128 171 219 261 323 382
#     4  11  25  40  63  91 132 161 213 266 313 379
#     4   9  23  41  62  96 122 169 207 261 318 371
#
# _framework density 23.572008
#
# number of rings (size 3 to 8) (size 9 to 14) (size 15 to 20)
#    0.000    1.867    0.000    2.400    5.600    5.867 
#    0.000   13.333    0.000    0.000    0.000    0.000 
#    0.000    0.000    0.000    0.000    0.000    0.000 
#
# Total GULP energy -83509.837911 kJ/mol
# GULP energy per Si atom -5567.322527 kJ/mol
# Density = 2.351836 g / cm^3
# Si number density = 23.572008 Si / 1000 Ang^3
#
#
#
# Elastic Constant Matrix: (Units=GPa)
#
#
# Indices 1 2 3 4 5 6 
#
# 1 81.8250 17.1418 -1.3547 -1.3644 5.9023 -13.3330
# 2 17.1418 63.5182 11.0825 17.6518 -7.1752 4.4211
# 3 -1.3547 11.0825 33.7594 -2.9750 -1.4766 -2.4651
# 4 -1.3644 17.6518 -2.9750 27.4570 5.1958 0.7946
# 5 5.9023 -7.1752 -1.4766 5.1958 26.4990 -4.9006
# 6 -13.3330 4.4211 -2.4651 0.7946 -4.9006 28.5721
#
#
#
# Elastic Compliance Matrix: (Units=1/GPa)
#
#
# Indices 1 2 3 4 5 6 
#
# 1 0.015824 -0.008243 0.004325 0.007367 -0.005502 0.007884
# 2 -0.008243 0.027667 -0.011265 -0.021444 0.011703 -0.006496
# 3 0.004325 -0.011265 0.034808 0.011679 -0.003277 0.005878
# 4 0.007367 -0.021444 0.011679 0.054950 -0.016956 0.003327
# 5 -0.005502 0.011703 -0.003277 -0.016956 0.045956 0.003693
# 6 0.007884 -0.006496 0.005878 0.003327 0.003693 0.040731
#
#
# Mechanical properties :
#
#
# Convention : Reuss Voigt Hill
#
# Bulk Modulus (GPa) = 20.86233 25.87130 23.36682
# Shear Modulus (GPa) = 18.77715 26.65447 22.71581
#
# Velocity S-wave (km/s) = 2.82545 3.36634 3.10768
# Velocity P-wave (km/s) = 4.41745 5.10969 4.77613
#
# Compressibility (1/GPa) = 0.04793328
#
# Stress axis : x y z
#
# Youngs Moduli (GPa) = 63.19497 36.14426 28.72887
#
# Poissons Ratio (x) = 0.29793 -0.12426
# Poissons Ratio (y) = 0.52090 0.32364
# Poissons Ratio (z) = -0.27333 0.40718
#
# Static dielectric constant tensor:
#      x y z
#    x 1.959470 -0.011880 0.026480 
#    y -0.011880 1.869800 0.011360 
#    z 0.026480 0.011360 1.917690 
# 
# From -- ./inp_files/128617.got.cif
#   From: 2010.05.17/outbox.cif.g08.bks.cpg/sg2_65_cif.got.tgz:128617.got - 2010.06.03 11:33:40.
