data_PCOD9079511
_publ_section_title
;
Structure prediction by ZEFSAII (Michael W. Deem and Ramdas Pophale) SiO2 
 PCOD9079511
Probable space group: P -1
;
_chemical_formula_sum "Si O2"
_cell_formula_units_Z 16
_cell_length_a 7.081434
_cell_length_b 11.280968
_cell_length_c 12.779496
_cell_angle_alpha 69.091681
_cell_angle_beta 65.380468
_cell_angle_gamma 77.722441
_cell_volume 864.514152
_symmetry_space_group_name_H-M "P -1"
_symmetry_group_IT_number 2
_symmetry_cell_setting 'triclinic'
loop_
_space_group_symop_operation_xyz
x,y,z
-x,-y,-z
loop_
_atom_site_type_symbol
_atom_site_label
_atom_site_fract_x
_atom_site_fract_y
_atom_site_fract_z
Si Si1 0.173295 0.973248 0.876621
Si Si2 0.846094 0.225759 0.426391
Si Si3 0.566211 0.117124 0.678904
Si Si4 0.511685 0.574652 0.583835
Si Si5 0.348644 0.671935 0.256710
Si Si6 0.116867 0.095746 0.222687
Si Si7 0.052478 0.347250 0.542216
Si Si8 0.504306 0.142354 0.009910
O O1 0.332154 0.870046 0.929217
O O2 0.050150 0.939579 0.812783
O O3 0.336824 0.073204 0.767401
O O4 0.000000 0.000000 0.000000
O O5 0.678464 0.129373 0.537427
O O6 0.705488 0.345067 0.374840
O O7 0.001858 0.161373 0.326760
O O8 0.973749 0.276373 0.480048
O O9 0.570151 0.256172 0.683314
O O10 0.732034 0.024056 0.734694
O O11 0.500000 0.500000 0.500000
O O12 0.572459 0.474269 0.694555
O O13 0.700461 0.666859 0.500126
O O14 0.096928 0.690406 0.317161
O O15 0.430711 0.750979 0.117823
O O16 0.277411 0.177692 0.097912
O O17 0.000000 0.500000 0.500000
O O18 0.500000 0.000000 0.000000
#
# Coordination Sequence:
#
# PCOD9079511 Si02
#       8
#     2   2   2   2   2   2   2   2
#     4  11  20  35  60  84 114 158 201 233 284 339
#     4  11  23  38  57  87 122 152 184 245 296 344
#     4  10  20  36  57  84 123 150 188 239 292 347
#     4  11  20  37  60  89 117 145 198 236 281 346
#     4  10  18  37  60  88 114 148 194 246 278 336
#     4  11  23  38  56  86 122 151 193 238 293 343
#     4   9  19  36  61  84 112 150 190 235 290 333
#     4  11  20  39  58  82 117 153 195 240 277 343
#
# _framework density 18.507504000000001
#
# number of rings (size 3 to 8) (size 9 to 14) (size 15 to 20)
#    0.000    1.500    7.500    0.375    0.000    5.500 
#    2.250    0.625    0.000    3.750    0.000    0.000 
#    0.000    0.000    0.000    0.000    0.000    0.000 
#
# Total GULP energy -89108.140466 kJ/mol
# GULP energy per Si atom -5569.258779 kJ/mol
# Density = 1.846538 g / cm^3
# Si number density = 18.507504 Si / 1000 Ang^3
#
#
#
# Elastic Constant Matrix: (Units=GPa)
#
#
# Indices 1 2 3 4 5 6 
#
# 1 120.9873 28.1863 35.6482 2.0777 -17.6921 6.0172
# 2 28.1863 43.5599 40.7339 2.4868 -6.5963 -2.9496
# 3 35.6482 40.7339 134.0357 -4.6531 -31.9188 8.1967
# 4 2.0777 2.4868 -4.6531 31.6894 -0.3102 -0.0085
# 5 -17.6921 -6.5963 -31.9188 -0.3102 34.4147 -2.3953
# 6 6.0172 -2.9496 8.1967 -0.0085 -2.3953 19.6098
#
#
#
# Elastic Compliance Matrix: (Units=1/GPa)
#
#
# Indices 1 2 3 4 5 6 
#
# 1 0.010558 -0.007010 0.000608 -0.000011 0.004368 -0.004014
# 2 -0.007010 0.039428 -0.012711 -0.004566 -0.007004 0.012537
# 3 0.000608 -0.012711 0.014212 0.003147 0.010616 -0.006741
# 4 -0.000011 -0.004566 0.003147 0.032399 0.002210 -0.001715
# 5 0.004368 -0.007004 0.010616 0.002210 0.039689 -0.001983
# 6 -0.004014 0.012537 -0.006741 -0.001715 -0.001983 0.056687
#
#
# Mechanical properties :
#
#
# Convention : Reuss Voigt Hill
#
# Bulk Modulus (GPa) = 38.50425 56.41331 47.45878
# Shear Modulus (GPa) = 20.84589 30.07707 25.46148
#
# Velocity S-wave (km/s) = 3.35975 4.03566 3.71312
# Velocity P-wave (km/s) = 5.99170 7.22931 6.63940
#
# Compressibility (1/GPa) = 0.02597116
#
# Stress axis : x y z
#
# Youngs Moduli (GPa) = 94.71545 25.36267 70.36491
#
# Poissons Ratio (x) = 0.17778 -0.04275
# Poissons Ratio (y) = 0.66391 0.89442
# Poissons Ratio (z) = -0.05755 0.32239
#
# Static dielectric constant tensor:
#      x y z
#    x 1.677900 0.002230 -0.023580 
#    y 0.002230 1.644780 -0.035710 
#    z -0.023580 -0.035710 1.715170 
# 
# From -- ./inp_files/364029.got.cif
#   From: 2010.05.17/outbox.cif.g08.bks.cpg/sg2_183_cif.got.tgz:364029.got - 2010.06.03 11:33:40.
