data_PCOD9079081
_publ_section_title
;
Structure prediction by ZEFSAII (Michael W. Deem and Ramdas Pophale) SiO2 
 PCOD9079081
Probable space group: P -1
;
_chemical_formula_sum "Si O2"
_cell_formula_units_Z 14
_cell_length_a 11.580740
_cell_length_b 14.163717
_cell_length_c 9.832419
_cell_angle_alpha 64.779630
_cell_angle_beta 82.863835
_cell_angle_gamma 30.556397
_cell_volume 630.071801
_symmetry_space_group_name_H-M "P -1"
_symmetry_group_IT_number 2
_symmetry_cell_setting 'triclinic'
loop_
_space_group_symop_operation_xyz
x,y,z
-x,-y,-z
loop_
_atom_site_type_symbol
_atom_site_label
_atom_site_fract_x
_atom_site_fract_y
_atom_site_fract_z
Si Si1 0.019327 0.360205 0.583919
Si Si2 0.801492 0.030349 0.780442
Si Si3 0.602327 0.832868 0.750529
Si Si4 0.737402 0.461991 0.338745
Si Si5 0.965627 0.352295 0.100100
Si Si6 0.930442 0.003671 0.364996
Si Si7 0.471927 0.256860 0.407745
O O1 0.000000 0.500000 0.500000
O O2 0.894344 0.424484 0.420353
O O3 0.823733 0.477033 0.659740
O O4 0.321672 0.076984 0.717056
O O5 0.572605 0.262076 0.767266
O O6 0.646862 0.129555 0.598201
O O7 0.019419 0.945429 0.780681
O O8 0.928274 0.815674 0.923577
O O9 0.547184 0.842671 0.596307
O O10 0.793208 0.775549 0.791606
O O11 0.761190 0.603335 0.922402
O O12 0.827093 0.395284 0.211313
O O13 0.849711 0.266181 0.512886
O O14 0.637146 0.191371 0.313267
O O15 0.000000 0.000000 0.500000
#
# Coordination Sequence:
#
# PCOD9079081 Si02
#       7
#     2   2   2   2   2   2   2
#     4  11  22  35  61  89 114 148 197 240 283 342
#     4  10  21  37  61  89 111 147 198 237 289 334
#     4  11  23  39  56  82 123 154 188 236 291 339
#     4  11  20  36  62  87 115 149 192 242 286 333
#     4  11  23  38  57  83 118 158 189 233 289 352
#     4  10  18  36  62  87 116 146 191 247 282 332
#     4  10  20  37  59  84 114 149 189 240 283 332
#
# _framework density 22.21969
#
# number of rings (size 3 to 8) (size 9 to 14) (size 15 to 20)
#    0.000    1.429    4.286    3.000    0.000    2.857 
#    0.000    4.286    0.000    1.714    0.000    0.000 
#    0.000    0.000    0.000    0.000    0.000    0.000 
#
# Total GULP energy -78150.918524 kJ/mol
# GULP energy per Si atom -5582.208466 kJ/mol
# Density = 2.216912 g / cm^3
# Si number density = 22.219690 Si / 1000 Ang^3
#
#
#
# Elastic Constant Matrix: (Units=GPa)
#
#
# Indices 1 2 3 4 5 6 
#
# 1 67.0479 28.3481 8.1189 -12.3326 -6.7139 -2.8334
# 2 28.3481 156.2043 33.3736 -47.6562 -3.5963 -17.3480
# 3 8.1189 33.3736 69.9656 -22.7057 -11.4644 -12.2723
# 4 -12.3326 -47.6562 -22.7057 31.0624 7.9999 4.7815
# 5 -6.7139 -3.5963 -11.4644 7.9999 26.7837 -6.9576
# 6 -2.8334 -17.3480 -12.2723 4.7815 -6.9576 39.5345
#
#
#
# Elastic Compliance Matrix: (Units=1/GPa)
#
#
# Indices 1 2 3 4 5 6 
#
# 1 0.016641 -0.002155 0.000719 0.002795 0.003551 0.000757
# 2 -0.002155 0.013005 0.000321 0.019960 -0.003958 0.002541
# 3 0.000719 0.000321 0.020471 0.013078 0.006674 0.006140
# 4 0.002795 0.019960 0.013078 0.076784 -0.013609 0.001337
# 5 0.003551 -0.003958 0.006674 -0.013609 0.047362 0.010571
# 6 0.000757 0.002541 0.006140 0.001337 0.010571 0.030068
#
#
# Mechanical properties :
#
#
# Convention : Reuss Voigt Hill
#
# Bulk Modulus (GPa) = 20.88285 48.09987 34.49136
# Shear Modulus (GPa) = 22.46962 34.36795 28.41878
#
# Velocity S-wave (km/s) = 3.18346 3.93712 3.58018
# Velocity P-wave (km/s) = 4.78867 6.50863 5.71374
#
# Compressibility (1/GPa) = 0.04788619
#
# Stress axis : x y z
#
# Youngs Moduli (GPa) = 60.09434 76.89403 48.85013
#
# Poissons Ratio (x) = 0.16571 -0.03510
# Poissons Ratio (y) = 0.12951 -0.01570
# Poissons Ratio (z) = -0.04318 -0.02472
#
# Static dielectric constant tensor:
#      x y z
#    x 1.797050 -0.047700 0.003260 
#    y -0.047700 1.817140 0.035920 
#    z 0.003260 0.035920 1.848550 
# 
# From -- ./inp_files/267600.got.cif
#   From: 2010.05.17/outbox.cif.g08.bks.cpg/sg2_134_cif.got.tgz:267600.got - 2010.06.03 11:33:40.
