data_PCOD9079900
_publ_section_title
;
Structure prediction by ZEFSAII (Michael W. Deem and Ramdas Pophale) SiO2 
 PCOD9079900
Probable space group: P -1
;
_chemical_formula_sum "Si O2"
_cell_formula_units_Z 11
_cell_length_a 12.900978
_cell_length_b 7.933719
_cell_length_c 4.881613
_cell_angle_alpha 68.842236
_cell_angle_beta 99.236548
_cell_angle_gamma 124.282196
_cell_volume 384.420561
_symmetry_space_group_name_H-M "P -1"
_symmetry_group_IT_number 2
_symmetry_cell_setting 'triclinic'
loop_
_space_group_symop_operation_xyz
x,y,z
-x,-y,-z
loop_
_atom_site_type_symbol
_atom_site_label
_atom_site_fract_x
_atom_site_fract_y
_atom_site_fract_z
Si Si1 0.368349 0.014072 0.677669
Si Si2 0.966950 0.125125 0.204432
Si Si3 0.782276 0.441974 0.918114
Si Si4 0.596984 0.445507 0.446840
Si Si5 0.000000 0.500000 0.000000
Si Si6 0.723013 0.852541 0.935242
O O1 0.313810 0.761232 0.821820
O O2 0.513889 0.185447 0.563425
O O3 0.347254 0.074062 0.937066
O O4 0.298166 0.088179 0.404694
O O5 0.866094 0.969721 0.031259
O O6 0.926398 0.264857 0.271331
O O7 0.000000 0.000000 0.500000
O O8 0.088357 0.357281 0.997846
O O9 0.714620 0.517461 0.650239
O O10 0.870086 0.390857 0.807695
O O11 0.500000 0.500000 0.500000
O O12 0.653511 0.595061 0.114274
#
# Coordination Sequence:
#
# PCOD9079900 Si02
#       6
#     2   2   2   2   1   2
#     4  11  23  40  66  92 131 172 217 273 328 400
#     4  10  18  37  69  93 133 169 222 276 335 395
#     4  10  19  39  65  96 128 172 219 273 337 386
#     4  10  22  39  65  91 133 172 221 267 331 398
#     4   8  18  34  66  90 132 160 222 270 332 388
#     4  11  21  43  65  93 130 170 221 272 332 394
#
# _framework density 28.614497
#
# number of rings (size 3 to 8) (size 9 to 14) (size 15 to 20)
#    1.091    0.727    3.636    1.091    0.000    0.727 
#    0.000   12.727    0.000    0.000    0.000    0.000 
#    0.000    0.000    0.000    0.000    0.000    0.000 
#
# Total GULP energy -61266.848659 kJ/mol
# GULP energy per Si atom -5569.713514 kJ/mol
# Density = 2.854937 g / cm^3
# Si number density = 28.614497 Si / 1000 Ang^3
#
#
#
# Elastic Constant Matrix: (Units=GPa)
#
#
# Indices 1 2 3 4 5 6 
#
# 1 85.8974 28.6022 40.6304 4.6713 7.1294 14.9799
# 2 28.6022 153.7310 51.9339 -42.0479 -13.0415 16.8081
# 3 40.6304 51.9339 152.4876 -29.0087 29.5306 10.1634
# 4 4.6713 -42.0479 -29.0087 54.1288 13.9268 14.9785
# 5 7.1294 -13.0415 29.5306 13.9268 45.4651 -4.4046
# 6 14.9799 16.8081 10.1634 14.9785 -4.4046 54.9503
#
#
#
# Elastic Compliance Matrix: (Units=1/GPa)
#
#
# Indices 1 2 3 4 5 6 
#
# 1 0.014971 -0.002718 -0.004462 -0.006010 0.001548 -0.000662
# 2 -0.002718 0.010309 -0.001006 0.008718 0.000928 -0.004528
# 3 -0.004462 -0.001006 0.012648 0.010625 -0.011508 -0.004634
# 4 -0.006010 0.008718 0.010625 0.040131 -0.017235 -0.015314
# 5 0.001548 0.000928 -0.011508 -0.017235 0.035642 0.008978
# 6 -0.000662 -0.004528 -0.004634 -0.015314 0.008978 0.025515
#
#
# Mechanical properties :
#
#
# Convention : Reuss Voigt Hill
#
# Bulk Modulus (GPa) = 46.39227 70.49432 58.44329
# Shear Modulus (GPa) = 30.71730 48.97213 39.84472
#
# Velocity S-wave (km/s) = 3.27997 4.14145 3.73562
# Velocity P-wave (km/s) = 5.53103 6.89624 6.25102
#
# Compressibility (1/GPa) = 0.02155531
#
# Stress axis : x y z
#
# Youngs Moduli (GPa) = 66.79368 97.00615 79.06201
#
# Poissons Ratio (x) = 0.26367 0.35280
# Poissons Ratio (y) = 0.18155 0.07955
# Poissons Ratio (z) = 0.29806 0.09760
#
# Static dielectric constant tensor:
#      x y z
#    x 5.691160 -1.318500 0.436110 
#    y -1.318500 2.854050 -0.199120 
#    z 0.436110 -0.199120 2.185870 
# 
# From -- ./inp_files/86687.got.cif
#   From: 2010.05.17/outbox.cif.g08.bks.cpg/sg2_44_cif.got.tgz:86687.got - 2010.06.03 11:33:40.
