data_PCOD9079274
_publ_section_title
;
Structure prediction by ZEFSAII (Michael W. Deem and Ramdas Pophale) SiO2 
 PCOD9079274
Probable space group: P -1
;
_chemical_formula_sum "Si O2"
_cell_formula_units_Z 16
_cell_length_a 8.782619
_cell_length_b 10.701459
_cell_length_c 9.966255
_cell_angle_alpha 69.695681
_cell_angle_beta 50.517652
_cell_angle_gamma 52.835247
_cell_volume 575.079846
_symmetry_space_group_name_H-M "P -1"
_symmetry_group_IT_number 2
_symmetry_cell_setting 'triclinic'
loop_
_space_group_symop_operation_xyz
x,y,z
-x,-y,-z
loop_
_atom_site_type_symbol
_atom_site_label
_atom_site_fract_x
_atom_site_fract_y
_atom_site_fract_z
Si Si1 0.353689 0.535216 0.246021
Si Si2 0.057976 0.818283 0.515777
Si Si3 0.448739 0.017059 0.364037
Si Si4 0.607983 0.686480 0.056323
Si Si5 0.226181 0.943060 0.031074
Si Si6 0.151016 0.744332 0.942319
Si Si7 0.016505 0.521583 0.238878
Si Si8 0.528992 0.679752 0.404541
O O1 0.201661 0.695649 0.358344
O O2 0.509154 0.595283 0.060761
O O3 0.167088 0.510010 0.286524
O O4 0.583448 0.364404 0.217646
O O5 0.269462 0.713336 0.543859
O O6 0.803163 0.857255 0.601975
O O7 0.000000 0.000000 0.500000
O O8 0.629836 0.042763 0.175025
O O9 0.500000 0.000000 0.500000
O O10 0.492421 0.848960 0.368100
O O11 0.629252 0.625406 0.216944
O O12 0.406883 0.865846 0.080826
O O13 0.848061 0.634881 0.869546
O O14 0.139438 0.837623 0.050743
O O15 0.011299 0.114362 0.119851
O O16 0.028496 0.649303 0.088574
O O17 0.757479 0.569095 0.405628
#
# Coordination Sequence:
#
# PCOD9079274 Si02
#       8
#     2   2   2   2   2   2   2   2
#     4  10  18  36  65  92 122 160 201 254 307 370
#     4   9  21  38  60  86 116 159 215 249 285 353
#     4  11  23  41  62  86 115 170 220 249 287 366
#     4  10  20  35  60  96 128 153 191 259 326 362
#     4  11  21  36  60  95 130 154 198 259 318 356
#     4  10  20  34  60  98 128 147 196 263 319 360
#     4  11  17  35  59  98 122 156 193 241 318 383
#     4  10  21  36  62  89 118 162 203 253 306 367
#
# _framework density 27.822225
#
# number of rings (size 3 to 8) (size 9 to 14) (size 15 to 20)
#    0.000    1.750    3.750    1.875    0.000    1.500 
#    0.000    0.625    0.000    0.750    0.000    0.000 
#    0.000    0.000    0.000    0.000    0.000    0.000 
#
# Total GULP energy -89220.500339 kJ/mol
# GULP energy per Si atom -5576.281271 kJ/mol
# Density = 2.775890 g / cm^3
# Si number density = 27.822225 Si / 1000 Ang^3
#
#
#
# Elastic Constant Matrix: (Units=GPa)
#
#
# Indices 1 2 3 4 5 6 
#
# 1 154.8437 42.7948 53.9470 19.4329 -27.7805 -32.8356
# 2 42.7948 123.1603 40.8558 35.6729 -18.5539 -18.2194
# 3 53.9470 40.8558 108.1690 35.4907 -11.1605 -12.3249
# 4 19.4329 35.6729 35.4907 51.6187 -15.5674 -17.1407
# 5 -27.7805 -18.5539 -11.1605 -15.5674 46.2367 17.1544
# 6 -32.8356 -18.2194 -12.3249 -17.1407 17.1544 57.7544
#
#
#
# Elastic Compliance Matrix: (Units=1/GPa)
#
#
# Indices 1 2 3 4 5 6 
#
# 1 0.009456 -0.001594 -0.004227 0.002763 0.003567 0.003732
# 2 -0.001594 0.010957 -0.001356 -0.005614 0.001125 0.000261
# 3 -0.004227 -0.001356 0.014229 -0.008384 -0.001826 -0.001740
# 4 0.002763 -0.005614 -0.008384 0.031641 0.005946 0.005635
# 5 0.003567 0.001125 -0.001826 0.005946 0.027410 -0.004383
# 6 0.003732 0.000261 -0.001740 0.005635 -0.004383 0.022122
#
#
# Mechanical properties :
#
#
# Convention : Reuss Voigt Hill
#
# Bulk Modulus (GPa) = 49.29015 73.48534 61.38775
# Shear Modulus (GPa) = 36.51431 47.69364 42.10397
#
# Velocity S-wave (km/s) = 3.62666 4.14482 3.89436
# Velocity P-wave (km/s) = 5.94066 7.02679 6.50643
#
# Compressibility (1/GPa) = 0.02028803
#
# Stress axis : x y z
#
# Youngs Moduli (GPa) = 105.75258 91.26251 70.27883
#
# Poissons Ratio (x) = 0.14551 0.29708
# Poissons Ratio (y) = 0.16861 0.09527
# Poissons Ratio (z) = 0.44704 0.12372
#
# Static dielectric constant tensor:
#      x y z
#    x 0.655540 -0.064910 -1.558830 
#    y -0.064910 2.284250 0.023010 
#    z -1.558830 0.023010 0.691670 
# 
# From -- ./inp_files/392508.got.cif
#   From: 2010.05.17/outbox.cif.g08.bks.cpg/sg2_197_cif.got.tgz:392508.got - 2010.06.03 11:33:40.
