data_PCOD9079824
_publ_section_title
;
Structure prediction by ZEFSAII (Michael W. Deem and Ramdas Pophale) SiO2 
 PCOD9079824
Probable space group: P -1
;
_chemical_formula_sum "Si O2"
_cell_formula_units_Z 16
_cell_length_a 12.568546
_cell_length_b 7.393511
_cell_length_c 12.929997
_cell_angle_alpha 75.608422
_cell_angle_beta 45.849845
_cell_angle_gamma 56.149506
_cell_volume 696.103113
_symmetry_space_group_name_H-M "P -1"
_symmetry_group_IT_number 2
_symmetry_cell_setting 'triclinic'
loop_
_space_group_symop_operation_xyz
x,y,z
-x,-y,-z
loop_
_atom_site_type_symbol
_atom_site_label
_atom_site_fract_x
_atom_site_fract_y
_atom_site_fract_z
Si Si1 0.997059 0.505625 0.236908
Si Si2 0.310262 0.420971 0.695307
Si Si3 0.563767 0.230755 0.247933
Si Si4 0.145693 0.625235 0.483317
Si Si5 0.325094 0.862610 0.589672
Si Si6 0.173815 0.062871 0.042818
Si Si7 0.869203 0.325969 0.040574
Si Si8 0.002870 0.927596 0.340620
O O1 0.118818 0.272754 0.123361
O O2 0.798586 0.599106 0.318100
O O3 0.980493 0.451044 0.374054
O O4 0.058226 0.651677 0.119452
O O5 0.303286 0.651158 0.647998
O O6 0.511704 0.222654 0.585183
O O7 0.208177 0.455511 0.865181
O O8 0.356015 0.427648 0.366202
O O9 0.620566 0.105723 0.338217
O O10 0.696720 0.317691 0.139920
O O11 0.635571 0.066157 0.124181
O O12 0.090236 0.733964 0.392696
O O13 0.097874 0.834357 0.561984
O O14 0.151704 0.058767 0.624656
O O15 0.028500 0.141377 0.034816
O O16 0.142724 0.917221 0.166413
#
# Coordination Sequence:
#
# PCOD9079824 Si02
#       8
#     2   2   2   2   2   2   2   2
#     4  10  18  35  54  80 111 143 178 214 274 322
#     4   9  14  26  50  78 100 131 172 219 261 295
#     4  11  20  33  55  86 110 132 183 227 272 304
#     4  10  20  34  55  78 106 148 182 221 255 326
#     4  10  15  27  52  80 105 126 176 232 253 301
#     4  10  19  32  54  83 108 140 175 227 269 318
#     4  10  19  30  57  80 112 139 175 222 274 318
#     4  10  18  32  54  80 107 138 188 220 261 311
#
# _framework density 22.985099999999999
#
# number of rings (size 3 to 8) (size 9 to 14) (size 15 to 20)
#    0.000    2.000    6.250    3.375    0.000    0.500 
#    0.000    0.625    0.000   14.250    0.000    0.000 
#    0.000    0.000    0.000    0.000    0.000    0.000 
#
# Total GULP energy -89298.185088 kJ/mol
# GULP energy per Si atom -5581.136568 kJ/mol
# Density = 2.293279 g / cm^3
# Si number density = 22.985100 Si / 1000 Ang^3
#
#
#
# Elastic Constant Matrix: (Units=GPa)
#
#
# Indices 1 2 3 4 5 6 
#
# 1 53.4198 42.9498 40.5098 2.3239 16.1737 -13.1571
# 2 42.9498 93.1797 72.4084 -11.4295 20.0612 -25.9463
# 3 40.5098 72.4084 199.9603 -0.2517 18.7130 -28.7678
# 4 2.3239 -11.4295 -0.2517 46.3413 -5.4858 3.3879
# 5 16.1737 20.0612 18.7130 -5.4858 22.9100 -7.0726
# 6 -13.1571 -25.9463 -28.7678 3.3879 -7.0726 33.1080
#
#
#
# Elastic Compliance Matrix: (Units=1/GPa)
#
#
# Indices 1 2 3 4 5 6 
#
# 1 0.034244 -0.012743 -0.000981 -0.006516 -0.013612 0.000528
# 2 -0.012743 0.024071 -0.004500 0.005404 -0.004528 0.008370
# 3 -0.000981 -0.004500 0.007244 -0.001295 -0.000876 0.002323
# 4 -0.006516 0.005404 -0.001295 0.024043 0.006513 -0.000549
# 5 -0.013612 -0.004528 -0.000876 0.006513 0.060268 0.002488
# 6 0.000528 0.008370 0.002323 -0.000549 0.002488 0.039579
#
#
# Mechanical properties :
#
#
# Convention : Reuss Voigt Hill
#
# Bulk Modulus (GPa) = 34.35290 73.14397 53.74843
# Shear Modulus (GPa) = 21.22225 33.18464 27.20344
#
# Velocity S-wave (km/s) = 3.04189 3.80379 3.44397
# Velocity P-wave (km/s) = 5.22644 7.15424 6.26493
#
# Compressibility (1/GPa) = 0.02910963
#
# Stress axis : x y z
#
# Youngs Moduli (GPa) = 29.20184 41.54382 138.04635
#
# Poissons Ratio (x) = 0.52941 0.13547
# Poissons Ratio (y) = 0.37213 0.62122
# Poissons Ratio (z) = 0.02866 0.18695
#
# Static dielectric constant tensor:
#      x y z
#    x 1.895850 0.106070 0.040450 
#    y 0.106070 1.991830 -0.013190 
#    z 0.040450 -0.013190 1.884440 
# 
# From -- ./inp_files/528372.got.cif
#   From: 2010.05.17/outbox.cif.g08.bks.cpg/sg2_265_cif.got.tgz:528372.got - 2010.06.03 11:33:40.
