data_PCOD9079814
_publ_section_title
;
Structure prediction by ZEFSAII (Michael W. Deem and Ramdas Pophale) SiO2 
 PCOD9079814
Probable space group: P -1
;
_chemical_formula_sum "Si O2"
_cell_formula_units_Z 16
_cell_length_a 11.059652
_cell_length_b 14.204955
_cell_length_c 18.960895
_cell_angle_alpha 27.040552
_cell_angle_beta 42.774798
_cell_angle_gamma 28.869707
_cell_volume 639.349576
_symmetry_space_group_name_H-M "P -1"
_symmetry_group_IT_number 2
_symmetry_cell_setting 'triclinic'
loop_
_space_group_symop_operation_xyz
x,y,z
-x,-y,-z
loop_
_atom_site_type_symbol
_atom_site_label
_atom_site_fract_x
_atom_site_fract_y
_atom_site_fract_z
Si Si1 0.964800 0.697019 0.822784
Si Si2 0.788056 0.297392 0.030928
Si Si3 0.527674 0.259796 0.862439
Si Si4 0.990169 0.220558 0.808844
Si Si5 0.025809 0.009825 0.253773
Si Si6 0.125847 0.103790 0.410039
Si Si7 0.555690 0.253319 0.354575
Si Si8 0.160176 0.302946 0.801577
O O1 0.787161 0.845495 0.731676
O O2 0.243737 0.457310 0.826786
O O3 0.919422 0.939468 0.727240
O O4 0.000000 0.500000 0.000000
O O5 0.500000 0.500000 0.000000
O O6 0.904659 0.386389 0.876936
O O7 0.926015 0.960977 0.178697
O O8 0.852780 0.295723 0.084612
O O9 0.710580 0.199581 0.763698
O O10 0.491860 0.461091 0.803974
O O11 0.634302 0.970877 0.050949
O O12 0.718993 0.566511 0.682324
O O13 0.183432 0.215040 0.769078
O O14 0.000000 0.000000 0.000000
O O15 0.812728 0.009919 0.360111
O O16 0.908854 0.406477 0.345614
O O17 0.360168 0.885382 0.510445
O O18 0.000000 0.000000 0.500000
#
# Coordination Sequence:
#
# PCOD9079814 Si02
#       8
#     2   2   2   2   2   2   2   2
#     4  11  24  42  68  96 131 182 239 285 337 407
#     4  10  19  33  67 105 136 165 227 293 338 405
#     4  10  20  40  67 100 134 167 240 289 323 421
#     4  10  18  37  66 101 131 178 225 283 341 415
#     4  10  19  34  63  97 125 178 216 271 349 397
#     4  12  25  46  65  99 145 183 229 294 350 404
#     4  11  21  41  67  94 144 179 222 285 355 410
#     4  10  22  38  66 100 132 183 229 278 352 409
#
# _framework density 25.025434000000001
#
# number of rings (size 3 to 8) (size 9 to 14) (size 15 to 20)
#    0.000    1.500    6.250    3.000    1.750    2.500 
#    0.000    3.750    0.000    1.500    0.000    0.000 
#    0.000    0.000    0.000    0.000    0.000    0.000 
#
# Total GULP energy -89097.296519 kJ/mol
# GULP energy per Si atom -5568.581032 kJ/mol
# Density = 2.496847 g / cm^3
# Si number density = 25.025434 Si / 1000 Ang^3
#
#
#
# Elastic Constant Matrix: (Units=GPa)
#
#
# Indices 1 2 3 4 5 6 
#
# 1 93.5418 34.0918 42.6401 -1.3802 17.8421 25.1793
# 2 34.0918 124.5405 24.0840 -1.1431 22.9514 -4.0376
# 3 42.6401 24.0840 103.4781 -6.0291 18.8817 8.3742
# 4 -1.3802 -1.1431 -6.0291 25.6186 10.0958 1.1507
# 5 17.8421 22.9514 18.8817 10.0958 55.5823 -7.6268
# 6 25.1793 -4.0376 8.3742 1.1507 -7.6268 39.1923
#
#
#
# Elastic Compliance Matrix: (Units=1/GPa)
#
#
# Indices 1 2 3 4 5 6 
#
# 1 0.018412 -0.003598 -0.004743 0.002188 -0.004885 -0.012201
# 2 -0.003598 0.009664 -0.000502 0.000949 -0.002438 0.002912
# 3 -0.004743 -0.000502 0.012621 0.004036 -0.003355 -0.000472
# 4 0.002188 0.000949 0.004036 0.044894 -0.011403 -0.005708
# 5 -0.004885 -0.002438 -0.003355 -0.011403 0.024985 0.008801
# 6 -0.012201 0.002912 -0.000472 -0.005708 0.008801 0.035635
#
#
# Mechanical properties :
#
#
# Convention : Reuss Voigt Hill
#
# Bulk Modulus (GPa) = 43.45975 58.13246 50.79611
# Shear Modulus (GPa) = 29.14291 38.79494 33.96892
#
# Velocity S-wave (km/s) = 3.41623 3.94156 3.68826
# Velocity P-wave (km/s) = 5.74149 6.63282 6.20318
#
# Compressibility (1/GPa) = 0.02300980
#
# Stress axis : x y z
#
# Youngs Moduli (GPa) = 54.31156 103.47751 79.23302
#
# Poissons Ratio (x) = 0.37233 0.37584
# Poissons Ratio (y) = 0.19542 0.03979
# Poissons Ratio (z) = 0.25762 0.05196
#
# Static dielectric constant tensor:
#      x y z
#    x 2.094550 -0.029670 -0.053230 
#    y -0.029670 2.190740 0.096670 
#    z -0.053230 0.096670 2.125220 
# 
# From -- ./inp_files/595619.got.cif
#   From: 2010.05.17/outbox.cif.g08.bks.cpg/sg2_298_cif.got.tgz:595619.got - 2010.06.03 11:33:40.
