data_PCOD9079399
_publ_section_title
;
Structure prediction by ZEFSAII (Michael W. Deem and Ramdas Pophale) SiO2 
 PCOD9079399
Probable space group: P -1
;
_chemical_formula_sum "Si O2"
_cell_formula_units_Z 16
_cell_length_a 9.864010
_cell_length_b 19.983536
_cell_length_c 9.863934
_cell_angle_alpha 132.337942
_cell_angle_beta 44.039319
_cell_angle_gamma 113.327789
_cell_volume 984.283876
_symmetry_space_group_name_H-M "P -1"
_symmetry_group_IT_number 2
_symmetry_cell_setting 'triclinic'
loop_
_space_group_symop_operation_xyz
x,y,z
-x,-y,-z
loop_
_atom_site_type_symbol
_atom_site_label
_atom_site_fract_x
_atom_site_fract_y
_atom_site_fract_z
Si Si1 0.283570 0.130550 0.126638
Si Si2 0.134436 0.869434 0.455348
Si Si3 0.464915 0.608420 0.681781
Si Si4 0.592855 0.985320 0.563481
Si Si5 0.875701 0.245822 0.960947
Si Si6 0.548934 0.738966 0.026918
Si Si7 0.296850 0.231063 0.758956
Si Si8 0.469360 0.245804 0.367275
O O1 0.323792 0.200051 0.072103
O O2 0.358753 0.174930 0.269044
O O3 0.056533 0.120837 0.298170
O O4 0.428540 0.036647 0.855674
O O5 0.217628 0.963333 0.498138
O O6 0.080794 0.825044 0.291396
O O7 0.327949 0.799933 0.276160
O O8 0.500000 0.500000 0.500000
O O9 0.531807 0.648839 0.829531
O O10 0.573801 0.657613 0.552027
O O11 0.236775 0.657596 0.889029
O O12 0.500000 0.000000 0.500000
O O13 0.649513 0.878405 0.406281
O O14 0.066401 0.255068 0.921192
O O15 0.703564 0.214261 0.132036
O O16 0.640621 0.723286 0.087219
O O17 0.411123 0.255049 0.576462
#
# Coordination Sequence:
#
# PCOD9079399 Si02
#       8
#     2   2   2   2   2   2   2   2
#     4  10  18  37  56  75 108 152 199 221 262 328
#     4  10  18  37  56  75 108 152 199 221 262 328
#     4   8  17  41  66  79 106 144 181 221 271 351
#     4  11  22  36  50  79 115 149 200 233 255 309
#     4   9  20  36  58  81 112 140 180 227 288 319
#     4   9  20  36  57  81 116 145 175 233 278 323
#     4  12  21  36  55  80 117 148 179 233 282 313
#     4   9  20  36  58  81 112 140 180 227 288 319
#
# _framework density 16.255472999999999
#
# number of rings (size 3 to 8) (size 9 to 14) (size 15 to 20)
#    0.750    1.500    6.250    0.000    0.000    3.500 
#    0.000    1.875    0.000    0.000    0.000    0.000 
#    0.000    0.000    0.000    0.000    0.000    0.000 
#
# Total GULP energy -89083.215795 kJ/mol
# GULP energy per Si atom -5567.700987 kJ/mol
# Density = 1.621847 g / cm^3
# Si number density = 16.255473 Si / 1000 Ang^3
#
#
#
# Elastic Constant Matrix: (Units=GPa)
#
#
# Indices 1 2 3 4 5 6 
#
# 1 119.6636 42.6726 53.1071 -10.6236 17.4436 -0.4456
# 2 42.6726 67.8349 62.2189 11.2823 -0.2765 5.5340
# 3 53.1071 62.2189 88.0848 -11.4473 3.1539 10.1351
# 4 -10.6236 11.2823 -11.4473 39.2519 9.5074 -2.7277
# 5 17.4436 -0.2765 3.1539 9.5074 26.5129 -10.8821
# 6 -0.4456 5.5340 10.1351 -2.7277 -10.8821 17.8649
#
#
#
# Elastic Compliance Matrix: (Units=1/GPa)
#
#
# Indices 1 2 3 4 5 6 
#
# 1 0.016791 -0.021478 0.009306 0.018297 -0.022744 -0.009268
# 2 -0.021478 0.128525 -0.097648 -0.086822 0.078612 0.049678
# 3 0.009306 -0.097648 0.091650 0.069172 -0.063127 -0.049406
# 4 0.018297 -0.086822 0.069172 0.089701 -0.070132 -0.040915
# 5 -0.022744 0.078612 -0.063127 -0.070132 0.114984 0.070227
# 6 -0.009268 0.049678 -0.049406 -0.040915 0.070227 0.104916
#
#
# Mechanical properties :
#
#
# Convention : Reuss Voigt Hill
#
# Bulk Modulus (GPa) = 57.71781 65.73116 61.72449
# Shear Modulus (GPa) = 6.47682 24.56491 15.52087
#
# Velocity S-wave (km/s) = 1.99826 3.89160 3.09335
# Velocity P-wave (km/s) = 6.39592 7.79210 7.12828
#
# Compressibility (1/GPa) = 0.01732567
#
# Stress axis : x y z
#
# Youngs Moduli (GPa) = 59.55537 7.78059 10.91103
#
# Poissons Ratio (x) = 0.16711 -0.10154
# Poissons Ratio (y) = 1.27915 1.06544
# Poissons Ratio (z) = -0.55424 0.75976
#
# Static dielectric constant tensor:
#      x y z
#    x 1.549910 0.002730 -0.002790 
#    y 0.002730 1.536090 -0.014630 
#    z -0.002790 -0.014630 1.545850 
# 
# From -- ./inp_files/222399.got.cif
#   From: 2010.05.17/outbox.cif.g08.bks.cpg/sg2_112_cif.got.tgz:222399.got - 2010.06.03 11:33:40.
