data_PCOD9079402
_publ_section_title
;
Structure prediction by ZEFSAII (Michael W. Deem and Ramdas Pophale) SiO2 
 PCOD9079402
Probable space group: P -1
;
_chemical_formula_sum "Si O2"
_cell_formula_units_Z 16
_cell_length_a 12.250700
_cell_length_b 7.930676
_cell_length_c 11.862952
_cell_angle_alpha 47.082744
_cell_angle_beta 91.387794
_cell_angle_gamma 71.625328
_cell_volume 752.230375
_symmetry_space_group_name_H-M "P -1"
_symmetry_group_IT_number 2
_symmetry_cell_setting 'triclinic'
loop_
_space_group_symop_operation_xyz
x,y,z
-x,-y,-z
loop_
_atom_site_type_symbol
_atom_site_label
_atom_site_fract_x
_atom_site_fract_y
_atom_site_fract_z
Si Si1 0.595499 0.725888 0.574751
Si Si2 0.734769 0.008609 0.703117
Si Si3 0.758917 0.301418 0.953470
Si Si4 0.635516 0.541000 0.074706
Si Si5 0.948981 0.487161 0.881018
Si Si6 0.528249 0.961549 0.250388
Si Si7 0.793279 0.829781 0.029377
Si Si8 0.593164 0.470874 0.345678
O O1 0.685435 0.536578 0.756584
O O2 0.627200 0.825790 0.413225
O O3 0.525600 0.561779 0.608198
O O4 0.500000 0.000000 0.500000
O O5 0.605477 0.996126 0.723822
O O6 0.701779 0.269374 0.516458
O O7 0.833119 0.770004 0.741599
O O8 0.787023 0.982416 0.842426
O O9 0.894210 0.283251 0.965893
O O10 0.709482 0.378996 0.043582
O O11 0.753688 0.045547 0.025915
O O12 0.709934 0.688189 0.063332
O O13 0.614265 0.403823 0.245001
O O14 0.505889 0.757383 0.925420
O O15 0.067607 0.389205 0.849881
O O16 0.000000 0.500000 0.000000
O O17 0.563932 0.760565 0.241041
#
# Coordination Sequence:
#
# PCOD9079402 Si02
#       8
#     2   2   2   2   2   2   2   2
#     4  11  20  35  56  86 115 148 196 239 269 333
#     4   9  17  36  59  85 110 148 195 234 278 337
#     4  12  20  36  61  87 116 147 196 239 286 337
#     4  11  22  39  55  85 126 154 186 230 284 351
#     4  10  18  37  64  85 110 143 194 253 288 323
#     4  10  18  37  56  79 116 153 192 227 274 338
#     4  10  21  37  64  86 108 149 199 246 281 331
#     4  11  22  35  58  84 119 163 183 223 292 343
#
# _framework density 21.270078999999999
#
# number of rings (size 3 to 8) (size 9 to 14) (size 15 to 20)
#    0.000    1.500    5.000    5.250    0.000    0.500 
#    2.250    0.625    0.000    0.750    0.000    0.000 
#    0.000    0.000    0.000    0.000    0.000    0.000 
#
# Total GULP energy -89223.394443 kJ/mol
# GULP energy per Si atom -5576.462153 kJ/mol
# Density = 2.122167 g / cm^3
# Si number density = 21.270079 Si / 1000 Ang^3
#
#
#
# Elastic Constant Matrix: (Units=GPa)
#
#
# Indices 1 2 3 4 5 6 
#
# 1 59.8875 20.7706 11.5327 -4.5594 8.5171 5.8843
# 2 20.7706 138.7543 25.2535 -3.6909 2.8105 6.3623
# 3 11.5327 25.2535 64.6646 2.9446 3.4379 -16.8663
# 4 -4.5594 -3.6909 2.9446 30.4595 -0.0629 1.7162
# 5 8.5171 2.8105 3.4379 -0.0629 18.7445 -2.2857
# 6 5.8843 6.3623 -16.8663 1.7162 -2.2857 32.2916
#
#
#
# Elastic Compliance Matrix: (Units=1/GPa)
#
#
# Indices 1 2 3 4 5 6 
#
# 1 0.020296 -0.001675 -0.004338 0.003600 -0.008951 -0.006459
# 2 -0.001675 0.008372 -0.003930 0.001339 -0.000193 -0.003482
# 3 -0.004338 -0.003930 0.021309 -0.003913 0.000214 0.012918
# 4 0.003600 0.001339 -0.003913 0.034182 -0.001601 -0.004894
# 5 -0.008951 -0.000193 0.000214 -0.001601 0.058130 0.005981
# 6 -0.006459 -0.003482 0.012918 -0.004894 0.005981 0.040261
#
#
# Mechanical properties :
#
#
# Convention : Reuss Voigt Hill
#
# Bulk Modulus (GPa) = 33.23283 42.04666 37.63975
# Shear Modulus (GPa) = 23.53307 30.01576 26.77441
#
# Velocity S-wave (km/s) = 3.32986 3.76063 3.55178
# Velocity P-wave (km/s) = 5.51743 6.21831 5.87833
#
# Compressibility (1/GPa) = 0.03009072
#
# Stress axis : x y z
#
# Youngs Moduli (GPa) = 49.27047 119.44364 46.92898
#
# Poissons Ratio (x) = 0.20012 0.20359
# Poissons Ratio (y) = 0.08255 0.18441
# Poissons Ratio (z) = 0.21375 0.46936
#
# Static dielectric constant tensor:
#      x y z
#    x 1.821470 0.017400 -0.002490 
#    y 0.017400 1.819600 -0.004890 
#    z -0.002490 -0.004890 1.838850 
# 
# From -- ./inp_files/434293.got.cif
#   From: 2010.05.17/outbox.cif.g08.bks.cpg/sg2_218_cif.got.tgz:434293.got - 2010.06.03 11:33:40.
