data_PCOD9079876
_publ_section_title
;
Structure prediction by ZEFSAII (Michael W. Deem and Ramdas Pophale) SiO2 
 PCOD9079876
Probable space group: P -1
;
_chemical_formula_sum "Si O2"
_cell_formula_units_Z 16
_cell_length_a 8.456843
_cell_length_b 10.025219
_cell_length_c 15.394912
_cell_angle_alpha 91.452280
_cell_angle_beta 108.609865
_cell_angle_gamma 34.120634
_cell_volume 619.884453
_symmetry_space_group_name_H-M "P -1"
_symmetry_group_IT_number 2
_symmetry_cell_setting 'triclinic'
loop_
_space_group_symop_operation_xyz
x,y,z
-x,-y,-z
loop_
_atom_site_type_symbol
_atom_site_label
_atom_site_fract_x
_atom_site_fract_y
_atom_site_fract_z
Si Si1 0.531835 0.696877 0.918132
Si Si2 0.358215 0.486443 0.539157
Si Si3 0.626278 0.202933 0.930460
Si Si4 0.530367 0.979034 0.139787
Si Si5 0.592701 0.097711 0.445245
Si Si6 0.211060 0.880823 0.229371
Si Si7 0.767454 0.542499 0.769509
Si Si8 0.217267 0.179175 0.267352
O O1 0.658175 0.564503 0.843913
O O2 0.639403 0.777061 0.931254
O O3 0.602612 0.589521 0.025304
O O4 0.138370 0.944244 0.849350
O O5 0.500000 0.500000 0.500000
O O6 0.579666 0.329241 0.661403
O O7 0.977051 0.786601 0.502822
O O8 0.435212 0.293187 0.498841
O O9 0.623329 0.044346 0.932500
O O10 0.552968 0.283544 0.818045
O O11 0.000000 0.000000 0.000000
O O12 0.911401 0.760298 0.202179
O O13 0.489870 0.986161 0.235390
O O14 0.632599 0.876474 0.616127
O O15 0.521658 0.239818 0.348127
O O16 0.106155 0.104223 0.244142
O O17 0.945159 0.569422 0.792707
#
# Coordination Sequence:
#
# PCOD9079876 Si02
#       8
#     2   2   2   2   2   2   2   2
#     4  10  20  38  65  92 130 174 226 283 339 408
#     4  12  25  42  68 104 136 181 234 286 346 409
#     4   9  20  40  64  93 132 176 224 279 346 410
#     4  10  18  37  67  95 130 176 222 279 339 410
#     4  10  23  43  68  98 140 178 231 281 343 410
#     4  10  22  41  62  93 134 176 226 285 342 405
#     4   9  20  36  65  95 129 171 223 277 334 403
#     4   8  20  39  61  91 130 180 213 275 336 407
#
# _framework density 25.811261999999999
#
# number of rings (size 3 to 8) (size 9 to 14) (size 15 to 20)
#    0.750    1.500    0.000    2.250    1.750    1.500 
#    4.500    1.250    0.000    9.750    0.000    0.000 
#    0.000    0.000    0.000    0.000    0.000    0.000 
#
# Total GULP energy -89142.372332 kJ/mol
# GULP energy per Si atom -5571.398271 kJ/mol
# Density = 2.575251 g / cm^3
# Si number density = 25.811262 Si / 1000 Ang^3
#
#
#
# Elastic Constant Matrix: (Units=GPa)
#
#
# Indices 1 2 3 4 5 6 
#
# 1 107.2504 12.0549 14.1999 -5.2732 4.0715 14.2345
# 2 12.0549 77.8552 22.4208 -8.2482 2.6310 -3.3461
# 3 14.1999 22.4208 141.9142 1.7286 -12.2835 -3.5121
# 4 -5.2732 -8.2482 1.7286 37.9489 -7.0519 -4.4100
# 5 4.0715 2.6310 -12.2835 -7.0519 29.2407 3.8202
# 6 14.2345 -3.3461 -3.5121 -4.4100 3.8202 25.5204
#
#
#
# Elastic Compliance Matrix: (Units=1/GPa)
#
#
# Indices 1 2 3 4 5 6 
#
# 1 0.010478 -0.001518 -0.001039 0.000309 -0.000901 -0.005998
# 2 -0.001518 0.014228 -0.002199 0.003041 -0.001676 0.003186
# 3 -0.001039 -0.002199 0.007821 -0.000241 0.003464 0.000807
# 4 0.000309 0.003041 -0.000241 0.028664 0.005939 0.004257
# 5 -0.000901 -0.001676 0.003464 0.005939 0.037870 -0.003883
# 6 -0.005998 0.003186 0.000807 0.004257 -0.003883 0.044375
#
#
# Mechanical properties :
#
#
# Convention : Reuss Voigt Hill
#
# Bulk Modulus (GPa) = 43.44999 47.15233 45.30116
# Shear Modulus (GPa) = 31.12942 37.09827 34.11385
#
# Velocity S-wave (km/s) = 3.47658 3.79527 3.63942
# Velocity P-wave (km/s) = 5.74332 6.12481 5.93713
#
# Compressibility (1/GPa) = 0.02301497
#
# Stress axis : x y z
#
# Youngs Moduli (GPa) = 95.44237 70.28199 127.86618
#
# Poissons Ratio (x) = 0.10667 0.13282
# Poissons Ratio (y) = 0.14486 0.28122
# Poissons Ratio (z) = 0.09914 0.15457
#
# Static dielectric constant tensor:
#      x y z
#    x 2.061670 0.102880 0.013790 
#    y 0.102880 2.235790 0.018790 
#    z 0.013790 0.018790 2.125410 
# 
# From -- ./inp_files/500409.got.cif
#   From: 2010.05.17/outbox.cif.g08.bks.cpg/sg2_251_cif.got.tgz:500409.got - 2010.06.03 11:33:40.
