data_PCOD9079502
_publ_section_title
;
Structure prediction by ZEFSAII (Michael W. Deem and Ramdas Pophale) SiO2 
 PCOD9079502
Probable space group: P -1
;
_chemical_formula_sum "Si O2"
_cell_formula_units_Z 14
_cell_length_a 9.358252
_cell_length_b 10.751333
_cell_length_c 11.946713
_cell_angle_alpha 127.841957
_cell_angle_beta 129.890307
_cell_angle_gamma 60.230510
_cell_volume 717.703438
_symmetry_space_group_name_H-M "P -1"
_symmetry_group_IT_number 2
_symmetry_cell_setting 'triclinic'
loop_
_space_group_symop_operation_xyz
x,y,z
-x,-y,-z
loop_
_atom_site_type_symbol
_atom_site_label
_atom_site_fract_x
_atom_site_fract_y
_atom_site_fract_z
Si Si1 0.966310 0.751768 0.916223
Si Si2 0.179565 0.085471 0.656979
Si Si3 0.094050 0.719343 0.208785
Si Si4 0.078351 0.882071 0.835327
Si Si5 0.595750 0.133377 0.181193
Si Si6 0.344037 0.435478 0.311662
Si Si7 0.718464 0.966355 0.557665
O O1 0.802493 0.655346 0.746040
O O2 0.105651 0.764266 0.889708
O O3 0.048307 0.680053 0.036129
O O4 0.895378 0.939869 0.013467
O O5 0.246544 0.133814 0.595932
O O6 0.098709 0.218076 0.782704
O O7 0.337112 0.948531 0.712564
O O8 0.000000 0.000000 0.500000
O O9 0.221637 0.577842 0.260083
O O10 0.210049 0.866080 0.338668
O O11 0.221122 0.840084 0.781917
O O12 0.865018 0.892422 0.686989
O O13 0.454745 0.297349 0.212779
O O14 0.500000 0.000000 0.000000
O O15 0.500000 0.500000 0.500000
O O16 0.500000 0.000000 0.500000
#
# Coordination Sequence:
#
# PCOD9079502 Si02
#       7
#     2   2   2   2   2   2   2
#     4  10  21  41  62  88 125 172 204 264 314 377
#     4  10  18  37  60  85 122 161 216 252 306 372
#     4  10  21  41  60  91 124 171 209 258 321 381
#     4  10  21  39  65  91 124 164 221 260 311 370
#     4  12  22  40  64  97 123 170 221 259 305 390
#     4  12  25  37  64  97 134 160 216 266 324 376
#     4  10  21  35  64  94 125 165 215 267 314 375
#
# _framework density 19.506661999999999
#
# number of rings (size 3 to 8) (size 9 to 14) (size 15 to 20)
#    0.000    1.429    5.714    2.143    4.000    1.143 
#    0.000    2.857    0.000    0.000    0.000    0.000 
#    0.000    0.000    0.000    0.000    0.000    0.000 
#
# Total GULP energy -78091.620136 kJ/mol
# GULP energy per Si atom -5577.972867 kJ/mol
# Density = 1.946226 g / cm^3
# Si number density = 19.506662 Si / 1000 Ang^3
#
#
#
# Elastic Constant Matrix: (Units=GPa)
#
#
# Indices 1 2 3 4 5 6 
#
# 1 78.4237 25.2469 26.8048 -6.5664 0.8464 2.3713
# 2 25.2469 83.0293 17.3805 -11.2130 -7.4633 2.5447
# 3 26.8048 17.3805 78.8113 -5.3869 3.6356 19.6111
# 4 -6.5664 -11.2130 -5.3869 21.7539 3.8663 -4.1015
# 5 0.8464 -7.4633 3.6356 3.8663 27.7088 -1.8051
# 6 2.3713 2.5447 19.6111 -4.1015 -1.8051 26.2441
#
#
#
# Elastic Compliance Matrix: (Units=1/GPa)
#
#
# Indices 1 2 3 4 5 6 
#
# 1 0.015774 -0.003574 -0.005136 0.002387 -0.000904 0.003070
# 2 -0.003574 0.014626 -0.002218 0.005576 0.003671 0.001686
# 3 -0.005136 -0.002218 0.018416 0.000015 -0.003728 -0.013336
# 4 0.002387 0.005576 0.000015 0.051831 -0.005351 0.006965
# 5 -0.000904 0.003671 -0.003728 -0.005351 0.038624 0.004331
# 6 0.003070 0.001686 -0.013336 0.006965 0.004331 0.049015
#
#
# Mechanical properties :
#
#
# Convention : Reuss Voigt Hill
#
# Bulk Modulus (GPa) = 37.09086 42.12540 39.60813
# Shear Modulus (GPa) = 22.81754 26.53017 24.67385
#
# Velocity S-wave (km/s) = 3.42384 3.69190 3.56039
# Velocity P-wave (km/s) = 5.88948 6.30997 6.10335
#
# Compressibility (1/GPa) = 0.02696082
#
# Stress axis : x y z
#
# Youngs Moduli (GPa) = 63.39511 68.36921 54.30090
#
# Poissons Ratio (x) = 0.24438 0.27888
# Poissons Ratio (y) = 0.22660 0.12042
# Poissons Ratio (z) = 0.32558 0.15162
#
# Static dielectric constant tensor:
#      x y z
#    x 1.711970 0.010860 -0.035580 
#    y 0.010860 1.696900 -0.018830 
#    z -0.035580 -0.018830 1.734780 
# 
# From -- ./inp_files/181211.got.cif
#   From: 2010.05.17/outbox.cif.g08.bks.cpg/sg2_91_cif.got.tgz:181211.got - 2010.06.03 11:33:40.
