data_PCOD9079782
_publ_section_title
;
Structure prediction by ZEFSAII (Michael W. Deem and Ramdas Pophale) SiO2 
 PCOD9079782
Probable space group: P -1
;
_chemical_formula_sum "Si O2"
_cell_formula_units_Z 14
_cell_length_a 11.990837
_cell_length_b 8.531223
_cell_length_c 8.543007
_cell_angle_alpha 125.976787
_cell_angle_beta 70.050115
_cell_angle_gamma 105.735826
_cell_volume 661.901858
_symmetry_space_group_name_H-M "P -1"
_symmetry_group_IT_number 2
_symmetry_cell_setting 'triclinic'
loop_
_space_group_symop_operation_xyz
x,y,z
-x,-y,-z
loop_
_atom_site_type_symbol
_atom_site_label
_atom_site_fract_x
_atom_site_fract_y
_atom_site_fract_z
Si Si1 0.379659 0.577538 0.036767
Si Si2 0.623033 0.040536 0.556466
Si Si3 0.956371 0.173685 0.029703
Si Si4 0.698699 0.618906 0.366104
Si Si5 0.245374 0.680972 0.607944
Si Si6 0.868586 0.478840 0.715573
Si Si7 0.981250 0.690201 0.228554
O O1 0.386332 0.806645 0.207883
O O2 0.262506 0.493691 0.139650
O O3 0.500000 0.500000 0.000000
O O4 0.352050 0.507570 0.832808
O O5 0.703100 0.159518 0.451803
O O6 0.500000 0.000000 0.500000
O O7 0.656238 0.834107 0.487175
O O8 0.822068 0.215918 0.160611
O O9 0.043444 0.346564 0.163452
O O10 0.981356 0.144530 0.818058
O O11 0.000000 0.000000 0.000000
O O12 0.673197 0.475022 0.444319
O O13 0.842942 0.662262 0.320035
O O14 0.146576 0.552123 0.477918
O O15 0.925574 0.300392 0.669249
O O16 0.000000 0.500000 0.000000
#
# Coordination Sequence:
#
# PCOD9079782 Si02
#       7
#     2   2   2   2   2   2   2
#     4  11  22  43  71  91 130 182 214 275 335 388
#     4  11  26  46  67  98 131 174 230 270 337 398
#     4  11  20  35  61  95 130 170 221 265 327 396
#     4  12  22  45  70  94 137 174 222 275 332 391
#     4  11  24  41  65  97 131 175 220 280 323 395
#     4  10  21  41  60  92 134 168 216 265 337 378
#     4  10  18  37  65  88 130 177 205 268 329 390
#
# _framework density 21.151173
#
# number of rings (size 3 to 8) (size 9 to 14) (size 15 to 20)
#    0.000    1.143    7.143    1.286    0.000    0.571 
#    7.714    4.286    0.000    0.000    0.000    0.000 
#    0.000    0.000    0.000    0.000    0.000    0.000 
#
# Total GULP energy -78005.240344 kJ/mol
# GULP energy per Si atom -5571.802882 kJ/mol
# Density = 2.110303 g / cm^3
# Si number density = 21.151173 Si / 1000 Ang^3
#
#
#
# Elastic Constant Matrix: (Units=GPa)
#
#
# Indices 1 2 3 4 5 6 
#
# 1 119.2235 31.4980 34.0822 -1.9938 3.0691 -23.5750
# 2 31.4980 125.2843 36.0408 7.6190 7.4283 -36.2737
# 3 34.0822 36.0408 68.3861 11.6712 20.7986 -13.4631
# 4 -1.9938 7.6190 11.6712 26.8810 -13.0609 3.3092
# 5 3.0691 7.4283 20.7986 -13.0609 29.4581 -1.5411
# 6 -23.5750 -36.2737 -13.4631 3.3092 -1.5411 39.6012
#
#
#
# Elastic Compliance Matrix: (Units=1/GPa)
#
#
# Indices 1 2 3 4 5 6 
#
# 1 0.011856 -0.000569 -0.010147 0.010373 0.010810 0.002641
# 2 -0.000569 0.012349 -0.002112 -0.005633 -0.003507 0.010589
# 3 -0.010147 -0.002112 0.045887 -0.045850 -0.050641 0.009485
# 4 0.010373 -0.005633 -0.045850 0.098536 0.075360 -0.019873
# 5 0.010810 -0.003507 -0.050641 0.075360 0.102017 -0.016320
# 6 0.002641 0.010589 0.009485 -0.019873 -0.016320 0.040773
#
#
# Mechanical properties :
#
#
# Convention : Reuss Voigt Hill
#
# Bulk Modulus (GPa) = 22.50443 57.34843 39.92643
# Shear Modulus (GPa) = 14.20911 33.27292 23.74102
#
# Velocity S-wave (km/s) = 2.59470 3.97054 3.35392
# Velocity P-wave (km/s) = 4.43165 6.94209 5.82375
#
# Compressibility (1/GPa) = 0.04443569
#
# Stress axis : x y z
#
# Youngs Moduli (GPa) = 84.34469 80.98073 21.79256
#
# Poissons Ratio (x) = 0.04606 0.22113
# Poissons Ratio (y) = 0.04797 0.04603
# Poissons Ratio (z) = 0.85586 0.17104
#
# Static dielectric constant tensor:
#      x y z
#    x 1.766630 -0.001720 -0.031480 
#    y -0.001720 1.846650 -0.018000 
#    z -0.031480 -0.018000 1.813460 
# 
# From -- ./inp_files/235849.got.cif
#   From: 2010.05.17/outbox.cif.g08.bks.cpg/sg2_118_cif.got.tgz:235849.got - 2010.06.03 11:33:40.
