data_PCOD9079747
_publ_section_title
;
Structure prediction by ZEFSAII (Michael W. Deem and Ramdas Pophale) SiO2 
 PCOD9079747
Probable space group: P -1
;
_chemical_formula_sum "Si O2"
_cell_formula_units_Z 16
_cell_length_a 9.086874
_cell_length_b 8.303647
_cell_length_c 16.496429
_cell_angle_alpha 128.997425
_cell_angle_beta 122.846440
_cell_angle_gamma 87.687720
_cell_volume 721.218259
_symmetry_space_group_name_H-M "P -1"
_symmetry_group_IT_number 2
_symmetry_cell_setting 'triclinic'
loop_
_space_group_symop_operation_xyz
x,y,z
-x,-y,-z
loop_
_atom_site_type_symbol
_atom_site_label
_atom_site_fract_x
_atom_site_fract_y
_atom_site_fract_z
Si Si1 0.757792 0.695575 0.685474
Si Si2 0.122877 0.103948 0.380073
Si Si3 0.217196 0.784604 0.702985
Si Si4 0.555041 0.699114 0.787779
Si Si5 0.889186 0.683267 0.292859
Si Si6 0.703139 0.205257 0.455152
Si Si7 0.201207 0.835873 0.896059
Si Si8 0.413443 0.247712 0.660408
O O1 0.799460 0.873359 0.680389
O O2 0.619060 0.702062 0.716225
O O3 0.682785 0.434630 0.544654
O O4 0.971069 0.767666 0.812070
O O5 0.302700 0.193293 0.523929
O O6 0.008285 0.265591 0.393605
O O7 0.969750 0.852087 0.291678
O O8 0.321856 0.623521 0.703112
O O9 0.301658 0.856461 0.660616
O O10 0.258770 0.915461 0.844128
O O11 0.590033 0.505995 0.785878
O O12 0.669357 0.953705 0.940471
O O13 0.790255 0.405474 0.159855
O O14 0.737958 0.748507 0.315839
O O15 0.080579 0.739638 0.425146
O O16 0.548383 0.969066 0.377028
#
# Coordination Sequence:
#
# PCOD9079747 Si02
#       8
#     2   2   2   2   2   2   2   2
#     4  10  24  40  63  81 120 159 196 239 287 358
#     4  10  20  38  62  91 116 151 194 239 301 342
#     4  11  20  35  62  89 117 144 198 246 283 341
#     4  12  25  40  55  88 123 162 192 236 292 345
#     4  10  18  37  64  90 114 150 192 250 286 344
#     4  10  20  37  60  95 112 152 193 239 303 342
#     4  10  23  41  62  82 113 163 206 233 283 348
#     4  11  20  35  64  90 125 141 189 252 295 346
#
# _framework density 22.184685999999999
#
# number of rings (size 3 to 8) (size 9 to 14) (size 15 to 20)
#    0.000    1.500    3.750    2.250    0.000    4.500 
#    0.000    6.875    0.000    0.000    0.000    0.000 
#    0.000    0.000    0.000    0.000    0.000    0.000 
#
# Total GULP energy -89234.571029 kJ/mol
# GULP energy per Si atom -5577.160689 kJ/mol
# Density = 2.213419 g / cm^3
# Si number density = 22.184686 Si / 1000 Ang^3
#
#
#
# Elastic Constant Matrix: (Units=GPa)
#
#
# Indices 1 2 3 4 5 6 
#
# 1 98.3232 34.4024 32.2850 -7.8004 -18.1382 7.7512
# 2 34.4024 124.4288 63.1291 14.6315 -16.3221 19.7512
# 3 32.2850 63.1291 106.2981 23.5692 -21.0948 5.9139
# 4 -7.8004 14.6315 23.5692 28.1419 5.1570 0.1340
# 5 -18.1382 -16.3221 -21.0948 5.1570 22.4432 -8.9398
# 6 7.7512 19.7512 5.9139 0.1340 -8.9398 31.3413
#
#
#
# Elastic Compliance Matrix: (Units=1/GPa)
#
#
# Indices 1 2 3 4 5 6 
#
# 1 0.013437 -0.002201 -0.003432 0.006934 0.004417 -0.000059
# 2 -0.002201 0.013122 -0.006417 -0.001941 -0.000466 -0.006639
# 3 -0.003432 -0.006417 0.022652 -0.020515 0.021262 0.006771
# 4 0.006934 -0.001941 -0.020515 0.061457 -0.031556 -0.005885
# 5 0.004417 -0.000466 0.021262 -0.031556 0.082539 0.018868
# 6 -0.000059 -0.006639 0.006771 -0.005885 0.018868 0.040234
#
#
# Mechanical properties :
#
#
# Convention : Reuss Voigt Hill
#
# Bulk Modulus (GPa) = 39.82165 65.40921 52.61543
# Shear Modulus (GPa) = 18.80324 29.66753 24.23538
#
# Velocity S-wave (km/s) = 2.91448 3.66088 3.30879
# Velocity P-wave (km/s) = 5.41430 6.88602 6.19403
#
# Compressibility (1/GPa) = 0.02511197
#
# Stress axis : x y z
#
# Youngs Moduli (GPa) = 74.42234 76.20847 44.14541
#
# Poissons Ratio (x) = 0.16770 0.15149
# Poissons Ratio (y) = 0.16377 0.28329
# Poissons Ratio (z) = 0.25540 0.48905
#
# Static dielectric constant tensor:
#      x y z
#    x 1.849030 -0.020120 0.032370 
#    y -0.020120 1.858480 0.010050 
#    z 0.032370 0.010050 1.815060 
# 
# From -- ./inp_files/256613.got.cif
#   From: 2010.05.17/outbox.cif.g08.bks.cpg/sg2_129_cif.got.tgz:256613.got - 2010.06.03 11:33:40.
