data_PCOD9079499
_publ_section_title
;
Structure prediction by ZEFSAII (Michael W. Deem and Ramdas Pophale) SiO2 
 PCOD9079499
Probable space group: P -1
;
_chemical_formula_sum "Si O2"
_cell_formula_units_Z 16
_cell_length_a 9.797233
_cell_length_b 13.164298
_cell_length_c 12.921437
_cell_angle_alpha 147.463639
_cell_angle_beta 61.619044
_cell_angle_gamma 104.162047
_cell_volume 744.460449
_symmetry_space_group_name_H-M "P -1"
_symmetry_group_IT_number 2
_symmetry_cell_setting 'triclinic'
loop_
_space_group_symop_operation_xyz
x,y,z
-x,-y,-z
loop_
_atom_site_type_symbol
_atom_site_label
_atom_site_fract_x
_atom_site_fract_y
_atom_site_fract_z
Si Si1 0.863242 0.947954 0.575367
Si Si2 0.657722 0.178157 0.393012
Si Si3 0.717201 0.315266 0.263837
Si Si4 0.515155 0.304510 0.761108
Si Si5 0.383424 0.278451 0.289615
Si Si6 0.235777 0.143255 0.667142
Si Si7 0.481555 0.930603 0.126803
Si Si8 0.008170 0.023512 0.783064
O O1 0.808032 0.805992 0.393818
O O2 0.682480 0.109675 0.807815
O O3 0.000000 0.000000 0.500000
O O4 0.950716 0.891047 0.605809
O O5 0.677595 0.263851 0.349202
O O6 0.557490 0.327633 0.645502
O O7 0.565453 0.017087 0.262723
O O8 0.837796 0.087470 0.297664
O O9 0.554551 0.327373 0.269191
O O10 0.746443 0.525876 0.446965
O O11 0.862068 0.144075 0.012355
O O12 0.345304 0.258548 0.778541
O O13 0.655670 0.096658 0.569094
O O14 0.500000 0.500000 0.000000
O O15 0.408273 0.101123 0.210778
O O16 0.373541 0.222996 0.125709
O O17 0.071999 0.170156 0.814417
#
# Coordination Sequence:
#
# PCOD9079499 Si02
#       8
#     2   2   2   2   2   2   2   2
#     4  10  19  35  61  87 113 159 197 233 296 356
#     4  10  21  36  60  85 118 156 197 241 294 356
#     4  10  19  37  56  89 115 150 197 246 296 352
#     4  10  20  38  61  89 118 151 200 251 292 351
#     4   9  20  34  59  85 114 151 199 246 290 348
#     4   9  20  38  59  86 119 157 199 240 297 359
#     4  10  18  37  60  84 114 156 197 241 293 356
#     4  10  20  37  59  84 124 160 188 245 301 354
#
# _framework density 21.492075
#
# number of rings (size 3 to 8) (size 9 to 14) (size 15 to 20)
#    0.000    2.250    2.500    0.375    0.000    1.000 
#    2.250    4.375    0.000    9.000    0.000    0.000 
#    0.000    0.000    0.000    0.000    0.000    0.000 
#
# Total GULP energy -89091.565056 kJ/mol
# GULP energy per Si atom -5568.222816 kJ/mol
# Density = 2.144316 g / cm^3
# Si number density = 21.492075 Si / 1000 Ang^3
#
#
#
# Elastic Constant Matrix: (Units=GPa)
#
#
# Indices 1 2 3 4 5 6 
#
# 1 105.9967 17.8147 30.6053 -6.3734 22.1706 -0.7748
# 2 17.8147 49.1543 37.6225 -20.7211 4.9682 0.4225
# 3 30.6053 37.6225 105.9362 -18.6337 35.7069 4.1600
# 4 -6.3734 -20.7211 -18.6337 29.9277 -1.1615 7.2096
# 5 22.1706 4.9682 35.7069 -1.1615 30.2864 -9.6365
# 6 -0.7748 0.4225 4.1600 7.2096 -9.6365 25.7448
#
#
#
# Elastic Compliance Matrix: (Units=1/GPa)
#
#
# Indices 1 2 3 4 5 6 
#
# 1 0.012299 -0.004652 0.003724 0.002683 -0.014549 -0.006352
# 2 -0.004652 0.038987 -0.015636 0.016043 0.017239 0.003707
# 3 0.003724 -0.015636 0.034417 0.016264 -0.049059 -0.028110
# 4 0.002683 0.016043 0.016264 0.061678 -0.031553 -0.031893
# 5 -0.014549 0.017239 -0.049059 -0.031553 0.116442 0.059628
# 6 -0.006352 0.003707 -0.028110 -0.031893 0.059628 0.074384
#
#
# Mechanical properties :
#
#
# Convention : Reuss Voigt Hill
#
# Bulk Modulus (GPa) = 19.02053 48.13025 33.57539
# Shear Modulus (GPa) = 12.85814 28.86140 20.85977
#
# Velocity S-wave (km/s) = 2.44862 3.66852 3.11879
# Velocity P-wave (km/s) = 4.10652 6.35508 5.35026
#
# Compressibility (1/GPa) = 0.05257476
#
# Stress axis : x y z
#
# Youngs Moduli (GPa) = 81.30899 25.64976 29.05533
#
# Poissons Ratio (x) = 0.11932 -0.10820
# Poissons Ratio (y) = 0.37823 0.45432
# Poissons Ratio (z) = -0.30280 0.40107
#
# Static dielectric constant tensor:
#      x y z
#    x 1.800290 0.017180 0.026460 
#    y 0.017180 1.868530 0.021070 
#    z 0.026460 0.021070 1.866220 
# 
# From -- ./inp_files/399939.got.cif
#   From: 2010.05.17/outbox.cif.g08.bks.cpg/sg2_200_cif.got.tgz:399939.got - 2010.06.03 11:33:40.
