data_PCOD9079479
_publ_section_title
;
Structure prediction by ZEFSAII (Michael W. Deem and Ramdas Pophale) SiO2 
 PCOD9079479
Probable space group: P -1
;
_chemical_formula_sum "Si O2"
_cell_formula_units_Z 14
_cell_length_a 11.505352
_cell_length_b 11.286508
_cell_length_c 10.662263
_cell_angle_alpha 98.524781
_cell_angle_beta 40.520626
_cell_angle_gamma 128.450833
_cell_volume 542.668398
_symmetry_space_group_name_H-M "P -1"
_symmetry_group_IT_number 2
_symmetry_cell_setting 'triclinic'
loop_
_space_group_symop_operation_xyz
x,y,z
-x,-y,-z
loop_
_atom_site_type_symbol
_atom_site_label
_atom_site_fract_x
_atom_site_fract_y
_atom_site_fract_z
Si Si1 0.713086 0.980132 0.967819
Si Si2 0.703851 0.248392 0.960703
Si Si3 0.007616 0.231558 0.134543
Si Si4 0.184158 0.635745 0.750756
Si Si5 0.113103 0.972617 0.549485
Si Si6 0.391662 0.428958 0.220914
Si Si7 0.587396 0.752480 0.260353
O O1 0.800639 0.165731 0.911955
O O2 0.958703 0.012210 0.731176
O O3 0.442427 0.827859 0.068067
O O4 0.611866 0.881060 0.171622
O O5 0.979832 0.481001 0.780488
O O6 0.437994 0.147122 0.255377
O O7 0.320869 0.468538 0.928990
O O8 0.120234 0.173819 0.962212
O O9 0.792598 0.209946 0.244827
O O10 0.902825 0.130276 0.339289
O O11 0.483197 0.730314 0.481574
O O12 0.000000 0.500000 0.000000
O O13 0.898351 0.802796 0.591499
O O14 0.375634 0.548315 0.321986
O O15 0.500000 0.500000 0.000000
#
# Coordination Sequence:
#
# PCOD9079479 Si02
#       7
#     2   2   2   2   2   2   2
#     4  10  21  37  60  94 123 145 179 239 313 362
#     4  11  25  34  55  94 125 151 182 239 308 346
#     4   8  19  37  63  82 110 157 199 231 282 345
#     4  12  26  42  58  81 116 163 210 244 275 336
#     4  10  18  37  59  90 122 150 178 236 300 361
#     4   8  15  32  61  92 114 143 190 230 287 362
#     4   9  21  38  63  85 116 153 201 235 283 356
#
# _framework density 25.798444
#
# number of rings (size 3 to 8) (size 9 to 14) (size 15 to 20)
#    0.857    1.429    1.429    2.143    6.000    2.286 
#    0.000    2.857    0.000    3.429    0.000    0.000 
#    0.000    0.000    0.000    0.000    0.000    0.000 
#
# Total GULP energy -78253.414225 kJ/mol
# GULP energy per Si atom -5589.529587 kJ/mol
# Density = 2.573973 g / cm^3
# Si number density = 25.798444 Si / 1000 Ang^3
#
#
#
# Elastic Constant Matrix: (Units=GPa)
#
#
# Indices 1 2 3 4 5 6 
#
# 1 76.3095 37.9630 33.5082 14.8374 9.0742 -22.6555
# 2 37.9630 119.0167 38.2941 15.9552 -17.5984 -13.2390
# 3 33.5082 38.2941 98.1602 6.7791 17.1871 -1.2270
# 4 14.8374 15.9552 6.7791 41.4331 11.7411 -8.2384
# 5 9.0742 -17.5984 17.1871 11.7411 42.2087 -3.0028
# 6 -22.6555 -13.2390 -1.2270 -8.2384 -3.0028 44.8994
#
#
#
# Elastic Compliance Matrix: (Units=1/GPa)
#
#
# Indices 1 2 3 4 5 6 
#
# 1 0.020541 -0.004308 -0.004516 -0.002423 -0.003108 0.008318
# 2 -0.004308 0.014052 -0.005473 -0.005711 0.010708 0.001488
# 3 -0.004516 -0.005473 0.015110 0.002976 -0.008541 -0.003505
# 4 -0.002423 -0.005711 0.002976 0.030331 -0.011368 0.001979
# 5 -0.003108 0.010708 -0.008541 -0.011368 0.035582 0.001650
# 6 0.008318 0.001488 -0.003505 0.001979 0.001650 0.027286
#
#
# Mechanical properties :
#
#
# Convention : Reuss Voigt Hill
#
# Bulk Modulus (GPa) = 47.37338 57.00190 52.18764
# Shear Modulus (GPa) = 28.00606 37.95634 32.98120
#
# Velocity S-wave (km/s) = 3.29838 3.83987 3.57938
# Velocity P-wave (km/s) = 5.73659 6.46549 6.11191
#
# Compressibility (1/GPa) = 0.02110890
#
# Stress axis : x y z
#
# Youngs Moduli (GPa) = 48.68264 71.16417 66.18039
#
# Poissons Ratio (x) = 0.30661 0.29885
# Poissons Ratio (y) = 0.20975 0.36221
# Poissons Ratio (z) = 0.21984 0.38949
#
# Static dielectric constant tensor:
#      x y z
#    x 2.059150 0.027660 -0.065860 
#    y 0.027660 2.068300 0.009420 
#    z -0.065860 0.009420 2.055110 
# 
# From -- ./inp_files/425896.got.cif
#   From: 2010.05.17/outbox.cif.g08.bks.cpg/sg2_213_cif.got.tgz:425896.got - 2010.06.03 11:33:40.
