data_PCOD9079585
_publ_section_title
;
Structure prediction by ZEFSAII (Michael W. Deem and Ramdas Pophale) SiO2 
 PCOD9079585
Probable space group: P -1
;
_chemical_formula_sum "Si O2"
_cell_formula_units_Z 14
_cell_length_a 5.161948
_cell_length_b 24.051435
_cell_length_c 11.342985
_cell_angle_alpha 28.527291
_cell_angle_beta 111.562754
_cell_angle_gamma 119.119817
_cell_volume 581.429255
_symmetry_space_group_name_H-M "P -1"
_symmetry_group_IT_number 2
_symmetry_cell_setting 'triclinic'
loop_
_space_group_symop_operation_xyz
x,y,z
-x,-y,-z
loop_
_atom_site_type_symbol
_atom_site_label
_atom_site_fract_x
_atom_site_fract_y
_atom_site_fract_z
Si Si1 0.348042 0.531929 0.031888
Si Si2 0.855240 0.129400 0.691004
Si Si3 0.430047 0.865530 0.145296
Si Si4 0.441771 0.801739 0.939595
Si Si5 0.593114 0.682515 0.413472
Si Si6 0.420599 0.778787 0.714002
Si Si7 0.100178 0.948168 0.751424
O O1 0.396897 0.447628 0.303791
O O2 0.500000 0.500000 0.000000
O O3 0.466863 0.671620 0.843133
O O4 0.000000 0.500000 0.000000
O O5 0.584391 0.137515 0.712155
O O6 0.844845 0.188437 0.453649
O O7 0.138522 0.218743 0.645746
O O8 0.732483 0.978305 0.941280
O O9 0.335310 0.722916 0.353666
O O10 0.185376 0.913027 0.959751
O O11 0.348172 0.742263 0.906349
O O12 0.208345 0.855988 0.858727
O O13 0.750388 0.919026 0.749650
O O14 0.546652 0.715808 0.208673
O O15 0.703857 0.909159 0.509846
#
# Coordination Sequence:
#
# PCOD9079585 Si02
#       7
#     2   2   2   2   2   2   2
#     4  12  28  47  68  96 132 178 223 272 320 386
#     4  10  18  37  61  93 126 167 214 273 325 382
#     4   9  19  34  61  97 124 165 218 267 331 377
#     4  11  24  42  69 101 133 171 215 273 336 389
#     4  11  22  40  66  87 135 165 220 267 323 384
#     4  11  24  43  66  99 135 177 221 267 328 394
#     4  10  22  42  68  99 137 170 213 273 335 392
#
# _framework density 24.078595
#
# number of rings (size 3 to 8) (size 9 to 14) (size 15 to 20)
#    0.000    1.429    2.857    2.143    0.000    2.857 
#    5.143    0.000    0.000    4.286    0.000    0.000 
#    0.000    0.000    0.000    0.000    0.000    0.000 
#
# Total GULP energy -78048.207464 kJ/mol
# GULP energy per Si atom -5574.871962 kJ/mol
# Density = 2.402379 g / cm^3
# Si number density = 24.078595 Si / 1000 Ang^3
#
#
#
# Elastic Constant Matrix: (Units=GPa)
#
#
# Indices 1 2 3 4 5 6 
#
# 1 67.5136 16.7242 9.4106 3.9125 0.4533 -20.5317
# 2 16.7242 104.9597 37.0671 35.9928 -3.5419 -28.3117
# 3 9.4106 37.0671 140.6863 20.2679 17.3944 -15.0912
# 4 3.9125 35.9928 20.2679 45.3798 -6.6000 7.1369
# 5 0.4533 -3.5419 17.3944 -6.6000 14.6530 0.2882
# 6 -20.5317 -28.3117 -15.0912 7.1369 0.2882 30.9466
#
#
#
# Elastic Compliance Matrix: (Units=1/GPa)
#
#
# Indices 1 2 3 4 5 6 
#
# 1 0.021021 0.006521 0.002359 -0.013031 -0.008219 0.024144
# 2 0.006521 0.029272 0.002225 -0.032676 -0.011268 0.039831
# 3 0.002359 0.002225 0.011761 -0.011929 -0.019111 0.012265
# 4 -0.013031 -0.032676 -0.011929 0.069672 0.039243 -0.060789
# 5 -0.008219 -0.011268 -0.019111 0.039243 0.106829 -0.035126
# 6 0.024144 0.039831 0.012265 -0.060789 -0.035126 0.105100
#
#
# Mechanical properties :
#
#
# Convention : Reuss Voigt Hill
#
# Bulk Modulus (GPa) = 11.86751 48.84036 30.35394
# Shear Modulus (GPa) = 14.30486 34.85974 24.58230
#
# Velocity S-wave (km/s) = 2.44004 3.80906 3.19865
# Velocity P-wave (km/s) = 3.58856 6.29865 5.12595
#
# Compressibility (1/GPa) = 0.08426367
#
# Stress axis : x y z
#
# Youngs Moduli (GPa) = 47.57260 34.16270 85.02591
#
# Poissons Ratio (x) = -0.22279 -0.20058
# Poissons Ratio (y) = -0.31024 -0.18916
# Poissons Ratio (z) = -0.11223 -0.07600
#
# Static dielectric constant tensor:
#      x y z
#    x 2.298930 0.008980 0.088500 
#    y 0.008980 2.015930 0.026140 
#    z 0.088500 0.026140 1.972440 
# 
# From -- ./inp_files/371006.got.cif
#   From: 2010.05.17/outbox.cif.g08.bks.cpg/sg2_186_cif.got.tgz:371006.got - 2010.06.03 11:33:40.
