data_PCOD9079362
_publ_section_title
;
Structure prediction by ZEFSAII (Michael W. Deem and Ramdas Pophale) SiO2 
 PCOD9079362
Probable space group: P -1
;
_chemical_formula_sum "Si O2"
_cell_formula_units_Z 16
_cell_length_a 12.898538
_cell_length_b 8.982384
_cell_length_c 11.568412
_cell_angle_alpha 134.053629
_cell_angle_beta 126.991507
_cell_angle_gamma 56.937734
_cell_volume 750.267537
_symmetry_space_group_name_H-M "P -1"
_symmetry_group_IT_number 2
_symmetry_cell_setting 'triclinic'
loop_
_space_group_symop_operation_xyz
x,y,z
-x,-y,-z
loop_
_atom_site_type_symbol
_atom_site_label
_atom_site_fract_x
_atom_site_fract_y
_atom_site_fract_z
Si Si1 0.543840 0.220221 0.625505
Si Si2 0.840018 0.119573 0.172152
Si Si3 0.804376 0.761770 0.301764
Si Si4 0.271700 0.500636 0.526162
Si Si5 0.913405 0.724231 0.607103
Si Si6 0.019186 0.285159 0.824185
Si Si7 0.649795 0.382169 0.004615
Si Si8 0.269201 0.781879 0.466718
O O1 0.408976 0.401974 0.629088
O O2 0.621848 0.228052 0.563806
O O3 0.500000 0.000000 0.500000
O O4 0.639293 0.265170 0.814654
O O5 0.807170 0.291222 0.346723
O O6 0.722381 0.206578 0.050307
O O7 0.979250 0.141155 0.218055
O O8 0.872476 0.889989 0.128176
O O9 0.833732 0.799616 0.476926
O O10 0.927689 0.698100 0.262013
O O11 0.729073 0.570291 0.147209
O O12 0.731398 0.000304 0.345965
O O13 0.182293 0.325619 0.384121
O O14 0.298542 0.577845 0.459452
O O15 0.000000 0.500000 0.500000
O O16 0.879200 0.214500 0.679035
O O17 0.000000 0.500000 0.000000
O O18 0.500000 0.500000 0.000000
#
# Coordination Sequence:
#
# PCOD9079362 Si02
#       8
#     2   2   2   2   2   2   2   2
#     4  12  27  47  69 104 144 186 237 290 347 420
#     4  11  22  42  74 104 138 182 239 284 354 414
#     4  12  22  42  73 101 138 188 230 288 351 420
#     4  11  22  44  72 103 136 184 244 279 352 417
#     4  10  18  36  69 106 127 176 236 282 334 419
#     4  12  26  44  66 110 147 178 232 298 357 414
#     4  12  24  45  72 103 140 186 239 285 342 421
#     4  12  25  43  72 102 144 186 230 289 358 417
#
# _framework density 21.325726
#
# number of rings (size 3 to 8) (size 9 to 14) (size 15 to 20)
#    0.000    0.500    6.250    4.500    0.000    1.000 
#    0.000    8.750    0.000    0.000    0.000    0.000 
#    0.000    0.000    0.000    0.000    0.000    0.000 
#
# Total GULP energy -89386.063268 kJ/mol
# GULP energy per Si atom -5586.628954 kJ/mol
# Density = 2.127719 g / cm^3
# Si number density = 21.325726 Si / 1000 Ang^3
#
#
#
# Elastic Constant Matrix: (Units=GPa)
#
#
# Indices 1 2 3 4 5 6 
#
# 1 128.0611 39.8018 19.5115 3.4708 8.1592 24.5391
# 2 39.8018 134.7941 41.6328 -5.9278 8.1024 15.3419
# 3 19.5115 41.6328 71.0461 1.0947 3.3233 7.0202
# 4 3.4708 -5.9278 1.0947 33.3850 -2.7653 -3.3386
# 5 8.1592 8.1024 3.3233 -2.7653 28.2183 -1.5202
# 6 24.5391 15.3419 7.0202 -3.3386 -1.5202 33.0319
#
#
#
# Elastic Compliance Matrix: (Units=1/GPa)
#
#
# Indices 1 2 3 4 5 6 
#
# 1 0.010061 -0.001870 -0.000827 -0.002267 -0.002863 -0.006791
# 2 -0.001870 0.009946 -0.005062 0.001784 -0.001654 -0.002050
# 3 -0.000827 -0.005062 0.017409 -0.001521 -0.000556 -0.000913
# 4 -0.002267 0.001784 -0.001521 0.031308 0.003633 0.004510
# 5 -0.002863 -0.001654 -0.000556 0.003633 0.037437 0.005103
# 6 -0.006791 -0.002050 -0.000913 0.004510 0.005103 0.037156
#
#
# Mechanical properties :
#
#
# Convention : Reuss Voigt Hill
#
# Bulk Modulus (GPa) = 45.66962 59.53262 52.60112
# Shear Modulus (GPa) = 30.09620 34.45739 32.27679
#
# Velocity S-wave (km/s) = 3.76075 4.02402 3.89461
# Velocity P-wave (km/s) = 6.34976 7.04037 6.70396
#
# Compressibility (1/GPa) = 0.02189639
#
# Stress axis : x y z
#
# Youngs Moduli (GPa) = 99.39229 100.54685 57.44274
#
# Poissons Ratio (x) = 0.18802 0.04753
# Poissons Ratio (y) = 0.18586 0.29078
# Poissons Ratio (z) = 0.08224 0.50898
#
# Static dielectric constant tensor:
#      x y z
#    x 1.799930 -0.033680 0.006770 
#    y -0.033680 2.167420 -0.099270 
#    z 0.006770 -0.099270 1.792020 
# 
# From -- ./inp_files/420120.got.cif
#   From: 2010.05.17/outbox.cif.g08.bks.cpg/sg2_211_cif.got.tgz:420120.got - 2010.06.03 11:33:40.
