data_PCOD9079937
_publ_section_title
;
Structure prediction by ZEFSAII (Michael W. Deem and Ramdas Pophale) SiO2 
 PCOD9079937
Probable space group: P -1
;
_chemical_formula_sum "Si O2"
_cell_formula_units_Z 16
_cell_length_a 24.180077
_cell_length_b 22.882301
_cell_length_c 14.145429
_cell_angle_alpha 150.459996
_cell_angle_beta 20.945105
_cell_angle_gamma 163.220153
_cell_volume 785.292215
_symmetry_space_group_name_H-M "P -1"
_symmetry_group_IT_number 2
_symmetry_cell_setting 'triclinic'
loop_
_space_group_symop_operation_xyz
x,y,z
-x,-y,-z
loop_
_atom_site_type_symbol
_atom_site_label
_atom_site_fract_x
_atom_site_fract_y
_atom_site_fract_z
Si Si1 0.805397 0.376965 0.838969
Si Si2 0.178749 0.792254 0.736673
Si Si3 0.177940 0.404881 0.331119
Si Si4 0.536812 0.623795 0.536069
Si Si5 0.259944 0.001315 0.078390
Si Si6 0.154012 0.270710 0.975975
Si Si7 0.103833 0.113842 0.364395
Si Si8 0.789689 0.811228 0.914938
O O1 0.026294 0.572815 0.689903
O O2 0.962809 0.374656 0.640669
O O3 0.671687 0.399437 0.145552
O O4 0.551565 0.161534 0.883899
O O5 0.500000 0.000000 0.500000
O O6 0.027281 0.766245 0.858896
O O7 0.161373 0.849575 0.943971
O O8 0.113066 0.249703 0.279738
O O9 0.186407 0.363278 0.150895
O O10 0.483112 0.640200 0.199488
O O11 0.500000 0.500000 0.500000
O O12 0.578121 0.594981 0.324564
O O13 0.832475 0.866401 0.426567
O O14 0.281794 0.142751 0.189294
O O15 0.024319 0.861541 0.335840
O O16 0.989737 0.046541 0.945964
O O17 0.225366 0.213923 0.209611
#
# Coordination Sequence:
#
# PCOD9079937 Si02
#       8
#     2   2   2   2   2   2   2   2
#     4  11  24  37  59  93 126 153 201 248 308 358
#     4  12  23  35  56  89 129 154 187 249 312 356
#     4  11  25  40  62  88 120 164 206 253 291 358
#     4  10  18  38  57  89 125 159 193 245 302 369
#     4  10  20  37  58  90 120 152 189 248 304 360
#     4  11  22  39  64  88 116 163 204 244 301 361
#     4   9  19  35  63  85 114 157 199 243 299 354
#     4  10  22  44  62  84 120 163 210 246 296 355
#
# _framework density 20.374580999999999
#
# number of rings (size 3 to 8) (size 9 to 14) (size 15 to 20)
#    0.000    1.500    3.750    1.875    1.750    3.000 
#    0.000    5.625    0.000    3.750    0.000    0.000 
#    0.000    0.000    0.000    0.000    0.000    0.000 
#
# Total GULP energy -89385.915674 kJ/mol
# GULP energy per Si atom -5586.619730 kJ/mol
# Density = 2.032821 g / cm^3
# Si number density = 20.374581 Si / 1000 Ang^3
#
#
#
# Elastic Constant Matrix: (Units=GPa)
#
#
# Indices 1 2 3 4 5 6 
#
# 1 29.1848 6.3913 19.6952 4.4589 -12.6617 -9.3928
# 2 6.3913 74.5397 19.1809 -5.9009 -18.7033 -8.2353
# 3 19.6952 19.1809 90.2024 2.2914 -29.2962 -6.7586
# 4 4.4589 -5.9009 2.2914 23.4833 3.9694 -0.1065
# 5 -12.6617 -18.7033 -29.2962 3.9694 45.8720 10.9676
# 6 -9.3928 -8.2353 -6.7586 -0.1065 10.9676 21.7557
#
#
#
# Elastic Compliance Matrix: (Units=1/GPa)
#
#
# Indices 1 2 3 4 5 6 
#
# 1 0.048068 0.000185 -0.007251 -0.009280 0.005783 0.015609
# 2 0.000185 0.015543 -0.001842 0.003368 0.004125 0.003328
# 3 -0.007251 -0.001842 0.015495 -0.001973 0.008051 -0.003083
# 4 -0.009280 0.003368 -0.001973 0.046485 -0.006510 0.000165
# 5 0.005783 0.004125 0.008051 -0.006510 0.033227 -0.010223
# 6 0.015609 0.003328 -0.003083 0.000165 -0.010223 0.058161
#
#
# Mechanical properties :
#
#
# Convention : Reuss Voigt Hill
#
# Bulk Modulus (GPa) = 16.31576 31.60685 23.96130
# Shear Modulus (GPa) = 19.59053 28.13284 23.86168
#
# Velocity S-wave (km/s) = 3.10420 3.71992 3.42592
# Velocity P-wave (km/s) = 4.56874 5.83069 5.23786
#
# Compressibility (1/GPa) = 0.06129044
#
# Stress axis : x y z
#
# Youngs Moduli (GPa) = 20.80403 64.33703 64.53619
#
# Poissons Ratio (x) = -0.01193 0.46796
# Poissons Ratio (y) = -0.00386 0.11888
# Poissons Ratio (z) = 0.15085 0.11852
#
# Static dielectric constant tensor:
#      x y z
#    x 1.716510 0.028610 0.053150 
#    y 0.028610 1.760350 -0.016460 
#    z 0.053150 -0.016460 1.814050 
# 
# From -- ./inp_files/454358.got.cif
#   From: 2010.05.17/outbox.cif.g08.bks.cpg/sg2_228_cif.got.tgz:454358.got - 2010.06.03 11:33:40.
