data_PCOD9079533
_publ_section_title
;
Structure prediction by ZEFSAII (Michael W. Deem and Ramdas Pophale) SiO2 
 PCOD9079533
Probable space group: P -1
;
_chemical_formula_sum "Si O2"
_cell_formula_units_Z 16
_cell_length_a 8.307220
_cell_length_b 17.499914
_cell_length_c 16.777556
_cell_angle_alpha 32.547705
_cell_angle_beta 36.285727
_cell_angle_gamma 53.727422
_cell_volume 746.438569
_symmetry_space_group_name_H-M "P -1"
_symmetry_group_IT_number 2
_symmetry_cell_setting 'triclinic'
loop_
_space_group_symop_operation_xyz
x,y,z
-x,-y,-z
loop_
_atom_site_type_symbol
_atom_site_label
_atom_site_fract_x
_atom_site_fract_y
_atom_site_fract_z
Si Si1 0.922860 0.072103 0.107025
Si Si2 0.316514 0.262858 0.011608
Si Si3 0.831443 0.364063 0.603155
Si Si4 0.582002 0.576350 0.594458
Si Si5 0.533702 0.115540 0.645748
Si Si6 0.177843 0.008552 0.613989
Si Si7 0.548777 0.133085 0.801135
Si Si8 0.633031 0.870070 0.723899
O O1 0.785538 0.973961 0.172956
O O2 0.899270 0.964741 0.287877
O O3 0.704360 0.168758 0.124142
O O4 0.241773 0.161716 0.889927
O O5 0.327120 0.223701 0.134275
O O6 0.610746 0.265689 0.844197
O O7 0.331424 0.434262 0.845290
O O8 0.048733 0.146184 0.182170
O O9 0.731346 0.514482 0.514880
O O10 0.762813 0.277017 0.625186
O O11 0.153820 0.390302 0.478394
O O12 0.461065 0.715107 0.510604
O O13 0.612019 0.083853 0.731675
O O14 0.697930 0.040364 0.582366
O O15 0.203758 0.122732 0.430158
O O16 0.500000 0.000000 0.500000
O O17 0.500000 0.000000 0.000000
#
# Coordination Sequence:
#
# PCOD9079533 Si02
#       8
#     2   2   2   2   2   2   2   2
#     4   9  20  33  56  82 115 143 189 235 282 320
#     4  10  18  37  61  82 110 147 191 228 282 328
#     4   9  20  34  57  79 118 153 183 218 280 342
#     4   9  20  38  55  80 119 155 179 221 281 349
#     4  10  22  34  54  84 118 147 181 232 284 335
#     4  10  19  38  59  87 108 145 196 242 268 326
#     4  12  21  32  54  87 115 145 186 234 283 333
#     4   9  21  34  58  86 107 148 190 237 277 318
#
# _framework density 21.435119
#
# number of rings (size 3 to 8) (size 9 to 14) (size 15 to 20)
#    1.500    0.750    1.250    2.250    1.750    0.500 
#    0.000    3.125    0.000    0.750    0.000    0.000 
#    0.000    0.000    0.000    0.000    0.000    0.000 
#
# Total GULP energy -89083.515976 kJ/mol
# GULP energy per Si atom -5567.719749 kJ/mol
# Density = 2.138633 g / cm^3
# Si number density = 21.435119 Si / 1000 Ang^3
#
#
#
# Elastic Constant Matrix: (Units=GPa)
#
#
# Indices 1 2 3 4 5 6 
#
# 1 82.5973 19.6222 24.6034 0.3667 -7.8120 18.1869
# 2 19.6222 51.6969 10.1991 1.3539 4.0113 4.2353
# 3 24.6034 10.1991 58.2490 -0.2170 -10.5616 -10.4964
# 4 0.3667 1.3539 -0.2170 42.0354 -1.5650 2.4244
# 5 -7.8120 4.0113 -10.5616 -1.5650 40.3129 -0.3150
# 6 18.1869 4.2353 -10.4964 2.4244 -0.3150 37.1900
#
#
#
# Elastic Compliance Matrix: (Units=1/GPa)
#
#
# Indices 1 2 3 4 5 6 
#
# 1 0.018287 -0.004502 -0.008590 0.000631 0.001681 -0.010881
# 2 -0.004502 0.022023 -0.002853 -0.000765 -0.003849 -0.001094
# 3 -0.008590 -0.002853 0.024272 -0.000179 0.005061 0.011430
# 4 0.000631 -0.000765 -0.000179 0.023953 0.001067 -0.001824
# 5 0.001681 -0.003849 0.005061 0.001067 0.026891 0.001203
# 6 -0.010881 -0.001094 0.011430 -0.001824 0.001203 0.035690
#
#
# Mechanical properties :
#
#
# Convention : Reuss Voigt Hill
#
# Bulk Modulus (GPa) = 30.58663 33.48809 32.03736
# Shear Modulus (GPa) = 25.78601 33.11555 29.45078
#
# Velocity S-wave (km/s) = 3.47216 3.93481 3.71070
# Velocity P-wave (km/s) = 5.51134 6.02500 5.77388
#
# Compressibility (1/GPa) = 0.03269402
#
# Stress axis : x y z
#
# Youngs Moduli (GPa) = 54.68306 45.40611 41.19969
#
# Poissons Ratio (x) = 0.20442 0.35389
# Poissons Ratio (y) = 0.24618 0.11753
# Poissons Ratio (z) = 0.46971 0.12953
#
# Static dielectric constant tensor:
#      x y z
#    x 1.845810 -0.024540 0.003540 
#    y -0.024540 1.835120 0.019310 
#    z 0.003540 0.019310 1.781570 
# 
# From -- ./inp_files/562366.got.cif
#   From: 2010.05.17/outbox.cif.g08.bks.cpg/sg2_282_cif.got.tgz:562366.got - 2010.06.03 11:33:40.
