data_PCOD9079697
_publ_section_title
;
Structure prediction by ZEFSAII (Michael W. Deem and Ramdas Pophale) SiO2 
 PCOD9079697
Probable space group: P -1
;
_chemical_formula_sum "Si O2"
_cell_formula_units_Z 16
_cell_length_a 13.827040
_cell_length_b 7.096049
_cell_length_c 20.874332
_cell_angle_alpha 117.141426
_cell_angle_beta 21.012126
_cell_angle_gamma 109.874919
_cell_volume 629.402493
_symmetry_space_group_name_H-M "P -1"
_symmetry_group_IT_number 2
_symmetry_cell_setting 'triclinic'
loop_
_space_group_symop_operation_xyz
x,y,z
-x,-y,-z
loop_
_atom_site_type_symbol
_atom_site_label
_atom_site_fract_x
_atom_site_fract_y
_atom_site_fract_z
Si Si1 0.174743 0.551310 0.558925
Si Si2 0.772535 0.304317 0.793171
Si Si3 0.473973 0.308053 0.535368
Si Si4 0.939396 0.650505 0.957691
Si Si5 0.137945 0.048765 0.829224
Si Si6 0.158228 0.169127 0.297934
Si Si7 0.474040 0.782063 0.805756
Si Si8 0.358166 0.795391 0.283399
O O1 0.291380 0.697661 0.557422
O O2 0.414393 0.423440 0.342155
O O3 0.048787 0.379774 0.649743
O O4 0.921702 0.691370 0.694386
O O5 0.777177 0.252116 0.706431
O O6 0.742141 0.090649 0.815696
O O7 0.500000 0.500000 0.000000
O O8 0.500000 0.500000 0.500000
O O9 0.175071 0.420597 0.769994
O O10 0.570096 0.073024 0.404259
O O11 0.064750 0.842261 0.879476
O O12 0.660070 0.638800 0.091210
O O13 0.849548 0.757536 0.099482
O O14 0.859485 0.139557 0.972919
O O15 0.368711 0.243703 0.227464
O O16 0.868343 0.197149 0.520904
O O17 0.571919 0.974453 0.737956
#
# Coordination Sequence:
#
# PCOD9079697 Si02
#       8
#     2   2   2   2   2   2   2   2
#     4  12  23  40  68  93 129 174 213 268 335 379
#     4  11  25  41  62  97 134 172 212 265 330 389
#     4  10  22  36  60  96 128 167 225 269 317 394
#     4   9  18  34  59  88 122 170 214 268 321 370
#     4   9  18  33  59  91 122 165 218 266 320 379
#     4  11  23  41  63  96 131 166 221 267 314 401
#     4  10  18  37  63  91 126 167 215 266 323 388
#     4  10  20  39  62  92 126 169 221 262 322 393
#
# _framework density 25.420936000000001
#
# number of rings (size 3 to 8) (size 9 to 14) (size 15 to 20)
#    0.000    1.750    3.750    1.125    8.750    0.500 
#    0.000    0.625    0.000    3.000    0.000    0.000 
#    0.000    0.000    0.000    0.000    0.000    0.000 
#
# Total GULP energy -89630.989754 kJ/mol
# GULP energy per Si atom -5601.936860 kJ/mol
# Density = 2.536308 g / cm^3
# Si number density = 25.420936 Si / 1000 Ang^3
#
#
#
# Elastic Constant Matrix: (Units=GPa)
#
#
# Indices 1 2 3 4 5 6 
#
# 1 69.4885 19.6056 25.8556 3.9718 -10.3237 -6.6509
# 2 19.6056 95.9219 41.0194 -6.7150 10.3897 5.5336
# 3 25.8556 41.0194 144.4231 34.6604 3.6314 9.5095
# 4 3.9718 -6.7150 34.6604 44.5548 5.4219 3.9063
# 5 -10.3237 10.3897 3.6314 5.4219 30.6957 0.0809
# 6 -6.6509 5.5336 9.5095 3.9063 0.0809 23.8628
#
#
#
# Elastic Compliance Matrix: (Units=1/GPa)
#
#
# Indices 1 2 3 4 5 6 
#
# 1 0.018514 -0.004298 -0.002262 -0.002199 0.008318 0.007390
# 2 -0.004298 0.014934 -0.004865 0.007649 -0.007266 -0.003950
# 3 -0.002262 -0.004865 0.011006 -0.009026 0.001185 -0.002415
# 4 -0.002199 0.007649 -0.009026 0.032132 -0.007926 -0.004023
# 5 0.008318 -0.007266 0.001185 -0.007926 0.039082 0.004696
# 6 0.007390 -0.003950 -0.002415 -0.004023 0.004696 0.046487
#
#
# Mechanical properties :
#
#
# Convention : Reuss Voigt Hill
#
# Bulk Modulus (GPa) = 46.28672 53.64385 49.96528
# Shear Modulus (GPa) = 26.01362 34.71285 30.36324
#
# Velocity S-wave (km/s) = 3.20240 3.69931 3.45979
# Velocity P-wave (km/s) = 5.64991 6.27651 5.97143
#
# Compressibility (1/GPa) = 0.02160447
#
# Stress axis : x y z
#
# Youngs Moduli (GPa) = 54.01365 66.95917 90.85717
#
# Poissons Ratio (x) = 0.28779 0.20550
# Poissons Ratio (y) = 0.23215 0.44204
# Poissons Ratio (z) = 0.12217 0.32577
#
# Static dielectric constant tensor:
#      x y z
#    x 1.972610 -0.073790 0.138390 
#    y -0.073790 2.229200 -0.656820 
#    z 0.138390 -0.656820 4.598500 
# 
# From -- ./inp_files/611671.got.cif
#   From: 2010.05.17/outbox.cif.g08.bks.cpg/sg2_306_cif.got.tgz:611671.got - 2010.06.03 11:33:40.
