data_PCOD9079073
_publ_section_title
;
Structure prediction by ZEFSAII (Michael W. Deem and Ramdas Pophale) SiO2 
 PCOD9079073
Probable space group: P -1
;
_chemical_formula_sum "Si O2"
_cell_formula_units_Z 16
_cell_length_a 9.593061
_cell_length_b 6.292479
_cell_length_c 19.118459
_cell_angle_alpha 128.504661
_cell_angle_beta 62.323691
_cell_angle_gamma 126.986127
_cell_volume 713.896831
_symmetry_space_group_name_H-M "P -1"
_symmetry_group_IT_number 2
_symmetry_cell_setting 'triclinic'
loop_
_space_group_symop_operation_xyz
x,y,z
-x,-y,-z
loop_
_atom_site_type_symbol
_atom_site_label
_atom_site_fract_x
_atom_site_fract_y
_atom_site_fract_z
Si Si1 0.423103 0.915167 0.578397
Si Si2 0.917422 0.980632 0.709138
Si Si3 0.504511 0.125017 0.807714
Si Si4 0.316068 0.883304 0.100032
Si Si5 0.724895 0.021019 0.633221
Si Si6 0.287221 0.421894 0.732858
Si Si7 0.032107 0.484185 0.571778
Si Si8 0.668029 0.471790 0.100323
O O1 0.239084 0.610874 0.561014
O O2 0.500000 0.000000 0.500000
O O3 0.562282 0.875756 0.588054
O O4 0.379133 0.196322 0.666547
O O5 0.825525 0.065428 0.811114
O O6 0.784652 0.869620 0.651342
O O7 0.102937 0.263632 0.702348
O O8 0.975503 0.729664 0.667397
O O9 0.583513 0.217989 0.885571
O O10 0.662704 0.238461 0.737695
O O11 0.358149 0.236154 0.853002
O O12 0.416363 0.758291 0.745894
O O13 0.467263 0.203269 0.101808
O O14 0.249428 0.646930 0.003817
O O15 0.895688 0.178425 0.576894
O O16 0.244026 0.470968 0.832863
O O17 0.000000 0.500000 0.500000
#
# Coordination Sequence:
#
# PCOD9079073 Si02
#       8
#     2   2   2   2   2   2   2   2
#     4  11  23  43  64  91 123 163 206 254 309 366
#     4  10  24  41  58  93 125 154 209 255 302 368
#     4  10  20  36  61  88 123 160 208 245 306 369
#     4   9  20  35  59  91 119 161 204 256 297 369
#     4  11  23  39  66  87 120 167 197 251 312 353
#     4  10  23  39  60  90 126 160 204 258 304 366
#     4  11  24  43  64  90 125 158 205 257 304 367
#     4  10  18  36  62  86 121 163 204 248 312 358
#
# _framework density 22.412202000000001
#
# number of rings (size 3 to 8) (size 9 to 14) (size 15 to 20)
#    0.000    1.750    2.500    1.125    5.250    1.000 
#    0.000    1.875    0.000    0.000    0.000    0.000 
#    0.000    0.000    0.000    0.000    0.000    0.000 
#
# Total GULP energy -89354.258557 kJ/mol
# GULP energy per Si atom -5584.641160 kJ/mol
# Density = 2.236119 g / cm^3
# Si number density = 22.412202 Si / 1000 Ang^3
#
#
#
# Elastic Constant Matrix: (Units=GPa)
#
#
# Indices 1 2 3 4 5 6 
#
# 1 133.6967 32.0553 36.2061 -1.6950 4.9410 21.1046
# 2 32.0553 56.0677 27.1921 -8.7442 -3.3778 21.1260
# 3 36.2061 27.1921 113.1549 -14.7349 1.1537 1.8597
# 4 -1.6950 -8.7442 -14.7349 28.6876 0.6942 -2.8498
# 5 4.9410 -3.3778 1.1537 0.6942 30.9047 1.5353
# 6 21.1046 21.1260 1.8597 -2.8498 1.5353 21.6181
#
#
#
# Elastic Compliance Matrix: (Units=1/GPa)
#
#
# Indices 1 2 3 4 5 6 
#
# 1 0.009958 -0.001650 -0.002930 -0.002191 -0.001213 -0.008059
# 2 -0.001650 0.035197 -0.006979 0.003714 0.005883 -0.032113
# 3 -0.002930 -0.006979 0.011936 0.004794 -0.001313 0.009379
# 4 -0.002191 0.003714 0.004794 0.038654 -0.000451 0.003225
# 5 -0.001213 0.005883 -0.001313 -0.000451 0.033596 -0.006897
# 6 -0.008059 -0.032113 0.009379 0.003225 -0.006897 0.085616
#
#
# Mechanical properties :
#
#
# Convention : Reuss Voigt Hill
#
# Bulk Modulus (GPa) = 29.43546 54.86958 42.15252
# Shear Modulus (GPa) = 20.04814 30.07315 25.06064
#
# Velocity S-wave (km/s) = 2.99410 3.66706 3.34753
# Velocity P-wave (km/s) = 5.01149 6.51651 5.81291
#
# Compressibility (1/GPa) = 0.03397263
#
# Stress axis : x y z
#
# Youngs Moduli (GPa) = 100.42090 28.41127 83.78343
#
# Poissons Ratio (x) = 0.04688 0.24550
# Poissons Ratio (y) = 0.16571 0.58470
# Poissons Ratio (z) = 0.29425 0.19828
#
# Static dielectric constant tensor:
#      x y z
#    x 1.811890 0.016890 -0.003370 
#    y 0.016890 1.885090 0.006290 
#    z -0.003370 0.006290 1.839080 
# 
# From -- ./inp_files/552469.got.cif
#   From: 2010.05.17/outbox.cif.g08.bks.cpg/sg2_277_cif.got.tgz:552469.got - 2010.06.03 11:33:40.
