data_PCOD9079079
_publ_section_title
;
Structure prediction by ZEFSAII (Michael W. Deem and Ramdas Pophale) SiO2 
 PCOD9079079
Probable space group: P -1
;
_chemical_formula_sum "Si O2"
_cell_formula_units_Z 14
_cell_length_a 13.892120
_cell_length_b 9.295403
_cell_length_c 9.532213
_cell_angle_alpha 93.665616
_cell_angle_beta 152.197971
_cell_angle_gamma 87.829751
_cell_volume 572.487722
_symmetry_space_group_name_H-M "P -1"
_symmetry_group_IT_number 2
_symmetry_cell_setting 'triclinic'
loop_
_space_group_symop_operation_xyz
x,y,z
-x,-y,-z
loop_
_atom_site_type_symbol
_atom_site_label
_atom_site_fract_x
_atom_site_fract_y
_atom_site_fract_z
Si Si1 0.817420 0.246117 0.809479
Si Si2 0.528077 0.408628 0.274009
Si Si3 0.452627 0.259250 0.679261
Si Si4 0.022580 0.504046 0.256184
Si Si5 0.174653 0.921154 0.897889
Si Si6 0.843502 0.791207 0.966934
Si Si7 0.810307 0.724285 0.374571
O O1 0.599823 0.308478 0.487545
O O2 0.812503 0.143912 0.930516
O O3 0.952400 0.389014 0.039014
O O4 0.937857 0.176500 0.831430
O O5 0.472675 0.574015 0.242996
O O6 0.746237 0.432372 0.471864
O O7 0.359623 0.326697 0.957778
O O8 0.322212 0.209971 0.371860
O O9 0.307816 0.255606 0.628754
O O10 0.636968 0.153731 0.938086
O O11 0.038262 0.407389 0.408347
O O12 0.870478 0.634413 0.060432
O O13 0.958894 0.863360 0.550823
O O14 0.192792 0.089858 0.956750
#
# Coordination Sequence:
#
# PCOD9079079 Si02
#       7
#     2   2   2   2   2   2   2
#     4  10  18  36  62  87 111 153 196 240 285 330
#     4  10  18  36  63  86 112 152 197 236 285 341
#     4  11  20  36  62  87 114 148 199 236 290 335
#     4   9  16  34  62  85 105 151 196 236 280 327
#     4  11  24  35  59  89 119 152 187 237 294 344
#     4  11  18  36  60  87 118 145 193 245 283 340
#     4  10  22  39  62  84 116 155 190 239 287 341
#
# _framework density 24.454673
#
# number of rings (size 3 to 8) (size 9 to 14) (size 15 to 20)
#    0.000    1.714    5.714    3.429    0.000    1.143 
#    0.000    2.857    6.286    7.714    0.000    0.000 
#    0.000    0.000    0.000    0.000    0.000    0.000 
#
# Total GULP energy -78411.228616 kJ/mol
# GULP energy per Si atom -5600.802044 kJ/mol
# Density = 2.439901 g / cm^3
# Si number density = 24.454673 Si / 1000 Ang^3
#
#
#
# Elastic Constant Matrix: (Units=GPa)
#
#
# Indices 1 2 3 4 5 6 
#
# 1 64.7574 19.0283 17.9489 1.1825 4.6973 -10.2712
# 2 19.0283 121.1873 47.5180 6.1235 4.7218 -20.4643
# 3 17.9489 47.5180 166.3975 14.7941 -14.4642 -25.1778
# 4 1.1825 6.1235 14.7941 21.7337 -11.5873 2.9520
# 5 4.6973 4.7218 -14.4642 -11.5873 27.9139 -4.0913
# 6 -10.2712 -20.4643 -25.1778 2.9520 -4.0913 31.3818
#
#
#
# Elastic Compliance Matrix: (Units=1/GPa)
#
#
# Indices 1 2 3 4 5 6 
#
# 1 0.017002 -0.001425 -0.000994 -0.002216 -0.003529 0.003586
# 2 -0.001425 0.010401 -0.002088 -0.003957 -0.003578 0.004547
# 3 -0.000994 -0.002088 0.008275 -0.003549 0.004190 0.005833
# 4 -0.002216 -0.003957 -0.003549 0.063897 0.024411 -0.008981
# 5 -0.003529 -0.003578 0.004190 0.024411 0.049927 0.004087
# 6 0.003586 0.004547 0.005833 -0.008981 0.004087 0.042062
#
#
# Mechanical properties :
#
#
# Convention : Reuss Voigt Hill
#
# Bulk Modulus (GPa) = 37.50216 57.92585 47.71401
# Shear Modulus (GPa) = 23.87020 34.06235 28.96628
#
# Velocity S-wave (km/s) = 3.12765 3.73618 3.44537
# Velocity P-wave (km/s) = 5.33025 6.50772 5.94820
#
# Compressibility (1/GPa) = 0.02666513
#
# Stress axis : x y z
#
# Youngs Moduli (GPa) = 58.81757 96.14304 120.83887
#
# Poissons Ratio (x) = 0.13697 0.12015
# Poissons Ratio (y) = 0.08379 0.25228
# Poissons Ratio (z) = 0.05848 0.20072
#
# Static dielectric constant tensor:
#      x y z
#    x 2.002380 0.020340 0.030490 
#    y 0.020340 1.940080 -0.037450 
#    z 0.030490 -0.037450 1.929460 
# 
# From -- ./inp_files/155612.got.cif
#   From: 2010.05.17/outbox.cif.g08.bks.cpg/sg2_78_cif.got.tgz:155612.got - 2010.06.03 11:33:40.
