data_PCOD9079591
_publ_section_title
;
Structure prediction by ZEFSAII (Michael W. Deem and Ramdas Pophale) SiO2 
 PCOD9079591
Probable space group: P -1
;
_chemical_formula_sum "Si O2"
_cell_formula_units_Z 16
_cell_length_a 8.938366
_cell_length_b 10.586925
_cell_length_c 13.730266
_cell_angle_alpha 92.865660
_cell_angle_beta 93.608721
_cell_angle_gamma 29.289498
_cell_volume 634.350892
_symmetry_space_group_name_H-M "P -1"
_symmetry_group_IT_number 2
_symmetry_cell_setting 'triclinic'
loop_
_space_group_symop_operation_xyz
x,y,z
-x,-y,-z
loop_
_atom_site_type_symbol
_atom_site_label
_atom_site_fract_x
_atom_site_fract_y
_atom_site_fract_z
Si Si1 0.238240 0.430312 0.974461
Si Si2 0.877568 0.264468 0.582500
Si Si3 0.661012 0.239567 0.339265
Si Si4 0.096986 0.248270 0.223740
Si Si5 0.512338 0.549969 0.874823
Si Si6 0.396580 0.999146 0.679738
Si Si7 0.904294 0.698289 0.561862
Si Si8 0.172109 0.954106 0.115149
O O1 0.271989 0.509702 0.063718
O O2 0.404123 0.857898 0.048575
O O3 0.106643 0.572284 0.870462
O O4 0.000000 0.500000 0.000000
O O5 0.001261 0.248089 0.493472
O O6 0.522165 0.529170 0.594700
O O7 0.012284 0.030721 0.610652
O O8 0.037648 0.239135 0.672808
O O9 0.605294 0.315987 0.229269
O O10 0.504655 0.216891 0.346159
O O11 0.425864 0.077117 0.224301
O O12 0.951211 0.400949 0.325972
O O13 0.317058 0.710372 0.134763
O O14 0.158347 0.053869 0.214013
O O15 0.180948 0.790237 0.925696
O O16 0.550148 0.963596 0.596631
O O17 0.000000 0.500000 0.500000
#
# Coordination Sequence:
#
# PCOD9079591 Si02
#       8
#     2   2   2   2   2   2   2   2
#     4  12  28  50  81 116 152 187 251 328 374 437
#     4  10  18  37  62 103 140 185 240 308 363 430
#     4  10  21  38  66 103 133 183 255 296 352 428
#     4  10  24  43  66 113 146 193 244 311 365 448
#     4  12  27  50  80 103 152 213 246 295 378 470
#     4   8  20  33  61 100 144 173 243 298 374 403
#     4  10  18  38  69 104 153 195 242 310 386 436
#     4  12  27  53  75 107 154 206 254 291 381 466
#
# _framework density 25.222633999999999
#
# number of rings (size 3 to 8) (size 9 to 14) (size 15 to 20)
#    1.500    0.000    2.500    2.625    1.750    3.500 
#    2.250    0.000    0.000    4.500    0.000    0.000 
#    0.000    0.000    0.000    0.000    0.000    0.000 
#
# Total GULP energy -89171.525818 kJ/mol
# GULP energy per Si atom -5573.220364 kJ/mol
# Density = 2.516523 g / cm^3
# Si number density = 25.222634 Si / 1000 Ang^3
#
#
#
# Elastic Constant Matrix: (Units=GPa)
#
#
# Indices 1 2 3 4 5 6 
#
# 1 60.5848 109.1176 98.1438 -37.9979 19.0253 -49.9632
# 2 109.1176 43.5408 -43.6189 65.3116 -4.2958 80.7616
# 3 98.1438 -43.6189 98.7272 39.2424 -1.7828 64.1598
# 4 -37.9979 65.3116 39.2424 -4.7369 5.2240 -36.7471
# 5 19.0253 -4.2958 -1.7828 5.2240 54.7210 -3.3753
# 6 -49.9632 80.7616 64.1598 -36.7471 -3.3753 0.5922
#
#
#
# Elastic Compliance Matrix: (Units=1/GPa)
#
#
# Indices 1 2 3 4 5 6 
#
# 1 0.007013 0.001357 -0.000472 -0.007274 -0.001941 -0.004682
# 2 0.001357 0.004775 -0.002925 0.003626 -0.000326 0.003445
# 3 -0.000472 -0.002925 0.006330 0.005312 -0.000285 0.001323
# 4 -0.007274 0.003626 0.005312 0.026980 -0.000273 -0.011091
# 5 -0.001941 -0.000326 -0.000285 -0.000273 0.019180 0.003886
# 6 -0.004682 0.003445 0.001323 -0.011091 0.003886 0.014360
#
#
# Mechanical properties :
#
#
# Convention : Reuss Voigt Hill
#
# Bulk Modulus (GPa) = 71.24880 58.90421 65.07650
# Shear Modulus (GPa) = 57.21004 12.72927 34.96965
#
# Velocity S-wave (km/s) = 4.76773 2.24894 3.72753
# Velocity P-wave (km/s) = 7.65622 5.49072 6.66204
#
# Compressibility (1/GPa) = 0.01403532
#
# Stress axis : x y z
#
# Youngs Moduli (GPa) = 142.59696 209.44332 157.98758
#
# Poissons Ratio (x) = -0.28423 0.07464
# Poissons Ratio (y) = -0.19352 0.46218
# Poissons Ratio (z) = 0.06737 0.61271
#
# Static dielectric constant tensor:
#      x y z
#    x 2.003750 -0.001460 0.004520 
#    y -0.001460 2.108230 -0.025870 
#    z 0.004520 -0.025870 2.083900 
# 
# From -- ./inp_files/500578.got.cif
#   From: 2010.05.17/outbox.cif.g08.bks.cpg/sg2_251_cif.got.tgz:500578.got - 2010.06.03 11:33:40.
