data_PCOD9079771
_publ_section_title
;
Structure prediction by ZEFSAII (Michael W. Deem and Ramdas Pophale) SiO2 
 PCOD9079771
Probable space group: P -1
;
_chemical_formula_sum "Si O2"
_cell_formula_units_Z 16
_cell_length_a 27.802757
_cell_length_b 15.163611
_cell_length_c 20.530107
_cell_angle_alpha 29.297725
_cell_angle_beta 161.069724
_cell_angle_gamma 160.069484
_cell_volume 945.557616
_symmetry_space_group_name_H-M "P -1"
_symmetry_group_IT_number 2
_symmetry_cell_setting 'triclinic'
loop_
_space_group_symop_operation_xyz
x,y,z
-x,-y,-z
loop_
_atom_site_type_symbol
_atom_site_label
_atom_site_fract_x
_atom_site_fract_y
_atom_site_fract_z
Si Si1 0.598914 0.067697 0.399792
Si Si2 0.848785 0.433243 0.790236
Si Si3 0.987344 0.548917 0.143007
Si Si4 0.893340 0.612253 0.483578
Si Si5 0.558066 0.990918 0.906545
Si Si6 0.702229 0.233236 0.153193
Si Si7 0.091176 0.994911 0.686691
Si Si8 0.999224 0.207754 0.876934
O O1 0.681739 0.335385 0.359346
O O2 0.541022 0.029921 0.274423
O O3 0.799422 0.117615 0.640680
O O4 0.393523 0.807390 0.341792
O O5 0.885833 0.346164 0.829357
O O6 0.928384 0.702809 0.697052
O O7 0.000000 0.500000 0.000000
O O8 0.016490 0.750521 0.094244
O O9 0.064917 0.456230 0.350295
O O10 0.741071 0.288624 0.976301
O O11 0.876850 0.808721 0.350290
O O12 0.102157 0.736123 0.628393
O O13 0.379683 0.819149 0.844542
O O14 0.693019 0.927389 0.104624
O O15 0.793502 0.503364 0.070351
O O16 0.500000 0.000000 0.000000
O O17 0.000000 0.000000 0.500000
O O18 0.000000 0.000000 0.000000
#
# Coordination Sequence:
#
# PCOD9079771 Si02
#       8
#     2   2   2   2   2   2   2   2
#     4  10  23  39  59  85 127 156 188 253 313 345
#     4  11  20  38  62  87 120 164 194 239 312 357
#     4   9  18  38  61  79 121 154 200 237 301 355
#     4  10  21  37  57  92 119 150 200 259 289 348
#     4  11  19  37  64  84 115 158 202 240 300 353
#     4  10  18  37  65  80 112 162 200 235 303 354
#     4  11  20  37  62  91 116 151 215 244 275 367
#     4  10  23  40  57  89 121 150 203 253 292 360
#
# _framework density 16.921232
#
# number of rings (size 3 to 8) (size 9 to 14) (size 15 to 20)
#    0.000    2.000    7.500    0.000    0.000    6.500 
#    2.250    1.875    0.000    0.000    0.000    0.000 
#    0.000    0.000    0.000    0.000    0.000    0.000 
#
# Total GULP energy -89165.327338 kJ/mol
# GULP energy per Si atom -5572.832959 kJ/mol
# Density = 1.688272 g / cm^3
# Si number density = 16.921232 Si / 1000 Ang^3
#
#
#
# Elastic Constant Matrix: (Units=GPa)
#
#
# Indices 1 2 3 4 5 6 
#
# 1 144.9262 66.2262 49.8570 -12.4691 -6.6944 1.6130
# 2 66.2262 114.9840 52.5632 -8.9707 2.7937 -4.5830
# 3 49.8570 52.5632 76.2630 4.9537 -12.5964 -9.2579
# 4 -12.4691 -8.9707 4.9537 23.1726 -7.4929 9.0867
# 5 -6.6944 2.7937 -12.5964 -7.4929 34.6197 -2.3104
# 6 1.6130 -4.5830 -9.2579 9.0867 -2.3104 43.7373
#
#
#
# Elastic Compliance Matrix: (Units=1/GPa)
#
#
# Indices 1 2 3 4 5 6 
#
# 1 0.011201 -0.003497 -0.005529 0.007833 0.001900 -0.003477
# 2 -0.003497 0.015661 -0.009801 0.005504 -0.004427 -0.001682
# 3 -0.005529 -0.009801 0.026460 -0.013259 0.007007 0.007903
# 4 0.007833 0.005504 -0.013259 0.060829 0.008430 -0.014711
# 5 0.001900 -0.004427 0.007007 0.008430 0.034050 0.000997
# 6 -0.003477 -0.001682 0.007903 -0.014711 0.000997 0.027597
#
#
# Mechanical properties :
#
#
# Convention : Reuss Voigt Hill
#
# Bulk Modulus (GPa) = 63.82581 74.82958 69.32769
# Shear Modulus (GPa) = 22.86479 31.47438 27.16958
#
# Velocity S-wave (km/s) = 3.67992 4.31751 4.01140
# Velocity P-wave (km/s) = 7.47375 8.31702 7.90664
#
# Compressibility (1/GPa) = 0.01566764
#
# Stress axis : x y z
#
# Youngs Moduli (GPa) = 89.28068 63.85085 37.79226
#
# Poissons Ratio (x) = 0.22330 0.20896
# Poissons Ratio (y) = 0.31223 0.37041
# Poissons Ratio (z) = 0.49365 0.62581
#
# Static dielectric constant tensor:
#      x y z
#    x 1.601040 -0.002380 0.010690 
#    y -0.002380 1.586480 0.010260 
#    z 0.010690 0.010260 1.558030 
# 
# From -- ./inp_files/297837.got.cif
#   From: 2010.05.17/outbox.cif.g08.bks.cpg/sg2_149_cif.got.tgz:297837.got - 2010.06.03 11:33:40.
