data_PCOD9079371
_publ_section_title
;
Structure prediction by ZEFSAII (Michael W. Deem and Ramdas Pophale) SiO2 
 PCOD9079371
Probable space group: P -1
;
_chemical_formula_sum "Si O2"
_cell_formula_units_Z 13
_cell_length_a 13.187628
_cell_length_b 9.298651
_cell_length_c 9.870559
_cell_angle_alpha 114.723239
_cell_angle_beta 134.886960
_cell_angle_gamma 101.347647
_cell_volume 502.260363
_symmetry_space_group_name_H-M "P -1"
_symmetry_group_IT_number 2
_symmetry_cell_setting 'triclinic'
loop_
_space_group_symop_operation_xyz
x,y,z
-x,-y,-z
loop_
_atom_site_type_symbol
_atom_site_label
_atom_site_fract_x
_atom_site_fract_y
_atom_site_fract_z
Si Si1 0.000000 0.500000 0.000000
Si Si2 0.404502 0.355470 0.539432
Si Si3 0.333299 0.599457 0.399485
Si Si4 0.927652 0.400422 0.204278
Si Si5 0.903217 0.719105 0.198716
Si Si6 0.628514 0.193375 0.075712
Si Si7 0.672907 0.784197 0.304180
O O1 0.742820 0.289694 0.600024
O O2 0.112084 0.393506 0.006172
O O3 0.324259 0.451627 0.439406
O O4 0.451993 0.264938 0.432431
O O5 0.267781 0.181443 0.468318
O O6 0.661955 0.593209 0.923554
O O7 0.896764 0.334996 0.991877
O O8 0.742850 0.195929 0.059934
O O9 0.928135 0.597300 0.279080
O O10 0.160732 0.547494 0.547078
O O11 0.100260 0.007465 0.482146
O O12 0.468925 0.185039 0.855724
O O13 0.500000 0.000000 0.000000
O O14 0.500000 0.500000 0.000000
#
# Coordination Sequence:
#
# PCOD9079371 Si02
#       7
#     1   2   2   2   2   2   2
#     4  10  18  36  70  94 124 158 218 266 312 376
#     4   9  19  40  57  87 126 165 199 259 330 378
#     4   8  18  37  64  86 123 164 202 263 319 388
#     4  10  21  39  67  90 127 170 211 267 318 389
#     4   9  18  39  59  89 119 168 203 258 325 378
#     4  11  22  42  66  89 128 176 214 256 334 383
#     4  12  24  35  61  92 124 165 218 266 303 378
#
# _framework density 25.882989999999999
#
# number of rings (size 3 to 8) (size 9 to 14) (size 15 to 20)
#    0.923    1.231    3.077    0.000    2.154    1.231 
#    0.000    0.769    3.385    0.000    0.000    0.000 
#    0.000    0.000    0.000    0.000    0.000    0.000 
#
# Total GULP energy -72379.517491 kJ/mol
# GULP energy per Si atom -5567.655192 kJ/mol
# Density = 2.582408 g / cm^3
# Si number density = 25.882990 Si / 1000 Ang^3
#
#
#
# Elastic Constant Matrix: (Units=GPa)
#
#
# Indices 1 2 3 4 5 6 
#
# 1 147.7908 70.9602 30.3624 -2.2592 15.9114 37.3037
# 2 70.9602 128.5188 31.4542 -22.8598 -4.8769 12.5624
# 3 30.3624 31.4542 54.6946 10.4414 9.4219 -6.7183
# 4 -2.2592 -22.8598 10.4414 59.8072 -0.1988 6.0531
# 5 15.9114 -4.8769 9.4219 -0.1988 43.0490 -1.6299
# 6 37.3037 12.5624 -6.7183 6.0531 -1.6299 54.6785
#
#
#
# Elastic Compliance Matrix: (Units=1/GPa)
#
#
# Indices 1 2 3 4 5 6 
#
# 1 0.012791 -0.005452 -0.004130 -0.000074 -0.004749 -0.008114
# 2 -0.005452 0.014039 -0.007314 0.006553 0.005200 -0.000975
# 3 -0.004130 -0.007314 0.028452 -0.008828 -0.005236 0.008815
# 4 -0.000074 0.006553 -0.008828 0.021260 0.002618 -0.004815
# 5 -0.004749 0.005200 -0.005236 0.002618 0.026804 0.001911
# 6 -0.008114 -0.000975 0.008815 -0.004815 0.001911 0.025722
#
#
# Mechanical properties :
#
#
# Convention : Reuss Voigt Hill
#
# Bulk Modulus (GPa) = 46.53027 66.28419 56.40723
# Shear Modulus (GPa) = 29.40786 44.72211 37.06498
#
# Velocity S-wave (km/s) = 3.37439 4.16126 3.78831
# Velocity P-wave (km/s) = 5.76179 6.98233 6.40121
#
# Compressibility (1/GPa) = 0.02149139
#
# Stress axis : x y z
#
# Youngs Moduli (GPa) = 78.18240 71.22830 35.14661
#
# Poissons Ratio (x) = 0.38831 0.14515
# Poissons Ratio (y) = 0.42623 0.25706
# Poissons Ratio (z) = 0.32287 0.52096
#
# Static dielectric constant tensor:
#      x y z
#    x 2.388130 -0.044880 -0.082590 
#    y -0.044880 2.002730 0.097550 
#    z -0.082590 0.097550 2.212380 
# 
# From -- ./inp_files/105624.got.cif
#   From: 2010.05.17/outbox.cif.g08.bks.cpg/sg2_53_cif.got.tgz:105624.got - 2010.06.03 11:33:40.
