data_PCOD9079346
_publ_section_title
;
Structure prediction by ZEFSAII (Michael W. Deem and Ramdas Pophale) SiO2 
 PCOD9079346
Probable space group: P -1
;
_chemical_formula_sum "Si O2"
_cell_formula_units_Z 12
_cell_length_a 11.445256
_cell_length_b 8.455983
_cell_length_c 8.772053
_cell_angle_alpha 50.029241
_cell_angle_beta 135.480905
_cell_angle_gamma 109.385986
_cell_volume 443.442410
_symmetry_space_group_name_H-M "P -1"
_symmetry_group_IT_number 2
_symmetry_cell_setting 'triclinic'
loop_
_space_group_symop_operation_xyz
x,y,z
-x,-y,-z
loop_
_atom_site_type_symbol
_atom_site_label
_atom_site_fract_x
_atom_site_fract_y
_atom_site_fract_z
Si Si1 0.059406 0.690369 0.513730
Si Si2 0.942673 0.595046 0.051500
Si Si3 0.636393 0.870293 0.434818
Si Si4 0.584576 0.276066 0.297420
Si Si5 0.816549 0.037441 0.218578
Si Si6 0.684514 0.399912 0.631819
O O1 0.120357 0.578405 0.801523
O O2 0.216554 0.765693 0.543364
O O3 0.000000 0.500000 0.500000
O O4 0.884293 0.866339 0.255943
O O5 0.127913 0.621262 0.261223
O O6 0.789318 0.791780 0.749477
O O7 0.000000 0.500000 0.000000
O O8 0.618137 0.640383 0.488010
O O9 0.520607 0.077127 0.287658
O O10 0.694557 0.973996 0.270713
O O11 0.576017 0.320973 0.444328
O O12 0.500000 0.500000 0.000000
O O13 0.730040 0.242222 0.915155
O O14 0.000000 0.000000 0.500000
#
# Coordination Sequence:
#
# PCOD9079346 Si02
#       6
#     2   2   2   2   2   2
#     4  12  22  39  71 101 135 172 225 288 342 393
#     4  10  18  36  68 102 128 164 216 283 350 383
#     4  11  23  42  70  99 141 169 227 292 341 398
#     4  12  28  46  65  98 143 190 230 268 337 422
#     4  12  20  38  71 104 131 171 224 289 351 395
#     4  11  23  42  67 104 137 171 226 285 348 397
#
# _framework density 27.061011000000001
#
# number of rings (size 3 to 8) (size 9 to 14) (size 15 to 20)
#    0.000    0.667    8.333    1.000    2.333    2.000 
#    0.000    1.667    0.000    0.000    0.000    0.000 
#    0.000    0.000    0.000    0.000    0.000    0.000 
#
# Total GULP energy -67009.672292 kJ/mol
# GULP energy per Si atom -5584.139358 kJ/mol
# Density = 2.699942 g / cm^3
# Si number density = 27.061011 Si / 1000 Ang^3
#
#
#
# Elastic Constant Matrix: (Units=GPa)
#
#
# Indices 1 2 3 4 5 6 
#
# 1 81.5058 46.7175 47.9497 -0.1321 -15.1718 -10.2859
# 2 46.7175 210.7195 97.6182 -31.1757 -4.4464 -12.1818
# 3 47.9497 97.6182 176.6068 -24.2384 -22.0633 -4.4923
# 4 -0.1321 -31.1757 -24.2384 44.4583 4.6204 -3.0992
# 5 -15.1718 -4.4464 -22.0633 4.6204 58.5285 -0.2673
# 6 -10.2859 -12.1818 -4.4923 -3.0992 -0.2673 30.1216
#
#
#
# Elastic Compliance Matrix: (Units=1/GPa)
#
#
# Indices 1 2 3 4 5 6 
#
# 1 0.016594 -0.002448 -0.003121 -0.003434 0.003228 0.003886
# 2 -0.002448 0.007326 -0.002999 0.003794 -0.001499 0.002057
# 3 -0.003121 -0.002999 0.008735 0.002386 0.002064 -0.000712
# 4 -0.003434 0.003794 0.002386 0.026874 -0.001808 0.003467
# 5 0.003228 -0.001499 0.002064 -0.001808 0.018733 0.000784
# 6 0.003886 0.002057 -0.000712 0.003467 0.000784 0.035615
#
#
# Mechanical properties :
#
#
# Convention : Reuss Voigt Hill
#
# Bulk Modulus (GPa) = 64.44130 94.82254 79.63192
# Shear Modulus (GPa) = 36.71412 45.05813 40.88612
#
# Velocity S-wave (km/s) = 3.68736 4.08494 3.89123
# Velocity P-wave (km/s) = 6.48027 7.57399 7.04837
#
# Compressibility (1/GPa) = 0.01551800
#
# Stress axis : x y z
#
# Youngs Moduli (GPa) = 60.26131 136.49174 114.48673
#
# Poissons Ratio (x) = 0.33417 0.35735
# Poissons Ratio (y) = 0.14754 0.34336
# Poissons Ratio (z) = 0.18810 0.40935
#
# Static dielectric constant tensor:
#      x y z
#    x 2.614270 -0.271550 0.144200 
#    y -0.271550 2.463910 -0.192590 
#    z 0.144200 -0.192590 1.886210 
# 
# From -- ./inp_files/233023.got.cif
#   From: 2010.05.17/outbox.cif.g08.bks.cpg/sg2_117_cif.got.tgz:233023.got - 2010.06.03 11:33:40.
