data_PCOD9079806
_publ_section_title
;
Structure prediction by ZEFSAII (Michael W. Deem and Ramdas Pophale) SiO2 
 PCOD9079806
Probable space group: P -1
;
_chemical_formula_sum "Si O2"
_cell_formula_units_Z 16
_cell_length_a 23.155112
_cell_length_b 14.551626
_cell_length_c 14.559077
_cell_angle_alpha 29.160426
_cell_angle_beta 28.431910
_cell_angle_gamma 20.045910
_cell_volume 766.449226
_symmetry_space_group_name_H-M "P -1"
_symmetry_group_IT_number 2
_symmetry_cell_setting 'triclinic'
loop_
_space_group_symop_operation_xyz
x,y,z
-x,-y,-z
loop_
_atom_site_type_symbol
_atom_site_label
_atom_site_fract_x
_atom_site_fract_y
_atom_site_fract_z
Si Si1 0.191732 0.877434 0.355803
Si Si2 0.901525 0.776260 0.154206
Si Si3 0.425126 0.376466 0.737796
Si Si4 0.187588 0.214537 0.937087
Si Si5 0.186974 0.127278 0.326734
Si Si6 0.907772 0.069615 0.210535
Si Si7 0.839154 0.816861 0.409887
Si Si8 0.575720 0.726525 0.369303
O O1 0.346443 0.548332 0.449213
O O2 0.164935 0.043231 0.335842
O O3 0.000000 0.000000 0.500000
O O4 0.235067 0.960164 0.137697
O O5 0.826483 0.800165 0.139591
O O6 0.802768 0.839337 0.332606
O O7 0.078692 0.443502 0.205992
O O8 0.942084 0.953222 0.949440
O O9 0.500000 0.500000 0.500000
O O10 0.271797 0.595675 0.833431
O O11 0.350634 0.375206 0.749071
O O12 0.602807 0.068137 0.789414
O O13 0.337551 0.194655 0.771474
O O14 0.000000 0.500000 0.000000
O O15 0.121097 0.056688 0.559437
O O16 0.912492 0.940216 0.225463
O O17 0.000000 0.500000 0.500000
O O18 0.641370 0.018523 0.555395
#
# Coordination Sequence:
#
# PCOD9079806 Si02
#       8
#     2   2   2   2   2   2   2   2
#     4  12  22  40  69  99 137 173 214 275 335 391
#     4  12  25  42  65  93 134 177 225 268 321 400
#     4  10  18  37  65  97 130 159 214 280 341 392
#     4  12  25  43  67 104 131 174 226 270 335 398
#     4  11  20  38  63  99 129 169 212 271 348 385
#     4  11  21  41  66  95 131 166 218 275 335 391
#     4  12  25  48  69  95 135 181 224 273 334 391
#     4  12  23  45  68  97 141 172 219 280 330 397
#
# _framework density 20.875485000000001
#
# number of rings (size 3 to 8) (size 9 to 14) (size 15 to 20)
#    0.000    0.500    8.750    1.875    0.000    1.000 
#    9.000    0.625    0.000    0.000    0.000    0.000 
#    0.000    0.000    0.000    0.000    0.000    0.000 
#
# Total GULP energy -89361.358566 kJ/mol
# GULP energy per Si atom -5585.084910 kJ/mol
# Density = 2.082797 g / cm^3
# Si number density = 20.875485 Si / 1000 Ang^3
#
#
#
# Elastic Constant Matrix: (Units=GPa)
#
#
# Indices 1 2 3 4 5 6 
#
# 1 142.0970 15.0897 26.5928 -6.4614 -6.6177 14.8559
# 2 15.0897 85.6129 22.1430 -16.3821 -2.8425 -0.6890
# 3 26.5928 22.1430 77.8484 -15.7608 -11.3248 1.4889
# 4 -6.4614 -16.3821 -15.7608 22.5522 -2.1561 2.7134
# 5 -6.6177 -2.8425 -11.3248 -2.1561 42.1772 0.4995
# 6 14.8559 -0.6890 1.4889 2.7134 0.4995 28.8290
#
#
#
# Elastic Compliance Matrix: (Units=1/GPa)
#
#
# Indices 1 2 3 4 5 6 
#
# 1 0.008024 -0.000699 -0.002193 0.000824 0.000714 -0.004128
# 2 -0.000699 0.013981 -0.001854 0.008741 0.000782 -0.000046
# 3 -0.002193 -0.001854 0.016912 0.010387 0.004613 -0.000845
# 4 0.000824 0.008741 0.010387 0.059599 0.006631 -0.006476
# 5 0.000714 0.000782 0.004613 0.006631 0.025471 -0.001653
# 6 -0.004128 -0.000046 -0.000845 -0.006476 -0.001653 0.037496
#
#
# Mechanical properties :
#
#
# Convention : Reuss Voigt Hill
#
# Bulk Modulus (GPa) = 33.98274 48.13436 41.05855
# Shear Modulus (GPa) = 27.65742 34.82719 31.24231
#
# Velocity S-wave (km/s) = 3.64383 4.08895 3.87279
# Velocity P-wave (km/s) = 5.83245 6.73800 6.30151
#
# Compressibility (1/GPa) = 0.02942671
#
# Stress axis : x y z
#
# Youngs Moduli (GPa) = 124.62047 71.52411 59.13013
#
# Poissons Ratio (x) = 0.05000 0.12965
# Poissons Ratio (y) = 0.08712 0.10961
# Poissons Ratio (z) = 0.27324 0.13259
#
# Static dielectric constant tensor:
#      x y z
#    x 1.791060 0.048010 -0.015590 
#    y 0.048010 1.867150 -0.085080 
#    z -0.015590 -0.085080 1.881100 
# 
# From -- ./inp_files/543002.got.cif
#   From: 2010.05.17/outbox.cif.g08.bks.cpg/sg2_272_cif.got.tgz:543002.got - 2010.06.03 11:33:40.
