data_PCOD9079873
_publ_section_title
;
Structure prediction by ZEFSAII (Michael W. Deem and Ramdas Pophale) SiO2 
 PCOD9079873
Probable space group: P -1
;
_chemical_formula_sum "Si O2"
_cell_formula_units_Z 16
_cell_length_a 23.655063
_cell_length_b 24.034688
_cell_length_c 9.179253
_cell_angle_alpha 25.726039
_cell_angle_beta 28.405389
_cell_angle_gamma 18.273371
_cell_volume 699.016540
_symmetry_space_group_name_H-M "P -1"
_symmetry_group_IT_number 2
_symmetry_cell_setting 'triclinic'
loop_
_space_group_symop_operation_xyz
x,y,z
-x,-y,-z
loop_
_atom_site_type_symbol
_atom_site_label
_atom_site_fract_x
_atom_site_fract_y
_atom_site_fract_z
Si Si1 0.752668 0.035595 0.235389
Si Si2 0.376145 0.491975 0.730644
Si Si3 0.437213 0.168193 0.507777
Si Si4 0.849817 0.526344 0.337113
Si Si5 0.949001 0.273487 0.471565
Si Si6 0.869914 0.724459 0.210117
Si Si7 0.630471 0.382357 0.843350
Si Si8 0.985907 0.796463 0.027824
O O1 0.643158 0.005008 0.486933
O O2 0.882129 0.891138 0.415800
O O3 0.877652 0.980056 0.947239
O O4 0.622921 0.253407 0.079296
O O5 0.500000 0.500000 0.500000
O O6 0.406855 0.477456 0.522812
O O7 0.421122 0.316600 0.108086
O O8 0.165425 0.692143 0.779659
O O9 0.318826 0.268081 0.688767
O O10 0.328029 0.158790 0.675098
O O11 0.807598 0.470072 0.429082
O O12 0.937105 0.371260 0.635783
O O13 0.000000 0.500000 0.000000
O O14 0.840057 0.236911 0.757794
O O15 0.021682 0.295502 0.119639
O O16 0.857012 0.834286 0.112850
O O17 0.000000 0.500000 0.500000
O O18 0.500000 0.500000 0.000000
#
# Coordination Sequence:
#
# PCOD9079873 Si02
#       8
#     2   2   2   2   2   2   2   2
#     4  11  26  44  61  98 141 178 210 273 348 391
#     4  11  22  43  70  98 123 176 230 272 323 393
#     4  11  22  40  68  97 132 168 233 265 325 404
#     4  10  18  37  67  94 125 178 215 264 320 392
#     4  11  23  41  64 100 135 170 219 271 340 380
#     4  12  20  41  71  96 127 173 227 275 315 395
#     4  12  25  45  71  96 131 173 234 277 318 400
#     4  10  23  41  66  96 136 168 220 272 333 393
#
# _framework density 22.889299999999999
#
# number of rings (size 3 to 8) (size 9 to 14) (size 15 to 20)
#    0.000    1.000    6.250    1.125    3.500    1.500 
#    2.250    0.000    0.000    0.000    0.000    0.000 
#    0.000    0.000    0.000    0.000    0.000    0.000 
#
# Total GULP energy -89392.951687 kJ/mol
# GULP energy per Si atom -5587.059480 kJ/mol
# Density = 2.283720 g / cm^3
# Si number density = 22.889300 Si / 1000 Ang^3
#
#
#
# Elastic Constant Matrix: (Units=GPa)
#
#
# Indices 1 2 3 4 5 6 
#
# 1 154.2477 33.3178 54.1843 21.1223 5.6782 -3.2282
# 2 33.3178 58.0245 29.9899 19.3569 11.4798 3.9398
# 3 54.1843 29.9899 111.6896 28.1220 15.7132 4.0741
# 4 21.1223 19.3569 28.1220 30.3415 1.6028 -0.0675
# 5 5.6782 11.4798 15.7132 1.6028 48.2939 17.5293
# 6 -3.2282 3.9398 4.0741 -0.0675 17.5293 46.8607
#
#
#
# Elastic Compliance Matrix: (Units=1/GPa)
#
#
# Indices 1 2 3 4 5 6 
#
# 1 0.008363 -0.003001 -0.003074 -0.001079 0.000427 0.000934
# 2 -0.003001 0.024652 -0.001494 -0.012020 -0.004438 -0.000507
# 3 -0.003074 -0.001494 0.013701 -0.009425 -0.003425 -0.000010
# 4 -0.001079 -0.012020 -0.009425 0.049885 0.004318 0.000212
# 5 0.000427 -0.004438 -0.003425 0.004318 0.025949 -0.009000
# 6 0.000934 -0.000507 -0.000010 0.000212 -0.009000 0.024815
#
#
# Mechanical properties :
#
#
# Convention : Reuss Voigt Hill
#
# Bulk Modulus (GPa) = 31.66808 62.10507 46.88657
# Shear Modulus (GPa) = 28.89697 38.86387 33.88042
#
# Velocity S-wave (km/s) = 3.55698 4.12504 3.85149
# Velocity P-wave (km/s) = 5.54390 7.06255 6.34879
#
# Compressibility (1/GPa) = 0.03157754
#
# Stress axis : x y z
#
# Youngs Moduli (GPa) = 119.57966 40.56490 72.98756
#
# Poissons Ratio (x) = 0.12175 0.22434
# Poissons Ratio (y) = 0.35889 0.10904
# Poissons Ratio (z) = 0.36755 0.06060
#
# Static dielectric constant tensor:
#      x y z
#    x 1.888010 -0.019380 -0.040400 
#    y -0.019380 1.936530 -0.028230 
#    z -0.040400 -0.028230 1.860360 
# 
# From -- ./inp_files/175196.got.cif
#   From: 2010.05.17/outbox.cif.g08.bks.cpg/sg2_88_cif.got.tgz:175196.got - 2010.06.03 11:33:40.
