data_PCOD9079248
_publ_section_title
;
Structure prediction by ZEFSAII (Michael W. Deem and Ramdas Pophale) SiO2 
 PCOD9079248
Probable space group: P -1
;
_chemical_formula_sum "Si O2"
_cell_formula_units_Z 16
_cell_length_a 19.436463
_cell_length_b 17.526282
_cell_length_c 5.121142
_cell_angle_alpha 87.209753
_cell_angle_beta 100.474146
_cell_angle_gamma 158.695598
_cell_volume 586.620739
_symmetry_space_group_name_H-M "P -1"
_symmetry_group_IT_number 2
_symmetry_cell_setting 'triclinic'
loop_
_space_group_symop_operation_xyz
x,y,z
-x,-y,-z
loop_
_atom_site_type_symbol
_atom_site_label
_atom_site_fract_x
_atom_site_fract_y
_atom_site_fract_z
Si Si1 0.210121 0.062632 0.421850
Si Si2 0.678363 0.216227 0.153104
Si Si3 0.943116 0.200436 0.291121
Si Si4 0.821372 0.300265 0.777978
Si Si5 0.208151 0.375136 0.094154
Si Si6 0.148113 0.158595 0.323618
Si Si7 0.300201 0.597114 0.816109
Si Si8 0.681492 0.992340 0.724163
O O1 0.175022 0.000639 0.704647
O O2 0.294725 0.234469 0.421368
O O3 0.292918 0.067825 0.361185
O O4 0.981035 0.838804 0.188846
O O5 0.767473 0.299889 0.496651
O O6 0.666387 0.291175 0.026061
O O7 0.413100 0.934240 0.125842
O O8 0.907740 0.426283 0.107645
O O9 0.119494 0.354924 0.196358
O O10 0.065027 0.353243 0.602015
O O11 0.793650 0.104693 0.066606
O O12 0.768044 0.160487 0.651217
O O13 0.252346 0.348514 0.313084
O O14 0.365279 0.582109 0.987098
O O15 0.000000 0.000000 0.500000
O O16 0.000000 0.000000 0.000000
O O17 0.443692 0.755286 0.641576
#
# Coordination Sequence:
#
# PCOD9079248 Si02
#       8
#     2   2   2   2   2   2   2   2
#     4   9  20  36  63  97 132 176 228 285 336 416
#     4  12  27  48  70 101 138 186 238 291 358 426
#     4  10  21  40  66  95 132 178 235 278 349 409
#     4  12  28  47  72 103 138 184 241 298 357 421
#     4   9  20  37  64  97 131 180 228 281 340 419
#     4  10  18  36  65 101 136 178 231 280 341 409
#     4  11  25  42  67  97 140 182 230 290 350 423
#     4  11  25  42  65 100 138 181 229 292 354 414
#
# _framework density 27.274864999999998
#
# number of rings (size 3 to 8) (size 9 to 14) (size 15 to 20)
#    0.000    1.500    2.500    1.500    8.750    1.000 
#    0.000    0.625    0.000    1.500    0.000    0.000 
#    0.000    0.000    0.000    0.000    0.000    0.000 
#
# Total GULP energy -89102.404350 kJ/mol
# GULP energy per Si atom -5568.900272 kJ/mol
# Density = 2.721279 g / cm^3
# Si number density = 27.274865 Si / 1000 Ang^3
#
#
#
# Elastic Constant Matrix: (Units=GPa)
#
#
# Indices 1 2 3 4 5 6 
#
# 1 133.5098 62.6933 24.8412 -3.3136 -0.5951 -14.7853
# 2 62.6933 117.8988 44.1479 -3.4867 17.2952 -23.7861
# 3 24.8412 44.1479 87.7880 -9.3190 -14.7887 -0.1482
# 4 -3.3136 -3.4867 -9.3190 42.7498 4.9291 14.9350
# 5 -0.5951 17.2952 -14.7887 4.9291 32.6268 -6.4005
# 6 -14.7853 -23.7861 -0.1482 14.9350 -6.4005 58.0495
#
#
#
# Elastic Compliance Matrix: (Units=1/GPa)
#
#
# Indices 1 2 3 4 5 6 
#
# 1 0.010383 -0.006381 0.000950 -0.000171 0.004132 0.000532
# 2 -0.006381 0.018400 -0.009796 -0.001273 -0.013183 0.004763
# 3 0.000950 -0.009796 0.018466 0.002938 0.012528 -0.003100
# 4 -0.000171 -0.001273 0.002938 0.027108 -0.003648 -0.007934
# 5 0.004132 -0.013183 0.012528 -0.003648 0.044237 0.001499
# 6 0.000532 0.004763 -0.003100 -0.007934 0.001499 0.021513
#
#
# Mechanical properties :
#
#
# Convention : Reuss Voigt Hill
#
# Bulk Modulus (GPa) = 59.54109 66.95129 63.24619
# Shear Modulus (GPa) = 28.38361 40.51949 34.45155
#
# Velocity S-wave (km/s) = 3.22941 3.85853 3.55790
# Velocity P-wave (km/s) = 5.98188 6.66717 6.33380
#
# Compressibility (1/GPa) = 0.01679512
#
# Stress axis : x y z
#
# Youngs Moduli (GPa) = 96.31451 54.34744 54.15440
#
# Poissons Ratio (x) = 0.34677 -0.05143
# Poissons Ratio (y) = 0.61454 0.53049
# Poissons Ratio (z) = -0.09146 0.53238
#
# Static dielectric constant tensor:
#      x y z
#    x 2.410100 0.346600 -0.159990 
#    y 0.346600 2.972200 -0.144090 
#    z -0.159990 -0.144090 2.090260 
# 
# From -- ./inp_files/50895.got.cif
#   From: 2010.05.17/outbox.cif.g08.bks.cpg/sg2_26_cif.got.tgz:50895.got - 2010.06.03 11:33:40.
