data_PCOD9079457
_publ_section_title
;
Structure prediction by ZEFSAII (Michael W. Deem and Ramdas Pophale) SiO2 
 PCOD9079457
Probable space group: P -1
;
_chemical_formula_sum "Si O2"
_cell_formula_units_Z 12
_cell_length_a 7.173762
_cell_length_b 19.418659
_cell_length_c 8.445360
_cell_angle_alpha 129.478539
_cell_angle_beta 57.204342
_cell_angle_gamma 142.016276
_cell_volume 556.829706
_symmetry_space_group_name_H-M "P -1"
_symmetry_group_IT_number 2
_symmetry_cell_setting 'triclinic'
loop_
_space_group_symop_operation_xyz
x,y,z
-x,-y,-z
loop_
_atom_site_type_symbol
_atom_site_label
_atom_site_fract_x
_atom_site_fract_y
_atom_site_fract_z
Si Si1 0.244487 0.735919 0.256080
Si Si2 0.428102 0.631546 0.240616
Si Si3 0.567344 0.869130 0.999317
Si Si4 0.839286 0.881883 0.601484
Si Si5 0.084621 0.365393 0.055387
Si Si6 0.446570 0.039729 0.358781
O O1 0.255447 0.652075 0.235720
O O2 0.284903 0.831204 0.491588
O O3 0.530280 0.822449 0.127537
O O4 0.969445 0.657452 0.144535
O O5 0.619557 0.743271 0.438556
O O6 0.211188 0.498090 0.223301
O O7 0.666106 0.640963 0.037202
O O8 0.825671 0.896093 0.814654
O O9 0.245623 0.747537 0.890709
O O10 0.543881 0.969414 0.154673
O O11 0.705745 0.936518 0.665489
O O12 0.170231 0.951765 0.482295
#
# Coordination Sequence:
#
# PCOD9079457 Si02
#       6
#     2   2   2   2   2   2
#     4   9  20  34  57  80 110 144 180 225 270 326
#     4  10  18  37  59  77 109 150 177 224 277 316
#     4  10  20  34  54  86 108 140 185 225 268 324
#     4  10  20  33  58  82 108 146 182 222 274 325
#     4   9  20  34  59  79 108 143 187 222 267 327
#     4  10  19  36  54  80 114 143 180 222 274 328
#
# _framework density 21.550574999999998
#
# number of rings (size 3 to 8) (size 9 to 14) (size 15 to 20)
#    1.000    1.333    1.667    1.500    0.000    1.333 
#    0.000    0.000    7.333    2.000    0.000    0.000 
#    0.000    0.000    0.000    0.000    0.000    0.000 
#
# Total GULP energy -66960.959779 kJ/mol
# GULP energy per Si atom -5580.079982 kJ/mol
# Density = 2.150153 g / cm^3
# Si number density = 21.550575 Si / 1000 Ang^3
#
#
#
# Elastic Constant Matrix: (Units=GPa)
#
#
# Indices 1 2 3 4 5 6 
#
# 1 50.0182 11.6863 9.9131 13.3621 -17.3791 -0.8102
# 2 11.6863 61.1035 49.0567 25.5180 -17.9340 2.5716
# 3 9.9131 49.0567 80.8480 7.4879 -21.1710 -4.8075
# 4 13.3621 25.5180 7.4879 32.7121 -3.9831 -1.3393
# 5 -17.3791 -17.9340 -21.1710 -3.9831 28.8543 8.2689
# 6 -0.8102 2.5716 -4.8075 -1.3393 8.2689 28.6607
#
#
#
# Elastic Compliance Matrix: (Units=1/GPa)
#
#
# Indices 1 2 3 4 5 6 
#
# 1 0.030813 0.012191 -0.003889 -0.018737 0.023108 -0.008418
# 2 0.012191 0.071442 -0.034787 -0.050534 0.025436 -0.021601
# 3 -0.003889 -0.034787 0.032564 0.021684 0.000222 0.009423
# 4 -0.018737 -0.050534 0.021684 0.070712 -0.021977 0.017287
# 5 0.023108 0.025436 0.000222 -0.021977 0.067876 -0.022202
# 6 -0.008418 -0.021601 0.009423 0.017287 -0.022202 0.045385
#
#
# Mechanical properties :
#
#
# Convention : Reuss Voigt Hill
#
# Bulk Modulus (GPa) = 12.21782 37.03131 24.62456
# Shear Modulus (GPa) = 12.52985 26.13299 19.33142
#
# Velocity S-wave (km/s) = 2.41387 3.48607 2.99829
# Velocity P-wave (km/s) = 3.66752 5.78138 4.84123
#
# Compressibility (1/GPa) = 0.08184769
#
# Stress axis : x y z
#
# Youngs Moduli (GPa) = 32.45332 13.99737 30.70876
#
# Poissons Ratio (x) = -0.17064 0.11943
# Poissons Ratio (y) = -0.39563 1.06828
# Poissons Ratio (z) = 0.12622 0.48693
#
# Static dielectric constant tensor:
#      x y z
#    x 1.793970 0.028560 0.033330 
#    y 0.028560 1.810340 0.014880 
#    z 0.033330 0.014880 1.754540 
# 
# From -- ./inp_files/23610.got.cif
#   From: 2010.05.17/outbox.cif.g08.bks.cpg/sg2_12_cif.got.tgz:23610.got - 2010.06.03 11:33:40.
