data_PCOD9079385
_publ_section_title
;
Structure prediction by ZEFSAII (Michael W. Deem and Ramdas Pophale) SiO2 
 PCOD9079385
Probable space group: P -1
;
_chemical_formula_sum "Si O2"
_cell_formula_units_Z 16
_cell_length_a 14.309137
_cell_length_b 7.426574
_cell_length_c 14.428471
_cell_angle_alpha 108.351617
_cell_angle_beta 37.757535
_cell_angle_gamma 131.496744
_cell_volume 625.945297
_symmetry_space_group_name_H-M "P -1"
_symmetry_group_IT_number 2
_symmetry_cell_setting 'triclinic'
loop_
_space_group_symop_operation_xyz
x,y,z
-x,-y,-z
loop_
_atom_site_type_symbol
_atom_site_label
_atom_site_fract_x
_atom_site_fract_y
_atom_site_fract_z
Si Si1 0.301294 0.327302 0.885973
Si Si2 0.681043 0.230612 0.132490
Si Si3 0.910022 0.589272 0.182538
Si Si4 0.747987 0.316504 0.550726
Si Si5 0.591428 0.456265 0.536993
Si Si6 0.795870 0.352643 0.735645
Si Si7 0.527024 0.773043 0.887796
Si Si8 0.831591 0.093140 0.219055
O O1 0.467458 0.515801 0.696804
O O2 0.469522 0.503462 0.867836
O O3 0.227463 0.059356 0.858324
O O4 0.064277 0.205859 0.078728
O O5 0.836919 0.494744 0.118426
O O6 0.610414 0.264096 0.097778
O O7 0.472827 0.994351 0.316411
O O8 0.831629 0.188037 0.975227
O O9 0.780372 0.640325 0.343115
O O10 0.842930 0.328790 0.240644
O O11 0.702998 0.438928 0.531363
O O12 0.792145 0.405364 0.639170
O O13 0.967766 0.397202 0.366801
O O14 0.393037 0.164634 0.596513
O O15 0.750381 0.085269 0.747920
O O16 0.596094 0.274133 0.931335
#
# Coordination Sequence:
#
# PCOD9079385 Si02
#       8
#     2   2   2   2   2   2   2   2
#     4   9  19  32  54  80 113 141 167 207 274 321
#     4  10  20  29  54  78 111 135 176 222 256 311
#     4  11  19  32  53  86 105 140 183 207 254 322
#     4  10  19  35  52  82 102 133 183 233 262 297
#     4  10  20  33  56  79 109 144 172 216 259 319
#     4   9  21  34  58  78 101 132 194 230 259 303
#     4  10  18  37  54  77 104 146 171 223 273 307
#     4   9  18  33  53  82 111 142 170 207 256 336
#
# _framework density 25.561340000000001
#
# number of rings (size 3 to 8) (size 9 to 14) (size 15 to 20)
#    0.750    1.500    2.500    1.125    0.000    0.000 
#    0.000    1.875    0.000    4.500    0.000    0.000 
#    0.000    0.000    0.000    0.000    0.000    0.000 
#
# Total GULP energy -89069.124080 kJ/mol
# GULP energy per Si atom -5566.820255 kJ/mol
# Density = 2.550316 g / cm^3
# Si number density = 25.561340 Si / 1000 Ang^3
#
#
#
# Elastic Constant Matrix: (Units=GPa)
#
#
# Indices 1 2 3 4 5 6 
#
# 1 87.3148 -10.4200 31.4791 9.2967 -4.6529 7.7015
# 2 -10.4200 69.1877 25.7433 -7.9007 -6.9709 7.4287
# 3 31.4791 25.7433 145.0007 0.4963 -13.9695 13.1718
# 4 9.2967 -7.9007 0.4963 45.3069 9.7142 -1.2752
# 5 -4.6529 -6.9709 -13.9695 9.7142 32.8914 1.3583
# 6 7.7015 7.4287 13.1718 -1.2752 1.3583 18.2133
#
#
#
# Elastic Compliance Matrix: (Units=1/GPa)
#
#
# Indices 1 2 3 4 5 6 
#
# 1 0.013889 0.003713 -0.002896 -0.002890 0.002610 -0.005690
# 2 0.003713 0.017287 -0.003025 0.001517 0.002726 -0.006531
# 3 -0.002896 -0.003025 0.008737 -0.000803 0.003069 -0.004146
# 4 -0.002890 0.001517 -0.000803 0.024725 -0.007876 0.003503
# 5 0.002610 0.002726 0.003069 -0.007876 0.035294 -0.007618
# 6 -0.005690 -0.006531 -0.004146 0.003503 -0.007618 0.063786
#
#
# Mechanical properties :
#
#
# Convention : Reuss Voigt Hill
#
# Bulk Modulus (GPa) = 28.17060 43.90088 36.03574
# Shear Modulus (GPa) = 27.78293 36.26236 32.02265
#
# Velocity S-wave (km/s) = 3.30041 3.77057 3.54330
# Velocity P-wave (km/s) = 5.05651 6.01401 5.55593
#
# Compressibility (1/GPa) = 0.03549800
#
# Stress axis : x y z
#
# Youngs Moduli (GPa) = 72.00037 57.84636 114.45298
#
# Poissons Ratio (x) = -0.21479 0.33148
# Poissons Ratio (y) = -0.26735 0.34617
# Poissons Ratio (z) = 0.20853 0.17496
#
# Static dielectric constant tensor:
#      x y z
#    x 2.101110 -0.189490 0.023470 
#    y -0.189490 2.433810 -0.019770 
#    z 0.023470 -0.019770 2.101910 
# 
# From -- ./inp_files/538005.got.cif
#   From: 2010.05.17/outbox.cif.g08.bks.cpg/sg2_270_cif.got.tgz:538005.got - 2010.06.03 11:33:40.
