data_PCOD9079432
_publ_section_title
;
Structure prediction by ZEFSAII (Michael W. Deem and Ramdas Pophale) SiO2 
 PCOD9079432
Probable space group: P -1
;
_chemical_formula_sum "Si O2"
_cell_formula_units_Z 16
_cell_length_a 6.250251
_cell_length_b 24.910848
_cell_length_c 10.995153
_cell_angle_alpha 148.448587
_cell_angle_beta 125.468941
_cell_angle_gamma 65.472647
_cell_volume 716.801148
_symmetry_space_group_name_H-M "P -1"
_symmetry_group_IT_number 2
_symmetry_cell_setting 'triclinic'
loop_
_space_group_symop_operation_xyz
x,y,z
-x,-y,-z
loop_
_atom_site_type_symbol
_atom_site_label
_atom_site_fract_x
_atom_site_fract_y
_atom_site_fract_z
Si Si1 0.139876 0.112390 0.313427
Si Si2 0.755574 0.387501 0.435805
Si Si3 0.558587 0.165243 0.892949
Si Si4 0.466317 0.696321 0.270833
Si Si5 0.478957 0.440778 0.206215
Si Si6 0.011045 0.826305 0.366972
Si Si7 0.336730 0.953064 0.529060
Si Si8 0.084794 0.549169 0.991887
O O1 0.266545 0.214040 0.469561
O O2 0.401890 0.085524 0.411128
O O3 0.962762 0.146331 0.429094
O O4 0.000000 0.000000 0.000000
O O5 0.675899 0.413103 0.321357
O O6 0.542655 0.437594 0.544652
O O7 0.040860 0.450970 0.695929
O O8 0.731410 0.265362 0.204808
O O9 0.718154 0.112283 0.740944
O O10 0.302407 0.205696 0.828341
O O11 0.434372 0.073845 0.766093
O O12 0.220225 0.752960 0.262748
O O13 0.469410 0.608644 0.999797
O O14 0.360138 0.629253 0.225717
O O15 0.159427 0.395305 0.027255
O O16 0.113436 0.926530 0.507013
O O17 0.000000 0.500000 0.000000
#
# Coordination Sequence:
#
# PCOD9079432 Si02
#       8
#     2   2   2   2   2   2   2   2
#     4  10  22  40  57  90 114 151 207 244 278 360
#     4   9  19  38  58  87 123 149 202 250 279 357
#     4  10  18  37  57  88 122 151 190 245 300 354
#     4  11  21  38  65  85 116 164 195 245 308 345
#     4   9  20  39  58  88 121 155 203 249 287 354
#     4  10  20  36  62  87 114 153 194 243 298 353
#     4   9  20  35  61  84 123 155 189 243 311 344
#     4  10  22  40  58  85 123 160 195 247 302 356
#
# _framework density 22.321394000000002
#
# number of rings (size 3 to 8) (size 9 to 14) (size 15 to 20)
#    0.750    1.500    0.000    4.125    0.000    3.000 
#    9.000    0.000    0.000    0.000    0.000    0.000 
#    0.000    0.000    0.000    0.000    0.000    0.000 
#
# Total GULP energy -89074.036170 kJ/mol
# GULP energy per Si atom -5567.127261 kJ/mol
# Density = 2.227059 g / cm^3
# Si number density = 22.321394 Si / 1000 Ang^3
#
#
#
# Elastic Constant Matrix: (Units=GPa)
#
#
# Indices 1 2 3 4 5 6 
#
# 1 73.0458 17.1481 40.7564 11.7393 11.5075 21.9911
# 2 17.1481 51.2645 25.8797 17.3401 17.4940 18.4577
# 3 40.7564 25.8797 124.0692 30.9125 14.4402 31.0011
# 4 11.7393 17.3401 30.9125 31.0205 0.7244 5.3926
# 5 11.5075 17.4940 14.4402 0.7244 23.8551 13.6476
# 6 21.9911 18.4577 31.0011 5.3926 13.6476 35.9621
#
#
#
# Elastic Compliance Matrix: (Units=1/GPa)
#
#
# Indices 1 2 3 4 5 6 
#
# 1 0.018519 -0.000405 -0.003477 -0.002068 -0.002556 -0.006839
# 2 -0.000405 0.036012 0.002511 -0.020401 -0.021962 -0.009007
# 3 -0.003477 0.002511 0.014381 -0.012907 -0.003795 -0.008184
# 4 -0.002068 -0.020401 -0.012907 0.055507 0.017587 0.007864
# 5 -0.002556 -0.021962 -0.003795 0.017587 0.068101 -0.012375
# 6 -0.006839 -0.009007 -0.008184 0.007864 -0.012375 0.047183
#
#
# Mechanical properties :
#
#
# Convention : Reuss Voigt Hill
#
# Bulk Modulus (GPa) = 15.11282 46.21643 30.66463
# Shear Modulus (GPa) = 18.90321 29.14055 24.02188
#
# Velocity S-wave (km/s) = 2.91325 3.61709 3.28408
# Velocity P-wave (km/s) = 4.25456 6.18016 5.30545
#
# Compressibility (1/GPa) = 0.06616898
#
# Stress axis : x y z
#
# Youngs Moduli (GPa) = 53.99746 27.76822 69.53565
#
# Poissons Ratio (x) = 0.01125 0.24181
# Poissons Ratio (y) = 0.02188 -0.17458
# Poissons Ratio (z) = 0.18777 -0.06972
#
# Static dielectric constant tensor:
#      x y z
#    x 1.875330 0.011530 0.002860 
#    y 0.011530 1.914010 0.040350 
#    z 0.002860 0.040350 1.890540 
# 
# From -- ./inp_files/371482.got.cif
#   From: 2010.05.17/outbox.cif.g08.bks.cpg/sg2_186_cif.got.tgz:371482.got - 2010.06.03 11:33:40.
