data_PCOD9079536
_publ_section_title
;
Structure prediction by ZEFSAII (Michael W. Deem and Ramdas Pophale) SiO2 
 PCOD9079536
Probable space group: P -1
;
_chemical_formula_sum "Si O2"
_cell_formula_units_Z 16
_cell_length_a 14.624470
_cell_length_b 11.949329
_cell_length_c 12.980016
_cell_angle_alpha 121.508992
_cell_angle_beta 135.687306
_cell_angle_gamma 28.967449
_cell_volume 730.716705
_symmetry_space_group_name_H-M "P -1"
_symmetry_group_IT_number 2
_symmetry_cell_setting 'triclinic'
loop_
_space_group_symop_operation_xyz
x,y,z
-x,-y,-z
loop_
_atom_site_type_symbol
_atom_site_label
_atom_site_fract_x
_atom_site_fract_y
_atom_site_fract_z
Si Si1 0.925447 0.642325 0.313023
Si Si2 0.439375 0.839767 0.767362
Si Si3 0.727831 0.132974 0.568100
Si Si4 0.625887 0.544674 0.365886
Si Si5 0.023361 0.568231 0.951730
Si Si6 0.390946 0.961736 0.261117
Si Si7 0.831670 0.777953 0.574219
Si Si8 0.121155 0.932571 0.675530
O O1 0.982291 0.522837 0.194862
O O2 0.133691 0.576462 0.465803
O O3 0.964763 0.500993 0.366656
O O4 0.663104 0.930099 0.233704
O O5 0.406122 0.784855 0.608528
O O6 0.264032 0.942932 0.769050
O O7 0.710679 0.596158 0.906532
O O8 0.548334 0.309835 0.603643
O O9 0.871246 0.875784 0.587062
O O10 0.915868 0.090388 0.672319
O O11 0.514098 0.718360 0.263283
O O12 0.690707 0.343719 0.289784
O O13 0.800770 0.855563 0.895613
O O14 0.000000 0.500000 0.000000
O O15 0.594622 0.902979 0.400598
O O16 0.245721 0.104157 0.319332
O O17 0.000000 0.000000 0.500000
#
# Coordination Sequence:
#
# PCOD9079536 Si02
#       8
#     2   2   2   2   2   2   2   2
#     4  10  19  35  57  82 113 143 175 236 286 313
#     4  11  22  36  51  81 119 145 180 226 270 332
#     4  10  19  34  57  86 109 144 184 224 279 328
#     4  10  18  37  61  83 110 142 183 234 277 314
#     4  11  21  36  54  81 112 149 187 217 275 344
#     4   8  16  31  54  80 108 142 179 231 276 316
#     4   8  15  30  55  83 106 133 182 231 278 323
#     4  10  21  37  52  84 116 143 184 228 270 322
#
# _framework density 21.896312000000002
#
# number of rings (size 3 to 8) (size 9 to 14) (size 15 to 20)
#    0.000    2.250    2.500    4.125    0.000    2.500 
#    4.500    0.625    0.000    6.750    0.000    0.000 
#    0.000    0.000    0.000    0.000    0.000    0.000 
#
# Total GULP energy -89317.271134 kJ/mol
# GULP energy per Si atom -5582.329446 kJ/mol
# Density = 2.184648 g / cm^3
# Si number density = 21.896312 Si / 1000 Ang^3
#
#
#
# Elastic Constant Matrix: (Units=GPa)
#
#
# Indices 1 2 3 4 5 6 
#
# 1 83.7965 -13.8670 18.2226 -0.3794 -15.9628 -3.6312
# 2 -13.8670 40.7791 11.9192 -17.9591 -14.9737 8.1074
# 3 18.2226 11.9192 74.1493 -31.0900 -18.6748 13.3968
# 4 -0.3794 -17.9591 -31.0900 30.5829 4.5896 -15.0492
# 5 -15.9628 -14.9737 -18.6748 4.5896 25.3496 -4.1264
# 6 -3.6312 8.1074 13.3968 -15.0492 -4.1264 35.1218
#
#
#
# Elastic Compliance Matrix: (Units=1/GPa)
#
#
# Indices 1 2 3 4 5 6 
#
# 1 0.019528 0.019894 0.003124 0.013905 0.024661 0.005090
# 2 0.019894 0.073720 0.024227 0.063794 0.064107 0.010665
# 3 0.003124 0.024227 0.037968 0.050449 0.036109 0.006107
# 4 0.013905 0.063794 0.050449 0.126168 0.065518 0.029227
# 5 0.024661 0.064107 0.036109 0.065518 0.110021 0.014978
# 6 0.005090 0.010665 0.006107 0.029227 0.014978 0.038490
#
#
# Mechanical properties :
#
#
# Convention : Reuss Voigt Hill
#
# Bulk Modulus (GPa) = 4.43054 25.69718 15.06386
# Shear Modulus (GPa) = 12.93200 30.37420 21.65310
#
# Velocity S-wave (km/s) = 2.43287 3.72853 3.14808
# Velocity P-wave (km/s) = 3.14954 5.50429 4.48424
#
# Compressibility (1/GPa) = 0.22570612
#
# Stress axis : x y z
#
# Youngs Moduli (GPa) = 51.20953 13.56492 26.33824
#
# Poissons Ratio (x) = -0.26986 -0.08229
# Poissons Ratio (y) = -1.01876 -0.63811
# Poissons Ratio (z) = -0.16000 -0.32864
#
# Static dielectric constant tensor:
#      x y z
#    x 1.839880 -0.003390 0.006200 
#    y -0.003390 1.890370 -0.046930 
#    z 0.006200 -0.046930 1.802220 
# 
# From -- ./inp_files/455998.got.cif
#   From: 2010.05.17/outbox.cif.g08.bks.cpg/sg2_228_cif.got.tgz:455998.got - 2010.06.03 11:33:40.
