data_PCOD9079710
_publ_section_title
;
Structure prediction by ZEFSAII (Michael W. Deem and Ramdas Pophale) SiO2 
 PCOD9079710
Probable space group: P -1
;
_chemical_formula_sum "Si O2"
_cell_formula_units_Z 16
_cell_length_a 22.381871
_cell_length_b 7.850898
_cell_length_c 9.745470
_cell_angle_alpha 127.439017
_cell_angle_beta 152.834792
_cell_angle_gamma 45.795879
_cell_volume 560.063555
_symmetry_space_group_name_H-M "P -1"
_symmetry_group_IT_number 2
_symmetry_cell_setting 'triclinic'
loop_
_space_group_symop_operation_xyz
x,y,z
-x,-y,-z
loop_
_atom_site_type_symbol
_atom_site_label
_atom_site_fract_x
_atom_site_fract_y
_atom_site_fract_z
Si Si1 0.199900 0.295847 0.962217
Si Si2 0.183721 0.735479 0.272012
Si Si3 0.926707 0.260623 0.363532
Si Si4 0.295332 0.930446 0.219786
Si Si5 0.820110 0.413922 0.505375
Si Si6 0.193501 0.214432 0.518238
Si Si7 0.526074 0.413142 0.826534
Si Si8 0.549534 0.985088 0.860822
O O1 0.090204 0.199320 0.626348
O O2 0.135780 0.576038 0.995695
O O3 0.346352 0.202684 0.131010
O O4 0.234547 0.168928 0.120223
O O5 0.146900 0.689140 0.328307
O O6 0.361158 0.599308 0.559269
O O7 0.172114 0.845717 0.964275
O O8 0.909993 0.227469 0.478365
O O9 0.858647 0.551105 0.373561
O O10 0.401561 0.729462 0.233489
O O11 0.403438 0.953521 0.562376
O O12 0.136551 0.013584 0.296277
O O13 0.842248 0.647493 0.632175
O O14 0.650411 0.492503 0.163965
O O15 0.356622 0.070373 0.837954
O O16 0.527526 0.226076 0.854237
#
# Coordination Sequence:
#
# PCOD9079710 Si02
#       8
#     2   2   2   2   2   2   2   2
#     4  11  22  38  74  95 125 177 223 266 332 388
#     4  12  21  40  69  95 128 181 211 269 330 390
#     4   9  23  44  59  97 136 171 217 269 324 395
#     4  10  19  40  65  99 130 162 221 279 322 387
#     4   9  22  41  59  94 135 168 216 260 324 390
#     4  10  25  41  63  96 138 172 213 271 325 395
#     4  10  18  37  63  95 126 163 217 264 324 387
#     4  11  20  40  69  98 125 171 220 276 326 382
#
# _framework density 28.568186000000001
#
# number of rings (size 3 to 8) (size 9 to 14) (size 15 to 20)
#    0.750    1.000    3.750    1.500    0.000    2.500 
#    0.000    1.250    0.000    0.000    0.000    0.000 
#    0.000    0.000    0.000    0.000    0.000    0.000 
#
# Total GULP energy -89660.250641 kJ/mol
# GULP energy per Si atom -5603.765665 kJ/mol
# Density = 2.850316 g / cm^3
# Si number density = 28.568186 Si / 1000 Ang^3
#
#
#
# Elastic Constant Matrix: (Units=GPa)
#
#
# Indices 1 2 3 4 5 6 
#
# 1 109.1441 46.3068 46.8748 18.0503 8.4445 35.7792
# 2 46.3068 159.3966 23.8582 19.4820 12.0697 32.1344
# 3 46.8748 23.8582 147.3987 19.9022 51.7312 27.4167
# 4 18.0503 19.4820 19.9022 36.0793 4.5746 9.2996
# 5 8.4445 12.0697 51.7312 4.5746 46.9028 -1.6089
# 6 35.7792 32.1344 27.4167 9.2996 -1.6089 61.8633
#
#
#
# Elastic Compliance Matrix: (Units=1/GPa)
#
#
# Indices 1 2 3 4 5 6 
#
# 1 0.013371 -0.002277 -0.003366 -0.002669 0.001994 -0.004606
# 2 -0.002277 0.007913 0.001483 -0.002755 -0.003101 -0.003117
# 3 -0.003366 0.001483 0.014582 -0.003857 -0.015658 -0.005113
# 4 -0.002669 -0.002755 -0.003857 0.032412 0.002278 -0.000129
# 5 0.001994 -0.003101 -0.015658 0.002278 0.039084 0.008071
# 6 -0.004606 -0.003117 -0.005113 -0.000129 0.008071 0.022943
#
#
# Mechanical properties :
#
#
# Convention : Reuss Voigt Hill
#
# Bulk Modulus (GPa) = 36.30258 72.22435 54.26347
# Shear Modulus (GPa) = 33.82791 48.89572 41.36182
#
# Velocity S-wave (km/s) = 3.44483 4.14157 3.80916
# Velocity P-wave (km/s) = 5.34391 6.94308 6.19531
#
# Compressibility (1/GPa) = 0.02754625
#
# Stress axis : x y z
#
# Youngs Moduli (GPa) = 74.78979 126.37262 68.57732
#
# Poissons Ratio (x) = 0.28773 0.23085
# Poissons Ratio (y) = 0.17028 -0.10172
# Poissons Ratio (z) = 0.25177 -0.18745
#
# Static dielectric constant tensor:
#      x y z
#    x 2.212240 -0.024580 -0.034600 
#    y -0.024580 2.264090 -0.022430 
#    z -0.034600 -0.022430 2.160900 
# 
# From -- ./inp_files/353643.got.cif
#   From: 2010.05.17/outbox.cif.g08.bks.cpg/sg2_177_cif.got.tgz:353643.got - 2010.06.03 11:33:40.
