data_PCOD9079106
_publ_section_title
;
Structure prediction by ZEFSAII (Michael W. Deem and Ramdas Pophale) SiO2 
 PCOD9079106
Probable space group: P -1
;
_chemical_formula_sum "Si O2"
_cell_formula_units_Z 14
_cell_length_a 10.322459
_cell_length_b 9.142297
_cell_length_c 6.971619
_cell_angle_alpha 104.949342
_cell_angle_beta 113.816519
_cell_angle_gamma 79.274913
_cell_volume 579.017369
_symmetry_space_group_name_H-M "P -1"
_symmetry_group_IT_number 2
_symmetry_cell_setting 'triclinic'
loop_
_space_group_symop_operation_xyz
x,y,z
-x,-y,-z
loop_
_atom_site_type_symbol
_atom_site_label
_atom_site_fract_x
_atom_site_fract_y
_atom_site_fract_z
Si Si1 0.658823 0.434001 0.623174
Si Si2 0.365504 0.294120 0.088542
Si Si3 0.938005 0.746479 0.102203
Si Si4 0.199174 0.896188 0.450575
Si Si5 0.625185 0.113813 0.071004
Si Si6 0.929494 0.538246 0.675157
Si Si7 0.354277 0.064647 0.337681
O O1 0.500000 0.500000 0.500000
O O2 0.684977 0.528807 0.862825
O O3 0.702206 0.256281 0.613720
O O4 0.766030 0.498683 0.555801
O O5 0.517142 0.266433 0.066976
O O6 0.380529 0.213918 0.282860
O O7 0.224488 0.219938 0.912230
O O8 0.041496 0.868895 0.277499
O O9 0.000026 0.595275 0.194459
O O10 0.938296 0.694991 0.857859
O O11 0.251591 0.889688 0.699769
O O12 0.241509 0.051879 0.433698
O O13 0.685561 0.057808 0.886070
O O14 0.500000 0.000000 0.000000
O O15 0.000000 0.500000 0.500000
O O16 0.500000 0.000000 0.500000
#
# Coordination Sequence:
#
# PCOD9079106 Si02
#       7
#     2   2   2   2   2   2   2
#     4  10  18  36  62  90 121 153 196 259 296 344
#     4  10  20  40  61  86 123 159 197 248 303 359
#     4   9  21  38  57  88 127 158 194 254 304 351
#     4  11  21  38  63  85 123 156 199 246 310 353
#     4  10  20  38  60  83 115 158 199 245 304 355
#     4   9  19  38  61  84 129 172 194 237 317 371
#     4  11  21  39  63  83 116 162 203 245 308 361
#
# _framework density 24.178894
#
# number of rings (size 3 to 8) (size 9 to 14) (size 15 to 20)
#    0.000    2.000    4.286    0.857    0.000    2.857 
#    7.714    3.571    0.000    0.000    0.000    0.000 
#    0.000    0.000    0.000    0.000    0.000    0.000 
#
# Total GULP energy -77959.616478 kJ/mol
# GULP energy per Si atom -5568.544034 kJ/mol
# Density = 2.412386 g / cm^3
# Si number density = 24.178894 Si / 1000 Ang^3
#
#
#
# Elastic Constant Matrix: (Units=GPa)
#
#
# Indices 1 2 3 4 5 6 
#
# 1 101.0798 -8.7459 43.3446 -6.2842 23.3567 -7.1017
# 2 -8.7459 53.4300 10.5467 10.5304 -1.9804 -10.2803
# 3 43.3446 10.5467 122.4199 13.0633 7.0910 5.0300
# 4 -6.2842 10.5304 13.0633 27.3289 -8.3957 4.1902
# 5 23.3567 -1.9804 7.0910 -8.3957 53.7575 4.9354
# 6 -7.1017 -10.2803 5.0300 4.1902 4.9354 28.9153
#
#
#
# Elastic Compliance Matrix: (Units=1/GPa)
#
#
# Indices 1 2 3 4 5 6 
#
# 1 0.014621 0.004310 -0.005659 0.001559 -0.005835 0.006878
# 2 0.004310 0.024126 -0.002870 -0.009787 -0.003245 0.012108
# 3 -0.005659 -0.002870 0.011051 -0.004754 0.000495 -0.003728
# 4 0.001559 -0.009787 -0.004754 0.047016 0.007890 -0.010429
# 5 -0.005835 -0.003245 0.000495 0.007890 0.022894 -0.007724
# 6 0.006878 0.012108 -0.003728 -0.010429 -0.007724 0.044056
#
#
# Mechanical properties :
#
#
# Convention : Reuss Voigt Hill
#
# Bulk Modulus (GPa) = 24.17699 40.80225 32.48962
# Shear Modulus (GPa) = 26.88314 37.45263 32.16789
#
# Velocity S-wave (km/s) = 3.33805 3.93998 3.65144
# Velocity P-wave (km/s) = 4.98775 6.13267 5.58961
#
# Compressibility (1/GPa) = 0.04136164
#
# Stress axis : x y z
#
# Youngs Moduli (GPa) = 68.39254 41.44859 90.48598
#
# Poissons Ratio (x) = -0.17865 0.51208
# Poissons Ratio (y) = -0.29479 0.25967
# Poissons Ratio (z) = 0.38705 0.11895
#
# Static dielectric constant tensor:
#      x y z
#    x 2.065070 -0.051840 0.027980 
#    y -0.051840 2.038270 0.103970 
#    z 0.027980 0.103970 2.040280 
# 
# From -- ./inp_files/67723.got.cif
#   From: 2010.05.17/outbox.cif.g08.bks.cpg/sg2_34_cif.got.tgz:67723.got - 2010.06.03 11:33:40.
