data_PCOD9079478
_publ_section_title
;
Structure prediction by ZEFSAII (Michael W. Deem and Ramdas Pophale) SiO2 
 PCOD9079478
Probable space group: P -1
;
_chemical_formula_sum "Si O2"
_cell_formula_units_Z 16
_cell_length_a 16.905610
_cell_length_b 22.861820
_cell_length_c 10.599297
_cell_angle_alpha 147.120056
_cell_angle_beta 145.998651
_cell_angle_gamma 21.069681
_cell_volume 777.618704
_symmetry_space_group_name_H-M "P -1"
_symmetry_group_IT_number 2
_symmetry_cell_setting 'triclinic'
loop_
_space_group_symop_operation_xyz
x,y,z
-x,-y,-z
loop_
_atom_site_type_symbol
_atom_site_label
_atom_site_fract_x
_atom_site_fract_y
_atom_site_fract_z
Si Si1 0.934340 0.553933 0.867170
Si Si2 0.357711 0.573605 0.312034
Si Si3 0.913075 0.970277 0.517352
Si Si4 0.393348 0.078681 0.360416
Si Si5 0.339621 0.331469 0.813471
Si Si6 0.325510 0.084604 0.808135
Si Si7 0.519763 0.292482 0.405084
Si Si8 0.262771 0.935972 0.966575
O O1 0.705881 0.619629 0.669386
O O2 0.146732 0.407978 0.795235
O O3 0.000000 0.500000 0.000000
O O4 0.873406 0.714747 0.061643
O O5 0.500000 0.500000 0.500000
O O6 0.483612 0.577430 0.386142
O O7 0.112942 0.775917 0.373548
O O8 0.328722 0.467570 0.034770
O O9 0.044244 0.992510 0.789429
O O10 0.768152 0.980143 0.433850
O O11 0.739169 0.121089 0.459522
O O12 0.314884 0.247098 0.529381
O O13 0.569246 0.947175 0.244240
O O14 0.500000 0.000000 0.500000
O O15 0.213213 0.088520 0.139403
O O16 0.591637 0.161673 0.891858
O O17 0.500000 0.000000 0.000000
O O18 0.567408 0.214019 0.187095
#
# Coordination Sequence:
#
# PCOD9079478 Si02
#       8
#     2   2   2   2   2   2   2   2
#     4  12  20  36  62  94 123 160 218 272 311 368
#     4  11  19  35  59  94 126 160 212 271 320 370
#     4  11  22  35  62  90 125 166 218 261 314 383
#     4  10  22  42  62  93 134 171 209 262 331 390
#     4  11  21  36  60  92 126 159 208 270 325 365
#     4  12  23  41  67  94 128 168 225 261 310 398
#     4  11  21  35  60  91 125 165 216 262 317 382
#     4  10  18  37  59  88 125 166 208 257 319 383
#
# _framework density 20.575635999999999
#
# number of rings (size 3 to 8) (size 9 to 14) (size 15 to 20)
#    0.000    1.000    7.500    2.250    0.000    0.000 
#    0.000    4.375    0.000    1.500    0.000    0.000 
#    0.000    0.000    0.000    0.000    0.000    0.000 
#
# Total GULP energy -89148.833271 kJ/mol
# GULP energy per Si atom -5571.802079 kJ/mol
# Density = 2.052881 g / cm^3
# Si number density = 20.575636 Si / 1000 Ang^3
#
#
#
# Elastic Constant Matrix: (Units=GPa)
#
#
# Indices 1 2 3 4 5 6 
#
# 1 67.1896 5.1702 29.6146 -9.4388 31.6234 -1.4168
# 2 5.1702 76.0825 25.5304 -6.1538 14.5095 7.9520
# 3 29.6146 25.5304 125.0625 10.5053 57.4112 -0.4157
# 4 -9.4388 -6.1538 10.5053 28.8973 0.8976 11.9341
# 5 31.6234 14.5095 57.4112 0.8976 47.6500 5.6253
# 6 -1.4168 7.9520 -0.4157 11.9341 5.6253 23.4437
#
#
#
# Elastic Compliance Matrix: (Units=1/GPa)
#
#
# Indices 1 2 3 4 5 6 
#
# 1 0.024027 0.001663 0.002493 0.007042 -0.019837 0.002107
# 2 0.001663 0.016631 -0.005433 0.010753 0.001530 -0.011478
# 3 0.002493 -0.005433 0.023898 -0.015333 -0.030578 0.017559
# 4 0.007042 0.010753 -0.015333 0.059701 0.013792 -0.037194
# 5 -0.019837 0.001530 -0.030578 0.013792 0.073443 -0.026904
# 6 0.002107 -0.011478 0.017559 -0.037194 -0.026904 0.072377
#
#
# Mechanical properties :
#
#
# Convention : Reuss Voigt Hill
#
# Bulk Modulus (GPa) = 16.12842 43.21832 29.67337
# Shear Modulus (GPa) = 17.04747 33.86616 25.45681
#
# Velocity S-wave (km/s) = 2.88154 4.06141 3.52125
# Velocity P-wave (km/s) = 4.35047 6.56077 5.56643
#
# Compressibility (1/GPa) = 0.06200236
#
# Stress axis : x y z
#
# Youngs Moduli (GPa) = 41.62054 60.12812 41.84423
#
# Poissons Ratio (x) = -0.10000 -0.10431
# Poissons Ratio (y) = -0.06922 0.22733
# Poissons Ratio (z) = -0.10375 0.32666
#
# Static dielectric constant tensor:
#      x y z
#    x 1.708700 0.006130 0.066560 
#    y 0.006130 1.733980 0.004990 
#    z 0.066560 0.004990 1.777770 
# 
# From -- ./inp_files/435566.got.cif
#   From: 2010.05.17/outbox.cif.g08.bks.cpg/sg2_218_cif.got.tgz:435566.got - 2010.06.03 11:33:40.
