data_PCOD9079534
_publ_section_title
;
Structure prediction by ZEFSAII (Michael W. Deem and Ramdas Pophale) SiO2 
 PCOD9079534
Probable space group: P -1
;
_chemical_formula_sum "Si O2"
_cell_formula_units_Z 14
_cell_length_a 12.410290
_cell_length_b 12.719310
_cell_length_c 7.371877
_cell_angle_alpha 67.931200
_cell_angle_beta 129.148504
_cell_angle_gamma 140.552893
_cell_volume 558.416290
_symmetry_space_group_name_H-M "P -1"
_symmetry_group_IT_number 2
_symmetry_cell_setting 'triclinic'
loop_
_space_group_symop_operation_xyz
x,y,z
-x,-y,-z
loop_
_atom_site_type_symbol
_atom_site_label
_atom_site_fract_x
_atom_site_fract_y
_atom_site_fract_z
Si Si1 0.236290 0.159853 0.591985
Si Si2 0.247743 0.649470 0.174079
Si Si3 0.722770 0.097447 0.829839
Si Si4 0.711042 0.568498 0.111318
Si Si5 0.413526 0.741013 0.889293
Si Si6 0.093096 0.948586 0.248120
Si Si7 0.194154 0.372582 0.259007
O O1 0.381518 0.206269 0.874474
O O2 0.277412 0.312601 0.481708
O O3 0.250890 0.092258 0.471300
O O4 0.000000 0.000000 0.500000
O O5 0.311397 0.788743 0.284005
O O6 0.315870 0.712731 0.997818
O O7 0.294214 0.546916 0.333092
O O8 0.000000 0.500000 0.000000
O O9 0.789581 0.068207 0.744277
O O10 0.939716 0.216605 0.100820
O O11 0.512699 0.912477 0.798136
O O12 0.904897 0.762384 0.258908
O O13 0.500000 0.500000 0.000000
O O14 0.717973 0.435975 0.241082
O O15 0.746911 0.594923 0.913000
O O16 0.000000 0.000000 0.000000
#
# Coordination Sequence:
#
# PCOD9079534 Si02
#       7
#     2   2   2   2   2   2   2
#     4  12  21  36  60  92 126 149 187 248 306 355
#     4   9  20  37  58  85 114 157 202 246 279 347
#     4  10  18  37  61  82 113 157 204 240 281 353
#     4  10  19  32  52  84 119 148 194 233 283 353
#     4  11  22  34  60  94 115 152 201 243 300 343
#     4  11  20  37  58  83 120 160 192 238 299 349
#     4   9  19  34  56  85 118 152 192 237 299 337
#
# _framework density 25.070903000000001
#
# number of rings (size 3 to 8) (size 9 to 14) (size 15 to 20)
#    0.000    1.714    4.286    3.000    0.000    2.286 
#    0.000    0.714    0.000    0.857    3.714    0.000 
#    0.000    0.000    0.000    0.000    0.000    0.000 
#
# Total GULP energy -78332.134886 kJ/mol
# GULP energy per Si atom -5595.152492 kJ/mol
# Density = 2.501384 g / cm^3
# Si number density = 25.070903 Si / 1000 Ang^3
#
#
#
# Elastic Constant Matrix: (Units=GPa)
#
#
# Indices 1 2 3 4 5 6 
#
# 1 138.1014 65.5962 -6.4078 -6.3957 -7.4102 -22.6349
# 2 65.5962 211.5555 20.8816 -7.8550 -0.3626 -29.9123
# 3 -6.4078 20.8816 38.0017 10.3004 -2.1222 -19.5316
# 4 -6.3957 -7.8550 10.3004 24.6864 1.3575 9.7020
# 5 -7.4102 -0.3626 -2.1222 1.3575 24.4609 4.7783
# 6 -22.6349 -29.9123 -19.5316 9.7020 4.7783 73.5168
#
#
#
# Elastic Compliance Matrix: (Units=1/GPa)
#
#
# Indices 1 2 3 4 5 6 
#
# 1 0.009620 -0.003178 0.005946 -0.002490 0.002859 0.003391
# 2 -0.003178 0.006323 -0.005082 0.003435 -0.001478 -0.000113
# 3 0.005946 -0.005082 0.044486 -0.024586 0.004106 0.014560
# 4 -0.002490 0.003435 -0.024586 0.056568 -0.003408 -0.013145
# 5 0.002859 -0.001478 0.004106 -0.003408 0.042455 -0.000940
# 6 0.003391 -0.000113 0.014560 -0.013145 -0.000940 0.020264
#
#
# Mechanical properties :
#
#
# Convention : Reuss Voigt Hill
#
# Bulk Modulus (GPa) = 17.92057 60.86651 39.39354
# Shear Modulus (GPa) = 24.63726 45.03872 34.83799
#
# Velocity S-wave (km/s) = 3.13821 4.24306 3.73175
# Velocity P-wave (km/s) = 4.50496 6.95235 5.85789
#
# Compressibility (1/GPa) = 0.05580181
#
# Stress axis : x y z
#
# Youngs Moduli (GPa) = 103.94646 158.15663 22.47890
#
# Poissons Ratio (x) = 0.50260 -0.13366
# Poissons Ratio (y) = 0.33033 0.11424
# Poissons Ratio (z) = -0.61806 0.80373
#
# Static dielectric constant tensor:
#      x y z
#    x 2.051530 -0.022200 -0.029630 
#    y -0.022200 2.047740 0.020090 
#    z -0.029630 0.020090 1.980330 
# 
# From -- ./inp_files/169906.got.cif
#   From: 2010.05.17/outbox.cif.g08.bks.cpg/sg2_85_cif.got.tgz:169906.got - 2010.06.03 11:33:40.
