data_PCOD9079329
_publ_section_title
;
Structure prediction by ZEFSAII (Michael W. Deem and Ramdas Pophale) SiO2 
 PCOD9079329
Probable space group: P -1
;
_chemical_formula_sum "Si O2"
_cell_formula_units_Z 16
_cell_length_a 9.380772
_cell_length_b 9.334951
_cell_length_c 17.751990
_cell_angle_alpha 81.954497
_cell_angle_beta 139.733205
_cell_angle_gamma 119.825568
_cell_volume 788.130357
_symmetry_space_group_name_H-M "P -1"
_symmetry_group_IT_number 2
_symmetry_cell_setting 'triclinic'
loop_
_space_group_symop_operation_xyz
x,y,z
-x,-y,-z
loop_
_atom_site_type_symbol
_atom_site_label
_atom_site_fract_x
_atom_site_fract_y
_atom_site_fract_z
Si Si1 0.990543 0.966275 0.910676
Si Si2 0.263981 0.370590 0.975924
Si Si3 0.261370 0.810280 0.956701
Si Si4 0.137627 0.557751 0.258836
Si Si5 0.337527 0.144731 0.629253
Si Si6 0.479545 0.065403 0.358232
Si Si7 0.455681 0.331808 0.824130
Si Si8 0.117363 0.751368 0.362772
O O1 0.699693 0.883864 0.758276
O O2 0.189912 0.175355 0.946711
O O3 0.102756 0.854687 0.944918
O O4 0.000000 0.000000 0.000000
O O5 0.000873 0.368187 0.852624
O O6 0.500000 0.500000 0.000000
O O7 0.366772 0.455462 0.094742
O O8 0.410088 0.740117 0.066020
O O9 0.032491 0.650722 0.819724
O O10 0.500000 0.000000 0.000000
O O11 0.469929 0.693362 0.367168
O O12 0.066172 0.579262 0.312802
O O13 0.434321 0.260544 0.736846
O O14 0.429997 0.016059 0.661429
O O15 0.000000 0.000000 0.500000
O O16 0.739960 0.219172 0.501743
O O17 0.302029 0.912255 0.363613
O O18 0.148182 0.255441 0.730115
#
# Coordination Sequence:
#
# PCOD9079329 Si02
#       8
#     2   2   2   2   2   2   2   2
#     4  12  24  40  62  92 136 168 202 261 336 395
#     4  11  20  38  66  91 121 167 224 262 305 385
#     4  11  25  39  61  93 133 163 202 264 327 386
#     4  10  22  39  64  92 126 159 220 266 309 371
#     4  11  21  37  61  95 121 152 209 275 309 358
#     4  10  20  38  61  91 120 166 213 260 317 367
#     4  11  22  35  66  92 121 160 214 262 319 367
#     4  10  18  36  67  89 117 161 221 268 294 373
#
# _framework density 20.301210999999999
#
# number of rings (size 3 to 8) (size 9 to 14) (size 15 to 20)
#    0.000    1.250    5.000    3.000    1.750    1.000 
#    0.000    0.625    0.000    1.500    0.000    0.000 
#    0.000    0.000    0.000    0.000    0.000    0.000 
#
# Total GULP energy -89210.951561 kJ/mol
# GULP energy per Si atom -5575.684473 kJ/mol
# Density = 2.025500 g / cm^3
# Si number density = 20.301211 Si / 1000 Ang^3
#
#
#
# Elastic Constant Matrix: (Units=GPa)
#
#
# Indices 1 2 3 4 5 6 
#
# 1 140.1167 22.9744 55.4237 7.0035 -3.5464 -33.7198
# 2 22.9744 49.1327 21.2872 13.3233 6.1958 -16.6983
# 3 55.4237 21.2872 129.8422 6.6603 -3.9819 -18.2861
# 4 7.0035 13.3233 6.6603 24.9835 -6.1437 -7.1406
# 5 -3.5464 6.1958 -3.9819 -6.1437 45.1200 11.6826
# 6 -33.7198 -16.6983 -18.2861 -7.1406 11.6826 31.6735
#
#
#
# Elastic Compliance Matrix: (Units=1/GPa)
#
#
# Indices 1 2 3 4 5 6 
#
# 1 0.010898 0.000143 -0.003254 0.000247 -0.002176 0.010657
# 2 0.000143 0.032328 -0.002638 -0.014566 -0.010892 0.016407
# 3 -0.003254 -0.002638 0.009600 0.000083 0.000865 0.000388
# 4 0.000247 -0.014566 0.000083 0.050037 0.008654 0.000720
# 5 -0.002176 -0.010892 0.000865 0.008654 0.028960 -0.016291
# 6 0.010657 0.016407 0.000388 0.000720 -0.016291 0.057962
#
#
# Mechanical properties :
#
#
# Convention : Reuss Voigt Hill
#
# Bulk Modulus (GPa) = 24.19546 57.60691 40.90118
# Shear Modulus (GPa) = 23.24953 34.98251 29.11602
#
# Velocity S-wave (km/s) = 3.38779 4.15562 3.79119
# Velocity P-wave (km/s) = 5.21986 7.17379 6.27336
#
# Compressibility (1/GPa) = 0.04133007
#
# Stress axis : x y z
#
# Youngs Moduli (GPa) = 91.76232 30.93258 104.16892
#
# Poissons Ratio (x) = -0.00443 0.33894
# Poissons Ratio (y) = -0.01316 0.27475
# Poissons Ratio (z) = 0.29857 0.08158
#
# Static dielectric constant tensor:
#      x y z
#    x 1.752870 0.027750 0.000140 
#    y 0.027750 1.760570 0.061530 
#    z 0.000140 0.061530 1.771060 
# 
# From -- ./inp_files/379969.got.cif
#   From: 2010.05.17/outbox.cif.g08.bks.cpg/sg2_190_cif.got.tgz:379969.got - 2010.06.03 11:33:40.
