data_PCOD9079793
_publ_section_title
;
Structure prediction by ZEFSAII (Michael W. Deem and Ramdas Pophale) SiO2 
 PCOD9079793
Probable space group: P -1
;
_chemical_formula_sum "Si O2"
_cell_formula_units_Z 16
_cell_length_a 17.311625
_cell_length_b 10.886068
_cell_length_c 9.508121
_cell_angle_alpha 56.970226
_cell_angle_beta 134.289143
_cell_angle_gamma 153.236866
_cell_volume 560.238809
_symmetry_space_group_name_H-M "P -1"
_symmetry_group_IT_number 2
_symmetry_cell_setting 'triclinic'
loop_
_space_group_symop_operation_xyz
x,y,z
-x,-y,-z
loop_
_atom_site_type_symbol
_atom_site_label
_atom_site_fract_x
_atom_site_fract_y
_atom_site_fract_z
Si Si1 0.478346 0.804323 0.726610
Si Si2 0.364517 0.220039 0.298140
Si Si3 0.657623 0.796207 0.182057
Si Si4 0.894438 0.826450 0.330121
Si Si5 0.909531 0.777084 0.890674
Si Si6 0.235286 0.924534 0.580749
Si Si7 0.813407 0.384031 0.886488
Si Si8 0.192240 0.571580 0.829275
O O1 0.578954 0.844049 0.695745
O O2 0.237449 0.476296 0.631382
O O3 0.602702 0.099698 0.716700
O O4 0.553833 0.809812 0.961095
O O5 0.516025 0.525379 0.261712
O O6 0.384319 0.187861 0.502420
O O7 0.132623 0.003340 0.102573
O O8 0.732495 0.776871 0.160193
O O9 0.791938 0.029022 0.331357
O O10 0.000000 0.000000 0.500000
O O11 0.044024 0.021021 0.264116
O O12 0.860610 0.610999 0.801978
O O13 0.764673 0.544338 0.980842
O O14 0.318532 0.851411 0.742063
O O15 0.018539 0.670974 0.377467
O O16 0.828378 0.378816 0.075563
O O17 0.000000 0.500000 0.000000
#
# Coordination Sequence:
#
# PCOD9079793 Si02
#       8
#     2   2   2   2   2   2   2   2
#     4  11  18  33  55  82 102 135 171 214 264 316
#     4  10  17  28  47  78 111 130 159 210 264 303
#     4  11  18  31  53  78 103 134 173 212 260 311
#     4  11  22  35  52  76 106 138 178 220 254 299
#     4   9  16  30  48  71 101 135 161 201 266 295
#     4  10  17  28  44  82 113 127 162 215 261 306
#     4  10  15  27  51  78 101 130 166 208 257 312
#     4   8  18  26  44  74 111 133 158 205 264 312
#
# _framework density 28.559246999999999
#
# number of rings (size 3 to 8) (size 9 to 14) (size 15 to 20)
#    0.750    1.250    5.000    1.125    0.000    0.000 
#    0.000    0.625    0.000    3.000    0.000    4.375 
#    0.000    0.000    0.000    0.000    0.000    0.000 
#
# Total GULP energy -89285.877602 kJ/mol
# GULP energy per Si atom -5580.367350 kJ/mol
# Density = 2.849425 g / cm^3
# Si number density = 28.559247 Si / 1000 Ang^3
#
#
#
# Elastic Constant Matrix: (Units=GPa)
#
#
# Indices 1 2 3 4 5 6 
#
# 1 92.4876 30.2308 30.2295 2.4565 -24.1071 3.1375
# 2 30.2308 118.0575 18.8701 -5.3381 -10.8982 -26.8750
# 3 30.2295 18.8701 139.5536 9.9803 -23.8213 -3.9519
# 4 2.4565 -5.3381 9.9803 61.8632 -8.1422 -17.4760
# 5 -24.1071 -10.8982 -23.8213 -8.1422 34.5928 1.2684
# 6 3.1375 -26.8750 -3.9519 -17.4760 1.2684 42.3232
#
#
#
# Elastic Compliance Matrix: (Units=1/GPa)
#
#
# Indices 1 2 3 4 5 6 
#
# 1 0.014790 -0.003820 -0.001361 -0.000823 0.008127 -0.004233
# 2 -0.003820 0.012029 -0.000596 0.004159 0.001345 0.009542
# 3 -0.001361 -0.000596 0.008354 -0.000743 0.004439 0.000062
# 4 -0.000823 0.004159 -0.000743 0.020364 0.004618 0.010902
# 5 0.008127 0.001345 0.004439 0.004618 0.039088 0.001402
# 6 -0.004233 0.009542 0.000062 0.010902 0.001402 0.034466
#
#
# Mechanical properties :
#
#
# Convention : Reuss Voigt Hill
#
# Bulk Modulus (GPa) = 42.34228 56.52883 49.43555
# Shear Modulus (GPa) = 33.66613 45.80708 39.73661
#
# Velocity S-wave (km/s) = 3.43712 4.00926 3.73416
# Velocity P-wave (km/s) = 5.53263 6.42407 5.99494
#
# Compressibility (1/GPa) = 0.02361706
#
# Stress axis : x y z
#
# Youngs Moduli (GPa) = 67.61510 83.13569 119.70621
#
# Poissons Ratio (x) = 0.31760 0.16289
# Poissons Ratio (y) = 0.25830 0.07140
# Poissons Ratio (z) = 0.09201 0.04959
#
# Static dielectric constant tensor:
#      x y z
#    x 2.543720 0.050720 0.331390 
#    y 0.050720 2.322670 0.082420 
#    z 0.331390 0.082420 2.421140 
# 
# From -- ./inp_files/354544.got.cif
#   From: 2010.05.17/outbox.cif.g08.bks.cpg/sg2_178_cif.got.tgz:354544.got - 2010.06.03 11:33:40.
