data_PCOD9079908
_publ_section_title
;
Structure prediction by ZEFSAII (Michael W. Deem and Ramdas Pophale) SiO2 
 PCOD9079908
Probable space group: P -1
;
_chemical_formula_sum "Si O2"
_cell_formula_units_Z 16
_cell_length_a 8.256798
_cell_length_b 12.084228
_cell_length_c 10.176992
_cell_angle_alpha 118.149090
_cell_angle_beta 52.151395
_cell_angle_gamma 122.335229
_cell_volume 661.609151
_symmetry_space_group_name_H-M "P -1"
_symmetry_group_IT_number 2
_symmetry_cell_setting 'triclinic'
loop_
_space_group_symop_operation_xyz
x,y,z
-x,-y,-z
loop_
_atom_site_type_symbol
_atom_site_label
_atom_site_fract_x
_atom_site_fract_y
_atom_site_fract_z
Si Si1 0.167365 0.420416 0.863062
Si Si2 0.437793 0.801813 0.390115
Si Si3 0.133501 0.075821 0.351354
Si Si4 0.971549 0.731073 0.900543
Si Si5 0.459389 0.752000 0.645802
Si Si6 0.233715 0.377312 0.508035
Si Si7 0.841536 0.031433 0.247340
Si Si8 0.666884 0.497448 0.735809
O O1 0.152795 0.385066 0.697698
O O2 0.418834 0.492909 0.828993
O O3 0.090845 0.295379 0.931586
O O4 0.000000 0.500000 0.000000
O O5 0.533452 0.781147 0.474044
O O6 0.277267 0.880188 0.559179
O O7 0.337821 0.649825 0.301649
O O8 0.631425 0.896570 0.255174
O O9 0.393031 0.116965 0.272876
O O10 0.117015 0.223434 0.435138
O O11 0.021150 0.005845 0.236594
O O12 0.000000 0.000000 0.500000
O O13 0.793528 0.615562 0.838703
O O14 0.205229 0.713751 0.762242
O O15 0.030868 0.875445 0.883430
O O16 0.522467 0.628835 0.597032
O O17 0.219901 0.469004 0.445784
#
# Coordination Sequence:
#
# PCOD9079908 Si02
#       8
#     2   2   2   2   2   2   2   2
#     4  12  27  42  62  95 143 176 213 273 343 388
#     4  10  21  35  63  95 132 158 225 270 326 376
#     4  10  18  37  70  98 128 165 225 278 320 381
#     4  11  24  42  66  98 136 174 215 273 339 394
#     4   9  19  37  64  95 127 167 217 271 321 382
#     4  10  22  41  67  98 126 171 225 272 324 389
#     4  10  20  38  61 101 124 170 209 280 324 392
#     4  12  23  44  68  98 128 177 228 275 321 397
#
# _framework density 24.183461999999999
#
# number of rings (size 3 to 8) (size 9 to 14) (size 15 to 20)
#    0.750    0.750    3.750    1.500    3.500    3.000 
#    0.000    0.625    0.000    0.750    0.000    0.000 
#    0.000    0.000    0.000    0.000    0.000    0.000 
#
# Total GULP energy -89355.425717 kJ/mol
# GULP energy per Si atom -5584.714107 kJ/mol
# Density = 2.412842 g / cm^3
# Si number density = 24.183462 Si / 1000 Ang^3
#
#
#
# Elastic Constant Matrix: (Units=GPa)
#
#
# Indices 1 2 3 4 5 6 
#
# 1 83.0505 43.7574 26.8915 -4.1500 1.7795 7.8673
# 2 43.7574 165.4957 41.3917 -17.7609 9.5375 0.2097
# 3 26.8915 41.3917 83.3529 -19.7197 11.9279 3.7389
# 4 -4.1500 -17.7609 -19.7197 44.3450 -14.1396 6.2392
# 5 1.7795 9.5375 11.9279 -14.1396 38.9224 -9.0847
# 6 7.8673 0.2097 3.7389 6.2392 -9.0847 32.7363
#
#
#
# Elastic Compliance Matrix: (Units=1/GPa)
#
#
# Indices 1 2 3 4 5 6 
#
# 1 0.015074 -0.003249 -0.003346 -0.000925 0.000092 -0.003018
# 2 -0.003249 0.007679 -0.002390 0.001525 -0.000300 0.000631
# 3 -0.003346 -0.002390 0.016073 0.005350 -0.002907 -0.002843
# 4 -0.000925 0.001525 0.005350 0.028357 0.007459 -0.003733
# 5 0.000092 -0.000300 -0.002907 0.007459 0.031119 0.007526
# 6 -0.003018 0.000631 -0.002843 -0.003733 0.007526 0.034393
#
#
# Mechanical properties :
#
#
# Convention : Reuss Voigt Hill
#
# Bulk Modulus (GPa) = 47.94972 61.77559 54.86266
# Shear Modulus (GPa) = 31.72224 37.85797 34.79010
#
# Velocity S-wave (km/s) = 3.62571 3.96087 3.79699
# Velocity P-wave (km/s) = 6.11541 6.82041 6.47751
#
# Compressibility (1/GPa) = 0.02085518
#
# Stress axis : x y z
#
# Youngs Moduli (GPa) = 66.33886 130.21808 62.21718
#
# Poissons Ratio (x) = 0.42314 0.20819
# Poissons Ratio (y) = 0.21556 0.14869
# Poissons Ratio (z) = 0.22199 0.31120
#
# Static dielectric constant tensor:
#      x y z
#    x 1.970500 0.033170 -0.036820 
#    y 0.033170 2.039450 0.051770 
#    z -0.036820 0.051770 1.975810 
# 
# From -- ./inp_files/392811.got.cif
#   From: 2010.05.17/outbox.cif.g08.bks.cpg/sg2_197_cif.got.tgz:392811.got - 2010.06.03 11:33:40.
