data_PCOD9079872
_publ_section_title
;
Structure prediction by ZEFSAII (Michael W. Deem and Ramdas Pophale) SiO2 
 PCOD9079872
Probable space group: P -1
;
_chemical_formula_sum "Si O2"
_cell_formula_units_Z 16
_cell_length_a 24.991126
_cell_length_b 7.196284
_cell_length_c 6.485507
_cell_angle_alpha 96.873714
_cell_angle_beta 127.667303
_cell_angle_gamma 52.136374
_cell_volume 665.252514
_symmetry_space_group_name_H-M "P -1"
_symmetry_group_IT_number 2
_symmetry_cell_setting 'triclinic'
loop_
_space_group_symop_operation_xyz
x,y,z
-x,-y,-z
loop_
_atom_site_type_symbol
_atom_site_label
_atom_site_fract_x
_atom_site_fract_y
_atom_site_fract_z
Si Si1 0.917695 0.403382 0.800177
Si Si2 0.113622 0.940663 0.102260
Si Si3 0.611760 0.322130 0.692715
Si Si4 0.382307 0.132225 0.796554
Si Si5 0.164274 0.642376 0.788046
Si Si6 0.280983 0.673573 0.749978
Si Si7 0.455497 0.194235 0.605652
Si Si8 0.237737 0.221535 0.251226
O O1 0.903345 0.230130 0.856064
O O2 0.885619 0.410411 0.491387
O O3 0.860598 0.647914 0.856631
O O4 0.027862 0.228025 0.018238
O O5 0.213069 0.819970 0.412322
O O6 0.111065 0.890539 0.847772
O O7 0.500000 0.500000 0.500000
O O8 0.610574 0.521355 0.594641
O O9 0.679801 0.066162 0.678499
O O10 0.671277 0.234811 0.030987
O O11 0.367205 0.371430 0.869947
O O12 0.413119 0.114009 0.635735
O O13 0.283526 0.226872 0.563651
O O14 0.460050 0.879705 0.073101
O O15 0.222784 0.670454 0.784311
O O16 0.218929 0.407613 0.049747
O O17 0.500000 0.000000 0.500000
#
# Coordination Sequence:
#
# PCOD9079872 Si02
#       8
#     2   2   2   2   2   2   2   2
#     4   9  18  35  60 100 127 159 203 264 311 365
#     4   9  18  34  65  95 126 157 215 258 302 373
#     4  12  28  43  62  93 130 170 209 264 326 372
#     4  11  22  41  67  91 115 169 214 262 311 369
#     4  10  18  37  67  93 125 170 205 255 311 373
#     4  11  22  41  63  93 123 167 216 256 304 378
#     4  11  24  42  67  85 120 162 221 263 311 378
#     4  11  23  40  60  95 133 162 205 263 318 370
#
# _framework density 24.051016000000001
#
# number of rings (size 3 to 8) (size 9 to 14) (size 15 to 20)
#    0.000    1.500    5.000    1.875    3.500    1.500 
#    2.250    0.625    0.000    1.500    0.000    0.000 
#    0.000    0.000    0.000    0.000    0.000    0.000 
#
# Total GULP energy -89168.585033 kJ/mol
# GULP energy per Si atom -5573.036565 kJ/mol
# Density = 2.399628 g / cm^3
# Si number density = 24.051016 Si / 1000 Ang^3
#
#
#
# Elastic Constant Matrix: (Units=GPa)
#
#
# Indices 1 2 3 4 5 6 
#
# 1 60.3521 29.5538 20.5198 0.0843 -2.9355 -20.1212
# 2 29.5538 153.6830 9.2566 0.6777 -9.3785 -35.1776
# 3 20.5198 9.2566 75.8828 5.2093 0.2243 -17.2591
# 4 0.0843 0.6777 5.2093 28.4453 -5.2251 -3.1579
# 5 -2.9355 -9.3785 0.2243 -5.2251 32.7171 -0.7907
# 6 -20.1212 -35.1776 -17.2591 -3.1579 -0.7907 36.6989
#
#
#
# Elastic Compliance Matrix: (Units=1/GPa)
#
#
# Indices 1 2 3 4 5 6 
#
# 1 0.021733 -0.001890 -0.003854 0.001990 0.001958 0.008505
# 2 -0.001890 0.008818 0.001209 0.000973 0.002702 0.008127
# 3 -0.003854 0.001209 0.015639 -0.002251 -0.000316 0.006200
# 4 0.001990 0.000973 -0.002251 0.037214 0.006520 0.004308
# 5 0.001958 0.002702 -0.000316 0.006520 0.032674 0.004780
# 6 0.008505 0.008127 0.006200 0.004308 0.004780 0.043092
#
#
# Mechanical properties :
#
#
# Convention : Reuss Voigt Hill
#
# Bulk Modulus (GPa) = 26.93947 45.39757 36.16852
# Shear Modulus (GPa) = 27.68327 34.94476 31.31401
#
# Velocity S-wave (km/s) = 3.39635 3.81588 3.61221
# Velocity P-wave (km/s) = 5.15806 6.19121 5.69810
#
# Compressibility (1/GPa) = 0.03712025
#
# Stress axis : x y z
#
# Youngs Moduli (GPa) = 46.01197 113.39981 63.94436
#
# Poissons Ratio (x) = 0.21429 0.24647
# Poissons Ratio (y) = 0.08695 -0.07731
# Poissons Ratio (z) = 0.17735 -0.13710
#
# Static dielectric constant tensor:
#      x y z
#    x 2.021560 -0.083740 0.058850 
#    y -0.083740 2.021210 0.049460 
#    z 0.058850 0.049460 2.016940 
# 
# From -- ./inp_files/128304.got.cif
#   From: 2010.05.17/outbox.cif.g08.bks.cpg/sg2_65_cif.got.tgz:128304.got - 2010.06.03 11:33:40.
