data_PCOD9079405
_publ_section_title
;
Structure prediction by ZEFSAII (Michael W. Deem and Ramdas Pophale) SiO2 
 PCOD9079405
Probable space group: P -1
;
_chemical_formula_sum "Si O2"
_cell_formula_units_Z 16
_cell_length_a 14.579028
_cell_length_b 18.641352
_cell_length_c 10.426266
_cell_angle_alpha 58.540511
_cell_angle_beta 81.721511
_cell_angle_gamma 32.106672
_cell_volume 967.935922
_symmetry_space_group_name_H-M "P -1"
_symmetry_group_IT_number 2
_symmetry_cell_setting 'triclinic'
loop_
_space_group_symop_operation_xyz
x,y,z
-x,-y,-z
loop_
_atom_site_type_symbol
_atom_site_label
_atom_site_fract_x
_atom_site_fract_y
_atom_site_fract_z
Si Si1 0.930315 0.388398 0.296458
Si Si2 0.804531 0.231272 0.808993
Si Si3 0.714137 0.409125 0.915004
Si Si4 0.201377 0.767651 0.692538
Si Si5 0.844561 0.641317 0.029339
Si Si6 0.535142 0.059051 0.363819
Si Si7 0.707568 0.412253 0.410930
Si Si8 0.178941 0.499422 0.088340
O O1 0.890043 0.520073 0.214428
O O2 0.771410 0.456582 0.342596
O O3 0.871801 0.432149 0.114283
O O4 0.195528 0.146476 0.494464
O O5 0.795304 0.302627 0.864108
O O6 0.825708 0.267726 0.641240
O O7 0.561813 0.383496 0.712423
O O8 0.000000 0.000000 0.000000
O O9 0.442894 0.616248 0.788485
O O10 0.764580 0.464772 0.876402
O O11 0.825062 0.263685 0.143667
O O12 0.211069 0.698016 0.634322
O O13 0.000000 0.000000 0.500000
O O14 0.955700 0.635241 0.060743
O O15 0.585868 0.855642 0.829660
O O16 0.000000 0.500000 0.000000
O O17 0.389348 0.257662 0.267613
O O18 0.500000 0.000000 0.500000
#
# Coordination Sequence:
#
# PCOD9079405 Si02
#       8
#     2   2   2   2   2   2   2   2
#     4  10  17  30  48  78 106 133 171 209 250 316
#     4  10  22  40  55  69 103 143 183 221 261 309
#     4  10  21  34  51  78 106 133 174 220 267 314
#     4  10  20  34  51  77 107 131 168 219 272 315
#     4   8  16  27  43  69 108 134 161 205 248 300
#     4  10  15  27  47  74 111 142 163 196 263 316
#     4  10  21  35  55  77 101 136 183 218 253 315
#     4  10  18  28  47  76 110 135 160 212 259 303
#
# _framework density 16.53002
#
# number of rings (size 3 to 8) (size 9 to 14) (size 15 to 20)
#    0.000    2.500    5.000    0.750    1.750    2.000 
#    0.000    0.000    0.000    0.750    0.000    1.750 
#    0.000    0.000    0.000    0.000    0.000    0.000 
#
# Total GULP energy -89102.202730 kJ/mol
# GULP energy per Si atom -5568.887671 kJ/mol
# Density = 1.649240 g / cm^3
# Si number density = 16.530020 Si / 1000 Ang^3
#
#
#
# Elastic Constant Matrix: (Units=GPa)
#
#
# Indices 1 2 3 4 5 6 
#
# 1 137.2531 26.2946 46.5437 5.8974 -19.4794 7.3116
# 2 26.2946 5.3440 33.8111 -4.6592 2.4825 -6.6728
# 3 46.5437 33.8111 121.8775 -10.8589 -11.3851 1.5683
# 4 5.8974 -4.6592 -10.8589 26.3085 2.7828 -7.8810
# 5 -19.4794 2.4825 -11.3851 2.7828 19.2714 6.4314
# 6 7.3116 -6.6728 1.5683 -7.8810 6.4314 11.4693
#
#
#
# Elastic Compliance Matrix: (Units=1/GPa)
#
#
# Indices 1 2 3 4 5 6 
#
# 1 0.006584 0.013550 -0.006391 -0.000326 -0.000327 0.004519
# 2 0.013550 -0.018626 0.002232 -0.029070 0.042908 -0.063815
# 3 -0.006391 0.002232 0.010117 0.011831 -0.008025 0.016619
# 4 -0.000326 -0.029070 0.011831 0.040052 0.001909 0.008128
# 5 -0.000327 0.042908 -0.008025 0.001909 0.039134 0.005637
# 6 0.004519 -0.063815 0.016619 0.008128 0.005637 0.047332
#
#
# Mechanical properties :
#
#
# Convention : Reuss Voigt Hill
#
# Bulk Modulus (GPa) = 59.32411 53.08593 56.20502
# Shear Modulus (GPa) = 44.87050 21.93152 33.40101
#
# Velocity S-wave (km/s) = 5.21572 3.64644 4.50002
# Velocity P-wave (km/s) = 8.49931 7.06493 7.81510
#
# Compressibility (1/GPa) = 0.01685655
#
# Stress axis : x y z
#
# Youngs Moduli (GPa) = 151.88010 -53.68934 98.84342
#
# Poissons Ratio (x) = 0.72747 0.63171
# Poissons Ratio (y) = -2.05791 -0.22062
# Poissons Ratio (z) = 0.97067 0.11984
#
# Static dielectric constant tensor:
#      x y z
#    x 1.595960 -0.009280 0.015790 
#    y -0.009280 1.524040 -0.000510 
#    z 0.015790 -0.000510 1.567250 
# 
# From -- ./inp_files/318028.got.cif
#   From: 2010.05.17/outbox.cif.g08.bks.cpg/sg2_160_cif.got.tgz:318028.got - 2010.06.03 11:33:40.
