data_PCOD9079452
_publ_section_title
;
Structure prediction by ZEFSAII (Michael W. Deem and Ramdas Pophale) SiO2 
 PCOD9079452
Probable space group: P -1
;
_chemical_formula_sum "Si O2"
_cell_formula_units_Z 14
_cell_length_a 9.906440
_cell_length_b 15.348494
_cell_length_c 12.418463
_cell_angle_alpha 152.859392
_cell_angle_beta 40.046928
_cell_angle_gamma 132.809286
_cell_volume 554.201203
_symmetry_space_group_name_H-M "P -1"
_symmetry_group_IT_number 2
_symmetry_cell_setting 'triclinic'
loop_
_space_group_symop_operation_xyz
x,y,z
-x,-y,-z
loop_
_atom_site_type_symbol
_atom_site_label
_atom_site_fract_x
_atom_site_fract_y
_atom_site_fract_z
Si Si1 0.699617 0.580529 0.709163
Si Si2 0.415870 0.104452 0.463023
Si Si3 0.243388 0.724667 0.226625
Si Si4 0.706164 0.395663 0.711941
Si Si5 0.987114 0.769014 0.233978
Si Si6 0.299792 0.744222 0.826316
Si Si7 0.335351 0.121829 0.111170
O O1 0.799101 0.527544 0.706204
O O2 0.704134 0.401228 0.429554
O O3 0.774549 0.755872 0.781342
O O4 0.459464 0.633747 0.947742
O O5 0.615975 0.205059 0.502282
O O6 0.244542 0.259153 0.700994
O O7 0.307523 0.949916 0.436928
O O8 0.485154 0.992689 0.191188
O O9 0.173902 0.656984 0.311448
O O10 0.058775 0.689881 0.217242
O O11 0.500000 0.500000 0.000000
O O12 0.148120 0.700814 0.970004
O O13 0.000000 0.000000 0.500000
O O14 0.533918 0.756072 0.747543
O O15 0.225560 0.952617 0.056490
#
# Coordination Sequence:
#
# PCOD9079452 Si02
#       7
#     2   2   2   2   2   2   2
#     4  10  19  34  57  87 113 148 203 240 276 336
#     4  10  18  37  58  89 118 151 194 241 293 349
#     4   9  19  34  57  89 114 154 189 243 283 348
#     4  10  20  35  58  84 118 152 202 242 274 346
#     4  10  19  35  59  89 124 146 188 242 305 343
#     4  11  19  34  59  86 122 150 189 246 290 343
#     4  10  20  32  59  88 115 150 197 239 291 338
#
# _framework density 25.261583999999999
#
# number of rings (size 3 to 8) (size 9 to 14) (size 15 to 20)
#    0.000    2.000    5.714    0.857    0.000    0.000 
#    0.000    2.857   15.714    6.857    3.714    0.000 
#    0.000    0.000    0.000    0.000    0.000    0.000 
#
# Total GULP energy -78313.015395 kJ/mol
# GULP energy per Si atom -5593.786814 kJ/mol
# Density = 2.520409 g / cm^3
# Si number density = 25.261584 Si / 1000 Ang^3
#
#
#
# Elastic Constant Matrix: (Units=GPa)
#
#
# Indices 1 2 3 4 5 6 
#
# 1 96.2845 74.8994 27.0323 -5.5736 9.3228 -49.1028
# 2 74.8994 134.0264 28.4729 5.7664 -9.4656 -56.5571
# 3 27.0323 28.4729 61.5056 -19.2150 3.2518 -7.5325
# 4 -5.5736 5.7664 -19.2150 37.5070 1.2099 3.1959
# 5 9.3228 -9.4656 3.2518 1.2099 22.5751 -5.7792
# 6 -49.1028 -56.5571 -7.5325 3.1959 -5.7792 59.4158
#
#
#
# Elastic Compliance Matrix: (Units=1/GPa)
#
#
# Indices 1 2 3 4 5 6 
#
# 1 0.025992 -0.010914 -0.003525 0.003355 -0.012618 0.009237
# 2 -0.010914 0.023860 -0.009204 -0.011953 0.020356 0.015148
# 3 -0.003525 -0.009204 0.026169 0.015470 -0.009593 -0.010122
# 4 0.003355 -0.011953 0.015470 0.038201 -0.013229 -0.009986
# 5 -0.012618 0.020356 -0.009593 -0.013229 0.063886 0.014658
# 6 0.009237 0.015148 -0.010122 -0.009986 0.014658 0.039563
#
#
# Mechanical properties :
#
#
# Convention : Reuss Voigt Hill
#
# Bulk Modulus (GPa) = 34.80031 61.40285 48.10158
# Shear Modulus (GPa) = 18.21253 34.66038 26.43646
#
# Velocity S-wave (km/s) = 2.68798 3.70815 3.23849
# Velocity P-wave (km/s) = 4.84144 6.53402 5.75034
#
# Compressibility (1/GPa) = 0.02873538
#
# Stress axis : x y z
#
# Youngs Moduli (GPa) = 38.47301 41.91091 38.21278
#
# Poissons Ratio (x) = 0.45743 0.13470
# Poissons Ratio (y) = 0.41990 0.35171
# Poissons Ratio (z) = 0.13562 0.38574
#
# Static dielectric constant tensor:
#      x y z
#    x 2.040160 0.007960 -0.041640 
#    y 0.007960 2.061820 0.100370 
#    z -0.041640 0.100370 1.988780 
# 
# From -- ./inp_files/432024.got.cif
#   From: 2010.05.17/outbox.cif.g08.bks.cpg/sg2_217_cif.got.tgz:432024.got - 2010.06.03 11:33:40.
