data_PCOD9079025
_publ_section_title
;
Structure prediction by ZEFSAII (Michael W. Deem and Ramdas Pophale) SiO2 
 PCOD9079025
Probable space group: P -1
;
_chemical_formula_sum "Si O2"
_cell_formula_units_Z 16
_cell_length_a 10.303001
_cell_length_b 10.451255
_cell_length_c 9.748095
_cell_angle_alpha 65.596972
_cell_angle_beta 62.625540
_cell_angle_gamma 104.005352
_cell_volume 717.596299
_symmetry_space_group_name_H-M "P -1"
_symmetry_group_IT_number 2
_symmetry_cell_setting 'triclinic'
loop_
_space_group_symop_operation_xyz
x,y,z
-x,-y,-z
loop_
_atom_site_type_symbol
_atom_site_label
_atom_site_fract_x
_atom_site_fract_y
_atom_site_fract_z
Si Si1 0.411286 0.251424 0.280732
Si Si2 0.313674 0.478758 0.601959
Si Si3 0.553606 0.177357 0.515579
Si Si4 0.764238 0.147624 0.190161
Si Si5 0.866750 0.660915 0.532795
Si Si6 0.884052 0.743351 0.943661
Si Si7 0.147907 0.010312 0.324931
Si Si8 0.796586 0.460868 0.902417
O O1 0.458513 0.218301 0.422652
O O2 0.278170 0.310555 0.339536
O O3 0.314602 0.086413 0.306839
O O4 0.592263 0.382465 0.063653
O O5 0.500000 0.500000 0.500000
O O6 0.348384 0.662810 0.509010
O O7 0.193959 0.383188 0.573571
O O8 0.226936 0.380929 0.826976
O O9 0.687374 0.155928 0.370803
O O10 0.399344 0.009678 0.731888
O O11 0.924901 0.130156 0.147221
O O12 0.827302 0.320232 0.006377
O O13 0.851315 0.513035 0.696735
O O14 0.054531 0.828150 0.386115
O O15 0.811733 0.849329 0.869116
O O16 0.893250 0.628394 0.872492
O O17 0.000000 0.000000 0.500000
#
# Coordination Sequence:
#
# PCOD9079025 Si02
#       8
#     2   2   2   2   2   2   2   2
#     4  10  18  36  61  91 118 157 209 258 307 352
#     4  12  25  40  61  95 133 165 196 252 327 379
#     4  10  21  40  66  93 122 162 204 265 306 361
#     4  10  22  40  64  93 119 161 222 256 293 353
#     4  11  22  38  56  91 130 159 198 251 324 366
#     4  12  22  39  65  93 126 161 213 257 299 369
#     4  10  21  35  61  93 124 156 202 266 306 355
#     4  11  21  36  63  90 114 165 213 257 293 359
#
# _framework density 22.296658000000001
#
# number of rings (size 3 to 8) (size 9 to 14) (size 15 to 20)
#    0.000    1.250    6.250    2.250    1.750    0.500 
#    0.000    1.250    0.000    0.000    0.000    0.000 
#    0.000    0.000    0.000    0.000    0.000    0.000 
#
# Total GULP energy -89459.083587 kJ/mol
# GULP energy per Si atom -5591.192724 kJ/mol
# Density = 2.224591 g / cm^3
# Si number density = 22.296658 Si / 1000 Ang^3
#
#
#
# Elastic Constant Matrix: (Units=GPa)
#
#
# Indices 1 2 3 4 5 6 
#
# 1 48.5837 2.5572 12.5121 -2.8697 7.8531 15.9410
# 2 2.5572 95.1984 17.0212 -16.2346 8.8928 27.4032
# 3 12.5121 17.0212 50.3583 -12.8211 21.3411 4.2698
# 4 -2.8697 -16.2346 -12.8211 29.0419 2.4162 -0.1375
# 5 7.8531 8.8928 21.3411 2.4162 40.8723 -3.6910
# 6 15.9410 27.4032 4.2698 -0.1375 -3.6910 29.5081
#
#
#
# Elastic Compliance Matrix: (Units=1/GPa)
#
#
# Indices 1 2 3 4 5 6 
#
# 1 0.031575 0.009588 -0.002718 0.007953 -0.009618 -0.026734
# 2 0.009588 0.020745 0.000226 0.013319 -0.009574 -0.025613
# 3 -0.002718 0.000226 0.032534 0.015687 -0.017949 -0.005621
# 4 0.007953 0.013319 0.015687 0.050948 -0.017515 -0.020889
# 5 -0.009618 -0.009574 -0.017949 -0.017515 0.040765 0.021702
# 6 -0.026734 -0.025613 -0.005621 -0.020889 0.021702 0.075548
#
#
# Mechanical properties :
#
#
# Convention : Reuss Voigt Hill
#
# Bulk Modulus (GPa) = 10.09641 28.70238 19.39940
# Shear Modulus (GPa) = 18.45444 30.68778 24.57111
#
# Velocity S-wave (km/s) = 2.88006 3.71393 3.32325
# Velocity P-wave (km/s) = 3.94939 5.59392 4.84199
#
# Compressibility (1/GPa) = 0.09904508
#
# Stress axis : x y z
#
# Youngs Moduli (GPa) = 31.67090 48.20451 30.73735
#
# Poissons Ratio (x) = -0.46219 0.08355
# Poissons Ratio (y) = -0.30367 -0.00695
# Poissons Ratio (z) = 0.08609 -0.01089
#
# Static dielectric constant tensor:
#      x y z
#    x 1.848390 -0.028580 0.012900 
#    y -0.028580 1.862880 -0.024180 
#    z 0.012900 -0.024180 1.810990 
# 
# From -- ./inp_files/257497.got.cif
#   From: 2010.05.17/outbox.cif.g08.bks.cpg/sg2_129_cif.got.tgz:257497.got - 2010.06.03 11:33:40.
