data_PCOD9079783
_publ_section_title
;
Structure prediction by ZEFSAII (Michael W. Deem and Ramdas Pophale) SiO2 
 PCOD9079783
Probable space group: P -1
;
_chemical_formula_sum "Si O2"
_cell_formula_units_Z 13
_cell_length_a 10.249594
_cell_length_b 11.195581
_cell_length_c 8.732478
_cell_angle_alpha 124.230725
_cell_angle_beta 126.179574
_cell_angle_gamma 43.614906
_cell_volume 541.252665
_symmetry_space_group_name_H-M "P -1"
_symmetry_group_IT_number 2
_symmetry_cell_setting 'triclinic'
loop_
_space_group_symop_operation_xyz
x,y,z
-x,-y,-z
loop_
_atom_site_type_symbol
_atom_site_label
_atom_site_fract_x
_atom_site_fract_y
_atom_site_fract_z
Si Si1 0.531335 0.222829 0.721827
Si Si2 0.500000 0.500000 0.000000
Si Si3 0.394380 0.027015 0.682296
Si Si4 0.969237 0.182012 0.566059
Si Si5 0.214810 0.552684 0.109954
Si Si6 0.846781 0.466777 0.448600
Si Si7 0.778502 0.711725 0.860370
O O1 0.611636 0.103813 0.539478
O O2 0.351723 0.440457 0.727911
O O3 0.426535 0.151718 0.692279
O O4 0.664181 0.264560 0.933775
O O5 0.390907 0.491163 0.074874
O O6 0.588150 0.908060 0.835065
O O7 0.189700 0.133140 0.709108
O O8 0.803533 0.330068 0.674009
O O9 0.921533 0.276052 0.432339
O O10 0.000000 0.000000 0.500000
O O11 0.235367 0.380657 0.067003
O O12 0.993343 0.674347 0.970716
O O13 0.776796 0.595555 0.638166
O O14 0.000000 0.500000 0.500000
#
# Coordination Sequence:
#
# PCOD9079783 Si02
#       7
#     2   1   2   2   2   2   2
#     4  10  22  39  63  94 125 171 214 262 315 392
#     4  12  24  42  64  92 130 168 216 270 320 384
#     4  10  21  41  67  93 128 166 220 265 319 381
#     4  11  23  39  64  98 133 167 214 272 323 382
#     4  10  23  42  63  91 130 168 213 262 327 389
#     4  10  18  37  65  89 123 171 214 254 316 389
#     4   9  21  40  66  91 121 171 218 256 320 390
#
# _framework density 24.018357000000002
#
# number of rings (size 3 to 8) (size 9 to 14) (size 15 to 20)
#    0.000    1.846    1.538    1.846    4.308    1.846 
#    2.769    5.385    0.000    0.000    0.000    0.000 
#    0.000    0.000    0.000    0.000    0.000    0.000 
#
# Total GULP energy -72407.682630 kJ/mol
# GULP energy per Si atom -5569.821741 kJ/mol
# Density = 2.396369 g / cm^3
# Si number density = 24.018357 Si / 1000 Ang^3
#
#
#
# Elastic Constant Matrix: (Units=GPa)
#
#
# Indices 1 2 3 4 5 6 
#
# 1 126.7721 45.6845 31.0327 -7.3145 -10.8852 20.0289
# 2 45.6845 149.7861 34.7555 -3.0099 3.7960 20.3726
# 3 31.0327 34.7555 78.2182 19.4150 -11.5256 10.9190
# 4 -7.3145 -3.0099 19.4150 49.1472 -6.3649 16.4449
# 5 -10.8852 3.7960 -11.5256 -6.3649 29.5512 2.9673
# 6 20.0289 20.3726 10.9190 16.4449 2.9673 30.7952
#
#
#
# Elastic Compliance Matrix: (Units=1/GPa)
#
#
# Indices 1 2 3 4 5 6 
#
# 1 0.011691 -0.001417 -0.003579 0.007032 0.005580 -0.009690
# 2 -0.001417 0.008781 -0.003710 0.003268 -0.001878 -0.005136
# 3 -0.003579 -0.003710 0.018188 -0.008154 0.004267 0.002276
# 4 0.007032 0.003268 -0.008154 0.033445 0.008455 -0.022518
# 5 0.005580 -0.001878 0.004267 0.008455 0.040862 -0.012352
# 6 -0.009690 -0.005136 0.002276 -0.022518 -0.012352 0.054580
#
#
# Mechanical properties :
#
#
# Convention : Reuss Voigt Hill
#
# Bulk Modulus (GPa) = 47.06595 64.19129 55.62862
# Shear Modulus (GPa) = 26.03588 38.11899 32.07744
#
# Velocity S-wave (km/s) = 3.29599 3.98814 3.65847
# Velocity P-wave (km/s) = 5.84150 6.92755 6.40757
#
# Compressibility (1/GPa) = 0.02124678
#
# Stress axis : x y z
#
# Youngs Moduli (GPa) = 85.53752 113.87935 54.98045
#
# Poissons Ratio (x) = 0.16142 0.19677
# Poissons Ratio (y) = 0.12124 0.20400
# Poissons Ratio (z) = 0.30614 0.42253
#
# Static dielectric constant tensor:
#      x y z
#    x 1.892670 0.009790 0.113400 
#    y 0.009790 2.014170 0.002860 
#    z 0.113400 0.002860 2.294090 
# 
# From -- ./inp_files/153429.got.cif
#   From: 2010.05.17/outbox.cif.g08.bks.cpg/sg2_77_cif.got.tgz:153429.got - 2010.06.03 11:33:40.
