data_PCOD9079836
_publ_section_title
;
Structure prediction by ZEFSAII (Michael W. Deem and Ramdas Pophale) SiO2 
 PCOD9079836
Probable space group: P -1
;
_chemical_formula_sum "Si O2"
_cell_formula_units_Z 16
_cell_length_a 9.236871
_cell_length_b 13.478526
_cell_length_c 11.040260
_cell_angle_alpha 126.025831
_cell_angle_beta 41.445422
_cell_angle_gamma 97.095582
_cell_volume 592.566566
_symmetry_space_group_name_H-M "P -1"
_symmetry_group_IT_number 2
_symmetry_cell_setting 'triclinic'
loop_
_space_group_symop_operation_xyz
x,y,z
-x,-y,-z
loop_
_atom_site_type_symbol
_atom_site_label
_atom_site_fract_x
_atom_site_fract_y
_atom_site_fract_z
Si Si1 0.724405 0.298659 0.986436
Si Si2 0.903154 0.137617 0.014183
Si Si3 0.839044 0.498679 0.914100
Si Si4 0.252178 0.560044 0.608358
Si Si5 0.571109 0.893332 0.761060
Si Si6 0.494671 0.161905 0.879217
Si Si7 0.994998 0.319932 0.481461
Si Si8 0.341917 0.806988 0.457493
O O1 0.861941 0.370442 0.891778
O O2 0.409412 0.443367 0.315812
O O3 0.881581 0.202788 0.939203
O O4 0.692519 0.192787 0.843533
O O5 0.872654 0.264437 0.211271
O O6 0.650919 0.127851 0.161535
O O7 0.171323 0.968962 0.746020
O O8 0.586625 0.650908 0.249500
O O9 0.770148 0.481857 0.802946
O O10 0.053664 0.535691 0.785924
O O11 0.500000 0.500000 0.500000
O O12 0.806603 0.739163 0.567798
O O13 0.603981 0.988679 0.711657
O O14 0.500000 0.000000 0.000000
O O15 0.515582 0.179072 0.737701
O O16 0.194512 0.278177 0.212996
O O17 0.871713 0.226281 0.475437
#
# Coordination Sequence:
#
# PCOD9079836 Si02
#       8
#     2   2   2   2   2   2   2   2
#     4  11  22  42  72  97 120 175 218 266 313 374
#     4  11  22  44  67  94 131 165 221 267 312 378
#     4  12  26  42  64  97 135 166 215 265 319 386
#     4  10  24  47  69  90 125 172 223 268 308 373
#     4  10  18  37  66  95 123 167 210 269 313 371
#     4  11  21  37  66  98 130 171 207 257 333 374
#     4  11  20  39  61  92 136 165 209 262 315 379
#     4  12  26  39  61 103 135 168 205 265 330 389
#
# _framework density 27.001183000000001
#
# number of rings (size 3 to 8) (size 9 to 14) (size 15 to 20)
#    0.000    1.000    7.500    1.125    1.750    5.000 
#    2.250    0.625    0.000    0.000    0.000    0.000 
#    0.000    0.000    0.000    0.000    0.000    0.000 
#
# Total GULP energy -89545.996244 kJ/mol
# GULP energy per Si atom -5596.624765 kJ/mol
# Density = 2.693973 g / cm^3
# Si number density = 27.001183 Si / 1000 Ang^3
#
#
#
# Elastic Constant Matrix: (Units=GPa)
#
#
# Indices 1 2 3 4 5 6 
#
# 1 80.9386 49.3462 21.9295 -7.0306 -0.9760 10.2835
# 2 49.3462 188.9635 44.7744 -5.7821 4.2856 28.6917
# 3 21.9295 44.7744 102.7530 -11.6140 5.3677 19.9184
# 4 -7.0306 -5.7821 -11.6140 49.2834 10.8011 8.5796
# 5 -0.9760 4.2856 5.3677 10.8011 22.0298 -5.8283
# 6 10.2835 28.6917 19.9184 8.5796 -5.8283 39.6652
#
#
#
# Elastic Compliance Matrix: (Units=1/GPa)
#
#
# Indices 1 2 3 4 5 6 
#
# 1 0.015083 -0.003439 -0.001428 0.001401 0.000761 -0.000897
# 2 -0.003439 0.007299 -0.001198 0.001609 -0.003291 -0.004618
# 3 -0.001428 -0.001198 0.013151 0.005862 -0.007974 -0.007807
# 4 0.001401 0.001609 0.005862 0.028639 -0.019292 -0.013500
# 5 0.000761 -0.003291 -0.007974 -0.019292 0.062645 0.019566
# 6 -0.000897 -0.004618 -0.007807 -0.013500 0.019566 0.038500
#
#
# Mechanical properties :
#
#
# Convention : Reuss Voigt Hill
#
# Bulk Modulus (GPa) = 42.72645 67.19503 54.96074
# Shear Modulus (GPa) = 26.99090 39.30268 33.14679
#
# Velocity S-wave (km/s) = 3.16511 3.81936 3.50752
# Velocity P-wave (km/s) = 5.40513 6.66258 6.06653
#
# Compressibility (1/GPa) = 0.02340471
#
# Stress axis : x y z
#
# Youngs Moduli (GPa) = 66.29839 137.00777 76.03881
#
# Poissons Ratio (x) = 0.47112 0.10859
# Poissons Ratio (y) = 0.22798 0.09106
# Poissons Ratio (z) = 0.09468 0.16408
#
# Static dielectric constant tensor:
#      x y z
#    x 2.071160 -0.080330 -0.047860 
#    y -0.080330 2.194580 0.279960 
#    z -0.047860 0.279960 2.691920 
# 
# From -- ./inp_files/521643.got.cif
#   From: 2010.05.17/outbox.cif.g08.bks.cpg/sg2_261_cif.got.tgz:521643.got - 2010.06.03 11:33:40.
