data_PCOD9079131
_publ_section_title
;
Structure prediction by ZEFSAII (Michael W. Deem and Ramdas Pophale) SiO2 
 PCOD9079131
Probable space group: P -1
;
_chemical_formula_sum "Si O2"
_cell_formula_units_Z 15
_cell_length_a 9.109098
_cell_length_b 9.442752
_cell_length_c 11.175811
_cell_angle_alpha 127.627295
_cell_angle_beta 69.448867
_cell_angle_gamma 121.178167
_cell_volume 650.503396
_symmetry_space_group_name_H-M "P -1"
_symmetry_group_IT_number 2
_symmetry_cell_setting 'triclinic'
loop_
_space_group_symop_operation_xyz
x,y,z
-x,-y,-z
loop_
_atom_site_type_symbol
_atom_site_label
_atom_site_fract_x
_atom_site_fract_y
_atom_site_fract_z
Si Si1 0.892579 0.922167 0.114347
Si Si2 0.000000 0.500000 0.500000
Si Si3 0.042755 0.639300 0.349601
Si Si4 0.795649 0.791482 0.703171
Si Si5 0.294536 0.544783 0.088986
Si Si6 0.693586 0.046333 0.419620
Si Si7 0.493963 0.438827 0.173680
Si Si8 0.258459 0.240683 0.558649
O O1 0.740340 0.981901 0.244026
O O2 0.809839 0.688031 0.015409
O O3 0.040025 0.010068 0.218081
O O4 0.000000 0.000000 0.000000
O O5 0.949687 0.431411 0.332782
O O6 0.134887 0.380148 0.407336
O O7 0.170591 0.643535 0.213303
O O8 0.917298 0.731270 0.388201
O O9 0.165825 0.726483 0.482004
O O10 0.664334 0.742807 0.823924
O O11 0.702225 0.789763 0.604603
O O12 0.424835 0.565127 0.171715
O O13 0.389918 0.622729 0.978778
O O14 0.758097 0.938091 0.445599
O O15 0.500000 0.000000 0.500000
O O16 0.599254 0.572556 0.321017
#
# Coordination Sequence:
#
# PCOD9079131 Si02
#       8
#     2   1   2   2   2   2   2   2
#     4  12  23  44  71 105 136 184 228 287 346 408
#     4  10  18  36  62  98 124 168 230 266 328 390
#     4  11  23  41  68 100 134 179 232 278 336 417
#     4  11  23  40  71  98 138 178 226 288 336 411
#     4  11  24  41  72  96 141 181 231 282 342 416
#     4  12  26  44  72 103 136 183 235 286 341 413
#     4  11  22  41  64  99 136 178 225 275 345 394
#     4  11  24  43  69 100 137 179 229 285 346 402
#
# _framework density 23.059066000000001
#
# number of rings (size 3 to 8) (size 9 to 14) (size 15 to 20)
#    0.000    0.800    6.667    1.600    1.867    0.533 
#    0.000    0.000    0.000    2.400    0.000    0.000 
#    0.000    0.000    0.000    0.000    0.000    0.000 
#
# Total GULP energy -83566.221351 kJ/mol
# GULP energy per Si atom -5571.081423 kJ/mol
# Density = 2.300658 g / cm^3
# Si number density = 23.059066 Si / 1000 Ang^3
#
#
#
# Elastic Constant Matrix: (Units=GPa)
#
#
# Indices 1 2 3 4 5 6 
#
# 1 90.0639 49.9157 34.2198 -2.5882 9.9410 4.7655
# 2 49.9157 88.9687 41.3057 -33.3626 -12.0349 16.1821
# 3 34.2198 41.3057 105.2504 -26.1498 -1.9600 17.5910
# 4 -2.5882 -33.3626 -26.1498 48.5529 9.6209 1.1934
# 5 9.9410 -12.0349 -1.9600 9.6209 37.1361 -4.9943
# 6 4.7655 16.1821 17.5910 1.1934 -4.9943 46.7193
#
#
#
# Elastic Compliance Matrix: (Units=1/GPa)
#
#
# Indices 1 2 3 4 5 6 
#
# 1 0.022249 -0.016484 -0.004410 -0.011029 -0.008065 0.004520
# 2 -0.016484 0.030093 -0.000434 0.018111 0.008354 -0.008148
# 3 -0.004410 -0.000434 0.013653 0.007081 -0.000719 -0.004798
# 4 -0.011029 0.018111 0.007081 0.036790 -0.001535 -0.008918
# 5 -0.008065 0.008354 -0.000719 -0.001535 0.032383 0.001701
# 6 0.004520 -0.008148 -0.004798 -0.008918 0.001701 0.025982
#
#
# Mechanical properties :
#
#
# Convention : Reuss Voigt Hill
#
# Bulk Modulus (GPa) = 42.84700 59.46282 51.15491
# Shear Modulus (GPa) = 23.63107 37.07111 30.35109
#
# Velocity S-wave (km/s) = 3.20473 4.01391 3.63193
# Velocity P-wave (km/s) = 5.68467 6.87933 6.31033
#
# Compressibility (1/GPa) = 0.02333886
#
# Stress axis : x y z
#
# Youngs Moduli (GPa) = 44.94576 33.23018 73.24361
#
# Poissons Ratio (x) = 0.54777 0.32304
# Poissons Ratio (y) = 0.74089 0.03175
# Poissons Ratio (z) = 0.19823 0.01441
#
# Static dielectric constant tensor:
#      x y z
#    x 1.869880 0.096780 0.000990 
#    y 0.096780 2.754930 0.199340 
#    z 0.000990 0.199340 2.084660 
# 
# From -- ./inp_files/391318.got.cif
#   From: 2010.05.17/outbox.cif.g08.bks.cpg/sg2_196_cif.got.tgz:391318.got - 2010.06.03 11:33:40.
