data_PCOD9079750
_publ_section_title
;
Structure prediction by ZEFSAII (Michael W. Deem and Ramdas Pophale) SiO2 
 PCOD9079750
Probable space group: P -1
;
_chemical_formula_sum "Si O2"
_cell_formula_units_Z 16
_cell_length_a 9.442259
_cell_length_b 23.108044
_cell_length_c 5.515154
_cell_angle_alpha 49.720403
_cell_angle_beta 45.412940
_cell_angle_gamma 43.135206
_cell_volume 563.253060
_symmetry_space_group_name_H-M "P -1"
_symmetry_group_IT_number 2
_symmetry_cell_setting 'triclinic'
loop_
_space_group_symop_operation_xyz
x,y,z
-x,-y,-z
loop_
_atom_site_type_symbol
_atom_site_label
_atom_site_fract_x
_atom_site_fract_y
_atom_site_fract_z
Si Si1 0.008719 0.586560 0.795274
Si Si2 0.506680 0.177477 0.745523
Si Si3 0.014083 0.167587 0.827482
Si Si4 0.048774 0.322422 0.884029
Si Si5 0.540413 0.066263 0.596799
Si Si6 0.953387 0.089347 0.623636
Si Si7 0.453218 0.657233 0.584351
Si Si8 0.395713 0.624363 0.232836
O O1 0.907569 0.647845 0.510114
O O2 0.271768 0.567459 0.540272
O O3 0.922933 0.627635 0.055016
O O4 0.000000 0.500000 0.000000
O O5 0.234237 0.220439 0.981930
O O6 0.540977 0.147544 0.509720
O O7 0.708218 0.093563 0.865214
O O8 0.546093 0.254993 0.582051
O O9 0.296132 0.118739 0.604868
O O10 0.938720 0.141968 0.739890
O O11 0.834341 0.273943 0.777873
O O12 0.977433 0.129263 0.228436
O O13 0.798177 0.334281 0.150969
O O14 0.809674 0.001427 0.389937
O O15 0.500000 0.000000 0.000000
O O16 0.546065 0.600758 0.871128
O O17 0.531213 0.626481 0.301060
#
# Coordination Sequence:
#
# PCOD9079750 Si02
#       8
#     2   2   2   2   2   2   2   2
#     4  10  21  40  68 100 135 170 211 261 330 397
#     4  12  23  42  70  96 132 174 230 273 320 405
#     4  11  20  42  64  88 126 169 220 272 320 392
#     4  10  24  40  67  99 128 176 219 265 322 386
#     4  10  24  41  63  94 135 171 222 280 337 384
#     4  11  24  41  61  93 126 173 215 276 334 373
#     4  10  21  39  62  93 125 163 220 266 319 370
#     4  10  18  37  64  90 122 168 211 263 322 374
#
# _framework density 28.406414000000002
#
# number of rings (size 3 to 8) (size 9 to 14) (size 15 to 20)
#    0.000    1.500    2.500    2.625    1.750    2.000 
#    0.000   15.625    0.000   18.000    0.000    0.000 
#    0.000    0.000    0.000    0.000    0.000    0.000 
#
# Total GULP energy -89499.218650 kJ/mol
# GULP energy per Si atom -5593.701166 kJ/mol
# Density = 2.834176 g / cm^3
# Si number density = 28.406414 Si / 1000 Ang^3
#
#
#
# Elastic Constant Matrix: (Units=GPa)
#
#
# Indices 1 2 3 4 5 6 
#
# 1 193.5350 37.7467 48.2101 13.0013 24.8764 10.9249
# 2 37.7467 107.3631 42.0473 12.4810 5.1224 -4.2952
# 3 48.2101 42.0473 107.3640 -6.2541 45.7454 7.8100
# 4 13.0013 12.4810 -6.2541 38.9014 4.5023 -8.6888
# 5 24.8764 5.1224 45.7454 4.5023 53.6655 15.7415
# 6 10.9249 -4.2952 7.8100 -8.6888 15.7415 70.6887
#
#
#
# Elastic Compliance Matrix: (Units=1/GPa)
#
#
# Indices 1 2 3 4 5 6 
#
# 1 0.006192 -0.001037 -0.002291 -0.002282 -0.000342 -0.000971
# 2 -0.001037 0.013055 -0.007683 -0.005892 0.006378 -0.000342
# 3 -0.002291 -0.007683 0.021365 0.009346 -0.017987 0.002681
# 4 -0.002282 -0.005892 0.009346 0.032271 -0.010606 0.005290
# 5 -0.000342 0.006378 -0.017987 -0.010606 0.036458 -0.006995
# 6 -0.000971 -0.000342 0.002681 0.005290 -0.006995 0.016188
#
#
# Mechanical properties :
#
#
# Convention : Reuss Voigt Hill
#
# Bulk Modulus (GPa) = 53.79212 73.80783 63.79998
# Shear Modulus (GPa) = 32.52122 51.33497 41.92810
#
# Velocity S-wave (km/s) = 3.38724 4.25568 3.84605
# Velocity P-wave (km/s) = 5.85454 7.08428 6.49856
#
# Compressibility (1/GPa) = 0.01859008
#
# Stress axis : x y z
#
# Youngs Moduli (GPa) = 161.49689 76.60137 46.80564
#
# Poissons Ratio (x) = 0.07944 0.10722
# Poissons Ratio (y) = 0.16748 0.35960
# Poissons Ratio (z) = 0.36995 0.58852
#
# Static dielectric constant tensor:
#      x y z
#    x 2.189740 -0.053100 -0.020150 
#    y -0.053100 2.230210 0.043360 
#    z -0.020150 0.043360 2.439720 
# 
# From -- ./inp_files/52354.got.cif
#   From: 2010.05.17/outbox.cif.g08.bks.cpg/sg2_27_cif.got.tgz:52354.got - 2010.06.03 11:33:40.
