data_PCOD9079064
_publ_section_title
;
Structure prediction by ZEFSAII (Michael W. Deem and Ramdas Pophale) SiO2 
 PCOD9079064
Probable space group: P -1
;
_chemical_formula_sum "Si O2"
_cell_formula_units_Z 12
_cell_length_a 8.045663
_cell_length_b 10.075428
_cell_length_c 11.088353
_cell_angle_alpha 145.380384
_cell_angle_beta 79.640280
_cell_angle_gamma 105.140186
_cell_volume 491.929076
_symmetry_space_group_name_H-M "P -1"
_symmetry_group_IT_number 2
_symmetry_cell_setting 'triclinic'
loop_
_space_group_symop_operation_xyz
x,y,z
-x,-y,-z
loop_
_atom_site_type_symbol
_atom_site_label
_atom_site_fract_x
_atom_site_fract_y
_atom_site_fract_z
Si Si1 0.230853 0.309347 0.581836
Si Si2 0.396942 0.871154 0.305768
Si Si3 0.626710 0.938064 0.101721
Si Si4 0.176921 0.417332 0.933715
Si Si5 0.960541 0.080629 0.294242
Si Si6 0.658383 0.772515 0.729135
O O1 0.258103 0.430010 0.797761
O O2 0.340969 0.406032 0.519712
O O3 0.275297 0.047382 0.404809
O O4 0.034172 0.275886 0.533823
O O5 0.500000 0.000000 0.500000
O O6 0.534630 0.841276 0.164237
O O7 0.290854 0.609471 0.148678
O O8 0.490126 0.086583 0.179668
O O9 0.810727 0.105657 0.239010
O O10 0.648547 0.742411 0.851999
O O11 0.122815 0.156331 0.800064
O O12 0.000000 0.500000 0.000000
O O13 0.142859 0.074502 0.200011
#
# Coordination Sequence:
#
# PCOD9079064 Si02
#       6
#     2   2   2   2   2   2
#     4   9  21  38  57  89 118 156 200 244 300 352
#     4  11  24  38  59  90 123 158 200 248 301 357
#     4  10  18  36  62  85 121 162 197 243 304 353
#     4  12  22  38  62  89 125 160 198 249 303 358
#     4  10  20  35  62  88 119 158 200 246 300 351
#     4   8  19  36  59  92 116 160 201 245 298 356
#
# _framework density 24.393761000000001
#
# number of rings (size 3 to 8) (size 9 to 14) (size 15 to 20)
#    1.000    1.000    1.667    2.000    2.333    2.667 
#    0.000    0.833    0.000    8.000    0.000    0.000 
#    0.000    0.000    0.000    0.000    0.000    0.000 
#
# Total GULP energy -66868.712040 kJ/mol
# GULP energy per Si atom -5572.392670 kJ/mol
# Density = 2.433824 g / cm^3
# Si number density = 24.393761 Si / 1000 Ang^3
#
#
#
# Elastic Constant Matrix: (Units=GPa)
#
#
# Indices 1 2 3 4 5 6 
#
# 1 150.1531 9.8495 28.0948 -10.6023 11.5512 -6.4166
# 2 9.8495 70.9127 40.1971 -37.2946 -2.7222 17.7923
# 3 28.0948 40.1971 112.9050 -43.1596 20.3552 23.9407
# 4 -10.6023 -37.2946 -43.1596 39.5665 0.0157 -1.9752
# 5 11.5512 -2.7222 20.3552 0.0157 38.6192 1.2423
# 6 -6.4166 17.7923 23.9407 -1.9752 1.2423 7.0825
#
#
#
# Elastic Compliance Matrix: (Units=1/GPa)
#
#
# Indices 1 2 3 4 5 6 
#
# 1 0.006314 0.003894 0.002205 0.007318 -0.002489 -0.009040
# 2 0.003894 0.006460 -0.019678 -0.011885 0.008089 0.049082
# 3 0.002205 -0.019678 0.001377 -0.014281 -0.004167 0.043526
# 4 0.007318 -0.011885 -0.014281 0.004736 0.001739 0.085775
# 5 -0.002489 0.008089 -0.004167 0.001739 0.029830 -0.013236
# 6 -0.009040 0.049082 0.043526 0.085775 -0.013236 -0.111184
#
#
# Mechanical properties :
#
#
# Convention : Reuss Voigt Hill
#
# Bulk Modulus (GPa) = -76.88682 54.47262 -11.20710
# Shear Modulus (GPa) = -126.11665 34.10895 -46.00385
#
# Velocity S-wave (km/s) = -7.19810 3.74340 -4.34739
# Velocity P-wave (km/s) = 10.03349 6.40805 5.45930
#
# Compressibility (1/GPa) = -0.01300613
#
# Stress axis : x y z
#
# Youngs Moduli (GPa) = 158.38800 154.78913 726.12905
#
# Poissons Ratio (x) = -0.60278 -1.60137
# Poissons Ratio (y) = -0.61679 14.28890
# Poissons Ratio (z) = -0.34930 3.04597
#
# Static dielectric constant tensor:
#      x y z
#    x 1.977590 -0.001450 0.009740 
#    y -0.001450 1.990120 -0.046290 
#    z 0.009740 -0.046290 1.983810 
# 
# From -- ./inp_files/91541.got.cif
#   From: 2010.05.17/outbox.cif.g08.bks.cpg/sg2_46_cif.got.tgz:91541.got - 2010.06.03 11:33:40.
