data_PCOD9079665
_publ_section_title
;
Structure prediction by ZEFSAII (Michael W. Deem and Ramdas Pophale) SiO2 
 PCOD9079665
Probable space group: P -1
;
_chemical_formula_sum "Si O2"
_cell_formula_units_Z 16
_cell_length_a 16.349442
_cell_length_b 7.626106
_cell_length_c 12.314729
_cell_angle_alpha 106.114071
_cell_angle_beta 124.728795
_cell_angle_gamma 118.529531
_cell_volume 718.976781
_symmetry_space_group_name_H-M "P -1"
_symmetry_group_IT_number 2
_symmetry_cell_setting 'triclinic'
loop_
_space_group_symop_operation_xyz
x,y,z
-x,-y,-z
loop_
_atom_site_type_symbol
_atom_site_label
_atom_site_fract_x
_atom_site_fract_y
_atom_site_fract_z
Si Si1 0.896036 0.993875 0.716895
Si Si2 0.913749 0.312861 0.585614
Si Si3 0.390418 0.503993 0.719588
Si Si4 0.609973 0.936366 0.408203
Si Si5 0.754214 0.650716 0.969852
Si Si6 0.197788 0.833847 0.193407
Si Si7 0.167212 0.140090 0.686534
Si Si8 0.265499 0.969158 0.025921
O O1 0.763507 0.663195 0.503186
O O2 0.927703 0.189609 0.677280
O O3 0.801210 0.950438 0.736575
O O4 0.077445 0.191653 0.920299
O O5 0.093681 0.671133 0.782106
O O6 0.756356 0.207553 0.481107
O O7 0.869413 0.124837 0.416211
O O8 0.406368 0.307196 0.675084
O O9 0.323837 0.427975 0.778032
O O10 0.569259 0.848067 0.882320
O O11 0.689556 0.085575 0.612623
O O12 0.418705 0.717266 0.223990
O O13 0.793689 0.760039 0.143367
O O14 0.728054 0.803131 0.916014
O O15 0.255683 0.878231 0.124409
O O16 0.000000 0.500000 0.000000
O O17 0.000000 0.000000 0.500000
#
# Coordination Sequence:
#
# PCOD9079665 Si02
#       8
#     2   2   2   2   2   2   2   2
#     4   9  18  36  58  80 108 153 188 211 274 353
#     4   9  18  36  58  80 108 153 188 211 274 353
#     4   8  18  33  55  83 107 144 193 212 269 342
#     4   8  18  33  55  83 107 144 193 212 269 342
#     4  11  21  34  58  87 113 135 189 247 265 308
#     4  10  18  37  63  74 111 160 179 214 289 336
#     4  10  18  37  63  74 111 160 179 214 289 336
#     4  11  21  34  58  87 113 135 189 247 265 308
#
# _framework density 22.253848999999999
#
# number of rings (size 3 to 8) (size 9 to 14) (size 15 to 20)
#    0.000    3.000    5.000    0.000    0.000   10.000 
#    0.000    2.500    0.000    0.000    0.000    0.000 
#    0.000    0.000    0.000    0.000    0.000    0.000 
#
# Total GULP energy -89174.599821 kJ/mol
# GULP energy per Si atom -5573.412489 kJ/mol
# Density = 2.220320 g / cm^3
# Si number density = 22.253849 Si / 1000 Ang^3
#
#
#
# Elastic Constant Matrix: (Units=GPa)
#
#
# Indices 1 2 3 4 5 6 
#
# 1 50.5398 20.4930 16.7095 2.8610 12.9068 16.2312
# 2 20.4930 50.8728 19.0862 13.4741 2.8537 20.0062
# 3 16.7095 19.0862 92.9020 18.8369 10.3874 18.9495
# 4 2.8610 13.4741 18.8369 36.4107 15.6407 7.7015
# 5 12.9068 2.8537 10.3874 15.6407 39.1784 -2.7738
# 6 16.2312 20.0062 18.9495 7.7015 -2.7738 28.0184
#
#
#
# Elastic Compliance Matrix: (Units=1/GPa)
#
#
# Indices 1 2 3 4 5 6 
#
# 1 0.032046 -0.008020 -0.001302 0.011178 -0.015261 -0.016540
# 2 -0.008020 0.030881 -0.000536 -0.008792 0.003031 -0.014324
# 3 -0.001302 -0.000536 0.013664 -0.004472 -0.001869 -0.007060
# 4 0.011178 -0.008792 -0.004472 0.042966 -0.019784 -0.010942
# 5 -0.015261 0.003031 -0.001869 -0.019784 0.039952 0.017334
# 6 -0.016540 -0.014324 -0.007060 -0.010942 0.017334 0.064999
#
#
# Mechanical properties :
#
#
# Convention : Reuss Voigt Hill
#
# Bulk Modulus (GPa) = 17.58307 34.09910 25.84108
# Shear Modulus (GPa) = 18.99820 29.92321 24.46071
#
# Velocity S-wave (km/s) = 2.92499 3.67090 3.31897
# Velocity P-wave (km/s) = 4.39610 5.77264 5.13075
#
# Compressibility (1/GPa) = 0.05687290
#
# Stress axis : x y z
#
# Youngs Moduli (GPa) = 31.20562 32.38272 73.18371
#
# Poissons Ratio (x) = 0.25972 0.09532
# Poissons Ratio (y) = 0.25028 0.03923
# Poissons Ratio (z) = 0.04064 0.01736
#
# Static dielectric constant tensor:
#      x y z
#    x 1.892900 -0.041560 0.018850 
#    y -0.041560 1.887920 0.026670 
#    z 0.018850 0.026670 1.874460 
# 
# From -- ./inp_files/195707.got.cif
#   From: 2010.05.17/outbox.cif.g08.bks.cpg/sg2_98_cif.got.tgz:195707.got - 2010.06.03 11:33:40.
