data_PCOD9079416
_publ_section_title
;
Structure prediction by ZEFSAII (Michael W. Deem and Ramdas Pophale) SiO2 
 PCOD9079416
Probable space group: P -1
;
_chemical_formula_sum "Si O2"
_cell_formula_units_Z 16
_cell_length_a 11.852899
_cell_length_b 20.280742
_cell_length_c 18.224213
_cell_angle_alpha 28.442554
_cell_angle_beta 25.798032
_cell_angle_gamma 30.440590
_cell_volume 853.911368
_symmetry_space_group_name_H-M "P -1"
_symmetry_group_IT_number 2
_symmetry_cell_setting 'triclinic'
loop_
_space_group_symop_operation_xyz
x,y,z
-x,-y,-z
loop_
_atom_site_type_symbol
_atom_site_label
_atom_site_fract_x
_atom_site_fract_y
_atom_site_fract_z
Si Si1 0.797752 0.218284 0.803663
Si Si2 0.619243 0.389166 0.873559
Si Si3 0.134800 0.452690 0.212157
Si Si4 0.318403 0.324119 0.390870
Si Si5 0.964742 0.886428 0.017532
Si Si6 0.873480 0.080628 0.268777
Si Si7 0.273579 0.219565 0.861208
Si Si8 0.195322 0.759416 0.394497
O O1 0.578381 0.333585 0.871207
O O2 0.728724 0.233837 0.742463
O O3 0.074889 0.259519 0.609852
O O4 0.856425 0.048434 0.956429
O O5 0.692929 0.538305 0.686206
O O6 0.358721 0.421744 0.047602
O O7 0.863059 0.249461 0.901088
O O8 0.276424 0.387788 0.269924
O O9 0.974356 0.624980 0.147406
O O10 0.910817 0.375764 0.400756
O O11 0.610343 0.193283 0.350953
O O12 0.153438 0.897943 0.825255
O O13 0.718183 0.849758 0.156498
O O14 0.941393 0.909811 0.411654
O O15 0.153412 0.118317 0.082093
O O16 0.547227 0.241171 0.707464
#
# Coordination Sequence:
#
# PCOD9079416 Si02
#       8
#     2   2   2   2   2   2   2   2
#     4  10  24  32  53  81 113 140 166 220 267 324
#     4  12  19  37  52  81 112 138 172 213 280 313
#     4  11  20  33  60  80 104 137 181 226 253 308
#     4  11  19  36  55  82 107 134 182 217 267 307
#     4   9  19  33  56  79 102 143 171 221 259 311
#     4   9  18  32  57  81  99 138 172 228 256 299
#     4  10  18  37  57  80 101 141 185 217 256 302
#     4  10  22  35  55  82 106 138 180 221 254 311
#
# _framework density 18.737307999999999
#
# number of rings (size 3 to 8) (size 9 to 14) (size 15 to 20)
#    0.750    1.000    3.750    1.875    1.750    1.500 
#    0.000    0.625    0.000    0.750    0.000    0.000 
#    0.000    0.000    0.000    0.000    0.000    0.000 
#
# Total GULP energy -89214.765971 kJ/mol
# GULP energy per Si atom -5575.922873 kJ/mol
# Density = 1.869466 g / cm^3
# Si number density = 18.737308 Si / 1000 Ang^3
#
#
#
# Elastic Constant Matrix: (Units=GPa)
#
#
# Indices 1 2 3 4 5 6 
#
# 1 56.5224 30.6320 15.6318 -2.3085 -10.5509 9.6798
# 2 30.6320 106.6656 18.6383 -14.0012 -4.2068 26.8080
# 3 15.6318 18.6383 35.5101 -10.7412 -8.1763 13.0884
# 4 -2.3085 -14.0012 -10.7412 24.5449 5.5987 -9.9626
# 5 -10.5509 -4.2068 -8.1763 5.5987 12.8693 -5.9843
# 6 9.6798 26.8080 13.0884 -9.9626 -5.9843 19.0994
#
#
#
# Elastic Compliance Matrix: (Units=1/GPa)
#
#
# Indices 1 2 3 4 5 6 
#
# 1 0.026505 -0.007749 -0.006942 -0.007759 0.020254 0.004500
# 2 -0.007749 0.017130 0.001020 0.002869 -0.012100 -0.023109
# 3 -0.006942 0.001020 0.042616 0.008485 0.008749 -0.019949
# 4 -0.007759 0.002869 0.008485 0.056551 -0.015996 0.018577
# 5 0.020254 -0.012100 0.008749 -0.015996 0.116268 0.028808
# 6 0.004500 -0.023109 -0.019949 0.018577 0.028808 0.114901
#
#
# Mechanical properties :
#
#
# Convention : Reuss Voigt Hill
#
# Bulk Modulus (GPa) = 16.97590 36.50026 26.73808
# Shear Modulus (GPa) = 11.87791 20.22244 16.05018
#
# Velocity S-wave (km/s) = 2.52050 3.28877 2.92993
# Velocity P-wave (km/s) = 4.18930 5.82612 5.07414
#
# Compressibility (1/GPa) = 0.05890702
#
# Stress axis : x y z
#
# Youngs Moduli (GPa) = 37.72869 58.37820 23.46549
#
# Poissons Ratio (x) = 0.45239 0.16290
# Poissons Ratio (y) = 0.29237 -0.02393
# Poissons Ratio (z) = 0.26192 -0.05953
#
# Static dielectric constant tensor:
#      x y z
#    x 1.654930 0.014360 0.003120 
#    y 0.014360 1.641710 -0.016230 
#    z 0.003120 -0.016230 1.662750 
# 
# From -- ./inp_files/281733.got.cif
#   From: 2010.05.17/outbox.cif.g08.bks.cpg/sg2_141_cif.got.tgz:281733.got - 2010.06.03 11:33:40.
