data_PCOD9079471
_publ_section_title
;
Structure prediction by ZEFSAII (Michael W. Deem and Ramdas Pophale) SiO2 
 PCOD9079471
Probable space group: P -1
;
_chemical_formula_sum "Si O2"
_cell_formula_units_Z 16
_cell_length_a 13.421254
_cell_length_b 25.246646
_cell_length_c 8.367157
_cell_angle_alpha 146.304418
_cell_angle_beta 152.433507
_cell_angle_gamma 34.205235
_cell_volume 682.249396
_symmetry_space_group_name_H-M "P -1"
_symmetry_group_IT_number 2
_symmetry_cell_setting 'triclinic'
loop_
_space_group_symop_operation_xyz
x,y,z
-x,-y,-z
loop_
_atom_site_type_symbol
_atom_site_label
_atom_site_fract_x
_atom_site_fract_y
_atom_site_fract_z
Si Si1 0.029466 0.095136 0.378591
Si Si2 0.175525 0.950017 0.484813
Si Si3 0.518497 0.216249 0.942577
Si Si4 0.721971 0.378190 0.191195
Si Si5 0.556264 0.762028 0.492088
Si Si6 0.962594 0.590920 0.552846
Si Si7 0.903770 0.814165 0.607325
Si Si8 0.259647 0.444428 0.164977
O O1 0.113401 0.163597 0.549166
O O2 0.772352 0.162342 0.232492
O O3 0.182394 0.041010 0.609149
O O4 0.000000 0.000000 0.000000
O O5 0.428040 0.867986 0.665243
O O6 0.000000 0.000000 0.500000
O O7 0.041819 0.882657 0.042540
O O8 0.522791 0.218753 0.760406
O O9 0.344910 0.159746 0.603891
O O10 0.406039 0.330215 0.138436
O O11 0.622830 0.477908 0.410652
O O12 0.820679 0.405333 0.233571
O O13 0.940960 0.299099 0.399474
O O14 0.544946 0.319240 0.777955
O O15 0.828649 0.701962 0.717652
O O16 0.000000 0.500000 0.500000
O O17 0.788343 0.571214 0.126348
O O18 0.000000 0.500000 0.000000
#
# Coordination Sequence:
#
# PCOD9079471 Si02
#       8
#     2   2   2   2   2   2   2   2
#     4  10  20  37  60  86 111 144 195 242 274 346
#     4  10  22  42  58  82 120 150 188 238 288 338
#     4  11  18  34  63  88 109 150 191 231 293 323
#     4  10  18  37  59  84 115 152 188 235 284 324
#     4  10  20  38  64  78 115 157 188 232 290 339
#     4  10  21  36  56  82 118 154 188 224 281 347
#     4  10  19  36  66  82 114 147 191 236 289 336
#     4   9  18  34  58  84 117 142 187 237 273 331
#
# _framework density 23.451834999999999
#
# number of rings (size 3 to 8) (size 9 to 14) (size 15 to 20)
#    0.000    2.000    7.500    0.000    0.000    4.500 
#    4.500    3.125    0.000    0.000    0.000    0.000 
#    0.000    0.000    0.000    0.000    0.000    0.000 
#
# Total GULP energy -89309.977056 kJ/mol
# GULP energy per Si atom -5581.873566 kJ/mol
# Density = 2.339846 g / cm^3
# Si number density = 23.451835 Si / 1000 Ang^3
#
#
#
# Elastic Constant Matrix: (Units=GPa)
#
#
# Indices 1 2 3 4 5 6 
#
# 1 111.1162 33.0258 24.6754 13.0409 22.1338 -8.8496
# 2 33.0258 111.6472 14.1624 17.6869 -5.0956 -16.5290
# 3 24.6754 14.1624 42.8913 1.0991 23.3944 -1.9101
# 4 13.0409 17.6869 1.0991 17.9965 -1.2604 5.2120
# 5 22.1338 -5.0956 23.3944 -1.2604 35.7677 8.9196
# 6 -8.8496 -16.5290 -1.9101 5.2120 8.9196 46.2256
#
#
#
# Elastic Compliance Matrix: (Units=1/GPa)
#
#
# Indices 1 2 3 4 5 6 
#
# 1 0.013166 -0.001901 -0.001729 -0.009491 -0.008751 0.004528
# 2 -0.001901 0.012999 -0.005460 -0.011993 0.005072 0.004432
# 3 -0.001729 -0.005460 0.041638 0.000723 -0.028108 0.004779
# 4 -0.009491 -0.011993 0.000723 0.079915 0.010789 -0.017168
# 5 -0.008751 0.005072 -0.028108 0.010789 0.056120 -0.013069
# 6 0.004528 0.004432 0.004779 -0.017168 -0.013069 0.028740
#
#
# Mechanical properties :
#
#
# Convention : Reuss Voigt Hill
#
# Bulk Modulus (GPa) = 20.15172 45.48687 32.81930
# Shear Modulus (GPa) = 18.70571 32.91738 25.81154
#
# Velocity S-wave (km/s) = 2.82728 3.75055 3.32116
# Velocity P-wave (km/s) = 4.38971 6.18009 5.36018
#
# Compressibility (1/GPa) = 0.04962356
#
# Stress axis : x y z
#
# Youngs Moduli (GPa) = 75.95180 76.92750 24.01669
#
# Poissons Ratio (x) = 0.14622 0.04152
# Poissons Ratio (y) = 0.14436 0.13114
# Poissons Ratio (z) = 0.13131 0.42005
#
# Static dielectric constant tensor:
#      x y z
#    x 1.936330 -0.022380 -0.047720 
#    y -0.022380 1.956940 -0.003160 
#    z -0.047720 -0.003160 1.991940 
# 
# From -- ./inp_files/282495.got.cif
#   From: 2010.05.17/outbox.cif.g08.bks.cpg/sg2_142_cif.got.tgz:282495.got - 2010.06.03 11:33:40.
