data_PCOD9079491
_publ_section_title
;
Structure prediction by ZEFSAII (Michael W. Deem and Ramdas Pophale) SiO2 
 PCOD9079491
Probable space group: P -1
;
_chemical_formula_sum "Si O2"
_cell_formula_units_Z 14
_cell_length_a 13.295347
_cell_length_b 10.924584
_cell_length_c 12.008432
_cell_angle_alpha 140.322430
_cell_angle_beta 34.429341
_cell_angle_gamma 147.150509
_cell_volume 517.910083
_symmetry_space_group_name_H-M "P -1"
_symmetry_group_IT_number 2
_symmetry_cell_setting 'triclinic'
loop_
_space_group_symop_operation_xyz
x,y,z
-x,-y,-z
loop_
_atom_site_type_symbol
_atom_site_label
_atom_site_fract_x
_atom_site_fract_y
_atom_site_fract_z
Si Si1 0.953188 0.803154 0.111820
Si Si2 0.808541 0.757472 0.447394
Si Si3 0.944450 0.698630 0.652174
Si Si4 0.909615 0.500540 0.322535
Si Si5 0.394626 0.972661 0.199741
Si Si6 0.440561 0.874240 0.341996
Si Si7 0.241082 0.247139 0.952806
O O1 0.894519 0.711627 0.224943
O O2 0.060120 0.079455 0.220914
O O3 0.084711 0.716102 0.869391
O O4 0.738883 0.696881 0.155919
O O5 0.757716 0.549412 0.426866
O O6 0.636693 0.816154 0.617680
O O7 0.000000 0.000000 0.500000
O O8 0.850042 0.512863 0.511418
O O9 0.190960 0.793266 0.508846
O O10 0.810613 0.599121 0.818267
O O11 0.156586 0.727009 0.239839
O O12 0.491753 0.960507 0.221959
O O13 0.500000 0.000000 0.000000
O O14 0.500000 0.000000 0.500000
O O15 0.578910 0.764929 0.160467
O O16 0.000000 0.000000 0.000000
#
# Coordination Sequence:
#
# PCOD9079491 Si02
#       7
#     2   2   2   2   2   2   2
#     4  11  19  37  60  88 117 157 205 247 301 361
#     4  10  18  37  60  82 116 159 195 246 300 359
#     4  10  21  40  59  90 121 157 202 247 307 357
#     4  10  22  37  62  83 120 159 199 250 304 360
#     4  10  22  37  60  88 118 161 201 248 312 360
#     4  11  18  37  63  88 119 159 202 250 301 364
#     4  10  21  33  64  91 115 160 206 241 303 370
#
# _framework density 27.031721000000001
#
# number of rings (size 3 to 8) (size 9 to 14) (size 15 to 20)
#    0.000    1.714    7.143    0.429    2.000    1.714 
#    0.000    3.571    9.429    0.000    0.000    0.000 
#    0.000    0.000    0.000    0.000    0.000    0.000 
#
# Total GULP energy -78161.665023 kJ/mol
# GULP energy per Si atom -5582.976073 kJ/mol
# Density = 2.697020 g / cm^3
# Si number density = 27.031721 Si / 1000 Ang^3
#
#
#
# Elastic Constant Matrix: (Units=GPa)
#
#
# Indices 1 2 3 4 5 6 
#
# 1 209.0550 36.3331 73.0999 3.7080 14.4076 3.2225
# 2 36.3331 78.1769 27.0125 5.6298 -9.3867 17.2055
# 3 73.0999 27.0125 196.5781 28.3349 15.9946 -1.6353
# 4 3.7080 5.6298 28.3349 44.6799 -20.2190 -11.3312
# 5 14.4076 -9.3867 15.9946 -20.2190 67.3796 -8.7017
# 6 3.2225 17.2055 -1.6353 -11.3312 -8.7017 41.9351
#
#
#
# Elastic Compliance Matrix: (Units=1/GPa)
#
#
# Indices 1 2 3 4 5 6 
#
# 1 0.005894 -0.002337 -0.001905 0.000743 -0.000852 0.000456
# 2 -0.002337 0.016115 -0.001231 -0.002055 0.001553 -0.006713
# 3 -0.001905 -0.001231 0.007123 -0.006153 -0.003490 -0.001457
# 4 0.000743 -0.002055 -0.006153 0.035880 0.013466 0.013036
# 5 -0.000852 0.001553 -0.003490 0.013466 0.021052 0.007299
# 6 0.000456 -0.006713 -0.001457 0.013036 0.007299 0.031546
#
#
# Mechanical properties :
#
#
# Convention : Reuss Voigt Hill
#
# Bulk Modulus (GPa) = 54.98704 84.07788 69.53246
# Shear Modulus (GPa) = 37.14186 53.95655 45.54920
#
# Velocity S-wave (km/s) = 3.71079 4.47256 4.10936
# Velocity P-wave (km/s) = 6.22461 7.60544 6.94940
#
# Compressibility (1/GPa) = 0.01818610
#
# Stress axis : x y z
#
# Youngs Moduli (GPa) = 169.65952 62.05285 140.38611
#
# Poissons Ratio (x) = 0.14504 0.26739
# Poissons Ratio (y) = 0.39656 0.17285
# Poissons Ratio (z) = 0.32314 0.07640
#
# Static dielectric constant tensor:
#      x y z
#    x 2.177390 -0.013420 0.072510 
#    y -0.013420 2.320810 0.019350 
#    z 0.072510 0.019350 2.124900 
# 
# From -- ./inp_files/426798.got.cif
#   From: 2010.05.17/outbox.cif.g08.bks.cpg/sg2_214_cif.got.tgz:426798.got - 2010.06.03 11:33:40.
