data_PCOD9079707
_publ_section_title
;
Structure prediction by ZEFSAII (Michael W. Deem and Ramdas Pophale) SiO2 
 PCOD9079707
Probable space group: P -1
;
_chemical_formula_sum "Si O2"
_cell_formula_units_Z 16
_cell_length_a 5.159160
_cell_length_b 15.643276
_cell_length_c 24.493560
_cell_angle_alpha 153.942703
_cell_angle_beta 120.281255
_cell_angle_gamma 66.608886
_cell_volume 741.652460
_symmetry_space_group_name_H-M "P -1"
_symmetry_group_IT_number 2
_symmetry_cell_setting 'triclinic'
loop_
_space_group_symop_operation_xyz
x,y,z
-x,-y,-z
loop_
_atom_site_type_symbol
_atom_site_label
_atom_site_fract_x
_atom_site_fract_y
_atom_site_fract_z
Si Si1 0.073262 0.546489 0.795561
Si Si2 0.348242 0.976786 0.529596
Si Si3 0.565363 0.893313 0.030078
Si Si4 0.897240 0.710349 0.052499
Si Si5 0.042537 0.898709 0.290966
Si Si6 0.727888 0.542515 0.120009
Si Si7 0.489439 0.294234 0.204874
Si Si8 0.739247 0.678639 0.412038
O O1 0.051500 0.466540 0.809080
O O2 0.241009 0.399421 0.692374
O O3 0.810701 0.606921 0.763699
O O4 0.270543 0.762389 0.948553
O O5 0.417870 0.762865 0.434034
O O6 0.500000 0.000000 0.500000
O O7 0.600876 0.121178 0.672932
O O8 0.000000 0.000000 0.500000
O O9 0.543966 0.122212 0.152312
O O10 0.821637 0.839238 0.066540
O O11 0.568247 0.804319 0.918134
O O12 0.968238 0.844854 0.190070
O O13 0.606480 0.548154 0.945680
O O14 0.170613 0.600414 0.998268
O O15 0.826737 0.754424 0.224597
O O16 0.030348 0.126211 0.436869
O O17 0.745946 0.484427 0.337100
#
# Coordination Sequence:
#
# PCOD9079707 Si02
#       8
#     2   2   2   2   2   2   2   2
#     4  10  20  37  62  94 133 160 224 273 338 385
#     4  10  25  41  61  91 128 172 218 257 324 385
#     4   9  20  36  64  94 124 172 216 282 331 379
#     4  11  23  46  65  97 130 176 230 271 324 396
#     4  10  25  43  65  93 138 178 218 270 331 398
#     4  11  24  41  68  94 129 179 226 274 318 395
#     4  10  18  37  63  94 129 164 222 274 338 384
#     4   9  24  39  59  98 133 171 211 278 330 401
#
# _framework density 21.573447000000002
#
# number of rings (size 3 to 8) (size 9 to 14) (size 15 to 20)
#    0.750    1.250    1.250    1.125    3.500    2.500 
#    4.500    0.625    0.000    0.750    0.000    0.000 
#    0.000    0.000    0.000    0.000    0.000    0.000 
#
# Total GULP energy -89216.608084 kJ/mol
# GULP energy per Si atom -5576.038005 kJ/mol
# Density = 2.152434 g / cm^3
# Si number density = 21.573447 Si / 1000 Ang^3
#
#
#
# Elastic Constant Matrix: (Units=GPa)
#
#
# Indices 1 2 3 4 5 6 
#
# 1 75.9861 15.1620 23.2037 11.7009 -7.7478 1.7612
# 2 15.1620 91.5428 61.8851 16.3711 11.6293 19.3085
# 3 23.2037 61.8851 141.9326 22.6007 13.9145 19.7640
# 4 11.7009 16.3711 22.6007 40.0642 1.2450 4.2806
# 5 -7.7478 11.6293 13.9145 1.2450 24.7057 -0.0127
# 6 1.7612 19.3085 19.7640 4.2806 -0.0127 28.2089
#
#
#
# Elastic Compliance Matrix: (Units=1/GPa)
#
#
# Indices 1 2 3 4 5 6 
#
# 1 0.015345 -0.001910 -0.002239 -0.002912 0.007120 0.002363
# 2 -0.001910 0.017712 -0.005321 -0.002656 -0.005809 -0.007875
# 3 -0.002239 -0.005321 0.011117 -0.002928 -0.004313 -0.003565
# 4 -0.002912 -0.002656 -0.002928 0.028560 0.000547 -0.000283
# 5 0.007120 -0.005809 -0.004313 0.000547 0.047849 0.006492
# 6 0.002363 -0.007875 -0.003565 -0.000283 0.006492 0.043236
#
#
# Mechanical properties :
#
#
# Convention : Reuss Voigt Hill
#
# Bulk Modulus (GPa) = 39.63144 56.66257 48.14700
# Shear Modulus (GPa) = 26.15455 32.54314 29.34885
#
# Velocity S-wave (km/s) = 3.48566 3.88813 3.69238
# Velocity P-wave (km/s) = 5.88303 6.81753 6.36745
#
# Compressibility (1/GPa) = 0.02523249
#
# Stress axis : x y z
#
# Youngs Moduli (GPa) = 65.16847 56.46043 89.94964
#
# Poissons Ratio (x) = 0.10784 0.20143
# Poissons Ratio (y) = 0.12447 0.47864
# Poissons Ratio (z) = 0.14594 0.30044
#
# Static dielectric constant tensor:
#      x y z
#    x 1.925570 -0.028700 0.003750 
#    y -0.028700 1.784340 0.012910 
#    z 0.003750 0.012910 1.861410 
# 
# From -- ./inp_files/615816.got.cif
#   From: 2010.05.17/outbox.cif.g08.bks.cpg/sg2_308_cif.got.tgz:615816.got - 2010.06.03 11:33:40.
