data_PCOD9079883
_publ_section_title
;
Structure prediction by ZEFSAII (Michael W. Deem and Ramdas Pophale) SiO2 
 PCOD9079883
Probable space group: P -1
;
_chemical_formula_sum "Si O2"
_cell_formula_units_Z 16
_cell_length_a 11.315527
_cell_length_b 18.164369
_cell_length_c 11.608658
_cell_angle_alpha 144.621519
_cell_angle_beta 54.135183
_cell_angle_gamma 148.664648
_cell_volume 668.251171
_symmetry_space_group_name_H-M "P -1"
_symmetry_group_IT_number 2
_symmetry_cell_setting 'triclinic'
loop_
_space_group_symop_operation_xyz
x,y,z
-x,-y,-z
loop_
_atom_site_type_symbol
_atom_site_label
_atom_site_fract_x
_atom_site_fract_y
_atom_site_fract_z
Si Si1 0.797011 0.849160 0.024130
Si Si2 0.600220 0.451574 0.599968
Si Si3 0.719391 0.083989 0.418297
Si Si4 0.559441 0.006613 0.161075
Si Si5 0.995486 0.610846 0.736022
Si Si6 0.838996 0.461836 0.269063
Si Si7 0.773099 0.976746 0.626928
Si Si8 0.764729 0.753994 0.171024
O O1 0.878379 0.850696 0.102984
O O2 0.702428 0.921137 0.206703
O O3 0.607210 0.607980 0.783778
O O4 0.000000 0.000000 0.000000
O O5 0.725164 0.471419 0.445556
O O6 0.340264 0.206970 0.455808
O O7 0.760007 0.521461 0.711284
O O8 0.715231 0.122269 0.335663
O O9 0.970372 0.315731 0.622350
O O10 0.500000 0.000000 0.500000
O O11 0.750511 0.137969 0.114121
O O12 0.393950 0.016466 0.265309
O O13 0.385092 0.762406 0.952566
O O14 0.016534 0.555866 0.776001
O O15 0.000000 0.500000 0.500000
O O16 0.952565 0.807730 0.212770
O O17 0.756032 0.889066 0.404721
O O18 0.500000 0.500000 0.000000
#
# Coordination Sequence:
#
# PCOD9079883 Si02
#       8
#     2   2   2   2   2   2   2   2
#     4  12  25  47  77 101 148 204 242 295 375 437
#     4  11  21  42  71 106 143 187 241 299 365 431
#     4  12  27  49  68  99 149 197 243 293 362 445
#     4  12  23  41  72 105 139 187 234 297 367 423
#     4  10  18  37  68 101 142 169 222 300 359 404
#     4  11  23  41  67 104 143 183 238 297 355 429
#     4  11  24  43  73 111 141 183 251 307 365 440
#     4  11  26  48  72 104 146 191 242 308 373 428
#
# _framework density 23.943093000000001
#
# number of rings (size 3 to 8) (size 9 to 14) (size 15 to 20)
#    0.000    0.750    7.500    1.125    1.750    3.500 
#    2.250    1.250    0.000    0.000    0.000    0.000 
#    0.000    0.000    0.000    0.000    0.000    0.000 
#
# Total GULP energy -89430.157129 kJ/mol
# GULP energy per Si atom -5589.384821 kJ/mol
# Density = 2.388860 g / cm^3
# Si number density = 23.943093 Si / 1000 Ang^3
#
#
#
# Elastic Constant Matrix: (Units=GPa)
#
#
# Indices 1 2 3 4 5 6 
#
# 1 54.9287 5.9929 37.4988 4.8291 -8.2230 11.1261
# 2 5.9929 72.3462 43.8328 0.3600 -5.1662 9.4897
# 3 37.4988 43.8328 138.9350 22.9080 -22.2775 12.5036
# 4 4.8291 0.3600 22.9080 49.2736 7.3015 5.2157
# 5 -8.2230 -5.1662 -22.2775 7.3015 48.5469 -0.6192
# 6 11.1261 9.4897 12.5036 5.2157 -0.6192 31.6671
#
#
#
# Elastic Compliance Matrix: (Units=1/GPa)
#
#
# Indices 1 2 3 4 5 6 
#
# 1 0.024009 0.003187 -0.006962 0.001453 0.000905 -0.006863
# 2 0.003187 0.018276 -0.007011 0.003477 -0.001312 -0.004426
# 3 -0.006962 -0.007011 0.013055 -0.006129 0.004993 0.000500
# 4 0.001453 0.003477 -0.006129 0.024189 -0.005876 -0.003231
# 5 0.000905 -0.001312 0.004993 -0.005876 0.023781 -0.000464
# 6 -0.006863 -0.004426 0.000500 -0.003231 -0.000464 0.035642
#
#
# Mechanical properties :
#
#
# Convention : Reuss Voigt Hill
#
# Bulk Modulus (GPa) = 29.61518 48.98432 39.29975
# Shear Modulus (GPa) = 29.10677 37.82322 33.46500
#
# Velocity S-wave (km/s) = 3.49042 3.97887 3.74262
# Velocity P-wave (km/s) = 5.35162 6.45071 5.92670
#
# Compressibility (1/GPa) = 0.03376647
#
# Stress axis : x y z
#
# Youngs Moduli (GPa) = 41.65169 54.71623 76.59867
#
# Poissons Ratio (x) = -0.17439 0.53331
# Poissons Ratio (y) = -0.13275 0.53707
# Poissons Ratio (z) = 0.28999 0.38364
#
# Static dielectric constant tensor:
#      x y z
#    x 1.939800 0.000500 -0.005180 
#    y 0.000500 1.962660 0.002220 
#    z -0.005180 0.002220 1.971170 
# 
# From -- ./inp_files/457746.got.cif
#   From: 2010.05.17/outbox.cif.g08.bks.cpg/sg2_229_cif.got.tgz:457746.got - 2010.06.03 11:33:40.
