data_PCOD9079527
_publ_section_title
;
Structure prediction by ZEFSAII (Michael W. Deem and Ramdas Pophale) SiO2 
 PCOD9079527
Probable space group: P -1
;
_chemical_formula_sum "Si O2"
_cell_formula_units_Z 14
_cell_length_a 14.945472
_cell_length_b 11.972637
_cell_length_c 15.746528
_cell_angle_alpha 30.072786
_cell_angle_beta 152.520368
_cell_angle_gamma 130.980825
_cell_volume 570.059191
_symmetry_space_group_name_H-M "P -1"
_symmetry_group_IT_number 2
_symmetry_cell_setting 'triclinic'
loop_
_space_group_symop_operation_xyz
x,y,z
-x,-y,-z
loop_
_atom_site_type_symbol
_atom_site_label
_atom_site_fract_x
_atom_site_fract_y
_atom_site_fract_z
Si Si1 0.402769 0.598620 0.216819
Si Si2 0.877734 0.852115 0.139930
Si Si3 0.523678 0.841105 0.294204
Si Si4 0.179252 0.049383 0.261616
Si Si5 0.730012 0.498393 0.180951
Si Si6 0.926209 0.803765 0.729885
Si Si7 0.369286 0.407494 0.137324
O O1 0.539696 0.717984 0.297756
O O2 0.448693 0.361061 0.474284
O O3 0.436162 0.518039 0.201007
O O4 0.143867 0.796368 0.882049
O O5 0.751731 0.758622 0.030282
O O6 0.111167 0.641206 0.514307
O O7 0.956067 0.049076 0.040773
O O8 0.718855 0.940995 0.029519
O O9 0.711063 0.917746 0.415333
O O10 0.144409 0.064264 0.324706
O O11 0.218822 0.286817 0.121875
O O12 0.402017 0.814046 0.565745
O O13 0.500000 0.500000 0.000000
O O14 0.774734 0.406220 0.182393
O O15 0.000000 0.500000 0.000000
#
# Coordination Sequence:
#
# PCOD9079527 Si02
#       7
#     2   2   2   2   2   2   2
#     4  10  21  37  62  98 130 165 212 262 329 380
#     4  11  24  42  67  96 119 182 221 251 326 398
#     4  10  20  36  64  92 129 167 213 258 320 391
#     4  11  21  38  66 101 128 156 221 268 325 375
#     4  11  25  46  64  87 137 180 211 264 324 390
#     4  10  18  37  60  93 130 170 198 261 331 385
#     4  11  23  40  65 100 134 163 213 280 318 371
#
# _framework density 24.558852999999999
#
# number of rings (size 3 to 8) (size 9 to 14) (size 15 to 20)
#    0.000    1.429    5.714    0.857    2.000    0.571 
#    2.571    0.714    0.000    1.714    0.000    0.000 
#    0.000    0.000    0.000    0.000    0.000    0.000 
#
# Total GULP energy -78144.043795 kJ/mol
# GULP energy per Si atom -5581.717414 kJ/mol
# Density = 2.450296 g / cm^3
# Si number density = 24.558853 Si / 1000 Ang^3
#
#
#
# Elastic Constant Matrix: (Units=GPa)
#
#
# Indices 1 2 3 4 5 6 
#
# 1 83.6530 49.6635 20.7377 15.7245 1.2566 -28.9315
# 2 49.6635 175.9544 29.0414 44.7236 8.0700 -23.6858
# 3 20.7377 29.0414 57.5672 22.6967 18.9428 3.7672
# 4 15.7245 44.7236 22.6967 39.0574 -1.2046 5.0579
# 5 1.2566 8.0700 18.9428 -1.2046 32.4613 7.3705
# 6 -28.9315 -23.6858 3.7672 5.0579 7.3705 47.6069
#
#
#
# Elastic Compliance Matrix: (Units=1/GPa)
#
#
# Indices 1 2 3 4 5 6 
#
# 1 0.019091 -0.002022 -0.005053 -0.003913 -0.000025 0.011416
# 2 -0.002022 0.010322 0.002196 -0.013234 -0.005625 0.006010
# 3 -0.005053 0.002196 0.032695 -0.020202 -0.020345 0.000731
# 4 -0.003913 -0.013234 -0.020202 0.056884 0.021128 -0.016678
# 5 -0.000025 -0.005625 -0.020345 0.021128 0.047308 -0.010773
# 6 0.011416 0.006010 0.000731 -0.016678 -0.010773 0.034315
#
#
# Mechanical properties :
#
#
# Convention : Reuss Voigt Hill
#
# Bulk Modulus (GPa) = 19.10184 57.33998 38.22091
# Shear Modulus (GPa) = 21.94684 38.34060 30.14372
#
# Velocity S-wave (km/s) = 2.99263 3.95545 3.50724
# Velocity P-wave (km/s) = 4.44252 6.65278 5.65665
#
# Compressibility (1/GPa) = 0.05235098
#
# Stress axis : x y z
#
# Youngs Moduli (GPa) = 52.37973 96.87853 30.58546
#
# Poissons Ratio (x) = 0.19589 0.15456
# Poissons Ratio (y) = 0.10591 -0.06718
# Poissons Ratio (z) = 0.26469 -0.21278
#
# Static dielectric constant tensor:
#      x y z
#    x 1.963480 0.077490 -0.080680 
#    y 0.077490 2.055470 -0.110040 
#    z -0.080680 -0.110040 2.155820 
# 
# From -- ./inp_files/532351.got.cif
#   From: 2010.05.17/outbox.cif.g08.bks.cpg/sg2_267_cif.got.tgz:532351.got - 2010.06.03 11:33:40.
