data_PCOD9079280
_publ_section_title
;
Structure prediction by ZEFSAII (Michael W. Deem and Ramdas Pophale) SiO2 
 PCOD9079280
Probable space group: P -1
;
_chemical_formula_sum "Si O2"
_cell_formula_units_Z 16
_cell_length_a 11.491960
_cell_length_b 8.364577
_cell_length_c 11.790322
_cell_angle_alpha 119.928089
_cell_angle_beta 105.890249
_cell_angle_gamma 49.888917
_cell_volume 749.255590
_symmetry_space_group_name_H-M "P -1"
_symmetry_group_IT_number 2
_symmetry_cell_setting 'triclinic'
loop_
_space_group_symop_operation_xyz
x,y,z
-x,-y,-z
loop_
_atom_site_type_symbol
_atom_site_label
_atom_site_fract_x
_atom_site_fract_y
_atom_site_fract_z
Si Si1 0.618818 0.266330 0.516620
Si Si2 0.889435 0.640304 0.624831
Si Si3 0.179131 0.467178 0.997462
Si Si4 0.934288 0.851513 0.924552
Si Si5 0.578140 0.110363 0.665933
Si Si6 0.668056 0.295990 0.941030
Si Si7 0.733713 0.529977 0.722745
Si Si8 0.399609 0.018360 0.753406
O O1 0.500000 0.500000 0.500000
O O2 0.529432 0.227587 0.572429
O O3 0.725336 0.318913 0.622324
O O4 0.684612 0.059638 0.371481
O O5 0.842485 0.517455 0.652070
O O6 0.000000 0.500000 0.500000
O O7 0.951648 0.738884 0.765363
O O8 0.726835 0.846295 0.600267
O O9 0.006933 0.650251 0.967228
O O10 0.284330 0.207034 0.882382
O O11 0.247861 0.589292 0.002404
O O12 0.202926 0.476366 0.139729
O O13 0.753456 0.064672 0.959298
O O14 0.000000 0.000000 0.000000
O O15 0.648700 0.219627 0.787977
O O16 0.455162 0.127508 0.719865
O O17 0.500000 0.500000 0.000000
O O18 0.561059 0.779574 0.755773
#
# Coordination Sequence:
#
# PCOD9079280 Si02
#       8
#     2   2   2   2   2   2   2   2
#     4  10  21  38  57  90 132 159 207 273 314 362
#     4  10  23  43  67  85 121 169 220 257 314 390
#     4  11  20  37  65  89 137 161 206 265 317 379
#     4   9  22  40  61  98 126 163 211 263 315 372
#     4  10  19  37  65  88 123 168 214 258 308 380
#     4  10  18  36  65  93 123 168 210 252 315 382
#     4  10  22  41  63  90 127 172 209 264 324 370
#     4  10  21  35  61 100 123 167 215 259 314 380
#
# _framework density 21.354528999999999
#
# number of rings (size 3 to 8) (size 9 to 14) (size 15 to 20)
#    0.000    2.000    2.500    0.750    1.750    0.500 
#    0.000    1.875    2.750    0.000    0.000    0.000 
#    0.000    0.000    0.000    0.000    0.000    0.000 
#
# Total GULP energy -89165.086436 kJ/mol
# GULP energy per Si atom -5572.817902 kJ/mol
# Density = 2.130593 g / cm^3
# Si number density = 21.354529 Si / 1000 Ang^3
#
#
#
# Elastic Constant Matrix: (Units=GPa)
#
#
# Indices 1 2 3 4 5 6 
#
# 1 64.6284 24.5436 55.9580 4.8217 9.0993 0.7372
# 2 24.5436 102.1342 69.3768 -19.0190 -14.9305 -2.9678
# 3 55.9580 69.3768 153.0916 4.8652 9.4929 -0.9530
# 4 4.8217 -19.0190 4.8652 33.3941 3.2433 -2.2622
# 5 9.0993 -14.9305 9.4929 3.2433 44.4346 5.6065
# 6 0.7372 -2.9678 -0.9530 -2.2622 5.6065 24.3138
#
#
#
# Elastic Compliance Matrix: (Units=1/GPa)
#
#
# Indices 1 2 3 4 5 6 
#
# 1 0.023253 -0.001532 -0.007509 -0.002853 -0.003379 -0.000673
# 2 -0.001532 0.020053 -0.009405 0.012334 0.007980 0.001433
# 3 -0.007509 -0.009405 0.013986 -0.005901 -0.004185 0.000044
# 4 -0.002853 0.012334 -0.005901 0.038276 0.002652 0.004311
# 5 -0.003379 0.007980 -0.004185 0.002652 0.027225 -0.005119
# 6 -0.000673 0.001433 0.000044 0.004311 -0.005119 0.042907
#
#
# Mechanical properties :
#
#
# Convention : Reuss Voigt Hill
#
# Bulk Modulus (GPa) = 49.02126 68.84567 58.93346
# Shear Modulus (GPa) = 23.87849 31.76021 27.81935
#
# Velocity S-wave (km/s) = 3.34757 3.86071 3.61326
# Velocity P-wave (km/s) = 6.16014 7.22377 6.71305
#
# Compressibility (1/GPa) = 0.02039931
#
# Stress axis : x y z
#
# Youngs Moduli (GPa) = 43.00538 49.86778 71.49832
#
# Poissons Ratio (x) = 0.07640 0.53689
# Poissons Ratio (y) = 0.06588 0.67247
# Poissons Ratio (z) = 0.32293 0.46903
#
# Static dielectric constant tensor:
#      x y z
#    x 1.896680 -0.060730 0.058000 
#    y -0.060730 1.858010 -0.062940 
#    z 0.058000 -0.062940 1.708920 
# 
# From -- ./inp_files/419765.got.cif
#   From: 2010.05.17/outbox.cif.g08.bks.cpg/sg2_210_cif.got.tgz:419765.got - 2010.06.03 11:33:40.
