data_PCOD9079837
_publ_section_title
;
Structure prediction by ZEFSAII (Michael W. Deem and Ramdas Pophale) SiO2 
 PCOD9079837
Probable space group: P -1
;
_chemical_formula_sum "Si O2"
_cell_formula_units_Z 16
_cell_length_a 9.558404
_cell_length_b 15.926512
_cell_length_c 8.371767
_cell_angle_alpha 139.889652
_cell_angle_beta 99.730715
_cell_angle_gamma 61.832823
_cell_volume 681.226716
_symmetry_space_group_name_H-M "P -1"
_symmetry_group_IT_number 2
_symmetry_cell_setting 'triclinic'
loop_
_space_group_symop_operation_xyz
x,y,z
-x,-y,-z
loop_
_atom_site_type_symbol
_atom_site_label
_atom_site_fract_x
_atom_site_fract_y
_atom_site_fract_z
Si Si1 0.629931 0.886252 0.722625
Si Si2 0.354143 0.871842 0.459049
Si Si3 0.255008 0.342484 0.312338
Si Si4 0.703817 0.435596 0.144539
Si Si5 0.622512 0.151118 0.948111
Si Si6 0.948648 0.782728 0.012146
Si Si7 0.104142 0.817240 0.788000
Si Si8 0.675418 0.388930 0.736691
O O1 0.521343 0.860046 0.536735
O O2 0.741380 0.735842 0.631396
O O3 0.701343 0.976945 0.778689
O O4 0.500000 0.000000 0.000000
O O5 0.364868 0.846019 0.234690
O O6 0.334855 0.749215 0.380644
O O7 0.201024 0.047219 0.717769
O O8 0.253564 0.489306 0.591699
O O9 0.116598 0.334912 0.169180
O O10 0.430433 0.243415 0.106036
O O11 0.506241 0.494931 0.212745
O O12 0.879760 0.268590 0.935640
O O13 0.697222 0.478414 0.017368
O O14 0.723982 0.217966 0.145476
O O15 0.992071 0.795169 0.857373
O O16 0.169748 0.699671 0.482159
O O17 0.000000 0.000000 0.000000
#
# Coordination Sequence:
#
# PCOD9079837 Si02
#       8
#     2   2   2   2   2   2   2   2
#     4  10  18  37  66  95 127 174 219 268 329 389
#     4  12  22  41  69 105 130 168 226 288 330 384
#     4  11  22  47  68  97 137 185 218 272 336 405
#     4  11  25  46  67  95 137 186 219 272 332 409
#     4  11  23  38  70 103 133 172 228 277 335 399
#     4  12  26  41  71 102 139 168 226 286 333 383
#     4  12  24  43  69 103 129 175 224 284 337 389
#     4  11  24  47  71  94 138 181 223 269 344 403
#
# _framework density 23.487041000000001
#
# number of rings (size 3 to 8) (size 9 to 14) (size 15 to 20)
#    0.000    0.750    6.250    3.000    1.750    1.500 
#    4.500    0.625    0.000    0.000    0.000    0.000 
#    0.000    0.000    0.000    0.000    0.000    0.000 
#
# Total GULP energy -89341.133122 kJ/mol
# GULP energy per Si atom -5583.820820 kJ/mol
# Density = 2.343358 g / cm^3
# Si number density = 23.487041 Si / 1000 Ang^3
#
#
#
# Elastic Constant Matrix: (Units=GPa)
#
#
# Indices 1 2 3 4 5 6 
#
# 1 92.7006 17.9384 23.8213 -2.9363 -7.1010 -10.1843
# 2 17.9384 70.3052 19.5539 3.8134 -6.5584 -15.9444
# 3 23.8213 19.5539 114.8576 -9.3812 -18.2599 -5.0242
# 4 -2.9363 3.8134 -9.3812 31.5499 3.2945 -6.6361
# 5 -7.1010 -6.5584 -18.2599 3.2945 36.8611 4.3703
# 6 -10.1843 -15.9444 -5.0242 -6.6361 4.3703 38.5486
#
#
#
# Elastic Compliance Matrix: (Units=1/GPa)
#
#
# Indices 1 2 3 4 5 6 
#
# 1 0.011988 -0.002050 -0.001836 0.001214 0.000664 0.002214
# 2 -0.002050 0.016839 -0.002177 -0.001775 0.001003 0.005720
# 3 -0.001836 -0.002177 0.010337 0.002725 0.004141 -0.000038
# 4 0.001214 -0.001775 0.002725 0.034392 -0.002535 0.006150
# 5 0.000664 0.001003 0.004141 -0.002535 0.030034 -0.002711
# 6 0.002214 0.005720 -0.000038 0.006150 -0.002711 0.030253
#
#
# Mechanical properties :
#
#
# Convention : Reuss Voigt Hill
#
# Bulk Modulus (GPa) = 36.98318 44.49896 40.74107
# Shear Modulus (GPa) = 32.26160 35.82858 34.04509
#
# Velocity S-wave (km/s) = 3.71022 3.90995 3.81140
# Velocity P-wave (km/s) = 5.84249 6.27463 6.06241
#
# Compressibility (1/GPa) = 0.02703932
#
# Stress axis : x y z
#
# Youngs Moduli (GPa) = 83.41392 59.38445 96.74012
#
# Poissons Ratio (x) = 0.12174 0.17759
# Poissons Ratio (y) = 0.17101 0.21059
# Poissons Ratio (z) = 0.15313 0.12927
#
# Static dielectric constant tensor:
#      x y z
#    x 1.915070 0.017990 0.061250 
#    y 0.017990 1.957580 0.070440 
#    z 0.061250 0.070440 1.946780 
# 
# From -- ./inp_files/218909.got.cif
#   From: 2010.05.17/outbox.cif.g08.bks.cpg/sg2_110_cif.got.tgz:218909.got - 2010.06.03 11:33:40.
