data_PCOD9079361
_publ_section_title
;
Structure prediction by ZEFSAII (Michael W. Deem and Ramdas Pophale) SiO2 
 PCOD9079361
Probable space group: P -1
;
_chemical_formula_sum "Si O2"
_cell_formula_units_Z 16
_cell_length_a 27.017592
_cell_length_b 8.191329
_cell_length_c 14.280272
_cell_angle_alpha 54.192533
_cell_angle_beta 19.971665
_cell_angle_gamma 43.678860
_cell_volume 682.811174
_symmetry_space_group_name_H-M "P -1"
_symmetry_group_IT_number 2
_symmetry_cell_setting 'triclinic'
loop_
_space_group_symop_operation_xyz
x,y,z
-x,-y,-z
loop_
_atom_site_type_symbol
_atom_site_label
_atom_site_fract_x
_atom_site_fract_y
_atom_site_fract_z
Si Si1 0.854047 0.217709 0.111835
Si Si2 0.440762 0.842727 0.326145
Si Si3 0.063815 0.314649 0.036918
Si Si4 0.141991 0.917596 0.554187
Si Si5 0.407136 0.219742 0.515396
Si Si6 0.474365 0.512672 0.877699
Si Si7 0.198612 0.273768 0.266541
Si Si8 0.770547 0.637654 0.596837
O O1 0.722330 0.144623 0.339877
O O2 0.729133 0.498681 0.286187
O O3 0.000000 0.000000 0.000000
O O4 0.990680 0.166193 0.804016
O O5 0.513592 0.614101 0.199676
O O6 0.354847 0.096108 0.329145
O O7 0.621105 0.771545 0.082110
O O8 0.978668 0.167956 0.231324
O O9 0.967970 0.474266 0.249649
O O10 0.279720 0.174794 0.701106
O O11 0.000000 0.500000 0.000000
O O12 0.325708 0.687094 0.360273
O O13 0.212694 0.020278 0.321152
O O14 0.539927 0.241510 0.207431
O O15 0.500000 0.000000 0.500000
O O16 0.322327 0.504552 0.201970
O O17 0.216510 0.317028 0.331648
O O18 0.000000 0.500000 0.500000
#
# Coordination Sequence:
#
# PCOD9079361 Si02
#       8
#     2   2   2   2   2   2   2   2
#     4  11  19  39  73  96 125 176 231 273 338 408
#     4  10  18  36  69 100 122 167 230 282 333 407
#     4  12  25  41  65  99 135 178 228 281 338 414
#     4  12  21  40  63  99 128 171 232 279 324 410
#     4  11  24  43  65  98 140 179 222 288 350 399
#     4  10  19  38  68  96 129 174 226 279 335 412
#     4  11  23  41  64  96 136 171 222 288 343 403
#     4  11  21  41  69  97 128 178 231 281 346 398
#
# _framework density 23.432538999999998
#
# number of rings (size 3 to 8) (size 9 to 14) (size 15 to 20)
#    0.000    1.000    6.250    3.000    0.000    3.500 
#    0.000   10.000    0.000    0.000    0.000    0.000 
#    0.000    0.000    0.000    0.000    0.000    0.000 
#
# Total GULP energy -89351.281362 kJ/mol
# GULP energy per Si atom -5584.455085 kJ/mol
# Density = 2.337921 g / cm^3
# Si number density = 23.432539 Si / 1000 Ang^3
#
#
#
# Elastic Constant Matrix: (Units=GPa)
#
#
# Indices 1 2 3 4 5 6 
#
# 1 43.7794 25.4715 38.8718 -8.0294 -13.7189 11.4186
# 2 25.4715 111.0824 67.6149 -27.9530 -29.0924 2.6407
# 3 38.8718 67.6149 155.9252 -53.2962 -21.3433 -6.9090
# 4 -8.0294 -27.9530 -53.2962 46.3152 9.6004 -11.8607
# 5 -13.7189 -29.0924 -21.3433 9.6004 58.2125 1.8707
# 6 11.4186 2.6407 -6.9090 -11.8607 1.8707 33.1501
#
#
#
# Elastic Compliance Matrix: (Units=1/GPa)
#
#
# Indices 1 2 3 4 5 6 
#
# 1 0.046961 -0.002512 -0.019284 -0.024664 0.007749 -0.029256
# 2 -0.002512 0.013746 -0.003992 0.002207 0.004467 -0.000524
# 3 -0.019284 -0.003992 0.022337 0.026050 -0.003325 0.021124
# 4 -0.024664 0.002207 0.026050 0.058868 -0.005997 0.035149
# 5 0.007749 0.004467 -0.003325 -0.005997 0.021234 -0.007062
# 6 -0.029256 -0.000524 0.021124 0.035149 -0.007062 0.057662
#
#
# Mechanical properties :
#
#
# Convention : Reuss Voigt Hill
#
# Bulk Modulus (GPa) = 31.77811 63.85591 47.81701
# Shear Modulus (GPa) = 17.67585 39.45748 28.56667
#
# Velocity S-wave (km/s) = 2.74949 4.10796 3.49535
# Velocity P-wave (km/s) = 4.86524 7.05766 6.06140
#
# Compressibility (1/GPa) = 0.03146820
#
# Stress axis : x y z
#
# Youngs Moduli (GPa) = 21.29427 72.74910 44.76946
#
# Poissons Ratio (x) = 0.18272 0.86333
# Poissons Ratio (y) = 0.05348 0.17872
# Poissons Ratio (z) = 0.41064 0.29042
#
# Static dielectric constant tensor:
#      x y z
#    x 1.896340 0.051990 0.031680 
#    y 0.051990 1.878960 -0.023950 
#    z 0.031680 -0.023950 1.893870 
# 
# From -- ./inp_files/543805.got.cif
#   From: 2010.05.17/outbox.cif.g08.bks.cpg/sg2_272_cif.got.tgz:543805.got - 2010.06.03 11:33:40.
