data_PCOD9079344
_publ_section_title
;
Structure prediction by ZEFSAII (Michael W. Deem and Ramdas Pophale) SiO2 
 PCOD9079344
Probable space group: P -1
;
_chemical_formula_sum "Si O2"
_cell_formula_units_Z 15
_cell_length_a 19.409228
_cell_length_b 23.474344
_cell_length_c 11.129048
_cell_angle_alpha 157.089315
_cell_angle_beta 150.884352
_cell_angle_gamma 17.445003
_cell_volume 591.208437
_symmetry_space_group_name_H-M "P -1"
_symmetry_group_IT_number 2
_symmetry_cell_setting 'triclinic'
loop_
_space_group_symop_operation_xyz
x,y,z
-x,-y,-z
loop_
_atom_site_type_symbol
_atom_site_label
_atom_site_fract_x
_atom_site_fract_y
_atom_site_fract_z
Si Si1 0.711475 0.571984 0.514570
Si Si2 0.500000 0.500000 0.000000
Si Si3 0.335338 0.075256 0.290666
Si Si4 0.271113 0.416543 0.171334
Si Si5 0.937262 0.180406 0.663031
Si Si6 0.554572 0.396410 0.161962
Si Si7 0.073853 0.042775 0.979328
Si Si8 0.980176 0.585744 0.814605
O O1 0.817786 0.526853 0.717360
O O2 0.780226 0.637290 0.650832
O O3 0.460477 0.710136 0.401131
O O4 0.824369 0.315869 0.158342
O O5 0.501123 0.561536 0.980487
O O6 0.157477 0.352425 0.547563
O O7 0.500000 0.000000 0.500000
O O8 0.516136 0.868508 0.069161
O O9 0.193086 0.057383 0.097683
O O10 0.366247 0.504831 0.487853
O O11 0.109302 0.520629 0.011832
O O12 0.676780 0.444280 0.806495
O O13 0.946501 0.093757 0.381748
O O14 0.081576 0.211329 0.946741
O O15 0.000000 0.000000 0.500000
O O16 0.758922 0.118092 0.966398
#
# Coordination Sequence:
#
# PCOD9079344 Si02
#       8
#     2   1   2   2   2   2   2   2
#     4  10  23  41  68 100 140 176 226 280 342 411
#     4  10  24  42  62  96 146 180 216 276 348 404
#     4   9  18  34  63  98 131 163 225 280 332 389
#     4  10  18  36  68 100 135 172 221 285 333 401
#     4  12  24  41  68 101 139 176 229 282 343 401
#     4  11  21  40  68  96 135 182 227 280 331 406
#     4  11  21  40  68 100 127 178 236 275 334 400
#     4  10  21  40  65 100 133 175 230 281 336 400
#
# _framework density 25.371762
#
# number of rings (size 3 to 8) (size 9 to 14) (size 15 to 20)
#    0.000    1.600    2.667    3.200    0.000    2.133 
#    2.400    7.333    0.000    4.000    0.000    0.000 
#    0.000    0.000    0.000    0.000    0.000    0.000 
#
# Total GULP energy -83740.805935 kJ/mol
# GULP energy per Si atom -5582.720396 kJ/mol
# Density = 2.531402 g / cm^3
# Si number density = 25.371762 Si / 1000 Ang^3
#
#
#
# Elastic Constant Matrix: (Units=GPa)
#
#
# Indices 1 2 3 4 5 6 
#
# 1 77.0921 30.5213 40.0665 18.9188 7.8081 9.8561
# 2 30.5213 115.5909 28.4391 5.1302 -2.2079 24.6599
# 3 40.0665 28.4391 139.6062 1.2506 20.1492 16.5674
# 4 18.9188 5.1302 1.2506 32.1272 2.6664 6.8634
# 5 7.8081 -2.2079 20.1492 2.6664 51.4280 -16.8587
# 6 9.8561 24.6599 16.5674 6.8634 -16.8587 31.9923
#
#
#
# Elastic Compliance Matrix: (Units=1/GPa)
#
#
# Indices 1 2 3 4 5 6 
#
# 1 0.019557 -0.003857 -0.004954 -0.011114 0.000005 0.001901
# 2 -0.003857 0.011494 0.000200 0.002653 -0.002263 -0.009537
# 3 -0.004954 0.000200 0.010404 0.004791 -0.006307 -0.008368
# 4 -0.011114 0.002653 0.004791 0.040420 -0.006498 -0.013198
# 5 0.000005 -0.002263 -0.006307 -0.006498 0.029318 0.021853
# 6 0.001901 -0.009537 -0.008368 -0.013198 0.021853 0.056703
#
#
# Mechanical properties :
#
#
# Convention : Reuss Voigt Hill
#
# Bulk Modulus (GPa) = 41.26472 58.92700 50.09586
# Shear Modulus (GPa) = 25.88036 38.66030 32.27033
#
# Velocity S-wave (km/s) = 3.19728 3.90776 3.57024
# Velocity P-wave (km/s) = 5.47078 6.60581 6.06490
#
# Compressibility (1/GPa) = 0.02423377
#
# Stress axis : x y z
#
# Youngs Moduli (GPa) = 51.13179 87.00166 96.11394
#
# Poissons Ratio (x) = 0.33559 0.47614
# Poissons Ratio (y) = 0.19723 -0.01925
# Poissons Ratio (z) = 0.25330 -0.01742
#
# Static dielectric constant tensor:
#      x y z
#    x 2.411150 -0.657690 0.218910 
#    y -0.657690 2.913150 -0.310720 
#    z 0.218910 -0.310720 2.099600 
# 
# From -- ./inp_files/472959.got.cif
#   From: 2010.05.17/outbox.cif.g08.bks.cpg/sg2_237_cif.got.tgz:472959.got - 2010.06.03 11:33:40.
