data_PCOD9079288
_publ_section_title
;
Structure prediction by ZEFSAII (Michael W. Deem and Ramdas Pophale) SiO2 
 PCOD9079288
Probable space group: P -1
;
_chemical_formula_sum "Si O2"
_cell_formula_units_Z 16
_cell_length_a 11.933345
_cell_length_b 7.542945
_cell_length_c 11.258074
_cell_angle_alpha 52.604581
_cell_angle_beta 54.110100
_cell_angle_gamma 60.822683
_cell_volume 638.478638
_symmetry_space_group_name_H-M "P -1"
_symmetry_group_IT_number 2
_symmetry_cell_setting 'triclinic'
loop_
_space_group_symop_operation_xyz
x,y,z
-x,-y,-z
loop_
_atom_site_type_symbol
_atom_site_label
_atom_site_fract_x
_atom_site_fract_y
_atom_site_fract_z
Si Si1 0.264229 0.624639 0.044935
Si Si2 0.941766 0.056950 0.305422
Si Si3 0.853522 0.895877 0.197255
Si Si4 0.344035 0.023176 0.370981
Si Si5 0.428222 0.491943 0.210849
Si Si6 0.600616 0.668777 0.456785
Si Si7 0.213545 0.182595 0.167898
Si Si8 0.809762 0.576029 0.163115
O O1 0.319163 0.666345 0.126296
O O2 0.180205 0.419673 0.168553
O O3 0.410929 0.524850 0.922893
O O4 0.190470 0.857168 0.934834
O O5 0.892197 0.322633 0.189138
O O6 0.084106 0.053529 0.289856
O O7 0.955686 0.903726 0.240746
O O8 0.813552 0.992674 0.484954
O O9 0.708827 0.831443 0.362352
O O10 0.896178 0.712149 0.141665
O O11 0.390659 0.252490 0.290969
O O12 0.339543 0.032166 0.226381
O O13 0.456184 0.826409 0.442718
O O14 0.411034 0.496810 0.360298
O O15 0.322263 0.443456 0.663527
O O16 0.235324 0.270392 0.986217
#
# Coordination Sequence:
#
# PCOD9079288 Si02
#       8
#     2   2   2   2   2   2   2   2
#     4  10  20  36  63  93 132 170 205 266 324 373
#     4  12  23  44  68  90 132 177 215 259 314 386
#     4  10  21  41  65  93 124 171 210 265 319 375
#     4  11  21  39  69  92 130 170 210 270 323 379
#     4  10  18  36  65  97 126 167 217 260 323 387
#     4  10  21  40  62  98 129 158 219 267 321 378
#     4  11  25  41  61  97 131 174 217 254 319 393
#     4  10  24  42  62 101 125 168 222 260 324 377
#
# _framework density 25.059569
#
# number of rings (size 3 to 8) (size 9 to 14) (size 15 to 20)
#    0.750    0.750    3.750    1.875    0.000    1.500 
#    2.250    0.000    0.000    3.000    0.000    0.000 
#    0.000    0.000    0.000    0.000    0.000    0.000 
#
# Total GULP energy -89515.346609 kJ/mol
# GULP energy per Si atom -5594.709163 kJ/mol
# Density = 2.500253 g / cm^3
# Si number density = 25.059569 Si / 1000 Ang^3
#
#
#
# Elastic Constant Matrix: (Units=GPa)
#
#
# Indices 1 2 3 4 5 6 
#
# 1 109.1872 19.3944 40.0421 5.1298 -0.5626 30.7615
# 2 19.3944 60.8316 14.3887 -7.7511 -1.3053 24.0340
# 3 40.0421 14.3887 94.8136 13.9760 4.5119 8.3838
# 4 5.1298 -7.7511 13.9760 46.1024 16.3163 -2.6140
# 5 -0.5626 -1.3053 4.5119 16.3163 50.4882 -3.2834
# 6 30.7615 24.0340 8.3838 -2.6140 -3.2834 33.1986
#
#
#
# Elastic Compliance Matrix: (Units=1/GPa)
#
#
# Indices 1 2 3 4 5 6 
#
# 1 0.014574 0.001889 -0.005163 -0.000492 -0.000054 -0.013612
# 2 0.001889 0.024464 -0.003468 0.004509 -0.001690 -0.018397
# 3 -0.005163 -0.003468 0.013512 -0.003957 0.000157 0.003586
# 4 -0.000492 0.004509 -0.003957 0.026559 -0.008152 -0.000525
# 5 -0.000054 -0.001690 0.000157 -0.008152 0.022567 0.002824
# 6 -0.013612 -0.018397 0.003586 -0.000525 0.002824 0.055385
#
#
# Mechanical properties :
#
#
# Convention : Reuss Voigt Hill
#
# Bulk Modulus (GPa) = 25.59748 45.83142 35.71445
# Shear Modulus (GPa) = 27.23802 38.69165 32.96483
#
# Velocity S-wave (km/s) = 3.30044 3.93362 3.63086
# Velocity P-wave (km/s) = 4.97601 6.24178 5.64449
#
# Compressibility (1/GPa) = 0.03906634
#
# Stress axis : x y z
#
# Youngs Moduli (GPa) = 68.61415 40.87706 74.00571
#
# Poissons Ratio (x) = -0.07721 0.38209
# Poissons Ratio (y) = -0.12960 0.25663
# Poissons Ratio (z) = 0.35426 0.14175
#
# Static dielectric constant tensor:
#      x y z
#    x 2.003300 0.020990 -0.038300 
#    y 0.020990 1.977720 0.035880 
#    z -0.038300 0.035880 1.999120 
# 
# From -- ./inp_files/224221.got.cif
#   From: 2010.05.17/outbox.cif.g08.bks.cpg/sg2_113_cif.got.tgz:224221.got - 2010.06.03 11:33:40.
