data_PCOD9079936
_publ_section_title
;
Structure prediction by ZEFSAII (Michael W. Deem and Ramdas Pophale) SiO2 
 PCOD9079936
Probable space group: P -1
;
_chemical_formula_sum "Si O2"
_cell_formula_units_Z 11
_cell_length_a 6.948286
_cell_length_b 16.090220
_cell_length_c 12.124022
_cell_angle_alpha 33.671162
_cell_angle_beta 31.107939
_cell_angle_gamma 43.309085
_cell_volume 387.724037
_symmetry_space_group_name_H-M "P -1"
_symmetry_group_IT_number 2
_symmetry_cell_setting 'triclinic'
loop_
_space_group_symop_operation_xyz
x,y,z
-x,-y,-z
loop_
_atom_site_type_symbol
_atom_site_label
_atom_site_fract_x
_atom_site_fract_y
_atom_site_fract_z
Si Si1 0.042938 0.023547 0.185965
Si Si2 0.000000 0.500000 0.500000
Si Si3 0.856092 0.209260 0.763169
Si Si4 0.158355 0.143409 0.324204
Si Si5 0.026015 0.623768 0.158537
Si Si6 0.219823 0.603358 0.635393
O O1 0.964275 0.951463 0.185474
O O2 0.967686 0.199987 0.045523
O O3 0.806832 0.930123 0.490425
O O4 0.500000 0.000000 0.000000
O O5 0.070129 0.323058 0.605520
O O6 0.304413 0.565958 0.179565
O O7 0.776908 0.290644 0.593046
O O8 0.482115 0.186060 0.037943
O O9 0.923638 0.296847 0.303400
O O10 0.000000 0.000000 0.500000
O O11 0.666914 0.561851 0.478253
O O12 0.978528 0.538477 0.162073
#
# Coordination Sequence:
#
# PCOD9079936 Si02
#       6
#     2   1   2   2   2   2
#     4  11  19  36  62  88 116 146 189 254 290 328
#     4  10  24  38  58  80 126 164 186 228 290 364
#     4  10  20  39  59  89 118 150 195 237 292 348
#     4  11  18  33  63  94 113 143 197 251 289 334
#     4  10  18  38  57  84 118 157 192 232 296 341
#     4   9  19  35  60  84 116 152 193 249 283 329
#
# _framework density 28.370697
#
# number of rings (size 3 to 8) (size 9 to 14) (size 15 to 20)
#    0.000    1.818    5.455    0.000    0.000    0.727 
#    0.000   27.273    0.000    0.000    0.000    0.000 
#    0.000    0.000    0.000    0.000    0.000    0.000 
#
# Total GULP energy -61361.928185 kJ/mol
# GULP energy per Si atom -5578.357108 kJ/mol
# Density = 2.830612 g / cm^3
# Si number density = 28.370697 Si / 1000 Ang^3
#
#
#
# Elastic Constant Matrix: (Units=GPa)
#
#
# Indices 1 2 3 4 5 6 
#
# 1 111.2414 58.1546 29.3834 3.3795 13.9051 28.2994
# 2 58.1546 306.6687 90.8643 -8.2154 -14.7382 60.4601
# 3 29.3834 90.8643 133.7728 2.9318 22.9983 3.3877
# 4 3.3795 -8.2154 2.9318 68.7929 11.2916 -3.4326
# 5 13.9051 -14.7382 22.9983 11.2916 39.2657 -7.8200
# 6 28.2994 60.4601 3.3877 -3.4326 -7.8200 61.0315
#
#
#
# Elastic Compliance Matrix: (Units=1/GPa)
#
#
# Indices 1 2 3 4 5 6 
#
# 1 0.011722 -0.001353 -0.000640 -0.000093 -0.005200 -0.004731
# 2 -0.001353 0.005876 -0.004329 0.000021 0.004338 -0.004396
# 3 -0.000640 -0.004329 0.011824 0.000449 -0.007866 0.002946
# 4 -0.000093 0.000021 0.000449 0.015287 -0.004564 0.000272
# 5 -0.005200 0.004338 -0.007866 -0.004564 0.035421 0.002832
# 6 -0.004731 -0.004396 0.002946 0.000272 0.002832 0.023148
#
#
# Mechanical properties :
#
#
# Convention : Reuss Voigt Hill
#
# Bulk Modulus (GPa) = 59.60065 100.94305 80.27185
# Shear Modulus (GPa) = 41.14720 58.70338 49.92529
#
# Velocity S-wave (km/s) = 3.81247 4.55373 4.19949
# Velocity P-wave (km/s) = 6.35872 7.95650 7.20206
#
# Compressibility (1/GPa) = 0.01677834
#
# Stress axis : x y z
#
# Youngs Moduli (GPa) = 85.30883 170.18916 84.57193
#
# Poissons Ratio (x) = 0.23025 0.05413
# Poissons Ratio (y) = 0.11541 0.36611
# Poissons Ratio (z) = 0.05461 0.73674
#
# Static dielectric constant tensor:
#      x y z
#    x 2.589650 -0.150860 0.082160 
#    y -0.150860 2.317650 0.067350 
#    z 0.082160 0.067350 2.326810 
# 
# From -- ./inp_files/169087.got.cif
#   From: 2010.05.17/outbox.cif.g08.bks.cpg/sg2_85_cif.got.tgz:169087.got - 2010.06.03 11:33:40.
