data_PCOD9079504
_publ_section_title
;
Structure prediction by ZEFSAII (Michael W. Deem and Ramdas Pophale) SiO2 
 PCOD9079504
Probable space group: P -1
;
_chemical_formula_sum "Si O2"
_cell_formula_units_Z 12
_cell_length_a 14.305502
_cell_length_b 8.698669
_cell_length_c 8.211660
_cell_angle_alpha 56.143417
_cell_angle_beta 139.256640
_cell_angle_gamma 123.242443
_cell_volume 538.648434
_symmetry_space_group_name_H-M "P -1"
_symmetry_group_IT_number 2
_symmetry_cell_setting 'triclinic'
loop_
_space_group_symop_operation_xyz
x,y,z
-x,-y,-z
loop_
_atom_site_type_symbol
_atom_site_label
_atom_site_fract_x
_atom_site_fract_y
_atom_site_fract_z
Si Si1 0.249177 0.972475 0.307879
Si Si2 0.408639 0.391701 0.291639
Si Si3 0.332678 0.587627 0.581707
Si Si4 0.848830 0.564448 0.878278
Si Si5 0.980047 0.999071 0.733773
Si Si6 0.952683 0.603021 0.537115
O O1 0.371840 0.163305 0.391797
O O2 0.119529 0.936018 0.293584
O O3 0.326408 0.798457 0.502850
O O4 0.148697 0.003074 0.003246
O O5 0.500000 0.500000 0.500000
O O6 0.507511 0.446649 0.229428
O O7 0.248622 0.430159 0.089973
O O8 0.253131 0.562207 0.314252
O O9 0.223143 0.447813 0.640214
O O10 0.899702 0.777020 0.745936
O O11 0.982789 0.487465 0.169523
O O12 0.987275 0.169182 0.516256
O O13 0.000000 0.500000 0.500000
#
# Coordination Sequence:
#
# PCOD9079504 Si02
#       6
#     2   2   2   2   2   2
#     4  10  18  37  60  86 118 151 195 240 288 346
#     4   9  20  37  61  83 116 159 192 236 294 344
#     4  11  21  37  62  88 116 156 196 236 291 346
#     4  10  22  41  60  85 123 151 193 245 286 343
#     4  10  20  36  60  89 116 154 190 238 297 335
#     4  12  21  36  62  89 117 154 196 240 287 344
#
# _framework density 22.277984
#
# number of rings (size 3 to 8) (size 9 to 14) (size 15 to 20)
#    0.000    1.667    3.333    3.000    0.000    0.667 
#    0.000    3.333    0.000    9.000    0.000    0.000 
#    0.000    0.000    0.000    0.000    0.000    0.000 
#
# Total GULP energy -66927.929739 kJ/mol
# GULP energy per Si atom -5577.327478 kJ/mol
# Density = 2.222728 g / cm^3
# Si number density = 22.277984 Si / 1000 Ang^3
#
#
#
# Elastic Constant Matrix: (Units=GPa)
#
#
# Indices 1 2 3 4 5 6 
#
# 1 134.5798 10.9752 5.2830 -2.3826 23.9587 21.1961
# 2 10.9752 107.2011 7.9482 6.1433 4.9888 4.8284
# 3 5.2830 7.9482 35.9126 1.7820 2.6622 9.4384
# 4 -2.3826 6.1433 1.7820 23.6826 2.1071 -0.4766
# 5 23.9587 4.9888 2.6622 2.1071 33.0771 1.6942
# 6 21.1961 4.8284 9.4384 -0.4766 1.6942 38.0545
#
#
#
# Elastic Compliance Matrix: (Units=1/GPa)
#
#
# Indices 1 2 3 4 5 6 
#
# 1 0.009455 -0.000557 0.000461 0.001552 -0.006645 -0.004995
# 2 -0.000557 0.009709 -0.001767 -0.002385 -0.000742 -0.000480
# 3 0.000461 -0.001767 0.030376 -0.001752 -0.002016 -0.007498
# 4 0.001552 -0.002385 -0.001752 0.043448 -0.003420 0.000569
# 5 -0.006645 -0.000742 -0.002016 -0.003420 0.035400 0.002676
# 6 -0.004995 -0.000480 -0.007498 0.000569 0.002676 0.030869
#
#
# Mechanical properties :
#
#
# Convention : Reuss Voigt Hill
#
# Bulk Modulus (GPa) = 21.82797 36.23405 29.03101
# Shear Modulus (GPa) = 28.04976 35.86198 31.95587
#
# Velocity S-wave (km/s) = 3.55220 4.01652 3.79148
# Velocity P-wave (km/s) = 5.16173 6.14896 5.67685
#
# Compressibility (1/GPa) = 0.04581277
#
# Stress axis : x y z
#
# Youngs Moduli (GPa) = 105.76538 102.99544 32.92079
#
# Poissons Ratio (x) = 0.05736 -0.01516
# Poissons Ratio (y) = 0.05890 0.05818
# Poissons Ratio (z) = -0.04872 0.18203
#
# Static dielectric constant tensor:
#      x y z
#    x 1.932430 -0.017700 -0.025920 
#    y -0.017700 1.819010 0.034750 
#    z -0.025920 0.034750 1.820690 
# 
# From -- ./inp_files/168159.got.cif
#   From: 2010.05.17/outbox.cif.g08.bks.cpg/sg2_85_cif.got.tgz:168159.got - 2010.06.03 11:33:40.
