data_PCOD9079529
_publ_section_title
;
Structure prediction by ZEFSAII (Michael W. Deem and Ramdas Pophale) SiO2 
 PCOD9079529
Probable space group: P -1
;
_chemical_formula_sum "Si O2"
_cell_formula_units_Z 16
_cell_length_a 14.857543
_cell_length_b 8.218781
_cell_length_c 9.120118
_cell_angle_alpha 110.742655
_cell_angle_beta 46.987607
_cell_angle_gamma 109.086680
_cell_volume 755.573639
_symmetry_space_group_name_H-M "P -1"
_symmetry_group_IT_number 2
_symmetry_cell_setting 'triclinic'
loop_
_space_group_symop_operation_xyz
x,y,z
-x,-y,-z
loop_
_atom_site_type_symbol
_atom_site_label
_atom_site_fract_x
_atom_site_fract_y
_atom_site_fract_z
Si Si1 0.890971 0.609522 0.212338
Si Si2 0.002014 0.703652 0.609815
Si Si3 0.372761 0.872468 0.616976
Si Si4 0.710434 0.417035 0.139997
Si Si5 0.618473 0.539550 0.984037
Si Si6 0.768390 0.364936 0.526164
Si Si7 0.918760 0.178494 0.752115
Si Si8 0.224944 0.123388 0.019368
O O1 0.779211 0.582534 0.209629
O O2 0.827925 0.513110 0.394933
O O3 0.970940 0.786901 0.238211
O O4 0.000000 0.500000 0.000000
O O5 0.121917 0.745935 0.590235
O O6 0.023496 0.807840 0.467660
O O7 0.000000 0.500000 0.500000
O O8 0.882571 0.752682 0.844208
O O9 0.360535 0.728460 0.717098
O O10 0.340425 0.756967 0.472267
O O11 0.500000 0.000000 0.500000
O O12 0.265421 0.996452 0.808552
O O13 0.622834 0.467063 0.122036
O O14 0.826734 0.328551 0.917326
O O15 0.722323 0.453941 0.749784
O O16 0.656611 0.746635 0.021561
O O17 0.500000 0.500000 0.000000
O O18 0.828738 0.005169 0.833358
#
# Coordination Sequence:
#
# PCOD9079529 Si02
#       8
#     2   2   2   2   2   2   2   2
#     4   9  18  34  63  91 126 168 207 246 324 403
#     4  12  20  37  67  96 133 165 207 261 335 391
#     4  10  23  47  65  90 133 172 216 273 315 372
#     4   9  20  40  67  89 123 177 216 255 327 386
#     4  12  24  44  67  93 125 172 229 266 310 389
#     4  11  22  40  67  92 125 177 210 260 328 384
#     4  10  18  37  60  98 132 161 200 272 327 384
#     4  11  24  39  63  97 130 162 216 267 319 382
#
# _framework density 21.175964
#
# number of rings (size 3 to 8) (size 9 to 14) (size 15 to 20)
#    0.000    1.500    3.750    1.875    1.750    0.500 
#    4.500    7.500    0.000    0.000    0.000    0.000 
#    0.000    0.000    0.000    0.000    0.000    0.000 
#
# Total GULP energy -89277.964489 kJ/mol
# GULP energy per Si atom -5579.872781 kJ/mol
# Density = 2.112777 g / cm^3
# Si number density = 21.175964 Si / 1000 Ang^3
#
#
#
# Elastic Constant Matrix: (Units=GPa)
#
#
# Indices 1 2 3 4 5 6 
#
# 1 125.0074 34.2718 11.7884 -13.8716 13.2517 7.3502
# 2 34.2718 96.4837 13.5898 -11.7189 10.7900 10.2337
# 3 11.7884 13.5898 62.7600 -11.3056 8.6903 -9.6910
# 4 -13.8716 -11.7189 -11.3056 25.4972 1.9420 -7.7501
# 5 13.2517 10.7900 8.6903 1.9420 32.4655 1.2467
# 6 7.3502 10.2337 -9.6910 -7.7501 1.2467 23.1832
#
#
#
# Elastic Compliance Matrix: (Units=1/GPa)
#
#
# Indices 1 2 3 4 5 6 
#
# 1 0.009511 -0.002449 -0.000134 0.004103 -0.003260 -0.000443
# 2 -0.002449 0.012620 -0.002291 0.002156 -0.002522 -0.004896
# 3 -0.000134 -0.002291 0.022236 0.013898 -0.006557 0.015348
# 4 0.004103 0.002156 0.013898 0.056374 -0.010365 0.022960
# 5 -0.003260 -0.002522 -0.006557 -0.010365 0.035576 -0.005972
# 6 -0.000443 -0.004896 0.015348 0.022960 -0.005972 0.059849
#
#
# Mechanical properties :
#
#
# Convention : Reuss Voigt Hill
#
# Bulk Modulus (GPa) = 28.88601 44.83902 36.86252
# Shear Modulus (GPa) = 22.99333 31.20257 27.09795
#
# Velocity S-wave (km/s) = 3.29876 3.84277 3.58111
# Velocity P-wave (km/s) = 5.30845 6.39606 5.87747
#
# Compressibility (1/GPa) = 0.03461883
#
# Stress axis : x y z
#
# Youngs Moduli (GPa) = 105.14541 79.23661 44.97114
#
# Poissons Ratio (x) = 0.19409 0.00602
# Poissons Ratio (y) = 0.25755 0.10303
# Poissons Ratio (z) = 0.01408 0.18153
#
# Static dielectric constant tensor:
#      x y z
#    x 1.809280 -0.019480 -0.043840 
#    y -0.019480 1.774410 0.010280 
#    z -0.043840 0.010280 1.774470 
# 
# From -- ./inp_files/295996.got.cif
#   From: 2010.05.17/outbox.cif.g08.bks.cpg/sg2_148_cif.got.tgz:295996.got - 2010.06.03 11:33:40.
