data_PCOD9079623
_publ_section_title
;
Structure prediction by ZEFSAII (Michael W. Deem and Ramdas Pophale) SiO2 
 PCOD9079623
Probable space group: P -1
;
_chemical_formula_sum "Si O2"
_cell_formula_units_Z 16
_cell_length_a 7.273097
_cell_length_b 11.058922
_cell_length_c 21.962231
_cell_angle_alpha 35.815059
_cell_angle_beta 100.281091
_cell_angle_gamma 122.648317
_cell_volume 740.423070
_symmetry_space_group_name_H-M "P -1"
_symmetry_group_IT_number 2
_symmetry_cell_setting 'triclinic'
loop_
_space_group_symop_operation_xyz
x,y,z
-x,-y,-z
loop_
_atom_site_type_symbol
_atom_site_label
_atom_site_fract_x
_atom_site_fract_y
_atom_site_fract_z
Si Si1 0.916534 0.594566 0.903637
Si Si2 0.737025 0.312133 0.413861
Si Si3 0.407080 0.238844 0.676093
Si Si4 0.433787 0.743392 0.446343
Si Si5 0.274299 0.645699 0.242313
Si Si6 0.942061 0.390512 0.226525
Si Si7 0.631086 0.813693 0.002120
Si Si8 0.803282 0.699165 0.169596
O O1 0.620056 0.444466 0.944854
O O2 0.961675 0.512416 0.875662
O O3 0.117609 0.935873 0.776908
O O4 0.000000 0.500000 0.000000
O O5 0.744815 0.305854 0.490131
O O6 0.694256 0.507070 0.301669
O O7 0.015786 0.463731 0.342593
O O8 0.500000 0.000000 0.500000
O O9 0.431041 0.497576 0.558341
O O10 0.578283 0.247118 0.631578
O O11 0.509708 0.274420 0.734380
O O12 0.702260 0.056557 0.349215
O O13 0.162829 0.453746 0.254533
O O14 0.372540 0.941609 0.103406
O O15 0.862381 0.546848 0.189788
O O16 0.642970 0.732208 0.104427
O O17 0.922359 0.988667 0.924915
#
# Coordination Sequence:
#
# PCOD9079623 Si02
#       8
#     2   2   2   2   2   2   2   2
#     4  11  21  40  59  83 119 164 196 239 293 362
#     4  10  18  37  62  88 114 152 199 245 295 349
#     4  10  23  39  58  86 124 160 191 242 302 350
#     4  10  20  41  57  83 126 152 196 246 291 361
#     4  10  20  38  60  89 115 154 197 248 302 341
#     4   9  20  37  61  83 117 153 198 249 296 342
#     4   9  19  38  59  84 122 147 195 247 289 349
#     4   9  19  37  62  92 115 149 194 259 293 335
#
# _framework density 21.609268
#
# number of rings (size 3 to 8) (size 9 to 14) (size 15 to 20)
#    0.000    2.500    3.750    0.000    0.000    4.000 
#   15.750    3.125    0.000    0.000    0.000    0.000 
#    0.000    0.000    0.000    0.000    0.000    0.000 
#
# Total GULP energy -89091.454022 kJ/mol
# GULP energy per Si atom -5568.215876 kJ/mol
# Density = 2.156008 g / cm^3
# Si number density = 21.609268 Si / 1000 Ang^3
#
#
#
# Elastic Constant Matrix: (Units=GPa)
#
#
# Indices 1 2 3 4 5 6 
#
# 1 45.8355 42.5528 32.0129 -16.1084 -11.5139 10.1078
# 2 42.5528 111.0019 37.1458 6.8548 -13.0842 17.9430
# 3 32.0129 37.1458 117.6783 -9.6671 -11.4794 13.4192
# 4 -16.1084 6.8548 -9.6671 27.6968 3.2583 0.0012
# 5 -11.5139 -13.0842 -11.4794 3.2583 23.6848 6.1173
# 6 10.1078 17.9430 13.4192 0.0012 6.1173 37.5794
#
#
#
# Elastic Compliance Matrix: (Units=1/GPa)
#
#
# Indices 1 2 3 4 5 6 
#
# 1 0.066944 -0.023846 -0.005237 0.041492 0.012893 -0.006851
# 2 -0.023846 0.020602 -0.000934 -0.019642 0.002961 -0.003571
# 3 -0.005237 -0.000934 0.010815 0.000640 0.002725 -0.002451
# 4 0.041492 -0.019642 0.000640 0.065176 0.001235 -0.002213
# 5 0.012893 0.002961 0.002725 0.001235 0.055105 -0.014825
# 6 -0.006851 -0.003571 -0.002451 -0.002213 -0.014825 0.033447
#
#
# Mechanical properties :
#
#
# Convention : Reuss Voigt Hill
#
# Bulk Modulus (GPa) = 26.09033 55.32651 40.70842
# Shear Modulus (GPa) = 15.38949 28.64581 22.01765
#
# Velocity S-wave (km/s) = 2.67155 3.64486 3.19548
# Velocity P-wave (km/s) = 4.64931 6.58575 5.70036
#
# Compressibility (1/GPa) = 0.03832838
#
# Stress axis : x y z
#
# Youngs Moduli (GPa) = 14.93783 48.53945 92.46441
#
# Poissons Ratio (x) = 1.15747 0.48421
# Poissons Ratio (y) = 0.35621 0.08633
# Poissons Ratio (z) = 0.07823 0.04532
#
# Static dielectric constant tensor:
#      x y z
#    x 1.998820 -0.040330 -0.040920 
#    y -0.040330 1.830780 0.017250 
#    z -0.040920 0.017250 1.800650 
# 
# From -- ./inp_files/495570.got.cif
#   From: 2010.05.17/outbox.cif.g08.bks.cpg/sg2_248_cif.got.tgz:495570.got - 2010.06.03 11:33:40.
