data_PCOD9079273
_publ_section_title
;
Structure prediction by ZEFSAII (Michael W. Deem and Ramdas Pophale) SiO2 
 PCOD9079273
Probable space group: P -1
;
_chemical_formula_sum "Si O2"
_cell_formula_units_Z 10
_cell_length_a 6.925793
_cell_length_b 9.663099
_cell_length_c 9.446900
_cell_angle_alpha 73.788652
_cell_angle_beta 67.248130
_cell_angle_gamma 45.858468
_cell_volume 418.352523
_symmetry_space_group_name_H-M "P -1"
_symmetry_group_IT_number 2
_symmetry_cell_setting 'triclinic'
loop_
_space_group_symop_operation_xyz
x,y,z
-x,-y,-z
loop_
_atom_site_type_symbol
_atom_site_label
_atom_site_fract_x
_atom_site_fract_y
_atom_site_fract_z
Si Si1 0.706772 0.832455 0.602904
Si Si2 0.748815 0.206764 0.950017
Si Si3 0.323134 0.922137 0.259375
Si Si4 0.364415 0.465450 0.250720
Si Si5 0.243070 0.740611 0.562910
O O1 0.731242 0.650155 0.644950
O O2 0.024820 0.746262 0.532963
O O3 0.500000 0.000000 0.500000
O O4 0.604848 0.948772 0.749613
O O5 0.591601 0.180562 0.884515
O O6 0.831874 0.316191 0.811561
O O7 0.559092 0.340535 0.096314
O O8 0.000000 0.000000 0.000000
O O9 0.400259 0.782421 0.407599
O O10 0.980445 0.074332 0.323799
O O11 0.553456 0.432513 0.338251
#
# Coordination Sequence:
#
# PCOD9079273 Si02
#       5
#     2   2   2   2   2
#     4  10  18  36  65  92 118 155 195 251 298 347
#     4  11  23  40  61  88 121 165 197 242 299 357
#     4   9  18  36  63  85 123 154 192 246 294 348
#     4  11  22  40  65  86 122 159 198 245 301 349
#     4   9  18  37  62  88 119 152 197 247 289 353
#
# _framework density 23.903289000000001
#
# number of rings (size 3 to 8) (size 9 to 14) (size 15 to 20)
#    1.200    0.800    4.000    0.000    0.000    1.600 
#    0.000   12.000    0.000    0.000    0.000    0.000 
#    0.000    0.000    0.000    0.000    0.000    0.000 
#
# Total GULP energy -55754.658946 kJ/mol
# GULP energy per Si atom -5575.465895 kJ/mol
# Density = 2.384888 g / cm^3
# Si number density = 23.903289 Si / 1000 Ang^3
#
#
#
# Elastic Constant Matrix: (Units=GPa)
#
#
# Indices 1 2 3 4 5 6 
#
# 1 74.3039 49.3489 42.4429 -12.0250 19.5295 21.2943
# 2 49.3489 160.3394 44.3338 -38.1876 13.4889 7.0024
# 3 42.4429 44.3338 107.1883 -22.3897 25.4612 -9.5425
# 4 -12.0250 -38.1876 -22.3897 40.4199 0.3316 -6.0424
# 5 19.5295 13.4889 25.4612 0.3316 30.3640 0.3746
# 6 21.2943 7.0024 -9.5425 -6.0424 0.3746 35.7141
#
#
#
# Elastic Compliance Matrix: (Units=1/GPa)
#
#
# Indices 1 2 3 4 5 6 
#
# 1 0.031057 -0.006381 -0.010978 -0.005967 -0.007609 -0.021129
# 2 -0.006381 0.009943 0.000742 0.008437 -0.001070 0.003492
# 3 -0.010978 0.000742 0.018834 0.009919 -0.009333 0.013208
# 4 -0.005967 0.008437 0.009919 0.038162 -0.008781 0.011102
# 5 -0.007609 -0.001070 -0.009333 -0.008781 0.046221 0.000282
# 6 -0.021129 0.003492 0.013208 0.011102 0.000282 0.045318
#
#
# Mechanical properties :
#
#
# Convention : Reuss Voigt Hill
#
# Bulk Modulus (GPa) = 37.59651 68.23140 52.91396
# Shear Modulus (GPa) = 21.58566 35.01334 28.29950
#
# Velocity S-wave (km/s) = 3.00832 3.83141 3.44454
# Velocity P-wave (km/s) = 5.27536 6.94116 6.16478
#
# Compressibility (1/GPa) = 0.02659821
#
# Stress axis : x y z
#
# Youngs Moduli (GPa) = 32.19931 100.57808 53.09519
#
# Poissons Ratio (x) = 0.64182 0.58287
# Poissons Ratio (y) = 0.20547 -0.03938
# Poissons Ratio (z) = 0.35348 -0.07460
#
# Static dielectric constant tensor:
#      x y z
#    x 1.942790 0.033980 -0.017450 
#    y 0.033980 2.013210 0.044860 
#    z -0.017450 0.044860 1.949190 
# 
# From -- ./inp_files/76524.got.cif
#   From: 2010.05.17/outbox.cif.g08.bks.cpg/sg2_39_cif.got.tgz:76524.got - 2010.06.03 11:33:40.
