data_PCOD9079892
_publ_section_title
;
Structure prediction by ZEFSAII (Michael W. Deem and Ramdas Pophale) SiO2 
 PCOD9079892
Probable space group: P -1
;
_chemical_formula_sum "Si O2"
_cell_formula_units_Z 14
_cell_length_a 9.388661
_cell_length_b 17.182477
_cell_length_c 8.317815
_cell_angle_alpha 58.582163
_cell_angle_beta 134.296624
_cell_angle_gamma 146.043473
_cell_volume 530.767084
_symmetry_space_group_name_H-M "P -1"
_symmetry_group_IT_number 2
_symmetry_cell_setting 'triclinic'
loop_
_space_group_symop_operation_xyz
x,y,z
-x,-y,-z
loop_
_atom_site_type_symbol
_atom_site_label
_atom_site_fract_x
_atom_site_fract_y
_atom_site_fract_z
Si Si1 0.128100 0.173845 0.703198
Si Si2 0.244895 0.983047 0.748571
Si Si3 0.946306 0.849062 0.987604
Si Si4 0.816944 0.267253 0.797702
Si Si5 0.808481 0.340535 0.041840
Si Si6 0.746813 0.578057 0.472029
Si Si7 0.643745 0.451900 0.220372
O O1 0.949997 0.116989 0.453274
O O2 0.220658 0.308552 0.685327
O O3 0.961796 0.082960 0.835460
O O4 0.450796 0.235727 0.868182
O O5 0.451114 0.136122 0.669808
O O6 0.058277 0.937340 0.815967
O O7 0.500000 0.000000 0.000000
O O8 0.576585 0.705071 0.842383
O O9 0.086102 0.795444 0.133124
O O10 0.002611 0.412900 0.700420
O O11 0.916251 0.312537 0.012732
O O12 0.919250 0.333620 0.298818
O O13 0.000000 0.500000 0.000000
O O14 0.500000 0.500000 0.500000
O O15 0.630820 0.459095 0.392149
O O16 0.500000 0.500000 0.000000
#
# Coordination Sequence:
#
# PCOD9079892 Si02
#       7
#     2   2   2   2   2   2   2
#     4  12  24  45  72 102 144 185 242 295 346 432
#     4  10  23  43  71 104 139 193 240 285 359 425
#     4  10  21  42  72 105 139 186 239 289 358 425
#     4  10  21  43  64  96 146 177 231 294 350 413
#     4  12  26  42  68 111 139 184 240 292 360 425
#     4  12  21  40  70 100 144 183 228 296 355 413
#     4  10  18  37  68  98 131 181 227 286 355 409
#
# _framework density 26.376919999999998
#
# number of rings (size 3 to 8) (size 9 to 14) (size 15 to 20)
#    0.000    1.143    4.286    5.143    0.000    2.857 
#    5.143    2.143    0.000    0.000    0.000    0.000 
#    0.000    0.000    0.000    0.000    0.000    0.000 
#
# Total GULP energy -78247.988339 kJ/mol
# GULP energy per Si atom -5589.142024 kJ/mol
# Density = 2.631689 g / cm^3
# Si number density = 26.376920 Si / 1000 Ang^3
#
#
#
# Elastic Constant Matrix: (Units=GPa)
#
#
# Indices 1 2 3 4 5 6 
#
# 1 150.5514 28.4289 72.8960 10.2003 -32.7406 16.5953
# 2 28.4289 126.0197 24.3547 -3.0050 -16.7186 32.5851
# 3 72.8960 24.3547 130.3208 26.2219 -10.3156 6.7783
# 4 10.2003 -3.0050 26.2219 39.5054 -10.6151 -7.5057
# 5 -32.7406 -16.7186 -10.3156 -10.6151 54.6643 -4.8342
# 6 16.5953 32.5851 6.7783 -7.5057 -4.8342 40.3281
#
#
#
# Elastic Compliance Matrix: (Units=1/GPa)
#
#
# Indices 1 2 3 4 5 6 
#
# 1 0.010853 0.000150 -0.005968 0.002208 0.005628 -0.002499
# 2 0.000150 0.010618 -0.001674 0.001068 0.002534 -0.007857
# 3 -0.005968 -0.001674 0.012666 -0.007900 -0.003246 -0.000180
# 4 0.002208 0.001068 -0.007900 0.033259 0.007201 0.006610
# 5 0.005628 0.002534 -0.003246 0.007201 0.023253 0.000310
# 6 -0.002499 -0.007857 -0.000180 0.006610 0.000310 0.033471
#
#
# Mechanical properties :
#
#
# Convention : Reuss Voigt Hill
#
# Bulk Modulus (GPa) = 52.20564 73.13899 62.67231
# Shear Modulus (GPa) = 34.36705 45.64703 40.00704
#
# Velocity S-wave (km/s) = 3.61352 4.16452 3.89876
# Velocity P-wave (km/s) = 6.10288 7.13533 6.63920
#
# Compressibility (1/GPa) = 0.01915502
#
# Stress axis : x y z
#
# Youngs Moduli (GPa) = 92.13903 94.17725 78.94954
#
# Poissons Ratio (x) = -0.01417 0.47114
# Poissons Ratio (y) = -0.01386 0.13217
# Poissons Ratio (z) = 0.54985 0.15767
#
# Static dielectric constant tensor:
#      x y z
#    x 2.095090 0.011280 -0.027140 
#    y 0.011280 2.152310 -0.036750 
#    z -0.027140 -0.036750 2.208630 
# 
# From -- ./inp_files/214855.got.cif
#   From: 2010.05.17/outbox.cif.g08.bks.cpg/sg2_108_cif.got.tgz:214855.got - 2010.06.03 11:33:40.
