data_PCOD9079024
_publ_section_title
;
Structure prediction by ZEFSAII (Michael W. Deem and Ramdas Pophale) SiO2 
 PCOD9079024
Probable space group: P -1
;
_chemical_formula_sum "Si O2"
_cell_formula_units_Z 16
_cell_length_a 8.115057
_cell_length_b 8.772980
_cell_length_c 15.761662
_cell_angle_alpha 74.400880
_cell_angle_beta 138.545601
_cell_angle_gamma 95.472770
_cell_volume 705.522578
_symmetry_space_group_name_H-M "P -1"
_symmetry_group_IT_number 2
_symmetry_cell_setting 'triclinic'
loop_
_space_group_symop_operation_xyz
x,y,z
-x,-y,-z
loop_
_atom_site_type_symbol
_atom_site_label
_atom_site_fract_x
_atom_site_fract_y
_atom_site_fract_z
Si Si1 0.230549 0.694358 0.841646
Si Si2 0.705018 0.677813 0.913247
Si Si3 0.301908 0.970001 0.125495
Si Si4 0.456372 0.233070 0.896026
Si Si5 0.385113 0.534610 0.699801
Si Si6 0.996716 0.835853 0.575381
Si Si7 0.518098 0.686948 0.378657
Si Si8 0.003438 0.374358 0.807038
O O1 0.496232 0.633037 0.905574
O O2 0.069149 0.551934 0.794322
O O3 0.099680 0.840026 0.710564
O O4 0.307465 0.737426 0.958843
O O5 0.654391 0.584750 0.823048
O O6 0.631937 0.865246 0.838560
O O7 0.954021 0.654426 0.070567
O O8 0.444492 0.921848 0.098987
O O9 0.395342 0.823782 0.244844
O O10 0.000000 0.000000 0.000000
O O11 0.370829 0.381724 0.776976
O O12 0.214969 0.243548 0.862479
O O13 0.366860 0.470089 0.607969
O O14 0.179061 0.689044 0.620211
O O15 0.730948 0.771603 0.490433
O O16 0.000000 0.000000 0.500000
O O17 0.269517 0.640116 0.332786
#
# Coordination Sequence:
#
# PCOD9079024 Si02
#       8
#     2   2   2   2   2   2   2   2
#     4  10  20  38  65  92 123 170 216 260 314 383
#     4  10  18  36  61  90 126 163 205 254 323 363
#     4  11  23  39  60  99 133 166 208 271 316 378
#     4  10  20  39  68  95 124 170 216 255 330 377
#     4  10  20  40  68  92 122 169 224 254 311 390
#     4  11  23  43  68  87 131 177 214 262 320 381
#     4  11  24  37  63 100 128 166 218 262 315 384
#     4  11  19  36  62  95 129 160 208 269 319 370
#
# _framework density 22.678225999999999
#
# number of rings (size 3 to 8) (size 9 to 14) (size 15 to 20)
#    0.000    1.500    5.000    2.625    0.000    4.000 
#    0.000    0.000    0.000    1.500    0.000    0.000 
#    0.000    0.000    0.000    0.000    0.000    0.000 
#
# Total GULP energy -89293.639813 kJ/mol
# GULP energy per Si atom -5580.852488 kJ/mol
# Density = 2.262661 g / cm^3
# Si number density = 22.678226 Si / 1000 Ang^3
#
#
#
# Elastic Constant Matrix: (Units=GPa)
#
#
# Indices 1 2 3 4 5 6 
#
# 1 42.4062 22.8747 19.0975 7.0328 24.7776 1.0542
# 2 22.8747 85.5672 13.1305 -5.6268 11.9905 15.6692
# 3 19.0975 13.1305 94.5584 1.2885 13.5144 8.6407
# 4 7.0328 -5.6268 1.2885 45.7292 8.5804 5.2794
# 5 24.7776 11.9905 13.5144 8.5804 27.8533 -2.7688
# 6 1.0542 15.6692 8.6407 5.2794 -2.7688 30.8003
#
#
#
# Elastic Compliance Matrix: (Units=1/GPa)
#
#
# Indices 1 2 3 4 5 6 
#
# 1 0.055309 -0.008101 -0.003763 -0.001172 -0.043570 -0.000432
# 2 -0.008101 0.016060 0.000495 0.004681 -0.002289 -0.009040
# 3 -0.003763 0.000495 0.012137 0.001448 -0.003609 -0.004101
# 4 -0.001172 0.004681 0.001448 0.025446 -0.010313 -0.008036
# 5 -0.043570 -0.002289 -0.003609 -0.010313 0.081847 0.012793
# 6 -0.000432 -0.009040 -0.004101 -0.008036 0.012793 0.040759
#
#
# Mechanical properties :
#
#
# Convention : Reuss Voigt Hill
#
# Bulk Modulus (GPa) = 16.45557 36.97080 26.71318
# Shear Modulus (GPa) = 18.21152 32.03849 25.12501
#
# Velocity S-wave (km/s) = 2.83687 3.76272 3.33211
# Velocity P-wave (km/s) = 4.24291 5.93424 5.15837
#
# Compressibility (1/GPa) = 0.06076971
#
# Stress axis : x y z
#
# Youngs Moduli (GPa) = 18.08036 62.26547 82.38981
#
# Poissons Ratio (x) = 0.50439 0.31003
# Poissons Ratio (y) = 0.14646 -0.04081
# Poissons Ratio (z) = 0.06804 -0.03084
#
# Static dielectric constant tensor:
#      x y z
#    x 1.922560 0.036820 0.001200 
#    y 0.036820 1.873680 0.027250 
#    z 0.001200 0.027250 1.920710 
# 
# From -- ./inp_files/557142.got.cif
#   From: 2010.05.17/outbox.cif.g08.bks.cpg/sg2_279_cif.got.tgz:557142.got - 2010.06.03 11:33:40.
