data_PCOD9079535
_publ_section_title
;
Structure prediction by ZEFSAII (Michael W. Deem and Ramdas Pophale) SiO2 
 PCOD9079535
Probable space group: P -1
;
_chemical_formula_sum "Si O2"
_cell_formula_units_Z 16
_cell_length_a 8.902148
_cell_length_b 9.482207
_cell_length_c 15.013686
_cell_angle_alpha 45.682449
_cell_angle_beta 95.198274
_cell_angle_gamma 110.655831
_cell_volume 825.154269
_symmetry_space_group_name_H-M "P -1"
_symmetry_group_IT_number 2
_symmetry_cell_setting 'triclinic'
loop_
_space_group_symop_operation_xyz
x,y,z
-x,-y,-z
loop_
_atom_site_type_symbol
_atom_site_label
_atom_site_fract_x
_atom_site_fract_y
_atom_site_fract_z
Si Si1 0.844218 0.937117 0.952207
Si Si2 0.116387 0.631183 0.186166
Si Si3 0.727661 0.501801 0.223817
Si Si4 0.557273 0.119829 0.240827
Si Si5 0.491837 0.191300 0.476342
Si Si6 0.813382 0.363507 0.015283
Si Si7 0.760791 0.782056 0.829823
Si Si8 0.158841 0.191614 0.384619
O O1 0.877665 0.886928 0.874804
O O2 0.799700 0.144227 0.856120
O O3 0.715813 0.713582 0.086971
O O4 0.000000 0.000000 0.000000
O O5 0.165853 0.691689 0.059836
O O6 0.154404 0.423880 0.297372
O O7 0.919686 0.551718 0.221982
O O8 0.651663 0.308928 0.234102
O O9 0.632313 0.412383 0.350070
O O10 0.397055 0.162579 0.188081
O O11 0.501568 0.890118 0.388069
O O12 0.695263 0.160602 0.155171
O O13 0.317916 0.194073 0.442090
O O14 0.500000 0.000000 0.500000
O O15 0.724573 0.529911 0.942249
O O16 0.000000 0.500000 0.000000
O O17 0.827175 0.845821 0.704523
O O18 0.000000 0.000000 0.500000
#
# Coordination Sequence:
#
# PCOD9079535 Si02
#       8
#     2   2   2   2   2   2   2   2
#     4  10  21  40  60  86 120 162 197 237 298 362
#     4  10  22  36  60  90 119 152 197 249 303 337
#     4  10  18  37  61  82 120 156 200 239 293 359
#     4  11  20  35  60  92 116 152 205 244 289 355
#     4  10  20  35  58  88 118 157 190 244 301 349
#     4  11  20  34  57  91 118 145 194 259 294 331
#     4  11  22  36  63  87 117 154 205 240 293 354
#     4  11  22  37  61  94 121 146 200 257 294 339
#
# _framework density 19.390314
#
# number of rings (size 3 to 8) (size 9 to 14) (size 15 to 20)
#    0.000    1.500    5.000    2.625    1.750    0.000 
#    0.000    3.125    0.000    1.500    0.000    0.000 
#    0.000    0.000    0.000    0.000    0.000    0.000 
#
# Total GULP energy -89206.756291 kJ/mol
# GULP energy per Si atom -5575.422268 kJ/mol
# Density = 1.934618 g / cm^3
# Si number density = 19.390314 Si / 1000 Ang^3
#
#
#
# Elastic Constant Matrix: (Units=GPa)
#
#
# Indices 1 2 3 4 5 6 
#
# 1 105.5465 10.9468 53.5128 -2.8138 1.5795 -6.1740
# 2 10.9468 51.3448 16.9330 -8.5863 -1.6227 -12.3879
# 3 53.5128 16.9330 127.0414 -3.3734 -17.2472 -6.2091
# 4 -2.8138 -8.5863 -3.3734 25.0325 -5.2431 5.4706
# 5 1.5795 -1.6227 -17.2472 -5.2431 33.5058 0.6417
# 6 -6.1740 -12.3879 -6.2091 5.4706 0.6417 16.0571
#
#
#
# Elastic Compliance Matrix: (Units=1/GPa)
#
#
# Indices 1 2 3 4 5 6 
#
# 1 0.012565 -0.000415 -0.005627 -0.000870 -0.003698 0.002780
# 2 -0.000415 0.025128 -0.002155 0.004734 0.000547 0.016758
# 3 -0.005627 -0.002155 0.011412 0.001521 0.006277 -0.000182
# 4 -0.000870 0.004734 0.001521 0.046114 0.008502 -0.012145
# 5 -0.003698 0.000547 0.006277 0.008502 0.034662 -0.002855
# 6 0.002780 0.016758 -0.000182 -0.012145 -0.002855 0.080457
#
#
# Mechanical properties :
#
#
# Convention : Reuss Voigt Hill
#
# Bulk Modulus (GPa) = 30.57084 49.63534 40.10309
# Shear Modulus (GPa) = 21.04057 28.42175 24.73116
#
# Velocity S-wave (km/s) = 3.29767 3.83269 3.57520
# Velocity P-wave (km/s) = 5.50452 6.72604 6.14570
#
# Compressibility (1/GPa) = 0.03271091
#
# Stress axis : x y z
#
# Youngs Moduli (GPa) = 79.58583 39.79679 87.62358
#
# Poissons Ratio (x) = 0.01652 0.49303
# Poissons Ratio (y) = 0.03303 0.18886
# Poissons Ratio (z) = 0.44781 0.08578
#
# Static dielectric constant tensor:
#      x y z
#    x 1.628030 0.120800 -0.189430 
#    y 0.120800 1.535300 0.269750 
#    z -0.189430 0.269750 1.309350 
# 
# From -- ./inp_files/215926.got.cif
#   From: 2010.05.17/outbox.cif.g08.bks.cpg/sg2_108_cif.got.tgz:215926.got - 2010.06.03 11:33:40.
