data_PCOD9079261
_publ_section_title
;
Structure prediction by ZEFSAII (Michael W. Deem and Ramdas Pophale) SiO2 
 PCOD9079261
Probable space group: P -1
;
_chemical_formula_sum "Si O2"
_cell_formula_units_Z 16
_cell_length_a 9.244906
_cell_length_b 12.854709
_cell_length_c 14.513449
_cell_angle_alpha 135.394492
_cell_angle_beta 47.019679
_cell_angle_gamma 137.352499
_cell_volume 773.938183
_symmetry_space_group_name_H-M "P -1"
_symmetry_group_IT_number 2
_symmetry_cell_setting 'triclinic'
loop_
_space_group_symop_operation_xyz
x,y,z
-x,-y,-z
loop_
_atom_site_type_symbol
_atom_site_label
_atom_site_fract_x
_atom_site_fract_y
_atom_site_fract_z
Si Si1 0.397442 0.743768 0.638010
Si Si2 0.235647 0.424028 0.044065
Si Si3 0.788136 0.010725 0.140741
Si Si4 0.267751 0.744164 0.184611
Si Si5 0.957957 0.422814 0.642884
Si Si6 0.870642 0.990698 0.645885
Si Si7 0.419803 0.813030 0.458738
Si Si8 0.835619 0.892026 0.227978
O O1 0.462966 0.801961 0.540068
O O2 0.225078 0.544713 0.596486
O O3 0.266170 0.847813 0.786475
O O4 0.630661 0.818566 0.638957
O O5 0.203165 0.551721 0.068824
O O6 0.135712 0.453716 0.201064
O O7 0.500000 0.500000 0.000000
O O8 0.118836 0.237582 0.934477
O O9 0.540422 0.843737 0.135677
O O10 0.835222 0.025961 0.239514
O O11 0.000000 0.000000 0.000000
O O12 0.144440 0.720449 0.322938
O O13 0.188253 0.854851 0.231059
O O14 0.834449 0.324644 0.543160
O O15 0.010727 0.014575 0.692596
O O16 0.000000 0.000000 0.500000
O O17 0.587487 0.769744 0.300112
O O18 0.500000 0.000000 0.500000
#
# Coordination Sequence:
#
# PCOD9079261 Si02
#       8
#     2   2   2   2   2   2   2   2
#     4  11  23  38  60  96 129 165 210 263 313 379
#     4  10  18  36  65  88 118 158 210 259 319 357
#     4  11  21  37  65  98 120 161 214 264 313 375
#     4   9  21  40  63  88 123 168 204 257 320 369
#     4  10  21  38  65  90 127 154 211 267 322 358
#     4  11  24  41  64  88 129 179 214 244 315 390
#     4  12  20  37  65  95 123 161 215 264 317 371
#     4  12  21  37  66  93 121 169 214 259 311 380
#
# _framework density 20.673486
#
# number of rings (size 3 to 8) (size 9 to 14) (size 15 to 20)
#    0.750    0.500    6.250    1.875    0.000    0.500 
#    0.000    6.250    2.750    0.000    0.000    0.000 
#    0.000    0.000    0.000    0.000    0.000    0.000 
#
# Total GULP energy -89095.084384 kJ/mol
# GULP energy per Si atom -5568.442774 kJ/mol
# Density = 2.062643 g / cm^3
# Si number density = 20.673486 Si / 1000 Ang^3
#
#
#
# Elastic Constant Matrix: (Units=GPa)
#
#
# Indices 1 2 3 4 5 6 
#
# 1 59.2172 21.0308 1.1108 -0.1743 4.3596 22.7777
# 2 21.0308 111.0080 9.8675 -1.2862 0.6101 26.9573
# 3 1.1108 9.8675 67.8754 -0.1344 -0.2184 8.3219
# 4 -0.1743 -1.2862 -0.1344 34.5663 4.7374 2.0949
# 5 4.3596 0.6101 -0.2184 4.7374 24.2866 5.7521
# 6 22.7777 26.9573 8.3219 2.0949 5.7521 26.2557
#
#
#
# Elastic Compliance Matrix: (Units=1/GPa)
#
#
# Indices 1 2 3 4 5 6 
#
# 1 0.025862 0.000808 0.002450 0.001532 0.000826 -0.024346
# 2 0.000808 0.012232 -0.000078 0.000937 0.002654 -0.013891
# 3 0.002450 -0.000078 0.015606 0.000326 0.001372 -0.007319
# 4 0.001532 0.000937 0.000326 0.029916 -0.005272 -0.003626
# 5 0.000826 0.002654 0.001372 -0.005272 0.045163 -0.013351
# 6 -0.024346 -0.013891 -0.007319 -0.003626 -0.013351 0.079004
#
#
# Mechanical properties :
#
#
# Convention : Reuss Voigt Hill
#
# Bulk Modulus (GPa) = 16.64996 33.56875 25.10936
# Shear Modulus (GPa) = 22.57913 30.76114 26.67013
#
# Velocity S-wave (km/s) = 3.30840 3.86158 3.59564
# Velocity P-wave (km/s) = 4.76080 6.01292 5.42312
#
# Compressibility (1/GPa) = 0.06006019
#
# Stress axis : x y z
#
# Youngs Moduli (GPa) = 38.66644 81.75394 64.07597
#
# Poissons Ratio (x) = -0.06605 -0.15698
# Poissons Ratio (y) = -0.03124 0.00499
# Poissons Ratio (z) = -0.09473 0.00637
#
# Static dielectric constant tensor:
#      x y z
#    x 1.767370 -0.042150 -0.049380 
#    y -0.042150 1.790400 -0.014200 
#    z -0.049380 -0.014200 1.832410 
# 
# From -- ./inp_files/504267.got.cif
#   From: 2010.05.17/outbox.cif.g08.bks.cpg/sg2_253_cif.got.tgz:504267.got - 2010.06.03 11:33:40.
