data_PCOD9079728
_publ_section_title
;
Structure prediction by ZEFSAII (Michael W. Deem and Ramdas Pophale) SiO2 
 PCOD9079728
Probable space group: P -1
;
_chemical_formula_sum "Si O2"
_cell_formula_units_Z 16
_cell_length_a 8.957855
_cell_length_b 15.188650
_cell_length_c 8.985700
_cell_angle_alpha 117.488829
_cell_angle_beta 132.900249
_cell_angle_gamma 78.331341
_cell_volume 782.594523
_symmetry_space_group_name_H-M "P -1"
_symmetry_group_IT_number 2
_symmetry_cell_setting 'triclinic'
loop_
_space_group_symop_operation_xyz
x,y,z
-x,-y,-z
loop_
_atom_site_type_symbol
_atom_site_label
_atom_site_fract_x
_atom_site_fract_y
_atom_site_fract_z
Si Si1 0.224512 0.729899 0.083960
Si Si2 0.025723 0.618261 0.568733
Si Si3 0.930286 0.907228 0.490681
Si Si4 0.450562 0.713270 0.840713
Si Si5 0.532847 0.097551 0.802636
Si Si6 0.430960 0.381000 0.844003
Si Si7 0.865702 0.781888 0.064503
Si Si8 0.844585 0.983606 0.019613
O O1 0.331211 0.840531 0.186026
O O2 0.410912 0.668055 0.190826
O O3 0.056311 0.733615 0.098482
O O4 0.099022 0.678605 0.815900
O O5 0.217623 0.654411 0.614090
O O6 0.000000 0.500000 0.500000
O O7 0.806643 0.641810 0.384137
O O8 0.706546 0.917085 0.410867
O O9 0.909285 0.813838 0.291571
O O10 0.084283 0.923830 0.745517
O O11 0.000000 0.000000 0.500000
O O12 0.448362 0.827928 0.982449
O O13 0.530658 0.663573 0.003864
O O14 0.634540 0.717004 0.850424
O O15 0.618533 0.996963 0.821368
O O16 0.500000 0.500000 0.000000
O O17 0.857304 0.881051 0.035231
O O18 0.000000 0.000000 0.000000
#
# Coordination Sequence:
#
# PCOD9079728 Si02
#       8
#     2   2   2   2   2   2   2   2
#     4  10  21  36  58  89 123 150 197 256 288 354
#     4  10  18  37  66  87 108 154 205 237 295 368
#     4   9  21  37  58  80 117 161 198 244 300 342
#     4   9  21  35  60  85 123 151 196 251 295 349
#     4   9  19  37  58  87 113 160 208 241 284 349
#     4  10  18  37  64  86 110 157 203 236 295 368
#     4  10  21  42  54  91 132 153 195 260 300 343
#     4  11  21  38  63  85 118 165 209 240 286 350
#
# _framework density 20.444814000000001
#
# number of rings (size 3 to 8) (size 9 to 14) (size 15 to 20)
#    0.000    2.500    3.750    0.000    0.000   11.000 
#    0.000    6.250    0.000    0.000    0.000    0.000 
#    0.000    0.000    0.000    0.000    0.000    0.000 
#
# Total GULP energy -89225.639562 kJ/mol
# GULP energy per Si atom -5576.602473 kJ/mol
# Density = 2.039828 g / cm^3
# Si number density = 20.444814 Si / 1000 Ang^3
#
#
#
# Elastic Constant Matrix: (Units=GPa)
#
#
# Indices 1 2 3 4 5 6 
#
# 1 159.8616 35.5948 39.0579 -6.0679 32.2107 -8.6207
# 2 35.5948 70.6198 14.2338 -10.4747 11.6046 -16.7271
# 3 39.0579 14.2338 74.8962 -11.4052 27.8911 -5.9250
# 4 -6.0679 -10.4747 -11.4052 25.5447 -2.2048 16.1233
# 5 32.2107 11.6046 27.8911 -2.2048 40.5882 -7.2096
# 6 -8.6207 -16.7271 -5.9250 16.1233 -7.2096 25.7955
#
#
#
# Elastic Compliance Matrix: (Units=1/GPa)
#
#
# Indices 1 2 3 4 5 6 
#
# 1 0.008347 -0.003303 -0.002196 -0.000083 -0.004357 -0.001023
# 2 -0.003303 0.018569 -0.000998 -0.000608 -0.000069 0.011069
# 3 -0.002196 -0.000998 0.020744 0.012160 -0.012958 -0.007838
# 4 -0.000083 -0.000608 0.012160 0.072554 -0.012426 -0.046451
# 5 -0.004357 -0.000069 -0.012958 -0.012426 0.038858 0.014150
# 6 -0.001023 0.011069 -0.007838 -0.046451 0.014150 0.076791
#
#
# Mechanical properties :
#
#
# Convention : Reuss Voigt Hill
#
# Bulk Modulus (GPa) = 28.84659 53.68339 41.26499
# Shear Modulus (GPa) = 19.20030 32.81843 26.00937
#
# Velocity S-wave (km/s) = 3.06784 4.01087 3.57062
# Velocity P-wave (km/s) = 5.16614 6.91116 6.10136
#
# Compressibility (1/GPa) = 0.03466614
#
# Stress axis : x y z
#
# Youngs Moduli (GPa) = 119.80309 53.85235 48.20669
#
# Poissons Ratio (x) = 0.17788 0.10587
# Poissons Ratio (y) = 0.39573 0.04810
# Poissons Ratio (z) = 0.26312 0.05373
#
# Static dielectric constant tensor:
#      x y z
#    x 1.768910 -0.024980 0.008980 
#    y -0.024980 1.762070 0.022980 
#    z 0.008980 0.022980 1.731150 
# 
# From -- ./inp_files/208511.got.cif
#   From: 2010.05.17/outbox.cif.g08.bks.cpg/sg2_105_cif.got.tgz:208511.got - 2010.06.03 11:33:40.
