data_PCOD9079298
_publ_section_title
;
Structure prediction by ZEFSAII (Michael W. Deem and Ramdas Pophale) SiO2 
 PCOD9079298
Probable space group: P -1
;
_chemical_formula_sum "Si O2"
_cell_formula_units_Z 14
_cell_length_a 14.892343
_cell_length_b 13.133780
_cell_length_c 9.413732
_cell_angle_alpha 135.532006
_cell_angle_beta 141.022914
_cell_angle_gamma 28.835642
_cell_volume 555.341559
_symmetry_space_group_name_H-M "P -1"
_symmetry_group_IT_number 2
_symmetry_cell_setting 'triclinic'
loop_
_space_group_symop_operation_xyz
x,y,z
-x,-y,-z
loop_
_atom_site_type_symbol
_atom_site_label
_atom_site_fract_x
_atom_site_fract_y
_atom_site_fract_z
Si Si1 0.211262 0.320552 0.876288
Si Si2 0.518718 0.859642 0.724316
Si Si3 0.482330 0.182513 0.643567
Si Si4 0.102479 0.645526 0.634374
Si Si5 0.302382 0.758608 0.513578
Si Si6 0.833811 0.333540 0.976379
Si Si7 0.349200 0.713096 0.844899
O O1 0.158629 0.516701 0.944264
O O2 0.050528 0.318681 0.626194
O O3 0.423387 0.092553 0.843718
O O4 0.259354 0.298310 0.080630
O O5 0.512493 0.797661 0.499292
O O6 0.382977 0.851064 0.644861
O O7 0.253815 0.403621 0.630364
O O8 0.500000 0.000000 0.500000
O O9 0.639188 0.157478 0.908052
O O10 0.022875 0.770951 0.810486
O O11 0.236407 0.666272 0.739254
O O12 0.500000 0.500000 0.500000
O O13 0.248345 0.812763 0.666021
O O14 0.140948 0.809141 0.253491
O O15 0.594516 0.491249 0.896948
#
# Coordination Sequence:
#
# PCOD9079298 Si02
#       7
#     2   2   2   2   2   2   2
#     4  11  24  39  65  92 125 162 211 254 306 364
#     4  11  22  41  65  87 123 169 209 245 311 381
#     4  11  23  39  66  95 124 162 206 254 312 366
#     4  11  23  40  63  96 129 156 203 267 306 351
#     4  10  18  36  66  87 114 165 215 240 294 382
#     4  10  19  39  64  88 121 167 208 242 305 380
#     4  10  20  39  63  90 124 162 205 249 309 370
#
# _framework density 25.209713000000001
#
# number of rings (size 3 to 8) (size 9 to 14) (size 15 to 20)
#    0.000    1.429    2.857    6.429    2.000    0.571 
#    0.000    5.000    0.000    0.000    0.000    0.000 
#    0.000    0.000    0.000    0.000    0.000    0.000 
#
# Total GULP energy -78384.572417 kJ/mol
# GULP energy per Si atom -5598.898030 kJ/mol
# Density = 2.515233 g / cm^3
# Si number density = 25.209713 Si / 1000 Ang^3
#
#
#
# Elastic Constant Matrix: (Units=GPa)
#
#
# Indices 1 2 3 4 5 6 
#
# 1 70.8588 24.8517 78.4145 1.2505 -20.1980 12.9122
# 2 24.8517 49.3861 39.8133 6.5933 4.3021 6.9083
# 3 78.4145 39.8133 281.9957 1.1258 -21.6343 22.0836
# 4 1.2505 6.5933 1.1258 31.6378 4.2028 -5.4876
# 5 -20.1980 4.3021 -21.6343 4.2028 57.0240 1.6519
# 6 12.9122 6.9083 22.0836 -5.4876 1.6519 27.1324
#
#
#
# Elastic Compliance Matrix: (Units=1/GPa)
#
#
# Indices 1 2 3 4 5 6 
#
# 1 0.026341 -0.008900 -0.004856 -0.001371 0.008466 -0.007110
# 2 -0.008900 0.027474 -0.001635 -0.004960 -0.005419 -0.002102
# 3 -0.004856 -0.001635 0.005288 0.000006 0.000455 -0.001603
# 4 -0.001371 -0.004960 0.000006 0.034663 -0.002928 0.009099
# 5 0.008466 -0.005419 0.000455 -0.002928 0.021475 -0.004919
# 6 -0.007110 -0.002102 -0.001603 0.009099 -0.004919 0.044219
#
#
# Mechanical properties :
#
#
# Convention : Reuss Voigt Hill
#
# Bulk Modulus (GPa) = 35.31149 76.48887 55.90018
# Shear Modulus (GPa) = 25.03959 40.43624 32.73792
#
# Velocity S-wave (km/s) = 3.15501 4.00934 3.60755
# Velocity P-wave (km/s) = 5.22586 7.19999 6.29085
#
# Compressibility (1/GPa) = 0.02831939
#
# Stress axis : x y z
#
# Youngs Moduli (GPa) = 37.96325 36.39813 189.11100
#
# Poissons Ratio (x) = 0.32395 0.91840
# Poissons Ratio (y) = 0.33788 0.30927
# Poissons Ratio (z) = 0.18437 0.05952
#
# Static dielectric constant tensor:
#      x y z
#    x 1.989820 -0.054710 -0.058110 
#    y -0.054710 2.057800 -0.076340 
#    z -0.058110 -0.076340 2.053430 
# 
# From -- ./inp_files/304229.got.cif
#   From: 2010.05.17/outbox.cif.g08.bks.cpg/sg2_153_cif.got.tgz:304229.got - 2010.06.03 11:33:40.
