data_PCOD9079040
_publ_section_title
;
Structure prediction by ZEFSAII (Michael W. Deem and Ramdas Pophale) SiO2 
 PCOD9079040
Probable space group: P -1
;
_chemical_formula_sum "Si O2"
_cell_formula_units_Z 16
_cell_length_a 15.154217
_cell_length_b 19.069792
_cell_length_c 15.177074
_cell_angle_alpha 159.677917
_cell_angle_beta 39.080098
_cell_angle_gamma 131.022366
_cell_volume 907.468965
_symmetry_space_group_name_H-M "P -1"
_symmetry_group_IT_number 2
_symmetry_cell_setting 'triclinic'
loop_
_space_group_symop_operation_xyz
x,y,z
-x,-y,-z
loop_
_atom_site_type_symbol
_atom_site_label
_atom_site_fract_x
_atom_site_fract_y
_atom_site_fract_z
Si Si1 0.349485 0.696936 0.360386
Si Si2 0.876624 0.545255 0.722156
Si Si3 0.466002 0.109654 0.436225
Si Si4 0.860731 0.471685 0.021772
Si Si5 0.142669 0.386596 0.994228
Si Si6 0.642106 0.017895 0.462832
Si Si7 0.603509 0.926323 0.748766
Si Si8 0.852040 0.046746 0.613460
O O1 0.222166 0.609611 0.390323
O O2 0.396950 0.846591 0.570643
O O3 0.311740 0.811168 0.428863
O O4 0.500000 0.500000 0.000000
O O5 0.000000 0.500000 0.500000
O O6 0.940409 0.524277 0.747084
O O7 0.769359 0.790216 0.088810
O O8 0.319400 0.322883 0.801268
O O9 0.484276 0.054495 0.253809
O O10 0.412067 0.952746 0.358441
O O11 0.900936 0.458000 0.871353
O O12 0.716375 0.684595 0.390920
O O13 0.828412 0.263581 0.834999
O O14 0.000000 0.500000 0.000000
O O15 0.128450 0.160296 0.707212
O O16 0.500000 0.000000 0.500000
O O17 0.715123 0.058619 0.797669
O O18 0.500000 0.000000 0.000000
O O19 0.000000 0.000000 0.500000
#
# Coordination Sequence:
#
# PCOD9079040 Si02
#       8
#     2   2   2   2   2   2   2   2
#     4  11  18  35  64  78 107 152 188 226 270 330
#     4  11  23  38  52  87 123 140 179 240 282 322
#     4   8  17  36  54  86 106 143 194 223 265 334
#     4  10  18  36  62  84 104 150 194 223 271 338
#     4   9  19  34  56  85 112 141 193 228 269 332
#     4   9  17  34  60  81 103 145 197 219 260 336
#     4  10  22  38  55  86 122 138 180 243 277 326
#     4  10  18  36  62  78 107 148 188 226 271 328
#
# _framework density 17.631456
#
# number of rings (size 3 to 8) (size 9 to 14) (size 15 to 20)
#    0.000    2.500    6.250    0.000    0.000    4.000 
#    2.250    2.500    0.000    0.000    0.000    0.000 
#    0.000    0.000    0.000    0.000    0.000    0.000 
#
# Total GULP energy -89075.782031 kJ/mol
# GULP energy per Si atom -5567.236377 kJ/mol
# Density = 1.759133 g / cm^3
# Si number density = 17.631456 Si / 1000 Ang^3
#
#
#
# Elastic Constant Matrix: (Units=GPa)
#
#
# Indices 1 2 3 4 5 6 
#
# 1 109.2754 70.9125 29.8667 -6.8756 7.1680 -18.5954
# 2 70.9125 188.9389 65.4563 2.7389 11.7272 -20.3417
# 3 29.8667 65.4563 55.5269 3.5383 3.1079 -15.2090
# 4 -6.8756 2.7389 3.5383 42.4474 -13.0713 4.9585
# 5 7.1680 11.7272 3.1079 -13.0713 20.6190 4.0949
# 6 -18.5954 -20.3417 -15.2090 4.9585 4.0949 40.4977
#
#
#
# Elastic Compliance Matrix: (Units=1/GPa)
#
#
# Indices 1 2 3 4 5 6 
#
# 1 0.012843 -0.003881 -0.001392 0.001500 -0.001776 0.003421
# 2 -0.003881 0.010495 -0.009772 -0.001927 -0.004469 0.000507
# 3 -0.001392 -0.009772 0.032788 -0.004149 -0.003036 0.007581
# 4 0.001500 -0.001927 -0.004149 0.032425 0.023378 -0.008171
# 5 -0.001776 -0.004469 -0.003036 0.023378 0.069739 -0.014114
# 6 0.003421 0.000507 0.007581 -0.008171 -0.014114 0.031793
#
#
# Mechanical properties :
#
#
# Convention : Reuss Voigt Hill
#
# Bulk Modulus (GPa) = 38.40882 76.24581 57.32731
# Shear Modulus (GPa) = 21.84812 33.21320 27.53066
#
# Velocity S-wave (km/s) = 3.52398 4.34492 3.95581
# Velocity P-wave (km/s) = 6.19593 8.27703 7.31091
#
# Compressibility (1/GPa) = 0.02603569
#
# Stress axis : x y z
#
# Youngs Moduli (GPa) = 77.86095 95.28527 30.49880
#
# Poissons Ratio (x) = 0.36984 0.04245
# Poissons Ratio (y) = 0.30221 0.29803
# Poissons Ratio (z) = 0.10838 0.93113
#
# Static dielectric constant tensor:
#      x y z
#    x 1.659420 -0.014640 0.020660 
#    y -0.014640 1.620850 0.021010 
#    z 0.020660 0.021010 1.589870 
# 
# From -- ./inp_files/535117.got.cif
#   From: 2010.05.17/outbox.cif.g08.bks.cpg/sg2_268_cif.got.tgz:535117.got - 2010.06.03 11:33:40.
