data_PCOD9079360
_publ_section_title
;
Structure prediction by ZEFSAII (Michael W. Deem and Ramdas Pophale) SiO2 
 PCOD9079360
Probable space group: P -1
;
_chemical_formula_sum "Si O2"
_cell_formula_units_Z 16
_cell_length_a 14.723916
_cell_length_b 10.700531
_cell_length_c 16.414144
_cell_angle_alpha 145.652627
_cell_angle_beta 154.730696
_cell_angle_gamma 47.011223
_cell_volume 599.905501
_symmetry_space_group_name_H-M "P -1"
_symmetry_group_IT_number 2
_symmetry_cell_setting 'triclinic'
loop_
_space_group_symop_operation_xyz
x,y,z
-x,-y,-z
loop_
_atom_site_type_symbol
_atom_site_label
_atom_site_fract_x
_atom_site_fract_y
_atom_site_fract_z
Si Si1 0.737080 0.482498 0.269933
Si Si2 0.053389 0.064385 0.700207
Si Si3 0.365542 0.087836 0.823053
Si Si4 0.742513 0.195508 0.971620
Si Si5 0.312651 0.758128 0.227309
Si Si6 0.932867 0.958042 0.726893
Si Si7 0.237633 0.617921 0.388947
Si Si8 0.516049 0.668547 0.486927
O O1 0.728901 0.738880 0.421410
O O2 0.000000 0.500000 0.500000
O O3 0.579807 0.296938 0.100560
O O4 0.676582 0.374682 0.074126
O O5 0.262032 0.054016 0.810732
O O6 0.985354 0.303372 0.758597
O O7 0.838915 0.886165 0.387455
O O8 0.059444 0.016125 0.774837
O O9 0.398421 0.851237 0.685261
O O10 0.782520 0.300437 0.970752
O O11 0.573295 0.942985 0.693160
O O12 0.945435 0.129819 0.146983
O O13 0.138435 0.823015 0.181930
O O14 0.272770 0.419088 0.367923
O O15 0.434937 0.605560 0.296094
O O16 0.329423 0.571557 0.350692
O O17 0.500000 0.000000 0.500000
#
# Coordination Sequence:
#
# PCOD9079360 Si02
#       8
#     2   2   2   2   2   2   2   2
#     4  10  22  41  70 105 142 193 244 295 368 436
#     4   9  19  38  69 106 147 186 241 299 370 434
#     4   9  18  40  69 104 147 190 236 309 360 438
#     4  10  21  41  66  99 144 188 231 307 364 425
#     4  10  21  40  65 100 137 185 240 300 366 430
#     4  11  22  41  67 105 143 191 241 298 366 438
#     4   9  17  35  68 100 143 182 233 296 366 436
#     4  10  18  36  68  98 141 184 236 297 369 440
#
# _framework density 26.670867999999999
#
# number of rings (size 3 to 8) (size 9 to 14) (size 15 to 20)
#    0.750    1.500    2.500    0.375    1.750    0.500 
#    0.000   13.125   11.000    0.000    0.000    3.500 
#    0.000    0.000    0.000    0.000    0.000    0.000 
#
# Total GULP energy -89540.955434 kJ/mol
# GULP energy per Si atom -5596.309715 kJ/mol
# Density = 2.661016 g / cm^3
# Si number density = 26.670868 Si / 1000 Ang^3
#
#
#
# Elastic Constant Matrix: (Units=GPa)
#
#
# Indices 1 2 3 4 5 6 
#
# 1 186.3299 46.6670 40.7296 -14.4425 -11.5212 28.1487
# 2 46.6670 129.9428 32.0707 -3.6432 -17.6502 11.6526
# 3 40.7296 32.0707 124.6351 -3.1309 2.5833 10.6355
# 4 -14.4425 -3.6432 -3.1309 40.0253 1.1827 -14.5739
# 5 -11.5212 -17.6502 2.5833 1.1827 42.9205 -10.1458
# 6 28.1487 11.6526 10.6355 -14.5739 -10.1458 40.3354
#
#
#
# Elastic Compliance Matrix: (Units=1/GPa)
#
#
# Indices 1 2 3 4 5 6 
#
# 1 0.006710 -0.001669 -0.001459 0.000909 0.000375 -0.003393
# 2 -0.001669 0.009241 -0.001891 -0.000072 0.003428 -0.000170
# 3 -0.001459 -0.001891 0.009149 -0.000484 -0.002071 -0.001544
# 4 0.000909 -0.000072 -0.000484 0.029029 0.001922 0.010487
# 5 0.000375 0.003428 -0.002071 0.001922 0.026451 0.006642
# 6 -0.003393 -0.000170 -0.001544 0.010487 0.006642 0.033076
#
#
# Mechanical properties :
#
#
# Convention : Reuss Voigt Hill
#
# Bulk Modulus (GPa) = 66.38834 75.53804 70.96319
# Shear Modulus (GPa) = 38.84600 46.08561 42.46581
#
# Velocity S-wave (km/s) = 3.82055 4.16136 3.99459
# Velocity P-wave (km/s) = 6.66392 7.17447 6.92390
#
# Compressibility (1/GPa) = 0.01506289
#
# Stress axis : x y z
#
# Youngs Moduli (GPa) = 149.03311 108.21903 109.29975
#
# Poissons Ratio (x) = 0.18062 0.15943
# Poissons Ratio (y) = 0.24874 0.20665
# Poissons Ratio (z) = 0.21739 0.20461
#
# Static dielectric constant tensor:
#      x y z
#    x 2.030960 0.003700 0.025350 
#    y 0.003700 2.137810 -0.033940 
#    z 0.025350 -0.033940 2.222300 
# 
# From -- ./inp_files/573874.got.cif
#   From: 2010.05.17/outbox.cif.g08.bks.cpg/sg2_287_cif.got.tgz:573874.got - 2010.06.03 11:33:40.
