data_PCOD9079142
_publ_section_title
;
Structure prediction by ZEFSAII (Michael W. Deem and Ramdas Pophale) SiO2 
 PCOD9079142
Probable space group: P -1
;
_chemical_formula_sum "Si O2"
_cell_formula_units_Z 14
_cell_length_a 5.176276
_cell_length_b 7.746888
_cell_length_c 16.252448
_cell_angle_alpha 112.465328
_cell_angle_beta 76.812057
_cell_angle_gamma 117.473350
_cell_volume 533.274931
_symmetry_space_group_name_H-M "P -1"
_symmetry_group_IT_number 2
_symmetry_cell_setting 'triclinic'
loop_
_space_group_symop_operation_xyz
x,y,z
-x,-y,-z
loop_
_atom_site_type_symbol
_atom_site_label
_atom_site_fract_x
_atom_site_fract_y
_atom_site_fract_z
Si Si1 0.326277 0.635181 0.321223
Si Si2 0.427882 0.628481 0.805641
Si Si3 0.772763 0.018013 0.926281
Si Si4 0.576129 0.200054 0.818700
Si Si5 0.657588 0.356050 0.494175
Si Si6 0.242290 0.792624 0.701695
Si Si7 0.107261 0.404950 0.051676
O O1 0.578537 0.591391 0.249780
O O2 0.253542 0.752150 0.273056
O O3 0.422632 0.722165 0.420844
O O4 0.064972 0.407221 0.309444
O O5 0.445043 0.722857 0.731344
O O6 0.139898 0.624495 0.867630
O O7 0.699019 0.782248 0.867994
O O8 0.724507 0.114364 0.861759
O O9 0.058833 0.180779 0.980567
O O10 0.500000 0.000000 0.000000
O O11 0.604073 0.412935 0.898928
O O12 0.276417 0.006134 0.779469
O O13 0.500000 0.500000 0.500000
O O14 0.363780 0.810236 0.603612
O O15 0.000000 0.500000 0.500000
O O16 0.000000 0.500000 0.000000
#
# Coordination Sequence:
#
# PCOD9079142 Si02
#       7
#     2   2   2   2   2   2   2
#     4  11  22  38  62  92 125 157 216 268 317 392
#     4  10  18  36  63  83 119 165 206 256 323 383
#     4   8  17  34  60  82 116 166 203 256 323 386
#     4  10  20  36  61  88 121 164 207 263 321 381
#     4  10  21  40  68  97 133 176 216 269 335 392
#     4  10  21  40  61  86 127 165 208 255 327 388
#     4   9  17  35  58  83 118 160 202 258 319 378
#
# _framework density 26.252875
#
# number of rings (size 3 to 8) (size 9 to 14) (size 15 to 20)
#    0.000    2.286    2.857    0.000    0.000    0.571 
#    7.714    7.143    0.000    4.286    0.000    0.000 
#    0.000    0.000    0.000    0.000    0.000    0.000 
#
# Total GULP energy -78157.047536 kJ/mol
# GULP energy per Si atom -5582.646253 kJ/mol
# Density = 2.619312 g / cm^3
# Si number density = 26.252875 Si / 1000 Ang^3
#
#
#
# Elastic Constant Matrix: (Units=GPa)
#
#
# Indices 1 2 3 4 5 6 
#
# 1 91.1466 26.5958 38.9499 -4.1187 10.7849 11.7687
# 2 26.5958 111.8726 40.5876 -1.0596 14.6519 5.1571
# 3 38.9499 40.5876 185.5069 -16.1714 41.2943 -1.3942
# 4 -4.1187 -1.0596 -16.1714 55.6137 -5.4210 13.8158
# 5 10.7849 14.6519 41.2943 -5.4210 40.0771 -0.7316
# 6 11.7687 5.1571 -1.3942 13.8158 -0.7316 41.6730
#
#
#
# Elastic Compliance Matrix: (Units=1/GPa)
#
#
# Indices 1 2 3 4 5 6 
#
# 1 0.013104 -0.002094 -0.002104 0.001248 -0.000496 -0.003934
# 2 -0.002094 0.010215 -0.001446 -0.000397 -0.001746 -0.000620
# 3 -0.002104 -0.001446 0.007761 0.001298 -0.006717 0.000484
# 4 0.001248 -0.000397 0.001298 0.020280 0.001088 -0.006964
# 5 -0.000496 -0.001746 -0.006717 0.001088 0.032799 0.000347
# 6 -0.003934 -0.000620 0.000484 -0.006964 0.000347 0.027515
#
#
# Mechanical properties :
#
#
# Convention : Reuss Voigt Hill
#
# Bulk Modulus (GPa) = 50.52261 66.75474 58.63867
# Shear Modulus (GPa) = 38.59284 46.29895 42.44589
#
# Velocity S-wave (km/s) = 3.83827 4.20405 4.02532
# Velocity P-wave (km/s) = 6.23935 7.00344 6.63241
#
# Compressibility (1/GPa) = 0.01979312
#
# Stress axis : x y z
#
# Youngs Moduli (GPa) = 76.31021 97.89909 128.85339
#
# Poissons Ratio (x) = 0.20500 0.27105
# Poissons Ratio (y) = 0.15979 0.18629
# Poissons Ratio (z) = 0.16053 0.14154
#
# Static dielectric constant tensor:
#      x y z
#    x 2.083560 -0.059020 0.054440 
#    y -0.059020 2.332540 -0.157210 
#    z 0.054440 -0.157210 2.192190 
# 
# From -- ./inp_files/548282.got.cif
#   From: 2010.05.17/outbox.cif.g08.bks.cpg/sg2_275_cif.got.tgz:548282.got - 2010.06.03 11:33:40.
