data_PCOD9079271
_publ_section_title
;
Structure prediction by ZEFSAII (Michael W. Deem and Ramdas Pophale) SiO2 
 PCOD9079271
Probable space group: P -1
;
_chemical_formula_sum "Si O2"
_cell_formula_units_Z 16
_cell_length_a 7.777709
_cell_length_b 14.547609
_cell_length_c 14.995468
_cell_angle_alpha 39.458581
_cell_angle_beta 79.640485
_cell_angle_gamma 50.014557
_cell_volume 628.138545
_symmetry_space_group_name_H-M "P -1"
_symmetry_group_IT_number 2
_symmetry_cell_setting 'triclinic'
loop_
_space_group_symop_operation_xyz
x,y,z
-x,-y,-z
loop_
_atom_site_type_symbol
_atom_site_label
_atom_site_fract_x
_atom_site_fract_y
_atom_site_fract_z
Si Si1 0.981261 0.426112 0.878213
Si Si2 0.244637 0.457872 0.527355
Si Si3 0.417098 0.457798 0.793092
Si Si4 0.058628 0.154676 0.597971
Si Si5 0.513821 0.260011 0.457739
Si Si6 0.355716 0.121054 0.325341
Si Si7 0.265353 0.712714 0.933249
Si Si8 0.491959 0.173130 0.898068
O O1 0.781950 0.580902 0.691306
O O2 0.874832 0.600009 0.838492
O O3 0.929678 0.293307 0.009276
O O4 0.295058 0.275332 0.930336
O O5 0.420434 0.352969 0.498138
O O6 0.430787 0.275987 0.728440
O O7 0.000000 0.500000 0.500000
O O8 0.085495 0.704291 0.400082
O O9 0.406453 0.639630 0.664747
O O10 0.529173 0.353713 0.959690
O O11 0.651014 0.209585 0.897682
O O12 0.125990 0.643758 0.615537
O O13 0.389692 0.992841 0.678524
O O14 0.070754 0.975006 0.718789
O O15 0.729007 0.980891 0.627251
O O16 0.500000 0.000000 0.500000
O O17 0.500000 0.500000 0.000000
O O18 0.500000 0.000000 0.000000
#
# Coordination Sequence:
#
# PCOD9079271 Si02
#       8
#     2   2   2   2   2   2   2   2
#     4  10  21  42  62  94 132 174 222 262 337 397
#     4  11  20  38  66  95 122 170 232 256 324 399
#     4  10  25  43  63 103 132 168 227 271 333 384
#     4  11  23  41  67  95 133 175 214 278 325 387
#     4  10  20  37  66  96 128 175 216 274 325 390
#     4  10  18  36  65  91 127 174 218 261 330 394
#     4  11  24  44  66  96 138 177 219 273 329 396
#     4  11  25  43  67  94 137 172 214 282 329 389
#
# _framework density 25.472086999999998
#
# number of rings (size 3 to 8) (size 9 to 14) (size 15 to 20)
#    0.000    1.500    3.750    2.250    1.750    4.500 
#    2.250    3.125    0.000    0.000    0.000    0.000 
#    0.000    0.000    0.000    0.000    0.000    0.000 
#
# Total GULP energy -89106.575234 kJ/mol
# GULP energy per Si atom -5569.160952 kJ/mol
# Density = 2.541411 g / cm^3
# Si number density = 25.472087 Si / 1000 Ang^3
#
#
#
# Elastic Constant Matrix: (Units=GPa)
#
#
# Indices 1 2 3 4 5 6 
#
# 1 40.1277 -0.1149 12.0008 -8.1622 -11.5913 24.7739
# 2 -0.1149 134.8346 43.6442 -2.6380 1.7525 40.7260
# 3 12.0008 43.6442 85.9826 5.2350 -28.8862 11.6440
# 4 -8.1622 -2.6380 5.2350 42.6633 17.6033 -6.4151
# 5 -11.5913 1.7525 -28.8862 17.6033 45.2879 -2.6324
# 6 24.7739 40.7260 11.6440 -6.4151 -2.6324 58.2154
#
#
#
# Elastic Compliance Matrix: (Units=1/GPa)
#
#
# Indices 1 2 3 4 5 6 
#
# 1 0.042776 0.009114 -0.006843 0.004965 0.002991 -0.022529
# 2 0.009114 0.014216 -0.009497 0.004852 -0.006841 -0.011699
# 3 -0.006843 -0.009497 0.023816 -0.011873 0.018673 0.004329
# 4 0.004965 0.004852 -0.011873 0.034292 -0.019833 -0.000250
# 5 0.002991 -0.006841 0.018673 -0.019833 0.042703 -0.000477
# 6 -0.022529 -0.011699 0.004329 -0.000250 -0.000477 0.034034
#
#
# Mechanical properties :
#
#
# Convention : Reuss Voigt Hill
#
# Bulk Modulus (GPa) = 15.07028 41.33389 28.20208
# Shear Modulus (GPa) = 21.89069 42.92763 32.40916
#
# Velocity S-wave (km/s) = 2.93473 4.10967 3.57086
# Velocity P-wave (km/s) = 4.17286 6.22748 5.30068
#
# Compressibility (1/GPa) = 0.06635577
#
# Stress axis : x y z
#
# Youngs Moduli (GPa) = 23.37768 70.34435 41.98841
#
# Poissons Ratio (x) = -0.64115 0.28733
# Poissons Ratio (y) = -0.21307 0.39877
# Poissons Ratio (z) = 0.15998 0.66808
#
# Static dielectric constant tensor:
#      x y z
#    x 2.230700 0.037010 0.046490 
#    y 0.037010 2.017370 -0.081990 
#    z 0.046490 -0.081990 2.130610 
# 
# From -- ./inp_files/505262.got.cif
#   From: 2010.05.17/outbox.cif.g08.bks.cpg/sg2_253_cif.got.tgz:505262.got - 2010.06.03 11:33:40.
