data_PCOD9079689
_publ_section_title
;
Structure prediction by ZEFSAII (Michael W. Deem and Ramdas Pophale) SiO2 
 PCOD9079689
Probable space group: P -1
;
_chemical_formula_sum "Si O2"
_cell_formula_units_Z 16
_cell_length_a 8.822247
_cell_length_b 11.691133
_cell_length_c 12.096149
_cell_angle_alpha 44.472922
_cell_angle_beta 125.744156
_cell_angle_gamma 123.366743
_cell_volume 689.684586
_symmetry_space_group_name_H-M "P -1"
_symmetry_group_IT_number 2
_symmetry_cell_setting 'triclinic'
loop_
_space_group_symop_operation_xyz
x,y,z
-x,-y,-z
loop_
_atom_site_type_symbol
_atom_site_label
_atom_site_fract_x
_atom_site_fract_y
_atom_site_fract_z
Si Si1 0.076702 0.645544 0.268995
Si Si2 0.749761 0.283921 0.060516
Si Si3 0.544209 0.311037 0.746281
Si Si4 0.683597 0.698467 0.540084
Si Si5 0.142935 0.342671 0.052805
Si Si6 0.889222 0.285309 0.524549
Si Si7 0.461391 0.179038 0.391430
Si Si8 0.084137 0.852687 0.590899
O O1 0.035191 0.456929 0.431155
O O2 0.278850 0.693914 0.257530
O O3 0.080420 0.753220 0.308310
O O4 0.917404 0.649229 0.106061
O O5 0.943311 0.272210 0.083540
O O6 0.740980 0.175550 0.242431
O O7 0.580094 0.237473 0.930603
O O8 0.774455 0.474070 0.983600
O O9 0.561180 0.509613 0.635269
O O10 0.357198 0.241938 0.640880
O O11 0.624809 0.815122 0.526857
O O12 0.905112 0.693058 0.650150
O O13 0.306627 0.240396 0.208233
O O14 0.671541 0.305142 0.400281
O O15 0.900061 0.145495 0.534623
O O16 0.500000 0.000000 0.500000
O O17 0.000000 0.000000 0.500000
#
# Coordination Sequence:
#
# PCOD9079689 Si02
#       8
#     2   2   2   2   2   2   2   2
#     4  10  20  38  61  89 121 149 197 255 303 343
#     4  10  18  37  63  90 112 152 210 248 284 343
#     4  10  19  35  67  91 112 147 211 257 282 343
#     4  11  20  38  61  90 113 160 204 241 292 352
#     4  10  19  38  62  89 115 155 206 247 285 351
#     4  11  23  38  58  90 126 157 191 247 310 350
#     4  12  24  39  58  89 126 161 197 239 298 365
#     4  12  23  40  61  88 123 162 198 239 299 364
#
# _framework density 23.199010000000001
#
# number of rings (size 3 to 8) (size 9 to 14) (size 15 to 20)
#    0.000    1.250    6.250    1.500    0.000    0.500 
#    0.000    2.500    0.000    0.000    0.000    0.000 
#    0.000    0.000    0.000    0.000    0.000    0.000 
#
# Total GULP energy -89374.506295 kJ/mol
# GULP energy per Si atom -5585.906643 kJ/mol
# Density = 2.314621 g / cm^3
# Si number density = 23.199010 Si / 1000 Ang^3
#
#
#
# Elastic Constant Matrix: (Units=GPa)
#
#
# Indices 1 2 3 4 5 6 
#
# 1 64.6093 28.3011 21.5975 10.2644 2.1601 -22.5031
# 2 28.3011 66.4950 52.7782 33.0820 -12.1774 -46.0423
# 3 21.5975 52.7782 137.0471 52.9596 7.5013 -28.8323
# 4 10.2644 33.0820 52.9596 52.8632 -5.8501 -7.5859
# 5 2.1601 -12.1774 7.5013 -5.8501 29.5558 5.0221
# 6 -22.5031 -46.0423 -28.8323 -7.5859 5.0221 50.1690
#
#
#
# Elastic Compliance Matrix: (Units=1/GPa)
#
#
# Indices 1 2 3 4 5 6 
#
# 1 0.019978 -0.010326 0.000831 0.001212 -0.005809 0.000727
# 2 -0.010326 0.106557 -0.007143 -0.043345 0.024286 0.080070
# 3 0.000831 -0.007143 0.015462 -0.011980 -0.009614 0.001855
# 4 0.001212 -0.043345 -0.011980 0.052523 0.002011 -0.038380
# 5 -0.005809 0.024286 -0.009614 0.002011 0.045418 0.009915
# 6 0.000727 0.080070 0.001855 -0.038380 0.009915 0.088012
#
#
# Mechanical properties :
#
#
# Convention : Reuss Voigt Hill
#
# Bulk Modulus (GPa) = 9.19783 52.61167 30.90475
# Shear Modulus (GPa) = 12.57966 37.54925 25.06445
#
# Velocity S-wave (km/s) = 2.33115 4.02751 3.29053
# Velocity P-wave (km/s) = 3.34949 6.65999 5.27136
#
# Compressibility (1/GPa) = 0.10872129
#
# Stress axis : x y z
#
# Youngs Moduli (GPa) = 50.05571 9.38467 64.67280
#
# Poissons Ratio (x) = 0.09690 -0.05372
# Poissons Ratio (y) = 0.51685 0.46195
# Poissons Ratio (z) = -0.04158 0.06703
#
# Static dielectric constant tensor:
#      x y z
#    x 1.934010 0.059410 -0.030970 
#    y 0.059410 1.978650 0.009930 
#    z -0.030970 0.009930 1.882680 
# 
# From -- ./inp_files/257407.got.cif
#   From: 2010.05.17/outbox.cif.g08.bks.cpg/sg2_129_cif.got.tgz:257407.got - 2010.06.03 11:33:40.
