data_PCOD9079843
_publ_section_title
;
Structure prediction by ZEFSAII (Michael W. Deem and Ramdas Pophale) SiO2 
 PCOD9079843
Probable space group: P -1
;
_chemical_formula_sum "Si O2"
_cell_formula_units_Z 16
_cell_length_a 11.345503
_cell_length_b 7.860443
_cell_length_c 11.347711
_cell_angle_alpha 116.998750
_cell_angle_beta 95.121668
_cell_angle_gamma 51.702702
_cell_volume 680.444607
_symmetry_space_group_name_H-M "P -1"
_symmetry_group_IT_number 2
_symmetry_cell_setting 'triclinic'
loop_
_space_group_symop_operation_xyz
x,y,z
-x,-y,-z
loop_
_atom_site_type_symbol
_atom_site_label
_atom_site_fract_x
_atom_site_fract_y
_atom_site_fract_z
Si Si1 0.641160 0.220578 0.474369
Si Si2 0.889883 0.673926 0.653284
Si Si3 0.176635 0.514637 0.029773
Si Si4 0.930457 0.859314 0.945526
Si Si5 0.564700 0.130942 0.671865
Si Si6 0.633382 0.382555 0.070456
Si Si7 0.741972 0.466198 0.701184
Si Si8 0.407738 0.985920 0.789813
O O1 0.500000 0.500000 0.500000
O O2 0.589253 0.109607 0.527069
O O3 0.747204 0.258832 0.567860
O O4 0.695228 0.051928 0.309830
O O5 0.965525 0.712858 0.780222
O O6 0.824357 0.544649 0.658107
O O7 0.000000 0.500000 0.500000
O O8 0.740026 0.952785 0.683457
O O9 0.259130 0.571376 0.963915
O O10 0.009505 0.667652 0.000720
O O11 0.297541 0.212643 0.941089
O O12 0.179459 0.608137 0.187134
O O13 0.744015 0.086981 0.008641
O O14 0.000000 0.000000 0.000000
O O15 0.456967 0.432000 0.770433
O O16 0.482245 0.058855 0.724225
O O17 0.500000 0.500000 0.000000
O O18 0.559285 0.722604 0.775578
#
# Coordination Sequence:
#
# PCOD9079843 Si02
#       8
#     2   2   2   2   2   2   2   2
#     4  10  21  39  60  98 137 162 218 277 322 384
#     4  11  25  45  67  91 134 178 222 268 331 404
#     4  10  21  38  66  96 137 166 214 276 335 386
#     4  10  23  42  64 100 132 170 223 272 331 388
#     4  10  20  38  70  94 129 178 222 261 326 394
#     4  10  18  37  66  97 124 169 219 268 318 391
#     4  10  22  42  64  94 134 178 221 266 334 394
#     4   9  20  38  65 103 131 173 219 269 325 398
#
# _framework density 23.514037999999999
#
# number of rings (size 3 to 8) (size 9 to 14) (size 15 to 20)
#    0.000    2.000    1.250    1.500    3.500    0.500 
#   15.750    1.875    0.000    0.000    0.000    0.000 
#    0.000    0.000    0.000    0.000    0.000    0.000 
#
# Total GULP energy -89297.286335 kJ/mol
# GULP energy per Si atom -5581.080396 kJ/mol
# Density = 2.346052 g / cm^3
# Si number density = 23.514038 Si / 1000 Ang^3
#
#
#
# Elastic Constant Matrix: (Units=GPa)
#
#
# Indices 1 2 3 4 5 6 
#
# 1 79.4662 40.5131 34.2333 3.2051 3.4473 4.5619
# 2 40.5131 111.5529 28.0926 -15.1040 4.0932 -8.2124
# 3 34.2333 28.0926 125.7304 -7.5752 33.3682 -28.2654
# 4 3.2051 -15.1040 -7.5752 31.2530 -3.2587 2.3401
# 5 3.4473 4.0932 33.3682 -3.2587 25.8313 -0.8642
# 6 4.5619 -8.2124 -28.2654 2.3401 -0.8642 41.3185
#
#
#
# Elastic Compliance Matrix: (Units=1/GPa)
#
#
# Indices 1 2 3 4 5 6 
#
# 1 0.020201 -0.006959 -0.008542 -0.005961 0.008390 -0.008944
# 2 -0.006959 0.012546 0.000334 0.006567 -0.000558 0.003107
# 3 -0.008542 0.000334 0.019749 0.002316 -0.023667 0.013893
# 4 -0.005961 0.006567 0.002316 0.036376 0.001403 0.001517
# 5 0.008390 -0.000558 -0.023667 0.001403 0.067899 -0.015886
# 6 -0.008944 0.003107 0.013893 0.001517 -0.015886 0.034893
#
#
# Mechanical properties :
#
#
# Convention : Reuss Voigt Hill
#
# Bulk Modulus (GPa) = 45.12298 58.04750 51.58524
# Shear Modulus (GPa) = 21.79745 33.94126 27.86936
#
# Velocity S-wave (km/s) = 3.04797 3.80339 3.44644
# Velocity P-wave (km/s) = 5.62301 6.63533 6.15004
#
# Compressibility (1/GPa) = 0.02216166
#
# Stress axis : x y z
#
# Youngs Moduli (GPa) = 49.50172 79.70715 50.63675
#
# Poissons Ratio (x) = 0.55467 0.43253
# Poissons Ratio (y) = 0.34447 -0.01689
# Poissons Ratio (z) = 0.42284 -0.02659
#
# Static dielectric constant tensor:
#      x y z
#    x 1.942500 -0.003150 0.023660 
#    y -0.003150 1.877850 -0.112060 
#    z 0.023660 -0.112060 1.657160 
# 
# From -- ./inp_files/419766.got.cif
#   From: 2010.05.17/outbox.cif.g08.bks.cpg/sg2_210_cif.got.tgz:419766.got - 2010.06.03 11:33:40.
