data_PCOD9079482
_publ_section_title
;
Structure prediction by ZEFSAII (Michael W. Deem and Ramdas Pophale) SiO2 
 PCOD9079482
Probable space group: P -1
;
_chemical_formula_sum "Si O2"
_cell_formula_units_Z 14
_cell_length_a 13.623903
_cell_length_b 11.224828
_cell_length_c 9.869623
_cell_angle_alpha 137.950043
_cell_angle_beta 132.860128
_cell_angle_gamma 37.130566
_cell_volume 595.523612
_symmetry_space_group_name_H-M "P -1"
_symmetry_group_IT_number 2
_symmetry_cell_setting 'triclinic'
loop_
_space_group_symop_operation_xyz
x,y,z
-x,-y,-z
loop_
_atom_site_type_symbol
_atom_site_label
_atom_site_fract_x
_atom_site_fract_y
_atom_site_fract_z
Si Si1 0.612237 0.722996 0.212034
Si Si2 0.062780 0.258337 0.805912
Si Si3 0.774429 0.432098 0.519642
Si Si4 0.283527 0.895849 0.928389
Si Si5 0.138818 0.030811 0.193650
Si Si6 0.464604 0.794703 0.423936
Si Si7 0.933837 0.619171 0.368110
O O1 0.568551 0.684235 0.287710
O O2 0.806808 0.557078 0.215166
O O3 0.573141 0.965953 0.392544
O O4 0.483382 0.746752 0.001871
O O5 0.142031 0.216308 0.695510
O O6 0.887122 0.297450 0.642823
O O7 0.192441 0.077095 0.879031
O O8 0.000000 0.500000 0.000000
O O9 0.778015 0.256166 0.280512
O O10 0.582627 0.636839 0.522178
O O11 0.874839 0.518090 0.617601
O O12 0.224400 0.011548 0.116233
O O13 0.074621 0.256049 0.399956
O O14 0.287796 0.841642 0.269868
O O15 0.000000 0.000000 0.000000
#
# Coordination Sequence:
#
# PCOD9079482 Si02
#       7
#     2   2   2   2   2   2   2
#     4   9  19  36  58  86 115 157 190 236 293 340
#     4  10  22  40  60  84 116 160 195 236 292 350
#     4  10  21  37  59  88 114 157 192 240 287 343
#     4  11  21  37  63  84 123 153 191 241 298 340
#     4  10  18  37  59  91 115 153 187 242 290 338
#     4   9  19  35  59  84 124 152 191 236 293 346
#     4   9  21  37  60  87 114 153 197 236 284 346
#
# _framework density 23.508723
#
# number of rings (size 3 to 8) (size 9 to 14) (size 15 to 20)
#    0.857    1.429    1.429    2.143    0.000    3.429 
#    2.571    0.000    0.000    5.143    0.000    0.000 
#    0.000    0.000    0.000    0.000    0.000    0.000 
#
# Total GULP energy -78057.937154 kJ/mol
# GULP energy per Si atom -5575.566940 kJ/mol
# Density = 2.345522 g / cm^3
# Si number density = 23.508723 Si / 1000 Ang^3
#
#
#
# Elastic Constant Matrix: (Units=GPa)
#
#
# Indices 1 2 3 4 5 6 
#
# 1 48.4967 20.3846 24.4084 -17.6798 26.2407 -17.3275
# 2 20.3846 95.6035 36.3080 -35.6558 10.8892 -6.5313
# 3 24.4084 36.3080 126.2531 -27.5552 19.5642 -10.1391
# 4 -17.6798 -35.6558 -27.5552 49.1116 -9.3363 13.9122
# 5 26.2407 10.8892 19.5642 -9.3363 40.2060 -16.2178
# 6 -17.3275 -6.5313 -10.1391 13.9122 -16.2178 21.8071
#
#
#
# Elastic Compliance Matrix: (Units=1/GPa)
#
#
# Indices 1 2 3 4 5 6 
#
# 1 0.038211 -0.003401 -0.002048 0.002975 -0.016633 0.014123
# 2 -0.003401 0.015557 -0.001814 0.010698 -0.001330 -0.006700
# 3 -0.002048 -0.001814 0.009905 0.003510 -0.002997 -0.002033
# 4 0.002975 0.010698 0.003510 0.035718 -0.006486 -0.020411
# 5 -0.016633 -0.001330 -0.002997 -0.006486 0.045221 0.022760
# 6 0.014123 -0.006700 -0.002033 -0.020411 0.022760 0.084074
#
#
# Mechanical properties :
#
#
# Convention : Reuss Voigt Hill
#
# Bulk Modulus (GPa) = 20.34662 48.06168 34.20415
# Shear Modulus (GPa) = 19.26084 34.84176 27.05130
#
# Velocity S-wave (km/s) = 2.86546 3.85395 3.39587
# Velocity P-wave (km/s) = 4.42962 6.34764 5.47330
#
# Compressibility (1/GPa) = 0.04914822
#
# Stress axis : x y z
#
# Youngs Moduli (GPa) = 26.17072 64.27783 100.95600
#
# Poissons Ratio (x) = 0.21858 0.20680
# Poissons Ratio (y) = 0.08899 0.18310
# Poissons Ratio (z) = 0.05361 0.11658
#
# Static dielectric constant tensor:
#      x y z
#    x 1.948680 -0.026570 0.001930 
#    y -0.026570 1.973770 -0.030410 
#    z 0.001930 -0.030410 1.889210 
# 
# From -- ./inp_files/308598.got.cif
#   From: 2010.05.17/outbox.cif.g08.bks.cpg/sg2_155_cif.got.tgz:308598.got - 2010.06.03 11:33:40.
