data_PCOD9079629
_publ_section_title
;
Structure prediction by ZEFSAII (Michael W. Deem and Ramdas Pophale) SiO2 
 PCOD9079629
Probable space group: P -1
;
_chemical_formula_sum "Si O2"
_cell_formula_units_Z 14
_cell_length_a 15.332747
_cell_length_b 9.784980
_cell_length_c 17.191425
_cell_angle_alpha 155.955816
_cell_angle_beta 134.764414
_cell_angle_gamma 60.508204
_cell_volume 636.755017
_symmetry_space_group_name_H-M "P -1"
_symmetry_group_IT_number 2
_symmetry_cell_setting 'triclinic'
loop_
_space_group_symop_operation_xyz
x,y,z
-x,-y,-z
loop_
_atom_site_type_symbol
_atom_site_label
_atom_site_fract_x
_atom_site_fract_y
_atom_site_fract_z
Si Si1 0.676922 0.024503 0.691928
Si Si2 0.439477 0.237687 0.914926
Si Si3 0.297484 0.012684 0.552884
Si Si4 0.625848 0.674036 0.923298
Si Si5 0.821255 0.908928 0.029794
Si Si6 0.097386 0.954881 0.271267
Si Si7 0.367523 0.050640 0.192277
O O1 0.683718 0.407551 0.858316
O O2 0.805752 0.007541 0.722172
O O3 0.528171 0.635279 0.370737
O O4 0.677719 0.040873 0.794031
O O5 0.312581 0.085334 0.692935
O O6 0.556095 0.156907 0.908363
O O7 0.538785 0.711636 0.231650
O O8 0.388695 0.086616 0.890550
O O9 0.244249 0.561362 0.268278
O O10 0.200912 0.127476 0.501153
O O11 0.734022 0.940198 0.063083
O O12 0.771758 0.033640 0.987331
O O13 0.987070 0.089921 0.249607
O O14 0.000000 0.500000 0.000000
O O15 0.500000 0.500000 0.500000
#
# Coordination Sequence:
#
# PCOD9079629 Si02
#       7
#     2   2   2   2   2   2   2
#     4  11  20  37  65  90 121 161 204 244 303 363
#     4  11  21  34  62  94 124 147 206 263 299 340
#     4  10  18  37  62  89 114 158 200 255 292 343
#     4  11  19  35  64  94 110 161 210 245 292 355
#     4  11  22  41  63  89 128 160 201 245 303 366
#     4  10  20  38  65  90 120 162 206 247 288 371
#     4  12  24  39  58  94 128 157 196 258 309 355
#
# _framework density 21.986477000000001
#
# number of rings (size 3 to 8) (size 9 to 14) (size 15 to 20)
#    0.000    1.143    7.143    2.571    0.000    1.143 
#    0.000    1.429    3.143    0.000    0.000    0.000 
#    0.000    0.000    0.000    0.000    0.000    0.000 
#
# Total GULP energy -78216.260998 kJ/mol
# GULP energy per Si atom -5586.875786 kJ/mol
# Density = 2.193643 g / cm^3
# Si number density = 21.986477 Si / 1000 Ang^3
#
#
#
# Elastic Constant Matrix: (Units=GPa)
#
#
# Indices 1 2 3 4 5 6 
#
# 1 148.2174 70.9462 37.2501 -36.1182 -0.7776 19.1700
# 2 70.9462 136.9698 35.1959 -56.1023 -4.9663 12.6284
# 3 37.2501 35.1959 70.2504 -27.6196 -6.2398 4.1589
# 4 -36.1182 -56.1023 -27.6196 50.2691 2.6262 -5.1725
# 5 -0.7776 -4.9663 -6.2398 2.6262 28.3835 -8.6516
# 6 19.1700 12.6284 4.1589 -5.1725 -8.6516 38.6999
#
#
#
# Elastic Compliance Matrix: (Units=1/GPa)
#
#
# Indices 1 2 3 4 5 6 
#
# 1 0.010024 -0.003667 -0.002986 0.001198 -0.002293 -0.003800
# 2 -0.003667 0.015075 0.000069 0.014073 0.000939 -0.001019
# 3 -0.002986 0.000069 0.019395 0.008529 0.003821 0.001366
# 4 0.001198 0.014073 0.008529 0.041071 0.000411 -0.000521
# 5 -0.002293 0.000939 0.003821 0.000411 0.038933 0.009177
# 6 -0.003800 -0.001019 0.001366 -0.000521 0.009177 0.029890
#
#
# Mechanical properties :
#
#
# Convention : Reuss Voigt Hill
#
# Bulk Modulus (GPa) = 31.92216 71.35800 51.64008
# Shear Modulus (GPa) = 28.09024 37.60686 32.84855
#
# Velocity S-wave (km/s) = 3.57825 4.14025 3.86947
# Velocity P-wave (km/s) = 5.62338 7.44187 6.59560
#
# Compressibility (1/GPa) = 0.03132620
#
# Stress axis : x y z
#
# Youngs Moduli (GPa) = 99.76227 66.33482 51.55901
#
# Poissons Ratio (x) = 0.24324 0.15393
# Poissons Ratio (y) = 0.36582 -0.00353
# Poissons Ratio (z) = 0.29785 -0.00455
#
# Static dielectric constant tensor:
#      x y z
#    x 1.824650 -0.045860 -0.056060 
#    y -0.045860 1.907930 0.059290 
#    z -0.056060 0.059290 1.898970 
# 
# From -- ./inp_files/202662.got.cif
#   From: 2010.05.17/outbox.cif.g08.bks.cpg/sg2_102_cif.got.tgz:202662.got - 2010.06.03 11:33:40.
