data_PCOD9079582
_publ_section_title
;
Structure prediction by ZEFSAII (Michael W. Deem and Ramdas Pophale) SiO2 
 PCOD9079582
Probable space group: P -1
;
_chemical_formula_sum "Si O2"
_cell_formula_units_Z 12
_cell_length_a 8.562759
_cell_length_b 5.536359
_cell_length_c 10.583555
_cell_angle_alpha 114.344631
_cell_angle_beta 99.856419
_cell_angle_gamma 108.490039
_cell_volume 406.194328
_symmetry_space_group_name_H-M "P -1"
_symmetry_group_IT_number 2
_symmetry_cell_setting 'triclinic'
loop_
_space_group_symop_operation_xyz
x,y,z
-x,-y,-z
loop_
_atom_site_type_symbol
_atom_site_label
_atom_site_fract_x
_atom_site_fract_y
_atom_site_fract_z
Si Si1 0.773334 0.571544 0.036589
Si Si2 0.731567 0.117506 0.436740
Si Si3 0.550900 0.439157 0.632006
Si Si4 0.110149 0.058647 0.188895
Si Si5 0.993276 0.400929 0.705294
Si Si6 0.554771 0.944916 0.133546
O O1 0.672132 0.769395 0.088820
O O2 0.958219 0.773717 0.037003
O O3 0.829596 0.498940 0.165556
O O4 0.636598 0.283265 0.886367
O O5 0.660443 0.255045 0.568720
O O6 0.936414 0.249893 0.526803
O O7 0.621504 0.768442 0.361529
O O8 0.665290 0.178341 0.306090
O O9 0.500000 0.500000 0.500000
O O10 0.689571 0.739345 0.780818
O O11 0.032604 0.298857 0.246222
O O12 0.115668 0.890165 0.282631
O O13 0.500000 0.000000 0.000000
#
# Coordination Sequence:
#
# PCOD9079582 Si02
#       6
#     2   2   2   2   2   2
#     4   9  21  39  62  83 127 166 207 252 306 378
#     4  10  22  36  63  94 124 160 209 259 310 370
#     4  10  18  37  61  92 124 156 203 265 316 365
#     4   9  18  35  64  88 125 154 205 256 315 365
#     4   9  18  37  61  93 118 162 203 261 308 365
#     4  11  23  41  59  89 127 170 207 251 310 376
#
# _framework density 29.542513
#
# number of rings (size 3 to 8) (size 9 to 14) (size 15 to 20)
#    1.000    1.333    1.667    1.000    0.000    3.333 
#    0.000    5.000    0.000   15.000    0.000    0.000 
#    0.000    0.000    0.000    0.000    0.000    0.000 
#
# Total GULP energy -67028.082750 kJ/mol
# GULP energy per Si atom -5585.673562 kJ/mol
# Density = 2.947527 g / cm^3
# Si number density = 29.542513 Si / 1000 Ang^3
#
#
#
# Elastic Constant Matrix: (Units=GPa)
#
#
# Indices 1 2 3 4 5 6 
#
# 1 54.9215 49.8954 68.6292 3.8218 9.6306 -6.0635
# 2 49.8954 184.0851 52.5541 -25.7826 8.4348 -21.4308
# 3 68.6292 52.5541 224.7317 -6.7307 45.7815 -0.3698
# 4 3.8218 -25.7826 -6.7307 66.7972 6.9150 11.9971
# 5 9.6306 8.4348 45.7815 6.9150 69.7418 4.8796
# 6 -6.0635 -21.4308 -0.3698 11.9971 4.8796 61.5241
#
#
#
# Elastic Compliance Matrix: (Units=1/GPa)
#
#
# Indices 1 2 3 4 5 6 
#
# 1 0.040182 -0.008671 -0.011162 -0.007496 0.003426 0.002063
# 2 -0.008671 0.008197 0.001030 0.003612 -0.000925 0.001376
# 3 -0.011162 0.001030 0.008590 0.002507 -0.004413 -0.000829
# 4 -0.007496 0.003612 0.002507 0.017808 -0.002623 -0.002730
# 5 0.003426 -0.000925 -0.004413 -0.002623 0.017195 -0.000863
# 6 0.002063 0.001376 -0.000829 -0.002730 -0.000863 0.017532
#
#
# Mechanical properties :
#
#
# Convention : Reuss Voigt Hill
#
# Bulk Modulus (GPa) = 51.64618 89.54396 70.59507
# Shear Modulus (GPa) = 32.55928 59.12326 45.84127
#
# Velocity S-wave (km/s) = 3.32341 4.47844 3.94344
# Velocity P-wave (km/s) = 5.67862 7.55764 6.68448
#
# Compressibility (1/GPa) = 0.01936251
#
# Stress axis : x y z
#
# Youngs Moduli (GPa) = 24.88657 121.99577 116.40928
#
# Poissons Ratio (x) = 1.05786 1.29939
# Poissons Ratio (y) = 0.21580 -0.11990
# Poissons Ratio (z) = 0.27779 -0.12565
#
# Static dielectric constant tensor:
#      x y z
#    x 2.428070 0.036980 0.087980 
#    y 0.036980 2.364180 0.005120 
#    z 0.087980 0.005120 2.297040 
# 
# From -- ./inp_files/33950.got.cif
#   From: 2010.05.17/outbox.cif.g08.bks.cpg/sg2_17_cif.got.tgz:33950.got - 2010.06.03 11:33:40.
