data_PCOD9079914
_publ_section_title
;
Structure prediction by ZEFSAII (Michael W. Deem and Ramdas Pophale) SiO2 
 PCOD9079914
Probable space group: P -1
;
_chemical_formula_sum "Si O2"
_cell_formula_units_Z 16
_cell_length_a 13.570123
_cell_length_b 8.025261
_cell_length_c 15.284527
_cell_angle_alpha 67.547823
_cell_angle_beta 151.056467
_cell_angle_gamma 116.122221
_cell_volume 723.247750
_symmetry_space_group_name_H-M "P -1"
_symmetry_group_IT_number 2
_symmetry_cell_setting 'triclinic'
loop_
_space_group_symop_operation_xyz
x,y,z
-x,-y,-z
loop_
_atom_site_type_symbol
_atom_site_label
_atom_site_fract_x
_atom_site_fract_y
_atom_site_fract_z
Si Si1 0.160552 0.790675 0.010969
Si Si2 0.672673 0.836837 0.818564
Si Si3 0.979626 0.309695 0.793007
Si Si4 0.582998 0.966954 0.976555
Si Si5 0.293080 0.717279 0.672177
Si Si6 0.256900 0.106433 0.340431
Si Si7 0.841551 0.648428 0.255317
Si Si8 0.359182 0.642494 0.343444
O O1 0.240467 0.638629 0.159717
O O2 0.224810 0.970056 0.090345
O O3 0.283081 0.850396 0.004306
O O4 0.916225 0.772753 0.806163
O O5 0.451059 0.744817 0.707818
O O6 0.664318 0.862220 0.704126
O O7 0.839217 0.716191 0.995176
O O8 0.806821 0.371774 0.704247
O O9 0.092304 0.418238 0.774645
O O10 0.865065 0.107468 0.705259
O O11 0.388842 0.881933 0.779781
O O12 0.722629 0.812821 0.117713
O O13 0.500000 0.000000 0.000000
O O14 0.290593 0.524670 0.758302
O O15 0.059244 0.716671 0.462523
O O16 0.457343 0.165878 0.545986
O O17 0.500000 0.500000 0.500000
#
# Coordination Sequence:
#
# PCOD9079914 Si02
#       8
#     2   2   2   2   2   2   2   2
#     4  10  21  41  62  91 121 162 215 252 299 383
#     4  10  18  37  71  92 116 162 214 260 294 367
#     4  11  20  39  68  94 119 159 216 253 304 377
#     4  11  24  43  66  92 128 170 213 259 316 370
#     4  10  23  40  65  94 130 162 214 264 311 371
#     4  11  20  39  69  89 120 162 208 257 305 368
#     4  11  22  42  66  97 124 164 217 262 311 368
#     4  12  26  40  57  96 134 161 198 256 326 373
#
# _framework density 22.122434999999999
#
# number of rings (size 3 to 8) (size 9 to 14) (size 15 to 20)
#    0.000    1.250    6.250    2.250    3.500    1.000 
#    9.000    0.000    0.000    0.000    0.000    0.000 
#    0.000    0.000    0.000    0.000    0.000    0.000 
#
# Total GULP energy -89519.902360 kJ/mol
# GULP energy per Si atom -5594.993897 kJ/mol
# Density = 2.207208 g / cm^3
# Si number density = 22.122435 Si / 1000 Ang^3
#
#
#
# Elastic Constant Matrix: (Units=GPa)
#
#
# Indices 1 2 3 4 5 6 
#
# 1 130.0076 23.6589 29.0616 -4.9276 8.3355 18.0187
# 2 23.6589 38.4896 11.0028 -8.2526 9.6576 13.4181
# 3 29.0616 11.0028 109.1226 -9.2698 8.1459 -3.8133
# 4 -4.9276 -8.2526 -9.2698 35.3351 4.0599 1.8087
# 5 8.3355 9.6576 8.1459 4.0599 32.9312 -2.7933
# 6 18.0187 13.4181 -3.8133 1.8087 -2.7933 29.5669
#
#
#
# Elastic Compliance Matrix: (Units=1/GPa)
#
#
# Indices 1 2 3 4 5 6 
#
# 1 0.009538 -0.003069 -0.002258 0.000434 -0.001422 -0.004872
# 2 -0.003069 0.040844 -0.001995 0.011127 -0.013683 -0.018896
# 3 -0.002258 -0.001995 0.010348 0.001917 -0.001354 0.003371
# 4 0.000434 0.011127 0.001917 0.032851 -0.008566 -0.007886
# 5 -0.001422 -0.013683 -0.001354 -0.008566 0.037057 0.010927
# 6 -0.004872 -0.018896 0.003371 -0.007886 0.010927 0.047316
#
#
# Mechanical properties :
#
#
# Convention : Reuss Voigt Hill
#
# Bulk Modulus (GPa) = 21.69800 45.00740 33.35270
# Shear Modulus (GPa) = 24.04320 33.82638 28.93479
#
# Velocity S-wave (km/s) = 3.30028 3.91455 3.62047
# Velocity P-wave (km/s) = 4.93476 6.38909 5.70843
#
# Compressibility (1/GPa) = 0.04608719
#
# Stress axis : x y z
#
# Youngs Moduli (GPa) = 104.84397 24.48326 96.63569
#
# Poissons Ratio (x) = 0.07514 0.21820
# Poissons Ratio (y) = 0.32177 0.19275
# Poissons Ratio (z) = 0.23673 0.04884
#
# Static dielectric constant tensor:
#      x y z
#    x 1.780710 0.003610 0.003340 
#    y 0.003610 1.919290 -0.008600 
#    z 0.003340 -0.008600 1.803020 
# 
# From -- ./inp_files/308809.got.cif
#   From: 2010.05.17/outbox.cif.g08.bks.cpg/sg2_155_cif.got.tgz:308809.got - 2010.06.03 11:33:40.
