data_PCOD9079114
_publ_section_title
;
Structure prediction by ZEFSAII (Michael W. Deem and Ramdas Pophale) SiO2 
 PCOD9079114
Probable space group: P -1
;
_chemical_formula_sum "Si O2"
_cell_formula_units_Z 16
_cell_length_a 8.036238
_cell_length_b 9.195661
_cell_length_c 14.079344
_cell_angle_alpha 68.897570
_cell_angle_beta 122.203383
_cell_angle_gamma 68.553396
_cell_volume 581.499290
_symmetry_space_group_name_H-M "P -1"
_symmetry_group_IT_number 2
_symmetry_cell_setting 'triclinic'
loop_
_space_group_symop_operation_xyz
x,y,z
-x,-y,-z
loop_
_atom_site_type_symbol
_atom_site_label
_atom_site_fract_x
_atom_site_fract_y
_atom_site_fract_z
Si Si1 0.685906 0.555887 0.244128
Si Si2 0.565392 0.765960 0.346373
Si Si3 0.211126 0.160525 0.433075
Si Si4 0.650347 0.662967 0.911167
Si Si5 0.366199 0.759663 0.609487
Si Si6 0.016399 0.753083 0.988061
Si Si7 0.270907 0.633082 0.298382
Si Si8 0.317098 0.957567 0.915344
O O1 0.714972 0.662303 0.314520
O O2 0.701368 0.375852 0.340350
O O3 0.400730 0.773445 0.057485
O O4 0.921252 0.414119 0.266817
O O5 0.717153 0.797496 0.454678
O O6 0.511523 0.620867 0.400899
O O7 0.248949 0.001551 0.182004
O O8 0.500000 0.000000 0.500000
O O9 0.145078 0.011508 0.451898
O O10 0.522673 0.753693 0.745914
O O11 0.881238 0.663268 0.000484
O O12 0.414843 0.834815 0.874188
O O13 0.790258 0.414910 0.000565
O O14 0.579592 0.612320 0.622514
O O15 0.153352 0.737207 0.130655
O O16 0.999062 0.809385 0.236197
O O17 0.500000 0.000000 0.000000
#
# Coordination Sequence:
#
# PCOD9079114 Si02
#       8
#     2   2   2   2   2   2   2   2
#     4  11  26  45  70  98 140 184 226 276 338 410
#     4  11  22  43  67  97 129 182 226 273 336 411
#     4  12  28  46  72  97 134 184 239 284 327 397
#     4  10  21  34  64  98 133 173 211 274 340 401
#     4  10  24  47  69  97 135 188 227 276 339 413
#     4  10  18  36  62  92 131 173 215 261 343 406
#     4  10  22  39  68 100 136 169 220 279 345 400
#     4  12  24  38  66 109 141 169 219 287 345 403
#
# _framework density 27.515083000000001
#
# number of rings (size 3 to 8) (size 9 to 14) (size 15 to 20)
#    0.000    1.250    3.750    1.125    7.000    1.500 
#    0.000    2.500    0.000    0.000    0.000    0.000 
#    0.000    0.000    0.000    0.000    0.000    0.000 
#
# Total GULP energy -89456.944437 kJ/mol
# GULP energy per Si atom -5591.059027 kJ/mol
# Density = 2.745246 g / cm^3
# Si number density = 27.515083 Si / 1000 Ang^3
#
#
#
# Elastic Constant Matrix: (Units=GPa)
#
#
# Indices 1 2 3 4 5 6 
#
# 1 74.1589 60.2284 -7.0394 -0.0575 2.1258 -4.5826
# 2 60.2284 233.6443 55.2713 -23.4618 3.2245 -38.4228
# 3 -7.0394 55.2713 65.9876 -10.0908 12.4180 -13.4712
# 4 -0.0575 -23.4618 -10.0908 66.8340 -7.7783 10.6716
# 5 2.1258 3.2245 12.4180 -7.7783 29.1400 -6.8369
# 6 -4.5826 -38.4228 -13.4712 10.6716 -6.8369 72.6940
#
#
#
# Elastic Compliance Matrix: (Units=1/GPa)
#
#
# Indices 1 2 3 4 5 6 
#
# 1 0.020865 -0.007914 0.009320 -0.001761 -0.005415 -0.001391
# 2 -0.007914 0.008850 -0.008198 0.001914 0.004254 0.002779
# 3 0.009320 -0.008198 0.024928 -0.000317 -0.010496 -0.000066
# 4 -0.001761 0.001914 -0.000317 0.016249 0.004118 -0.001156
# 5 -0.005415 0.004254 -0.010496 0.004118 0.040558 0.003172
# 6 -0.001391 0.002779 -0.000066 -0.001156 0.003172 0.015593
#
#
# Mechanical properties :
#
#
# Convention : Reuss Voigt Hill
#
# Bulk Modulus (GPa) = 24.35466 65.63461 44.99464
# Shear Modulus (GPa) = 32.40198 51.42229 41.91214
#
# Velocity S-wave (km/s) = 3.43535 4.32774 3.90711
# Velocity P-wave (km/s) = 4.96046 6.99130 6.06153
#
# Compressibility (1/GPa) = 0.04105991
#
# Stress axis : x y z
#
# Youngs Moduli (GPa) = 47.92772 112.99732 40.11535
#
# Poissons Ratio (x) = 0.89429 -0.37389
# Poissons Ratio (y) = 0.37931 0.32885
# Poissons Ratio (z) = -0.44671 0.92630
#
# Static dielectric constant tensor:
#      x y z
#    x 2.382370 -0.020810 0.000760 
#    y -0.020810 2.084960 -0.060600 
#    z 0.000760 -0.060600 2.188370 
# 
# From -- ./inp_files/494944.got.cif
#   From: 2010.05.17/outbox.cif.g08.bks.cpg/sg2_248_cif.got.tgz:494944.got - 2010.06.03 11:33:40.
