data_PCOD9079977
_publ_section_title
;
Structure prediction by ZEFSAII (Michael W. Deem and Ramdas Pophale) SiO2 
 PCOD9079977
Probable space group: P -1
;
_chemical_formula_sum "Si O2"
_cell_formula_units_Z 11
_cell_length_a 10.227009
_cell_length_b 6.457170
_cell_length_c 10.098772
_cell_angle_alpha 44.997282
_cell_angle_beta 119.987701
_cell_angle_gamma 111.400077
_cell_volume 408.349934
_symmetry_space_group_name_H-M "P -1"
_symmetry_group_IT_number 2
_symmetry_cell_setting 'triclinic'
loop_
_space_group_symop_operation_xyz
x,y,z
-x,-y,-z
loop_
_atom_site_type_symbol
_atom_site_label
_atom_site_fract_x
_atom_site_fract_y
_atom_site_fract_z
Si Si1 0.906211 0.655469 0.723842
Si Si2 0.696983 0.092280 0.911505
Si Si3 0.500000 0.500000 0.000000
Si Si4 0.276013 0.046930 0.295825
Si Si5 0.773158 0.104699 0.249117
Si Si6 0.536788 0.480757 0.324691
O O1 0.598822 0.761350 0.649356
O O2 0.830328 0.335879 0.839198
O O3 0.084604 0.668789 0.787340
O O4 0.830221 0.832155 0.485657
O O5 0.699104 0.875219 0.882763
O O6 0.539393 0.270115 0.738903
O O7 0.732044 0.022862 0.113924
O O8 0.127744 0.151851 0.247465
O O9 0.637108 0.257357 0.184335
O O10 0.540854 0.605733 0.123444
O O11 0.318485 0.707655 0.482289
#
# Coordination Sequence:
#
# PCOD9079977 Si02
#       6
#     2   2   1   2   2   2
#     4  10  21  40  61  84 121 155 190 246 293 342
#     4  10  21  37  60  88 115 155 198 239 288 350
#     4  10  18  38  60  82 112 158 194 230 292 350
#     4  10  19  37  60  84 117 154 193 240 293 343
#     4  10  21  39  60  87 119 154 197 239 292 348
#     4   9  19  35  58  83 118 154 189 238 293 345
#
# _framework density 26.937683
#
# number of rings (size 3 to 8) (size 9 to 14) (size 15 to 20)
#    0.000    2.182    1.818    1.091    0.000    0.727 
#    3.273    5.455    0.000    0.000    0.000    0.000 
#    0.000    0.000    0.000    0.000    0.000    0.000 
#
# Total GULP energy -61419.210182 kJ/mol
# GULP energy per Si atom -5583.564562 kJ/mol
# Density = 2.687637 g / cm^3
# Si number density = 26.937683 Si / 1000 Ang^3
#
#
#
# Elastic Constant Matrix: (Units=GPa)
#
#
# Indices 1 2 3 4 5 6 
#
# 1 90.5882 14.4891 16.5657 7.6393 9.2965 -21.4831
# 2 14.4891 116.3580 17.9482 8.6161 22.1101 -19.6244
# 3 16.5657 17.9482 121.8370 -5.6943 -7.3116 -8.9325
# 4 7.6393 8.6161 -5.6943 17.2097 -1.6572 3.6761
# 5 9.2965 22.1101 -7.3116 -1.6572 58.3442 5.1340
# 6 -21.4831 -19.6244 -8.9325 3.6761 5.1340 31.2509
#
#
#
# Elastic Compliance Matrix: (Units=1/GPa)
#
#
# Indices 1 2 3 4 5 6 
#
# 1 0.016223 0.002908 -0.002510 -0.013184 -0.005673 0.014744
# 2 0.002908 0.012795 -0.002375 -0.011693 -0.006987 0.011879
# 3 -0.002510 -0.002375 0.009218 0.005993 0.002779 -0.001744
# 4 -0.013184 -0.011693 0.005993 0.078455 0.011787 -0.025858
# 5 -0.005673 -0.006987 0.002779 0.011787 0.022481 -0.012573
# 6 0.014744 0.011879 -0.001744 -0.025858 -0.012573 0.054203
#
#
# Mechanical properties :
#
#
# Convention : Reuss Voigt Hill
#
# Bulk Modulus (GPa) = 29.16953 47.42100 38.29526
# Shear Modulus (GPa) = 23.95128 40.01296 31.98212
#
# Velocity S-wave (km/s) = 2.98507 3.85826 3.44941
# Velocity P-wave (km/s) = 4.76791 6.12294 5.48741
#
# Compressibility (1/GPa) = 0.03428235
#
# Stress axis : x y z
#
# Youngs Moduli (GPa) = 61.63924 78.15317 108.48472
#
# Poissons Ratio (x) = -0.22727 0.27228
# Poissons Ratio (y) = -0.17924 0.25768
# Poissons Ratio (z) = 0.15471 0.18563
#
# Static dielectric constant tensor:
#      x y z
#    x 3.329090 0.949710 -0.020080 
#    y 0.949710 2.677210 0.013960 
#    z -0.020080 0.013960 2.065690 
# 
# From -- ./inp_files/373703.got.cif
#   From: 2010.05.17/outbox.cif.g08.bks.cpg/sg2_187_cif.got.tgz:373703.got - 2010.06.03 11:33:40.
