data_PCOD9079677
_publ_section_title
;
Structure prediction by ZEFSAII (Michael W. Deem and Ramdas Pophale) SiO2 
 PCOD9079677
Probable space group: P -1
;
_chemical_formula_sum "Si O2"
_cell_formula_units_Z 14
_cell_length_a 9.351275
_cell_length_b 11.328135
_cell_length_c 9.105930
_cell_angle_alpha 80.417871
_cell_angle_beta 42.829941
_cell_angle_gamma 102.585704
_cell_volume 557.284969
_symmetry_space_group_name_H-M "P -1"
_symmetry_group_IT_number 2
_symmetry_cell_setting 'triclinic'
loop_
_space_group_symop_operation_xyz
x,y,z
-x,-y,-z
loop_
_atom_site_type_symbol
_atom_site_label
_atom_site_fract_x
_atom_site_fract_y
_atom_site_fract_z
Si Si1 0.844510 0.592330 0.877460
Si Si2 0.664289 0.437715 0.329267
Si Si3 0.719437 0.806630 0.527684
Si Si4 0.239110 0.896088 0.570048
Si Si5 0.023188 0.148375 0.950750
Si Si6 0.477618 0.760244 0.292117
Si Si7 0.549590 0.357129 0.953597
O O1 0.798240 0.473073 0.818598
O O2 0.023904 0.756518 0.683637
O O3 0.850607 0.547509 0.050028
O O4 0.570491 0.572393 0.068557
O O5 0.500000 0.500000 0.500000
O O6 0.511534 0.297882 0.376961
O O7 0.727093 0.378070 0.438623
O O8 0.930313 0.808096 0.264243
O O9 0.762280 0.961776 0.478778
O O10 0.645239 0.734942 0.755638
O O11 0.469473 0.892039 0.333843
O O12 0.191566 0.860422 0.787013
O O13 0.269197 0.227351 0.849703
O O14 0.000000 0.000000 0.000000
O O15 0.429119 0.741750 0.160827
#
# Coordination Sequence:
#
# PCOD9079677 Si02
#       7
#     2   2   2   2   2   2   2
#     4  10  20  37  60  85 122 155 209 242 293 359
#     4  10  18  37  63  87 112 162 200 247 292 351
#     4   9  21  36  63  89 122 156 199 245 303 356
#     4  11  22  39  62  93 121 156 200 252 299 357
#     4   9  19  39  58  85 118 154 195 244 288 354
#     4  11  22  37  66  87 123 157 200 249 303 352
#     4  10  20  38  63  87 116 170 195 240 305 357
#
# _framework density 25.121796
#
# number of rings (size 3 to 8) (size 9 to 14) (size 15 to 20)
#    0.000    2.000    2.857    0.857    0.000    7.429 
#    0.000    0.000    9.429    0.000    0.000    0.000 
#    0.000    0.000    0.000    0.000    0.000    0.000 
#
# Total GULP energy -78038.118516 kJ/mol
# GULP energy per Si atom -5574.151323 kJ/mol
# Density = 2.506462 g / cm^3
# Si number density = 25.121796 Si / 1000 Ang^3
#
#
#
# Elastic Constant Matrix: (Units=GPa)
#
#
# Indices 1 2 3 4 5 6 
#
# 1 68.3625 39.3508 19.8385 4.2042 22.1846 14.9435
# 2 39.3508 172.4394 40.8440 3.5387 12.1093 17.8803
# 3 19.8385 40.8440 113.5356 21.6914 40.7135 13.7681
# 4 4.2042 3.5387 21.6914 58.6515 6.7412 -1.0768
# 5 22.1846 12.1093 40.7135 6.7412 34.5718 4.4493
# 6 14.9435 17.8803 13.7681 -1.0768 4.4493 35.7526
#
#
#
# Elastic Compliance Matrix: (Units=1/GPa)
#
#
# Indices 1 2 3 4 5 6 
#
# 1 0.023344 -0.004503 0.005300 -0.001376 -0.018437 -0.007293
# 2 -0.004503 0.007430 -0.003441 0.000628 0.004349 -0.001031
# 3 0.005300 -0.003441 0.018765 -0.004589 -0.022752 -0.005027
# 4 -0.001376 0.000628 -0.004589 0.018604 0.002141 0.002322
# 5 -0.018437 0.004349 -0.022752 0.002141 0.064799 0.006293
# 6 -0.007293 -0.001031 -0.005027 0.002322 0.006293 0.032757
#
#
# Mechanical properties :
#
#
# Convention : Reuss Voigt Hill
#
# Bulk Modulus (GPa) = 22.59862 61.60048 42.09955
# Shear Modulus (GPa) = 26.91955 42.74881 34.83418
#
# Velocity S-wave (km/s) = 3.27702 4.12960 3.72776
# Velocity P-wave (km/s) = 4.83049 6.87838 5.94330
#
# Compressibility (1/GPa) = 0.04425049
#
# Stress axis : x y z
#
# Youngs Moduli (GPa) = 42.83779 134.58268 53.29075
#
# Poissons Ratio (x) = 0.60606 -0.28243
# Poissons Ratio (y) = 0.19291 0.18337
# Poissons Ratio (z) = -0.22703 0.46308
#
# Static dielectric constant tensor:
#      x y z
#    x 2.186330 0.051740 -0.194560 
#    y 0.051740 2.059530 -0.003030 
#    z -0.194560 -0.003030 2.223800 
# 
# From -- ./inp_files/203097.got.cif
#   From: 2010.05.17/outbox.cif.g08.bks.cpg/sg2_102_cif.got.tgz:203097.got - 2010.06.03 11:33:40.
