data_PCOD9079557
_publ_section_title
;
Structure prediction by ZEFSAII (Michael W. Deem and Ramdas Pophale) SiO2 
 PCOD9079557
Probable space group: P -1
;
_chemical_formula_sum "Si O2"
_cell_formula_units_Z 16
_cell_length_a 7.831364
_cell_length_b 5.594725
_cell_length_c 16.391693
_cell_angle_alpha 79.443874
_cell_angle_beta 110.491599
_cell_angle_gamma 113.547593
_cell_volume 615.939789
_symmetry_space_group_name_H-M "P -1"
_symmetry_group_IT_number 2
_symmetry_cell_setting 'triclinic'
loop_
_space_group_symop_operation_xyz
x,y,z
-x,-y,-z
loop_
_atom_site_type_symbol
_atom_site_label
_atom_site_fract_x
_atom_site_fract_y
_atom_site_fract_z
Si Si1 0.193669 0.060117 0.087563
Si Si2 0.700289 0.236592 0.150728
Si Si3 0.757980 0.383821 0.969427
Si Si4 0.201368 0.738547 0.505011
Si Si5 0.928363 0.830687 0.205532
Si Si6 0.935700 0.915267 0.628653
Si Si7 0.359652 0.911268 0.676738
Si Si8 0.603208 0.414682 0.597983
O O1 0.110116 0.971612 0.168271
O O2 0.299200 0.372117 0.081747
O O3 0.297285 0.871320 0.080298
O O4 0.000000 0.000000 0.000000
O O5 0.662273 0.291451 0.047185
O O6 0.579527 0.159734 0.220878
O O7 0.792964 0.009102 0.168503
O O8 0.840149 0.533833 0.179900
O O9 0.000000 0.500000 0.000000
O O10 0.355865 0.755576 0.601748
O O11 0.287578 0.727734 0.431601
O O12 0.000000 0.500000 0.500000
O O13 0.152092 0.999253 0.470950
O O14 0.990142 0.854276 0.307920
O O15 0.766368 0.662280 0.650872
O O16 0.127736 0.851502 0.648278
O O17 0.471693 0.211711 0.653637
O O18 0.500000 0.500000 0.500000
#
# Coordination Sequence:
#
# PCOD9079557 Si02
#       8
#     2   2   2   2   2   2   2   2
#     4  10  15  27  48  81 118 157 199 250 306 368
#     4  11  20  34  53  90 124 163 202 263 312 370
#     4  10  15  27  50  77 124 153 202 249 304 371
#     4  12  22  42  65  88 123 166 209 264 318 383
#     4  11  20  33  55  86 128 159 204 264 310 369
#     4  11  25  41  62  90 125 163 213 262 318 377
#     4  11  24  41  63  93 125 164 212 266 320 376
#     4  12  25  44  65  89 122 169 218 262 320 381
#
# _framework density 25.976565999999998
#
# number of rings (size 3 to 8) (size 9 to 14) (size 15 to 20)
#    0.000    1.000    7.500    2.250    1.750    1.000 
#    0.000    0.000    0.000    0.000    0.000    1.750 
#    0.000    0.000    0.000    0.000    0.000    0.000 
#
# Total GULP energy -89411.415380 kJ/mol
# GULP energy per Si atom -5588.213461 kJ/mol
# Density = 2.591744 g / cm^3
# Si number density = 25.976566 Si / 1000 Ang^3
#
#
#
# Elastic Constant Matrix: (Units=GPa)
#
#
# Indices 1 2 3 4 5 6 
#
# 1 53.7852 20.3287 -1.0215 -12.8373 3.8831 -4.9092
# 2 20.3287 151.9459 32.2463 -18.7438 0.0735 -2.8660
# 3 -1.0215 32.2463 105.9170 -13.7414 -8.4803 -6.0943
# 4 -12.8373 -18.7438 -13.7414 61.2056 -1.0723 -11.7064
# 5 3.8831 0.0735 -8.4803 -1.0723 28.8734 -4.8262
# 6 -4.9092 -2.8660 -6.0943 -11.7064 -4.8262 50.0177
#
#
#
# Elastic Compliance Matrix: (Units=1/GPa)
#
#
# Indices 1 2 3 4 5 6 
#
# 1 0.021066 -0.002540 0.001606 0.004549 -0.001681 0.003020
# 2 -0.002540 0.007547 -0.002155 0.001331 -0.000226 0.000210
# 3 0.001606 -0.002155 0.010862 0.002617 0.003462 0.002304
# 4 0.004549 0.001331 0.002617 0.019381 0.001801 0.005551
# 5 -0.001681 -0.000226 0.003462 0.001801 0.036647 0.004201
# 6 0.003020 0.000210 0.002304 0.005551 0.004201 0.022287
#
#
# Mechanical properties :
#
#
# Convention : Reuss Voigt Hill
#
# Bulk Modulus (GPa) = 30.03415 46.08391 38.05903
# Shear Modulus (GPa) = 37.01853 45.35898 41.18875
#
# Velocity S-wave (km/s) = 3.77911 4.18323 3.98629
# Velocity P-wave (km/s) = 5.53438 6.41183 5.98920
#
# Compressibility (1/GPa) = 0.03329543
#
# Stress axis : x y z
#
# Youngs Moduli (GPa) = 47.47006 132.50628 92.06107
#
# Poissons Ratio (x) = 0.33660 -0.14784
# Poissons Ratio (y) = 0.12059 0.19844
# Poissons Ratio (z) = -0.07623 0.28562
#
# Static dielectric constant tensor:
#      x y z
#    x 2.158930 -0.217560 0.116650 
#    y -0.217560 1.952100 0.197440 
#    z 0.116650 0.197440 1.818900 
# 
# From -- ./inp_files/547166.got.cif
#   From: 2010.05.17/outbox.cif.g08.bks.cpg/sg2_274_cif.got.tgz:547166.got - 2010.06.03 11:33:40.
