data_PCOD9079671
_publ_section_title
;
Structure prediction by ZEFSAII (Michael W. Deem and Ramdas Pophale) SiO2 
 PCOD9079671
Probable space group: P -1
;
_chemical_formula_sum "Si O2"
_cell_formula_units_Z 14
_cell_length_a 8.121587
_cell_length_b 7.754515
_cell_length_c 10.268426
_cell_angle_alpha 107.808358
_cell_angle_beta 109.486161
_cell_angle_gamma 77.546176
_cell_volume 575.771312
_symmetry_space_group_name_H-M "P -1"
_symmetry_group_IT_number 2
_symmetry_cell_setting 'triclinic'
loop_
_space_group_symop_operation_xyz
x,y,z
-x,-y,-z
loop_
_atom_site_type_symbol
_atom_site_label
_atom_site_fract_x
_atom_site_fract_y
_atom_site_fract_z
Si Si1 0.514818 0.362882 0.845972
Si Si2 0.208484 0.189105 0.763051
Si Si3 0.433598 0.608057 0.639534
Si Si4 0.071509 0.647669 0.458837
Si Si5 0.800322 0.674321 0.770916
Si Si6 0.145949 0.594691 0.958651
Si Si7 0.945810 0.083763 0.146857
O O1 0.419536 0.181932 0.796787
O O2 0.427227 0.460457 0.717747
O O3 0.500000 0.500000 0.000000
O O4 0.727247 0.345674 0.882117
O O5 0.180322 0.392923 0.864644
O O6 0.084279 0.209800 0.607025
O O7 0.138038 0.048294 0.810353
O O8 0.500000 0.500000 0.500000
O O9 0.242091 0.716843 0.586047
O O10 0.594580 0.716058 0.749766
O O11 0.154862 0.517271 0.334497
O O12 0.000000 0.500000 0.500000
O O13 0.878420 0.831027 0.743493
O O14 0.933251 0.643613 0.922510
O O15 0.183222 0.734227 0.882796
O O16 0.000000 0.000000 0.000000
#
# Coordination Sequence:
#
# PCOD9079671 Si02
#       7
#     2   2   2   2   2   2   2
#     4  10  20  33  61  93 112 158 206 244 307 361
#     4  10  20  37  60  86 118 155 206 246 301 360
#     4  10  20  34  59  87 119 158 201 247 300 363
#     4  10  18  37  63  85 114 162 205 247 302 356
#     4   8  20  37  53  86 123 149 197 249 297 356
#     4   8  20  36  57  86 119 153 197 249 304 351
#     4  10  22  36  57  88 123 158 196 248 307 364
#
# _framework density 24.31521
#
# number of rings (size 3 to 8) (size 9 to 14) (size 15 to 20)
#    0.857    1.714    1.429    0.000    4.000    5.143 
#    0.000    1.429    0.000    0.000    0.000    0.000 
#    0.000    0.000    0.000    0.000    0.000    0.000 
#
# Total GULP energy -77973.464884 kJ/mol
# GULP energy per Si atom -5569.533206 kJ/mol
# Density = 2.425987 g / cm^3
# Si number density = 24.315210 Si / 1000 Ang^3
#
#
#
# Elastic Constant Matrix: (Units=GPa)
#
#
# Indices 1 2 3 4 5 6 
#
# 1 98.2613 32.2156 41.7109 9.1661 36.5785 40.2871
# 2 32.2156 94.1477 10.5863 -10.7231 0.0724 18.8863
# 3 41.7109 10.5863 107.0773 -9.6412 7.6979 7.8896
# 4 9.1661 -10.7231 -9.6412 30.5908 16.3256 -1.1121
# 5 36.5785 0.0724 7.6979 16.3256 53.0796 16.4992
# 6 40.2871 18.8863 7.8896 -1.1121 16.4992 42.8237
#
#
#
# Elastic Compliance Matrix: (Units=1/GPa)
#
#
# Indices 1 2 3 4 5 6 
#
# 1 0.027856 -0.005789 -0.009037 -0.008911 -0.009350 -0.018617
# 2 -0.005789 0.013378 0.001347 0.005405 0.002599 -0.001564
# 3 -0.009037 0.001347 0.012941 0.007253 0.000389 0.005562
# 4 -0.008911 0.005405 0.007253 0.046657 -0.012604 0.010731
# 5 -0.009350 0.002599 0.000389 -0.012604 0.030498 -0.004500
# 6 -0.018617 -0.001564 0.005562 0.010731 -0.004500 0.042543
#
#
# Mechanical properties :
#
#
# Convention : Reuss Voigt Hill
#
# Bulk Modulus (GPa) = 36.73998 52.05689 44.39843
# Shear Modulus (GPa) = 23.82058 39.63040 31.72549
#
# Velocity S-wave (km/s) = 3.13334 4.04153 3.61606
# Velocity P-wave (km/s) = 5.31349 6.57528 5.97777
#
# Compressibility (1/GPa) = 0.02721831
#
# Stress axis : x y z
#
# Youngs Moduli (GPa) = 35.89948 74.74896 77.27131
#
# Poissons Ratio (x) = 0.43269 0.69830
# Poissons Ratio (y) = 0.20781 -0.10410
# Poissons Ratio (z) = 0.32442 -0.10070
#
# Static dielectric constant tensor:
#      x y z
#    x 2.195030 0.058470 0.053360 
#    y 0.058470 2.017570 -0.015540 
#    z 0.053360 -0.015540 2.042980 
# 
# From -- ./inp_files/260538.got.cif
#   From: 2010.05.17/outbox.cif.g08.bks.cpg/sg2_131_cif.got.tgz:260538.got - 2010.06.03 11:33:40.
