data_PCOD9079939
_publ_section_title
;
Structure prediction by ZEFSAII (Michael W. Deem and Ramdas Pophale) SiO2 
 PCOD9079939
Probable space group: P -1
;
_chemical_formula_sum "Si O2"
_cell_formula_units_Z 14
_cell_length_a 12.529876
_cell_length_b 8.528741
_cell_length_c 11.441663
_cell_angle_alpha 38.208001
_cell_angle_beta 108.024412
_cell_angle_gamma 130.234810
_cell_volume 524.053185
_symmetry_space_group_name_H-M "P -1"
_symmetry_group_IT_number 2
_symmetry_cell_setting 'triclinic'
loop_
_space_group_symop_operation_xyz
x,y,z
-x,-y,-z
loop_
_atom_site_type_symbol
_atom_site_label
_atom_site_fract_x
_atom_site_fract_y
_atom_site_fract_z
Si Si1 0.280378 0.899773 0.489216
Si Si2 0.475597 0.354122 0.917281
Si Si3 0.661347 0.536122 0.669165
Si Si4 0.153215 0.852379 0.241702
Si Si5 0.261864 0.535797 0.915724
Si Si6 0.899030 0.454187 0.818698
Si Si7 0.806733 0.033549 0.242945
O O1 0.280696 0.669228 0.712806
O O2 0.449445 0.249160 0.294897
O O3 0.253199 0.112537 0.432701
O O4 0.177284 0.725177 0.440647
O O5 0.315014 0.107070 0.073815
O O6 0.591178 0.359343 0.030478
O O7 0.500311 0.290624 0.828905
O O8 0.760778 0.438279 0.767004
O O9 0.672232 0.647647 0.473770
O O10 0.045596 0.563930 0.277040
O O11 0.135285 0.116420 0.117307
O O12 0.221876 0.723268 0.865938
O O13 0.035056 0.796369 0.737434
O O14 0.843135 0.122981 0.067873
#
# Coordination Sequence:
#
# PCOD9079939 Si02
#       7
#     2   2   2   2   2   2   2
#     4   8  18  35  57  78 107 144 180 211 263 319
#     4   9  19  34  58  81 108 143 176 216 268 321
#     4   9  19  38  57  78 102 147 184 213 260 325
#     4  11  22  33  53  90 111 137 171 224 282 307
#     4  10  18  38  58  80 109 141 183 218 259 327
#     4  11  22  37  57  78 113 138 179 231 262 317
#     4  10  21  40  59  76  99 153 189 211 266 316
#
# _framework density 26.714843999999999
#
# number of rings (size 3 to 8) (size 9 to 14) (size 15 to 20)
#    0.857    1.429    1.429    2.143    0.000    4.571 
#    0.000    3.571    0.000    0.000    0.000    0.000 
#    0.000    0.000    0.000    0.000    0.000    0.000 
#
# Total GULP energy -78257.459325 kJ/mol
# GULP energy per Si atom -5589.818523 kJ/mol
# Density = 2.665404 g / cm^3
# Si number density = 26.714844 Si / 1000 Ang^3
#
#
#
# Elastic Constant Matrix: (Units=GPa)
#
#
# Indices 1 2 3 4 5 6 
#
# 1 71.0002 -1.0393 20.2724 -0.2330 3.1613 -4.4726
# 2 -1.0393 69.1090 28.8462 22.4529 2.4194 -3.7199
# 3 20.2724 28.8462 158.1035 41.2365 -9.0951 7.6518
# 4 -0.2330 22.4529 41.2365 52.5273 -7.3684 -9.2707
# 5 3.1613 2.4194 -9.0951 -7.3684 40.6267 0.2264
# 6 -4.4726 -3.7199 7.6518 -9.2707 0.2264 26.5438
#
#
#
# Elastic Compliance Matrix: (Units=1/GPa)
#
#
# Indices 1 2 3 4 5 6 
#
# 1 0.015371 0.000962 -0.003174 0.002754 -0.001490 0.004614
# 2 0.000962 0.017422 -0.001903 -0.006139 -0.002658 0.001031
# 3 -0.003174 -0.001903 0.009399 -0.007503 0.001138 -0.006141
# 4 0.002754 -0.006139 -0.007503 0.030284 0.003896 0.012310
# 5 -0.001490 -0.002658 0.001138 0.003896 0.025849 0.000189
# 6 0.004614 0.001031 -0.006141 0.012310 0.000189 0.044664
#
#
# Mechanical properties :
#
#
# Convention : Reuss Voigt Hill
#
# Bulk Modulus (GPa) = 29.44581 43.81905 36.63243
# Shear Modulus (GPa) = 30.76183 40.61512 35.68848
#
# Velocity S-wave (km/s) = 3.39704 3.90336 3.65897
# Velocity P-wave (km/s) = 5.14127 6.06243 5.62075
#
# Compressibility (1/GPa) = 0.03396069
#
# Stress axis : x y z
#
# Youngs Moduli (GPa) = 65.05863 57.39862 106.39577
#
# Poissons Ratio (x) = -0.05520 0.33766
# Poissons Ratio (y) = -0.06256 0.20252
# Poissons Ratio (z) = 0.20647 0.10926
#
# Static dielectric constant tensor:
#      x y z
#    x 2.111650 0.031730 -0.113850 
#    y 0.031730 2.175560 -0.026160 
#    z -0.113850 -0.026160 2.143210 
# 
# From -- ./inp_files/445486.got.cif
#   From: 2010.05.17/outbox.cif.g08.bks.cpg/sg2_223_cif.got.tgz:445486.got - 2010.06.03 11:33:40.
