data_PCOD9079681
_publ_section_title
;
Structure prediction by ZEFSAII (Michael W. Deem and Ramdas Pophale) SiO2 
 PCOD9079681
Probable space group: P -1
;
_chemical_formula_sum "Si O2"
_cell_formula_units_Z 12
_cell_length_a 9.021645
_cell_length_b 9.018536
_cell_length_c 14.105452
_cell_angle_alpha 143.169447
_cell_angle_beta 138.655422
_cell_angle_gamma 54.771371
_cell_volume 453.615347
_symmetry_space_group_name_H-M "P -1"
_symmetry_group_IT_number 2
_symmetry_cell_setting 'triclinic'
loop_
_space_group_symop_operation_xyz
x,y,z
-x,-y,-z
loop_
_atom_site_type_symbol
_atom_site_label
_atom_site_fract_x
_atom_site_fract_y
_atom_site_fract_z
Si Si1 0.489653 0.618536 0.757614
Si Si2 0.326937 0.085788 0.333105
Si Si3 0.677485 0.735701 0.228391
Si Si4 0.140342 0.818730 0.576863
Si Si5 0.807669 0.408639 0.931464
Si Si6 0.158155 0.364661 0.228618
O O1 0.417387 0.337277 0.551645
O O2 0.274796 0.777503 0.717793
O O3 0.602554 0.574908 0.890733
O O4 0.678041 0.705529 0.814134
O O5 0.157576 0.170447 0.214105
O O6 0.513187 0.932383 0.293576
O O7 0.230948 0.883617 0.257554
O O8 0.878527 0.722237 0.396476
O O9 0.808379 0.904150 0.294994
O O10 0.500000 0.500000 0.000000
O O11 0.242752 0.624564 0.451346
O O12 0.000000 0.500000 0.000000
O O13 0.918432 0.411181 0.090247
#
# Coordination Sequence:
#
# PCOD9079681 Si02
#       6
#     2   2   2   2   2   2
#     4  10  19  38  59  88 117 150 187 247 299 339
#     4  11  19  37  60  85 115 152 200 238 286 351
#     4  11  22  35  60  91 116 153 201 239 287 347
#     4  10  20  39  61  86 121 151 194 247 288 342
#     4  10  22  33  56  91 122 147 188 245 301 343
#     4  10  18  37  63  88 111 150 196 244 288 340
#
# _framework density 26.454129999999999
#
# number of rings (size 3 to 8) (size 9 to 14) (size 15 to 20)
#    0.000    1.667    3.333    3.000    0.000    1.333 
#    0.000    0.833    0.000   11.000    0.000    0.000 
#    0.000    0.000    0.000    0.000    0.000    0.000 
#
# Total GULP energy -67050.238351 kJ/mol
# GULP energy per Si atom -5587.519863 kJ/mol
# Density = 2.639392 g / cm^3
# Si number density = 26.454130 Si / 1000 Ang^3
#
#
#
# Elastic Constant Matrix: (Units=GPa)
#
#
# Indices 1 2 3 4 5 6 
#
# 1 36.4920 16.5874 28.9017 -3.5126 16.1069 8.9742
# 2 16.5874 204.7294 67.2147 -41.8235 18.4553 8.9109
# 3 28.9017 67.2147 137.1281 -26.5705 20.8937 -0.2493
# 4 -3.5126 -41.8235 -26.5705 76.6821 5.5717 0.0054
# 5 16.1069 18.4553 20.8937 5.5717 42.3747 1.6651
# 6 8.9742 8.9109 -0.2493 0.0054 1.6651 33.4901
#
#
#
# Elastic Compliance Matrix: (Units=1/GPa)
#
#
# Indices 1 2 3 4 5 6 
#
# 1 0.040509 0.000667 -0.006930 0.000687 -0.011949 -0.010490
# 2 0.000667 0.006497 -0.002435 0.002890 -0.002191 -0.001817
# 3 -0.006930 -0.002435 0.010676 0.002196 -0.001964 0.002682
# 4 0.000687 0.002890 0.002196 0.015747 -0.004645 -0.000708
# 5 -0.011949 -0.002191 -0.001964 -0.004645 0.030586 0.002250
# 6 -0.010490 -0.001817 0.002682 -0.000708 0.002250 0.033062
#
#
# Mechanical properties :
#
#
# Convention : Reuss Voigt Hill
#
# Bulk Modulus (GPa) = 24.82203 67.08410 45.95306
# Shear Modulus (GPa) = 29.77955 48.21909 38.99932
#
# Velocity S-wave (km/s) = 3.35879 4.27399 3.84373
# Velocity P-wave (km/s) = 4.94423 7.05476 6.09160
#
# Compressibility (1/GPa) = 0.04028679
#
# Stress axis : x y z
#
# Youngs Moduli (GPa) = 24.68603 153.92506 93.66733
#
# Poissons Ratio (x) = -0.10272 0.64912
# Poissons Ratio (y) = -0.01647 0.22804
# Poissons Ratio (z) = 0.17108 0.37474
#
# Static dielectric constant tensor:
#      x y z
#    x 2.138000 -0.017960 -0.021990 
#    y -0.017960 2.083970 -0.026580 
#    z -0.021990 -0.026580 2.188560 
# 
# From -- ./inp_files/150724.got.cif
#   From: 2010.05.17/outbox.cif.g08.bks.cpg/sg2_76_cif.got.tgz:150724.got - 2010.06.03 11:33:40.
