data_PCOD9079150
_publ_section_title
;
Structure prediction by ZEFSAII (Michael W. Deem and Ramdas Pophale) SiO2 
 PCOD9079150
Probable space group: P -1
;
_chemical_formula_sum "Si O2"
_cell_formula_units_Z 16
_cell_length_a 5.192038
_cell_length_b 7.970227
_cell_length_c 22.197308
_cell_angle_alpha 64.619037
_cell_angle_beta 112.496650
_cell_angle_gamma 75.837474
_cell_volume 668.562849
_symmetry_space_group_name_H-M "P -1"
_symmetry_group_IT_number 2
_symmetry_cell_setting 'triclinic'
loop_
_space_group_symop_operation_xyz
x,y,z
-x,-y,-z
loop_
_atom_site_type_symbol
_atom_site_label
_atom_site_fract_x
_atom_site_fract_y
_atom_site_fract_z
Si Si1 0.636032 0.686234 0.806664
Si Si2 0.462078 0.695828 0.158501
Si Si3 0.766169 0.565712 0.027787
Si Si4 0.832854 0.632792 0.321112
Si Si5 0.557421 0.016258 0.663627
Si Si6 0.233166 0.034446 0.910503
Si Si7 0.715509 0.619488 0.503936
Si Si8 0.895322 0.985756 0.225181
O O1 0.507963 0.521309 0.830029
O O2 0.473841 0.874345 0.812088
O O3 0.006048 0.558400 0.876889
O O4 0.541328 0.807263 0.715017
O O5 0.591077 0.637929 0.248220
O O6 0.657174 0.800251 0.130146
O O7 0.081660 0.858862 0.093415
O O8 0.500000 0.500000 0.000000
O O9 0.000000 0.500000 0.000000
O O10 0.556192 0.817039 0.987080
O O11 0.642759 0.799073 0.332724
O O12 0.102497 0.421076 0.409742
O O13 0.015676 0.740284 0.287166
O O14 0.466208 0.136922 0.573318
O O15 0.919047 0.948171 0.722118
O O16 0.084702 0.976134 0.847963
O O17 0.500000 0.500000 0.500000
O O18 0.000000 0.500000 0.500000
#
# Coordination Sequence:
#
# PCOD9079150 Si02
#       8
#     2   2   2   2   2   2   2   2
#     4  11  26  39  61  94 125 166 203 260 309 372
#     4  11  25  41  62  91 130 165 202 248 316 370
#     4  12  25  42  68  95 121 158 212 261 308 358
#     4   9  19  35  59  89 121 159 202 253 302 364
#     4  10  19  36  62  89 121 161 212 254 302 358
#     4  11  23  42  64  89 121 167 206 252 305 370
#     4  10  19  33  58  95 119 153 207 261 297 349
#     4  10  18  36  63  86 117 161 212 251 299 361
#
# _framework density 23.931929
#
# number of rings (size 3 to 8) (size 9 to 14) (size 15 to 20)
#    0.000    1.500    3.750    1.500    3.500    1.000 
#    0.000    0.625    0.000    0.750    0.000    0.000 
#    0.000    0.000    0.000    0.000    0.000    0.000 
#
# Total GULP energy -89285.280353 kJ/mol
# GULP energy per Si atom -5580.330022 kJ/mol
# Density = 2.387746 g / cm^3
# Si number density = 23.931929 Si / 1000 Ang^3
#
#
#
# Elastic Constant Matrix: (Units=GPa)
#
#
# Indices 1 2 3 4 5 6 
#
# 1 105.9211 21.2309 27.1176 -5.7564 9.3287 21.1949
# 2 21.2309 60.4437 36.6269 -12.3542 -4.2110 20.6849
# 3 27.1176 36.6269 177.7933 -14.0446 0.0368 -2.9271
# 4 -5.7564 -12.3542 -14.0446 33.4918 4.8654 0.4785
# 5 9.3287 -4.2110 0.0368 4.8654 30.1358 1.3455
# 6 21.1949 20.6849 -2.9271 0.4785 1.3455 34.6339
#
#
#
# Elastic Compliance Matrix: (Units=1/GPa)
#
#
# Indices 1 2 3 4 5 6 
#
# 1 0.011783 -0.000748 -0.001619 0.001708 -0.003723 -0.006780
# 2 -0.000748 0.027446 -0.005220 0.007521 0.003601 -0.016619
# 3 -0.001619 -0.005220 0.007087 0.000784 -0.000574 0.004719
# 4 0.001708 0.007521 0.000784 0.034022 -0.004714 -0.005758
# 5 -0.003723 0.003601 -0.000574 -0.004714 0.035656 -0.001241
# 6 -0.006780 -0.016619 0.004719 -0.005758 -0.001241 0.043475
#
#
# Mechanical properties :
#
#
# Convention : Reuss Voigt Hill
#
# Bulk Modulus (GPa) = 32.11188 57.12324 44.61756
# Shear Modulus (GPa) = 27.02383 36.93114 31.97749
#
# Velocity S-wave (km/s) = 3.36400 3.93259 3.65935
# Velocity P-wave (km/s) = 5.34189 6.67392 6.04471
#
# Compressibility (1/GPa) = 0.03114112
#
# Stress axis : x y z
#
# Youngs Moduli (GPa) = 84.86984 36.43563 141.11144
#
# Poissons Ratio (x) = 0.02724 0.22847
# Poissons Ratio (y) = 0.06345 0.73664
# Poissons Ratio (z) = 0.13741 0.19020
#
# Static dielectric constant tensor:
#      x y z
#    x 1.943680 0.038020 -0.014730 
#    y 0.038020 1.935080 0.015000 
#    z -0.014730 0.015000 1.991340 
# 
# From -- ./inp_files/49182.got.cif
#   From: 2010.05.17/outbox.cif.g08.bks.cpg/sg2_25_cif.got.tgz:49182.got - 2010.06.03 11:33:40.
