data_PCOD9079063
_publ_section_title
;
Structure prediction by ZEFSAII (Michael W. Deem and Ramdas Pophale) SiO2 
 PCOD9079063
Probable space group: P -1
;
_chemical_formula_sum "Si O2"
_cell_formula_units_Z 16
_cell_length_a 16.657954
_cell_length_b 7.761736
_cell_length_c 7.637956
_cell_angle_alpha 114.409621
_cell_angle_beta 96.699191
_cell_angle_gamma 47.709531
_cell_volume 645.849801
_symmetry_space_group_name_H-M "P -1"
_symmetry_group_IT_number 2
_symmetry_cell_setting 'triclinic'
loop_
_space_group_symop_operation_xyz
x,y,z
-x,-y,-z
loop_
_atom_site_type_symbol
_atom_site_label
_atom_site_fract_x
_atom_site_fract_y
_atom_site_fract_z
Si Si1 0.880087 0.868909 0.632654
Si Si2 0.753609 0.396517 0.991919
Si Si3 0.630228 0.249582 0.428675
Si Si4 0.155942 0.126982 0.797212
Si Si5 0.665681 0.619684 0.697941
Si Si6 0.052828 0.702332 0.089185
Si Si7 0.570155 0.922736 0.315177
Si Si8 0.111463 0.575604 0.447682
O O1 0.856721 0.874183 0.419743
O O2 0.884030 0.659748 0.639006
O O3 0.001233 0.779892 0.628809
O O4 0.784883 0.140535 0.821563
O O5 0.708566 0.588290 0.891272
O O6 0.873978 0.290753 0.017148
O O7 0.655464 0.610261 0.185883
O O8 0.500000 0.500000 0.500000
O O9 0.667920 0.389479 0.579060
O O10 0.714019 0.103196 0.223677
O O11 0.633966 0.021714 0.392334
O O12 0.080137 0.099592 0.867774
O O13 0.105115 0.410465 0.948623
O O14 0.761127 0.551678 0.562736
O O15 0.536040 0.891017 0.765954
O O16 0.074697 0.709339 0.303288
O O17 0.500000 0.000000 0.500000
#
# Coordination Sequence:
#
# PCOD9079063 Si02
#       8
#     2   2   2   2   2   2   2   2
#     4  10  21  37  63  88 126 155 194 243 301 355
#     4  11  21  39  61  91 117 156 203 244 293 361
#     4  10  21  39  59  86 117 158 197 244 290 353
#     4  10  18  36  62  85 117 156 196 236 296 344
#     4  10  22  39  65  86 115 161 202 241 295 352
#     4   9  20  34  62  88 116 154 196 244 292 355
#     4  11  25  43  60  86 123 157 199 253 301 347
#     4   9  21  39  59  91 125 156 191 246 301 352
#
# _framework density 24.773561999999998
#
# number of rings (size 3 to 8) (size 9 to 14) (size 15 to 20)
#    0.000    2.000    2.500    0.375    3.500    1.500 
#    4.500    1.250    0.000    3.750    0.000    0.000 
#    0.000    0.000    0.000    0.000    0.000    0.000 
#
# Total GULP energy -89117.205002 kJ/mol
# GULP energy per Si atom -5569.825313 kJ/mol
# Density = 2.471718 g / cm^3
# Si number density = 24.773562 Si / 1000 Ang^3
#
#
#
# Elastic Constant Matrix: (Units=GPa)
#
#
# Indices 1 2 3 4 5 6 
#
# 1 155.3014 30.5703 37.7021 17.6549 -26.1104 -10.6797
# 2 30.5703 78.3291 39.6461 22.1296 -8.8334 7.4320
# 3 37.7021 39.6461 117.2005 41.1154 -24.1794 -9.8488
# 4 17.6549 22.1296 41.1154 48.9830 -13.8941 -3.7500
# 5 -26.1104 -8.8334 -24.1794 -13.8941 38.4793 13.6199
# 6 -10.6797 7.4320 -9.8488 -3.7500 13.6199 24.1060
#
#
#
# Elastic Compliance Matrix: (Units=1/GPa)
#
#
# Indices 1 2 3 4 5 6 
#
# 1 0.007846 -0.002445 -0.000848 0.000161 0.003630 0.001857
# 2 -0.002445 0.018280 -0.004517 -0.003817 0.001952 -0.010262
# 3 -0.000848 -0.004517 0.014232 -0.008481 0.002896 0.003876
# 4 0.000161 -0.003817 -0.008481 0.030615 0.005071 -0.000320
# 5 0.003630 0.001952 0.002896 0.005071 0.039369 -0.019265
# 6 0.001857 -0.010262 0.003876 -0.000320 -0.019265 0.057889
#
#
# Mechanical properties :
#
#
# Convention : Reuss Voigt Hill
#
# Bulk Modulus (GPa) = 40.42656 62.96309 51.69483
# Shear Modulus (GPa) = 26.02850 38.50784 32.26817
#
# Velocity S-wave (km/s) = 3.24490 3.94686 3.61297
# Velocity P-wave (km/s) = 5.51299 6.80006 6.19007
#
# Compressibility (1/GPa) = 0.02473621
#
# Stress axis : x y z
#
# Youngs Moduli (GPa) = 127.45142 54.70578 70.26487
#
# Poissons Ratio (x) = 0.13376 0.05960
# Poissons Ratio (y) = 0.31162 0.31742
# Poissons Ratio (z) = 0.10810 0.24713
#
# Static dielectric constant tensor:
#      x y z
#    x 2.279800 -0.048800 0.159490 
#    y -0.048800 2.278820 -0.005490 
#    z 0.159490 -0.005490 2.088900 
# 
# From -- ./inp_files/202083.got.cif
#   From: 2010.05.17/outbox.cif.g08.bks.cpg/sg2_102_cif.got.tgz:202083.got - 2010.06.03 11:33:40.
