data_PCOD9079505
_publ_section_title
;
Structure prediction by ZEFSAII (Michael W. Deem and Ramdas Pophale) SiO2 
 PCOD9079505
Probable space group: P -1
;
_chemical_formula_sum "Si O2"
_cell_formula_units_Z 16
_cell_length_a 22.001003
_cell_length_b 7.898761
_cell_length_c 7.782459
_cell_angle_alpha 57.434573
_cell_angle_beta 145.586151
_cell_angle_gamma 107.001639
_cell_volume 610.655863
_symmetry_space_group_name_H-M "P -1"
_symmetry_group_IT_number 2
_symmetry_cell_setting 'triclinic'
loop_
_space_group_symop_operation_xyz
x,y,z
-x,-y,-z
loop_
_atom_site_type_symbol
_atom_site_label
_atom_site_fract_x
_atom_site_fract_y
_atom_site_fract_z
Si Si1 0.196466 0.151447 0.072350
Si Si2 0.331398 0.944070 0.200347
Si Si3 0.628493 0.264697 0.119568
Si Si4 0.668915 0.484077 0.421195
Si Si5 0.904333 0.387816 0.835545
Si Si6 0.016768 0.923077 0.279043
Si Si7 0.551922 0.961852 0.906969
Si Si8 0.776456 0.421812 0.150541
O O1 0.220134 0.085265 0.964030
O O2 0.265622 0.938298 0.455160
O O3 0.067148 0.207036 0.796623
O O4 0.237094 0.353246 0.087188
O O5 0.337928 0.701798 0.368753
O O6 0.432135 0.986182 0.526034
O O7 0.357526 0.006659 0.038952
O O8 0.608262 0.431597 0.135448
O O9 0.664886 0.380289 0.981947
O O10 0.543316 0.144205 0.925132
O O11 0.797411 0.462584 0.674435
O O12 0.604716 0.716512 0.207922
O O13 0.847264 0.417631 0.496260
O O14 0.000000 0.500000 0.000000
O O15 0.970420 0.139848 0.157315
O O16 0.144651 0.772978 0.669536
O O17 0.000000 0.000000 0.000000
#
# Coordination Sequence:
#
# PCOD9079505 Si02
#       8
#     2   2   2   2   2   2   2   2
#     4  11  20  40  65  86 126 170 204 263 316 368
#     4  10  22  43  62  95 130 157 216 264 315 379
#     4  10  22  41  64  93 126 165 213 260 312 376
#     4  10  21  42  64  90 132 167 209 262 316 374
#     4  10  20  36  62  89 127 167 201 260 318 364
#     4  10  18  37  60  86 122 159 206 250 308 372
#     4  11  24  40  68  94 125 171 206 268 321 373
#     4  10  21  37  60  91 122 162 205 258 309 372
#
# _framework density 26.201336999999999
#
# number of rings (size 3 to 8) (size 9 to 14) (size 15 to 20)
#    0.000    1.750    5.000    2.250    1.750    3.000 
#    0.000    7.500    0.000    0.000    0.000    0.000 
#    0.000    0.000    0.000    0.000    0.000    0.000 
#
# Total GULP energy -89673.190495 kJ/mol
# GULP energy per Si atom -5604.574406 kJ/mol
# Density = 2.614170 g / cm^3
# Si number density = 26.201337 Si / 1000 Ang^3
#
#
#
# Elastic Constant Matrix: (Units=GPa)
#
#
# Indices 1 2 3 4 5 6 
#
# 1 154.2251 58.6021 35.4239 -3.4359 21.6053 9.5405
# 2 58.6021 188.6145 40.0146 -6.1212 3.4215 19.8874
# 3 35.4239 40.0146 47.5829 9.9178 -1.2753 -14.2726
# 4 -3.4359 -6.1212 9.9178 43.7557 -8.3664 8.1782
# 5 21.6053 3.4215 -1.2753 -8.3664 24.4297 5.1852
# 6 9.5405 19.8874 -14.2726 8.1782 5.1852 47.6168
#
#
#
# Elastic Compliance Matrix: (Units=1/GPa)
#
#
# Indices 1 2 3 4 5 6 
#
# 1 0.010125 -0.000694 -0.008700 0.001880 -0.007858 -0.003814
# 2 -0.000694 0.008571 -0.010007 0.005275 0.002310 -0.007598
# 3 -0.008700 -0.010007 0.046123 -0.016532 0.001073 0.022470
# 4 0.001880 0.005275 -0.016532 0.032212 0.010790 -0.014242
# 5 -0.007858 0.002310 0.001073 0.010790 0.052725 -0.006664
# 6 -0.003814 -0.007598 0.022470 -0.014242 -0.006664 0.034845
#
#
# Mechanical properties :
#
#
# Convention : Reuss Voigt Hill
#
# Bulk Modulus (GPa) = 38.43861 73.16708 55.80284
# Shear Modulus (GPa) = 21.54467 40.25254 30.89861
#
# Velocity S-wave (km/s) = 2.87064 3.92379 3.43778
# Velocity P-wave (km/s) = 5.06851 6.96518 6.09112
#
# Compressibility (1/GPa) = 0.02601551
#
# Stress axis : x y z
#
# Youngs Moduli (GPa) = 98.76755 116.67357 21.68122
#
# Poissons Ratio (x) = 0.08101 0.18863
# Poissons Ratio (y) = 0.06858 0.21697
# Poissons Ratio (z) = 0.85928 1.16757
#
# Static dielectric constant tensor:
#      x y z
#    x 2.072610 -0.028650 -0.047330 
#    y -0.028650 2.042950 0.062040 
#    z -0.047330 0.062040 2.064120 
# 
# From -- ./inp_files/352068.got.cif
#   From: 2010.05.17/outbox.cif.g08.bks.cpg/sg2_177_cif.got.tgz:352068.got - 2010.06.03 11:33:40.
