data_PCOD9079795
_publ_section_title
;
Structure prediction by ZEFSAII (Michael W. Deem and Ramdas Pophale) SiO2 
 PCOD9079795
Probable space group: P -1
;
_chemical_formula_sum "Si O2"
_cell_formula_units_Z 14
_cell_length_a 8.238786
_cell_length_b 18.680563
_cell_length_c 14.755858
_cell_angle_alpha 151.948757
_cell_angle_beta 34.984097
_cell_angle_gamma 137.933545
_cell_volume 610.744880
_symmetry_space_group_name_H-M "P -1"
_symmetry_group_IT_number 2
_symmetry_cell_setting 'triclinic'
loop_
_space_group_symop_operation_xyz
x,y,z
-x,-y,-z
loop_
_atom_site_type_symbol
_atom_site_label
_atom_site_fract_x
_atom_site_fract_y
_atom_site_fract_z
Si Si1 0.172824 0.946659 0.566517
Si Si2 0.582320 0.338732 0.206911
Si Si3 0.252906 0.320660 0.509247
Si Si4 0.030528 0.541684 0.426729
Si Si5 0.071724 0.205520 0.026949
Si Si6 0.378794 0.892715 0.225877
Si Si7 0.417570 0.786736 0.594296
O O1 0.500000 0.000000 0.500000
O O2 0.153413 0.923583 0.441742
O O3 0.017203 0.083262 0.835600
O O4 0.029583 0.789716 0.498687
O O5 0.502073 0.280062 0.279339
O O6 0.769855 0.499218 0.293913
O O7 0.264443 0.387424 0.380967
O O8 0.687275 0.220704 0.954468
O O9 0.364258 0.291297 0.526611
O O10 0.083236 0.378444 0.178095
O O11 0.290389 0.667706 0.444597
O O12 0.000000 0.500000 0.500000
O O13 0.837538 0.179608 0.183169
O O14 0.366388 0.178422 0.913658
O O15 0.478516 0.056196 0.322944
#
# Coordination Sequence:
#
# PCOD9079795 Si02
#       7
#     2   2   2   2   2   2   2
#     4  10  25  41  60  88 133 170 200 245 314 380
#     4  11  22  40  68  95 120 160 207 266 309 357
#     4  11  24  42  62  97 127 155 211 263 311 353
#     4  10  18  37  65  94 120 153 209 258 310 354
#     4  10  19  39  63  91 125 160 209 258 299 365
#     4  11  22  38  64  91 126 170 203 240 315 378
#     4  11  21  37  68  98 118 159 210 269 299 354
#
# _framework density 22.922829
#
# number of rings (size 3 to 8) (size 9 to 14) (size 15 to 20)
#    0.000    1.429    5.714    1.286    4.000    3.429 
#    0.000    0.714    3.143    0.000    0.000    0.000 
#    0.000    0.000    0.000    0.000    0.000    0.000 
#
# Total GULP energy -78187.122505 kJ/mol
# GULP energy per Si atom -5584.794465 kJ/mol
# Density = 2.287066 g / cm^3
# Si number density = 22.922829 Si / 1000 Ang^3
#
#
#
# Elastic Constant Matrix: (Units=GPa)
#
#
# Indices 1 2 3 4 5 6 
#
# 1 77.3715 30.2136 22.6980 15.2470 -0.0900 0.7910
# 2 30.2136 136.6554 134.3788 29.7533 36.2218 28.1815
# 3 22.6980 134.3788 33.4062 32.8351 29.2846 -25.8109
# 4 15.2470 29.7533 32.8351 31.8575 3.6341 8.0785
# 5 -0.0900 36.2218 29.2846 3.6341 44.3102 -2.7829
# 6 0.7910 28.1815 -25.8109 8.0785 -2.7829 27.7746
#
#
#
# Elastic Compliance Matrix: (Units=1/GPa)
#
#
# Indices 1 2 3 4 5 6 
#
# 1 0.014894 -0.001429 -0.001867 -0.004413 0.002848 0.000860
# 2 -0.001429 0.003504 0.007093 -0.010575 -0.006341 0.005518
# 3 -0.001867 0.007093 -0.003570 0.001290 -0.004256 -0.011263
# 4 -0.004413 -0.010575 0.001290 0.041433 0.004413 0.000446
# 5 0.002848 -0.006341 -0.004256 0.004413 0.030470 0.004167
# 6 0.000860 0.005518 -0.011263 0.000446 0.004167 0.020202
#
#
# Mechanical properties :
#
#
# Convention : Reuss Voigt Hill
#
# Bulk Modulus (GPa) = 44.59562 69.11267 56.85414
# Shear Modulus (GPa) = 46.81131 24.79797 35.80464
#
# Velocity S-wave (km/s) = 4.52389 3.29264 3.95646
# Velocity P-wave (km/s) = 6.83991 6.68363 6.76222
#
# Compressibility (1/GPa) = 0.02242373
#
# Stress axis : x y z
#
# Youngs Moduli (GPa) = 67.13933 285.40229 -280.10444
#
# Poissons Ratio (x) = 0.40783 -0.52284
# Poissons Ratio (y) = 0.09594 1.98688
# Poissons Ratio (z) = 0.12532 -2.02446
#
# Static dielectric constant tensor:
#      x y z
#    x 1.985070 0.022080 0.022100 
#    y 0.022080 1.853550 0.014050 
#    z 0.022100 0.014050 1.891550 
# 
# From -- ./inp_files/507314.got.cif
#   From: 2010.05.17/outbox.cif.g08.bks.cpg/sg2_254_cif.got.tgz:507314.got - 2010.06.03 11:33:40.
