data_PCOD9079758
_publ_section_title
;
Structure prediction by ZEFSAII (Michael W. Deem and Ramdas Pophale) SiO2 
 PCOD9079758
Probable space group: P -1
;
_chemical_formula_sum "Si O2"
_cell_formula_units_Z 16
_cell_length_a 14.177163
_cell_length_b 30.480309
_cell_length_c 17.407496
_cell_angle_alpha 17.970058
_cell_angle_beta 160.731050
_cell_angle_gamma 163.515393
_cell_volume 613.370707
_symmetry_space_group_name_H-M "P -1"
_symmetry_group_IT_number 2
_symmetry_cell_setting 'triclinic'
loop_
_space_group_symop_operation_xyz
x,y,z
-x,-y,-z
loop_
_atom_site_type_symbol
_atom_site_label
_atom_site_fract_x
_atom_site_fract_y
_atom_site_fract_z
Si Si1 0.399833 0.473392 0.637891
Si Si2 0.111854 0.956367 0.062203
Si Si3 0.722951 0.004429 0.047680
Si Si4 0.741949 0.355322 0.624664
Si Si5 0.251686 0.883465 0.433791
Si Si6 0.634147 0.807764 0.535735
Si Si7 0.934049 0.483712 0.136584
Si Si8 0.316727 0.326220 0.050482
O O1 0.227148 0.507221 0.520996
O O2 0.199098 0.260733 0.822066
O O3 0.292025 0.543266 0.364353
O O4 0.800382 0.554977 0.845923
O O5 0.390437 0.961628 0.324430
O O6 0.198598 0.021461 0.933887
O O7 0.062045 0.096406 0.829259
O O8 0.399265 0.821609 0.139527
O O9 0.065471 0.120448 0.171885
O O10 0.630698 0.141295 0.740175
O O11 0.417522 0.276320 0.446860
O O12 0.069343 0.391025 0.766833
O O13 0.144367 0.689805 0.675269
O O14 0.500000 0.000000 0.500000
O O15 0.574575 0.681873 0.767324
O O16 0.000000 0.000000 0.500000
O O17 0.641391 0.426668 0.073396
#
# Coordination Sequence:
#
# PCOD9079758 Si02
#       8
#     2   2   2   2   2   2   2   2
#     4  11  24  42  58  93 127 168 198 255 310 375
#     4  10  21  37  64  90 119 153 206 257 309 363
#     4  11  20  39  57  91 117 159 210 256 294 361
#     4  11  25  36  59  85 129 165 204 245 312 361
#     4  10  18  37  64  92 111 152 202 264 307 356
#     4  11  19  35  58  82 120 168 209 251 291 350
#     4  11  24  40  64  90 125 157 211 257 308 365
#     4  11  21  38  58  87 118 164 209 259 289 357
#
# _framework density 26.085367999999999
#
# number of rings (size 3 to 8) (size 9 to 14) (size 15 to 20)
#    0.000    1.250    5.000    2.250    3.500    1.000 
#    0.000    0.000    0.000    7.500    0.000    0.000 
#    0.000    0.000    0.000    0.000    0.000    0.000 
#
# Total GULP energy -89189.686179 kJ/mol
# GULP energy per Si atom -5574.355386 kJ/mol
# Density = 2.602600 g / cm^3
# Si number density = 26.085368 Si / 1000 Ang^3
#
#
#
# Elastic Constant Matrix: (Units=GPa)
#
#
# Indices 1 2 3 4 5 6 
#
# 1 68.5033 30.4987 26.2433 -1.6926 -1.4496 -40.0114
# 2 30.4987 86.8359 38.2012 -6.3157 -10.6267 -28.3450
# 3 26.2433 38.2012 128.1062 3.2354 9.8395 -17.1166
# 4 -1.6926 -6.3157 3.2354 39.7594 -24.9804 -8.1256
# 5 -1.4496 -10.6267 9.8395 -24.9804 45.1416 -2.2688
# 6 -40.0114 -28.3450 -17.1166 -8.1256 -2.2688 48.7058
#
#
#
# Elastic Compliance Matrix: (Units=1/GPa)
#
#
# Indices 1 2 3 4 5 6 
#
# 1 0.035214 0.004501 -0.005798 0.019568 0.015967 0.033518
# 2 0.004501 0.023312 -0.007363 0.020752 0.019679 0.019055
# 3 -0.005798 -0.007363 0.011284 -0.010443 -0.010526 -0.007315
# 4 0.019568 0.020752 -0.010443 0.067407 0.046997 0.037917
# 5 0.015967 0.019679 -0.010526 0.046997 0.057176 0.031374
# 6 0.033518 0.019055 -0.007315 0.037917 0.031374 0.064372
#
#
# Mechanical properties :
#
#
# Convention : Reuss Voigt Hill
#
# Bulk Modulus (GPa) = 19.05146 52.59242 35.82194
# Shear Modulus (GPa) = 17.03097 39.28819 28.15958
#
# Velocity S-wave (km/s) = 2.55795 3.88511 3.28916
# Velocity P-wave (km/s) = 4.00543 6.35066 5.30916
#
# Compressibility (1/GPa) = 0.05248941
#
# Stress axis : x y z
#
# Youngs Moduli (GPa) = 28.39807 42.89630 88.61859
#
# Poissons Ratio (x) = -0.19308 0.51382
# Poissons Ratio (y) = -0.12782 0.65252
# Poissons Ratio (z) = 0.16466 0.31586
#
# Static dielectric constant tensor:
#      x y z
#    x 2.098090 0.004140 0.017370 
#    y 0.004140 2.158580 0.174530 
#    z 0.017370 0.174530 2.331180 
# 
# From -- ./inp_files/538441.got.cif
#   From: 2010.05.17/outbox.cif.g08.bks.cpg/sg2_270_cif.got.tgz:538441.got - 2010.06.03 11:33:40.
