data_PCOD9079989
_publ_section_title
;
Structure prediction by ZEFSAII (Michael W. Deem and Ramdas Pophale) SiO2 
 PCOD9079989
Probable space group: P -1
;
_chemical_formula_sum "Si O2"
_cell_formula_units_Z 14
_cell_length_a 11.481254
_cell_length_b 10.915202
_cell_length_c 9.663648
_cell_angle_alpha 106.859667
_cell_angle_beta 138.539146
_cell_angle_gamma 71.804127
_cell_volume 758.723238
_symmetry_space_group_name_H-M "P -1"
_symmetry_group_IT_number 2
_symmetry_cell_setting 'triclinic'
loop_
_space_group_symop_operation_xyz
x,y,z
-x,-y,-z
loop_
_atom_site_type_symbol
_atom_site_label
_atom_site_fract_x
_atom_site_fract_y
_atom_site_fract_z
Si Si1 0.580133 0.458870 0.908035
Si Si2 0.509374 0.755506 0.437959
Si Si3 0.310641 0.421482 0.213056
Si Si4 0.122048 0.877572 0.229693
Si Si5 0.930421 0.363640 0.770995
Si Si6 0.137692 0.154438 0.268899
Si Si7 0.996453 0.439596 0.327262
O O1 0.507582 0.333995 0.740912
O O2 0.563716 0.563406 0.801623
O O3 0.500000 0.500000 0.000000
O O4 0.792774 0.434607 0.105110
O O5 0.582626 0.657923 0.595821
O O6 0.317341 0.832523 0.326800
O O7 0.655042 0.850321 0.581529
O O8 0.212577 0.562753 0.223398
O O9 0.135475 0.358124 0.999642
O O10 0.103024 0.783630 0.311509
O O11 0.100507 0.030921 0.283206
O O12 0.979877 0.849331 0.976415
O O13 0.918541 0.462071 0.664727
O O14 0.089514 0.293348 0.344019
O O15 0.000000 0.500000 0.500000
#
# Coordination Sequence:
#
# PCOD9079989 Si02
#       7
#     2   2   2   2   2   2   2
#     4  11  23  34  54  94 124 150 197 250 300 353
#     4  12  20  36  60  90 118 160 198 243 298 354
#     4  10  19  34  61  84 122 151 204 248 291 344
#     4  11  22  36  60  89 122 152 198 245 303 349
#     4  10  18  38  60  87 114 156 201 247 292 350
#     4  11  22  39  57  89 122 156 194 249 295 355
#     4  11  22  40  63  85 120 162 198 246 300 353
#
# _framework density 18.45205
#
# number of rings (size 3 to 8) (size 9 to 14) (size 15 to 20)
#    0.000    1.143    5.714    2.571    0.000    0.000 
#    0.000    0.714    0.000    0.000    0.000    7.000 
#    0.000    0.000    0.000    0.000    0.000    0.000 
#
# Total GULP energy -78101.375251 kJ/mol
# GULP energy per Si atom -5578.669661 kJ/mol
# Density = 1.841005 g / cm^3
# Si number density = 18.452050 Si / 1000 Ang^3
#
#
#
# Elastic Constant Matrix: (Units=GPa)
#
#
# Indices 1 2 3 4 5 6 
#
# 1 84.5220 47.1347 22.7888 3.1297 -9.8562 16.2053
# 2 47.1347 155.1355 33.2013 5.2150 -8.0514 18.8189
# 3 22.7888 33.2013 71.2927 14.9670 -2.8819 3.0169
# 4 3.1297 5.2150 14.9670 16.5267 7.8507 4.1449
# 5 -9.8562 -8.0514 -2.8819 7.8507 31.5324 3.2754
# 6 16.2053 18.8189 3.0169 4.1449 3.2754 19.9931
#
#
#
# Elastic Compliance Matrix: (Units=1/GPa)
#
#
# Indices 1 2 3 4 5 6 
#
# 1 0.017247 -0.002744 -0.003865 0.001654 0.005172 -0.012004
# 2 -0.002744 0.008712 -0.003198 0.001556 0.001314 -0.006031
# 3 -0.003865 -0.003198 0.021093 -0.021148 0.004481 0.006610
# 4 0.001654 0.001556 -0.021148 0.093471 -0.022704 -0.015272
# 5 0.005172 0.001314 0.004481 -0.022704 0.040563 -0.008043
# 6 -0.012004 -0.006031 0.006610 -0.015272 -0.008043 0.068910
#
#
# Mechanical properties :
#
#
# Convention : Reuss Voigt Hill
#
# Bulk Modulus (GPa) = 36.44795 57.46663 46.95729
# Shear Modulus (GPa) = 17.93687 27.46548 22.70117
#
# Velocity S-wave (km/s) = 3.12120 3.86227 3.51134
# Velocity P-wave (km/s) = 5.72581 7.14848 6.47633
#
# Compressibility (1/GPa) = 0.02743638
#
# Stress axis : x y z
#
# Youngs Moduli (GPa) = 57.98148 114.78944 47.40979
#
# Poissons Ratio (x) = 0.31498 0.18325
# Poissons Ratio (y) = 0.15910 0.15163
# Poissons Ratio (z) = 0.22411 0.36712
#
# Static dielectric constant tensor:
#      x y z
#    x 1.659100 0.035790 0.010410 
#    y 0.035790 1.669600 -0.016100 
#    z 0.010410 -0.016100 1.679580 
# 
# From -- ./inp_files/171378.got.cif
#   From: 2010.05.17/outbox.cif.g08.bks.cpg/sg2_86_cif.got.tgz:171378.got - 2010.06.03 11:33:40.
