data_PCOD9079673
_publ_section_title
;
Structure prediction by ZEFSAII (Michael W. Deem and Ramdas Pophale) SiO2 
 PCOD9079673
Probable space group: P -1
;
_chemical_formula_sum "Si O2"
_cell_formula_units_Z 16
_cell_length_a 11.816561
_cell_length_b 11.465406
_cell_length_c 18.023836
_cell_angle_alpha 151.802285
_cell_angle_beta 41.168113
_cell_angle_gamma 127.607033
_cell_volume 748.343703
_symmetry_space_group_name_H-M "P -1"
_symmetry_group_IT_number 2
_symmetry_cell_setting 'triclinic'
loop_
_space_group_symop_operation_xyz
x,y,z
-x,-y,-z
loop_
_atom_site_type_symbol
_atom_site_label
_atom_site_fract_x
_atom_site_fract_y
_atom_site_fract_z
Si Si1 0.845793 0.019684 0.003240
Si Si2 0.268944 0.237213 0.410861
Si Si3 0.236551 0.789855 0.695441
Si Si4 0.997227 0.043468 0.689714
Si Si5 0.815710 0.580569 0.283469
Si Si6 0.453458 0.134887 0.020445
Si Si7 0.300681 0.027526 0.641907
Si Si8 0.693284 0.460394 0.124402
O O1 0.733714 0.077584 0.166795
O O2 0.885755 0.291715 0.110044
O O3 0.737052 0.894231 0.926643
O O4 0.025572 0.836408 0.825119
O O5 0.303569 0.494930 0.501920
O O6 0.263685 0.285741 0.528140
O O7 0.417238 0.013562 0.187080
O O8 0.088663 0.163614 0.427676
O O9 0.293593 0.911207 0.660915
O O10 0.059060 0.241893 0.713387
O O11 0.160762 0.941852 0.605650
O O12 0.839907 0.211462 0.907450
O O13 0.684918 0.553142 0.265024
O O14 0.510041 0.402920 0.153383
O O15 0.500000 0.000000 0.000000
O O16 0.241832 0.328489 0.838646
O O17 0.500000 0.000000 0.500000
#
# Coordination Sequence:
#
# PCOD9079673 Si02
#       8
#     2   2   2   2   2   2   2   2
#     4  10  21  39  65  89 119 162 192 250 300 361
#     4  10  24  37  60  95 117 158 194 256 300 348
#     4  10  23  41  59  88 126 160 199 234 308 364
#     4  10  21  39  61  88 119 159 199 244 297 349
#     4  10  18  37  63  86 120 151 205 241 292 352
#     4  11  23  39  62  91 119 148 206 253 302 342
#     4  11  24  37  58  86 120 159 199 242 293 355
#     4  10  21  39  62  88 115 161 198 243 296 352
#
# _framework density 21.380551000000001
#
# number of rings (size 3 to 8) (size 9 to 14) (size 15 to 20)
#    0.000    1.750    1.250    3.375    3.500    5.500 
#    0.000    0.625    0.000    0.000    0.000    0.000 
#    0.000    0.000    0.000    0.000    0.000    0.000 
#
# Total GULP energy -89365.479193 kJ/mol
# GULP energy per Si atom -5585.342450 kJ/mol
# Density = 2.133189 g / cm^3
# Si number density = 21.380551 Si / 1000 Ang^3
#
#
#
# Elastic Constant Matrix: (Units=GPa)
#
#
# Indices 1 2 3 4 5 6 
#
# 1 113.9438 42.0271 25.8379 -7.8219 25.0906 3.4882
# 2 42.0271 106.5199 18.5217 -10.7414 26.6658 -17.8345
# 3 25.8379 18.5217 49.9973 -3.3063 21.0630 2.9488
# 4 -7.8219 -10.7414 -3.3063 21.9307 1.2161 0.8217
# 5 25.0906 26.6658 21.0630 1.2161 33.5059 -3.3016
# 6 3.4882 -17.8345 2.9488 0.8217 -3.3016 38.5453
#
#
#
# Elastic Compliance Matrix: (Units=1/GPa)
#
#
# Indices 1 2 3 4 5 6 
#
# 1 0.011932 -0.003172 -0.002420 0.002737 -0.005272 -0.002872
# 2 -0.003172 0.014486 0.000031 0.006228 -0.008798 0.006101
# 3 -0.002420 0.000031 0.028854 0.004569 -0.016864 -0.003516
# 4 0.002737 0.006228 0.004569 0.050955 -0.011708 0.000195
# 5 -0.005272 -0.008798 -0.016864 -0.011708 0.052058 0.002405
# 6 -0.002872 0.006101 -0.003516 0.000195 0.002405 0.029497
#
#
# Mechanical properties :
#
#
# Convention : Reuss Voigt Hill
#
# Bulk Modulus (GPa) = 22.64989 49.24825 35.94907
# Shear Modulus (GPa) = 23.40614 31.06802 27.23708
#
# Velocity S-wave (km/s) = 3.31227 3.81609 3.57307
# Velocity P-wave (km/s) = 5.02443 6.51927 5.82004
#
# Compressibility (1/GPa) = 0.04415033
#
# Stress axis : x y z
#
# Youngs Moduli (GPa) = 83.81139 69.03293 34.65740
#
# Poissons Ratio (x) = 0.21897 0.08386
# Poissons Ratio (y) = 0.26585 -0.00108
# Poissons Ratio (z) = 0.20280 -0.00216
#
# Static dielectric constant tensor:
#      x y z
#    x 1.804990 0.021630 -0.014190 
#    y 0.021630 1.794820 -0.003230 
#    z -0.014190 -0.003230 1.798060 
# 
# From -- ./inp_files/277869.got.cif
#   From: 2010.05.17/outbox.cif.g08.bks.cpg/sg2_139_cif.got.tgz:277869.got - 2010.06.03 11:33:40.
