data_PCOD9079291
_publ_section_title
;
Structure prediction by ZEFSAII (Michael W. Deem and Ramdas Pophale) SiO2 
 PCOD9079291
Probable space group: P -1
;
_chemical_formula_sum "Si O2"
_cell_formula_units_Z 16
_cell_length_a 11.682126
_cell_length_b 9.289938
_cell_length_c 23.098529
_cell_angle_alpha 33.850501
_cell_angle_beta 29.580960
_cell_angle_gamma 46.088373
_cell_volume 685.550435
_symmetry_space_group_name_H-M "P -1"
_symmetry_group_IT_number 2
_symmetry_cell_setting 'triclinic'
loop_
_space_group_symop_operation_xyz
x,y,z
-x,-y,-z
loop_
_atom_site_type_symbol
_atom_site_label
_atom_site_fract_x
_atom_site_fract_y
_atom_site_fract_z
Si Si1 0.232732 0.399286 0.140368
Si Si2 0.197756 0.201240 0.690425
Si Si3 0.919986 0.156058 0.655349
Si Si4 0.293477 0.239979 0.286405
Si Si5 0.338893 0.003771 0.467397
Si Si6 0.631825 0.290080 0.630712
Si Si7 0.292292 0.782403 0.151654
Si Si8 0.186650 0.394722 0.758405
O O1 0.139591 0.330015 0.270125
O O2 0.087131 0.619285 0.104706
O O3 0.191460 0.144052 0.204538
O O4 0.500000 0.500000 0.000000
O O5 0.380371 0.997143 0.658716
O O6 0.275669 0.477215 0.531428
O O7 0.230119 0.245799 0.729774
O O8 0.923539 0.134743 0.819587
O O9 0.803890 0.291841 0.607905
O O10 0.833412 0.269456 0.714222
O O11 0.198496 0.145859 0.530611
O O12 0.395585 0.527224 0.166260
O O13 0.236424 0.111251 0.417004
O O14 0.384703 0.993587 0.296858
O O15 0.257626 0.700148 0.613295
O O16 0.364908 0.323720 0.752213
O O17 0.500000 0.000000 0.000000
#
# Coordination Sequence:
#
# PCOD9079291 Si02
#       8
#     2   2   2   2   2   2   2   2
#     4  10  21  37  60  87 119 169 214 248 294 357
#     4  11  20  38  68  93 125 157 198 261 312 375
#     4  10  24  38  58  93 129 158 203 260 304 372
#     4  11  20  37  66  88 120 158 205 262 296 364
#     4  10  20  37  64 100 120 146 204 264 331 350
#     4  10  20  38  67 100 121 145 205 266 324 348
#     4  12  27  44  59  83 128 180 210 237 301 379
#     4  10  18  36  65  99 123 150 198 266 315 364
#
# _framework density 23.338911
#
# number of rings (size 3 to 8) (size 9 to 14) (size 15 to 20)
#    0.000    1.500    3.750    2.250    0.000    4.500 
#    0.000    6.875    0.000    0.000    0.000    0.000 
#    0.000    0.000    0.000    0.000    0.000    0.000 
#
# Total GULP energy -89165.766926 kJ/mol
# GULP energy per Si atom -5572.860433 kJ/mol
# Density = 2.328579 g / cm^3
# Si number density = 23.338911 Si / 1000 Ang^3
#
#
#
# Elastic Constant Matrix: (Units=GPa)
#
#
# Indices 1 2 3 4 5 6 
#
# 1 64.2405 33.7606 12.7891 6.8750 -10.1362 -13.0906
# 2 33.7606 99.5162 37.0574 -1.7991 -13.8806 -5.2063
# 3 12.7891 37.0574 73.6674 -0.1506 -31.2051 -11.4401
# 4 6.8750 -1.7991 -0.1506 28.3573 -0.3417 -17.2821
# 5 -10.1362 -13.8806 -31.2051 -0.3417 38.0367 12.8546
# 6 -13.0906 -5.2063 -11.4401 -17.2821 12.8546 33.1927
#
#
#
# Elastic Compliance Matrix: (Units=1/GPa)
#
#
# Indices 1 2 3 4 5 6 
#
# 1 0.020703 -0.007134 0.001972 -0.001951 0.002584 0.005709
# 2 -0.007134 0.014868 -0.007283 0.001848 -0.002011 -0.001251
# 3 0.001972 -0.007283 0.024540 0.000295 0.017507 0.001467
# 4 -0.001951 0.001848 0.000295 0.055484 -0.010056 0.032405
# 5 0.002584 -0.002011 0.017507 -0.010056 0.046035 -0.016326
# 6 0.005709 -0.001251 0.001467 0.032405 -0.016326 0.055883
#
#
# Mechanical properties :
#
#
# Convention : Reuss Voigt Hill
#
# Bulk Modulus (GPa) = 28.39203 44.95982 36.67592
# Shear Modulus (GPa) = 19.67390 30.17181 24.92286
#
# Velocity S-wave (km/s) = 2.90654 3.59941 3.27137
# Velocity P-wave (km/s) = 4.84308 6.04814 5.47885
#
# Compressibility (1/GPa) = 0.03522115
#
# Stress axis : x y z
#
# Youngs Moduli (GPa) = 48.30242 67.25739 40.74932
#
# Poissons Ratio (x) = 0.47980 -0.08035
# Poissons Ratio (y) = 0.34458 0.29678
# Poissons Ratio (z) = -0.09524 0.48984
#
# Static dielectric constant tensor:
#      x y z
#    x 1.885750 -0.046910 -0.008020 
#    y -0.046910 1.916710 0.063500 
#    z -0.008020 0.063500 2.007570 
# 
# From -- ./inp_files/609736.got.cif
#   From: 2010.05.17/outbox.cif.g08.bks.cpg/sg2_305_cif.got.tgz:609736.got - 2010.06.03 11:33:40.
