data_PCOD9079222
_publ_section_title
;
Structure prediction by ZEFSAII (Michael W. Deem and Ramdas Pophale) SiO2 
 PCOD9079222
Probable space group: P -1
;
_chemical_formula_sum "Si O2"
_cell_formula_units_Z 15
_cell_length_a 9.150831
_cell_length_b 11.777121
_cell_length_c 14.910992
_cell_angle_alpha 29.773976
_cell_angle_beta 94.807634
_cell_angle_gamma 83.449776
_cell_volume 736.328606
_symmetry_space_group_name_H-M "P -1"
_symmetry_group_IT_number 2
_symmetry_cell_setting 'triclinic'
loop_
_space_group_symop_operation_xyz
x,y,z
-x,-y,-z
loop_
_atom_site_type_symbol
_atom_site_label
_atom_site_fract_x
_atom_site_fract_y
_atom_site_fract_z
Si Si1 0.152514 0.910309 0.198066
Si Si2 0.503502 0.653021 0.130468
Si Si3 0.446948 0.870675 0.506444
Si Si4 0.917841 0.048352 0.558950
Si Si5 0.316682 0.221501 0.100611
Si Si6 0.000000 0.500000 0.000000
Si Si7 0.812236 0.487916 0.379148
Si Si8 0.179223 0.000644 0.935196
O O1 0.198048 0.666704 0.428083
O O2 0.961258 0.038640 0.099263
O O3 0.236308 0.082521 0.125811
O O4 0.196553 0.873746 0.120642
O O5 0.452083 0.419017 0.295320
O O6 0.638281 0.614538 0.238889
O O7 0.587245 0.658330 0.037234
O O8 0.348562 0.895465 0.969200
O O9 0.269097 0.888972 0.504879
O O10 0.500000 0.000000 0.500000
O O11 0.433029 0.018035 0.312874
O O12 0.921080 0.282378 0.454793
O O13 0.000000 0.000000 0.500000
O O14 0.978743 0.793635 0.791233
O O15 0.175073 0.413945 0.018405
O O16 0.872208 0.705980 0.253155
#
# Coordination Sequence:
#
# PCOD9079222 Si02
#       8
#     2   2   2   2   2   1   2   2
#     4  11  23  44  63  92 130 170 215 263 318 375
#     4  11  23  43  66  96 127 171 215 261 324 377
#     4  10  23  44  60  94 130 161 210 265 315 380
#     4  10  21  37  64  90 120 163 206 259 313 375
#     4  11  22  41  70  90 130 171 209 263 320 388
#     4  10  18  36  64  92 110 166 208 244 310 376
#     4  11  21  42  65  92 132 165 216 262 320 384
#     4  11  26  40  65  96 130 169 215 271 310 380
#
# _framework density 20.371338999999999
#
# number of rings (size 3 to 8) (size 9 to 14) (size 15 to 20)
#    0.000    1.333    5.333    2.400    0.000    4.267 
#    4.800    0.000    0.000    0.000    0.000    0.000 
#    0.000    0.000    0.000    0.000    0.000    0.000 
#
# Total GULP energy -83508.512138 kJ/mol
# GULP energy per Si atom -5567.234143 kJ/mol
# Density = 2.032497 g / cm^3
# Si number density = 20.371339 Si / 1000 Ang^3
#
#
#
# Elastic Constant Matrix: (Units=GPa)
#
#
# Indices 1 2 3 4 5 6 
#
# 1 24.4477 12.4534 20.5575 1.9188 4.4580 -9.2323
# 2 12.4534 54.1970 40.4793 -7.6585 5.4615 0.1178
# 3 20.5575 40.4793 101.0813 -2.9751 -4.8030 -8.0430
# 4 1.9188 -7.6585 -2.9751 34.5136 -4.4857 -4.3977
# 5 4.4580 5.4615 -4.8030 -4.4857 13.6296 3.2248
# 6 -9.2323 0.1178 -8.0430 -4.3977 3.2248 46.3432
#
#
#
# Elastic Compliance Matrix: (Units=1/GPa)
#
#
# Indices 1 2 3 4 5 6 
#
# 1 0.063183 -0.003779 -0.011985 -0.007608 -0.028669 0.011790
# 2 -0.003779 0.030157 -0.011956 0.003927 -0.013391 -0.001600
# 3 -0.011985 -0.011956 0.017889 0.001555 0.015572 -0.000188
# 4 -0.007608 0.003927 0.001555 0.032057 0.011785 0.000966
# 5 -0.028669 -0.013391 0.015572 0.011785 0.099557 -0.008784
# 6 0.011790 -0.001600 -0.000188 0.000966 -0.008784 0.024601
#
#
# Mechanical properties :
#
#
# Convention : Reuss Voigt Hill
#
# Bulk Modulus (GPa) = 17.92431 36.30071 27.11251
# Shear Modulus (GPa) = 14.64205 25.97967 20.31086
#
# Velocity S-wave (km/s) = 2.68387 3.57502 3.16101
# Velocity P-wave (km/s) = 4.29210 5.90755 5.16339
#
# Compressibility (1/GPa) = 0.05579015
#
# Stress axis : x y z
#
# Youngs Moduli (GPa) = 15.82696 33.15927 55.89959
#
# Poissons Ratio (x) = 0.12530 0.66994
# Poissons Ratio (y) = 0.05981 0.66836
# Poissons Ratio (z) = 0.18968 0.39647
#
# Static dielectric constant tensor:
#      x y z
#    x 1.712290 0.021400 -0.012600 
#    y 0.021400 1.755100 -0.015200 
#    z -0.012600 -0.015200 1.762930 
# 
# From -- ./inp_files/187931.got.cif
#   From: 2010.05.17/outbox.cif.g08.bks.cpg/sg2_94_cif.got.tgz:187931.got - 2010.06.03 11:33:40.
