data_PCOD9079172
_publ_section_title
;
Structure prediction by ZEFSAII (Michael W. Deem and Ramdas Pophale) SiO2 
 PCOD9079172
Probable space group: P -1
;
_chemical_formula_sum "Si O2"
_cell_formula_units_Z 16
_cell_length_a 19.436500
_cell_length_b 9.237898
_cell_length_c 14.141720
_cell_angle_alpha 77.515872
_cell_angle_beta 20.164951
_cell_angle_gamma 65.526600
_cell_volume 665.110082
_symmetry_space_group_name_H-M "P -1"
_symmetry_group_IT_number 2
_symmetry_cell_setting 'triclinic'
loop_
_space_group_symop_operation_xyz
x,y,z
-x,-y,-z
loop_
_atom_site_type_symbol
_atom_site_label
_atom_site_fract_x
_atom_site_fract_y
_atom_site_fract_z
Si Si1 0.570291 0.664524 0.319089
Si Si2 0.700372 0.503063 0.968601
Si Si3 0.022417 0.383827 0.896701
Si Si4 0.631788 0.580172 0.692304
Si Si5 0.752435 0.966751 0.221057
Si Si6 0.898479 0.815242 0.858943
Si Si7 0.246788 0.974232 0.157950
Si Si8 0.718003 0.785658 0.787928
O O1 0.321477 0.837860 0.672151
O O2 0.567592 0.596431 0.228087
O O3 0.724067 0.749492 0.095346
O O4 0.750157 0.488946 0.182879
O O5 0.646071 0.658928 0.940379
O O6 0.012026 0.349494 0.598480
O O7 0.583311 0.408960 0.088925
O O8 0.199848 0.393349 0.595790
O O9 0.144495 0.176509 0.804846
O O10 0.000000 0.500000 0.000000
O O11 0.829569 0.367429 0.507450
O O12 0.485857 0.768149 0.917759
O O13 0.500000 0.000000 0.500000
O O14 0.939613 0.862280 0.904310
O O15 0.754718 0.003933 0.955707
O O16 0.215351 0.153265 0.211581
O O17 0.000000 0.000000 0.500000
O O18 0.500000 0.000000 0.000000
#
# Coordination Sequence:
#
# PCOD9079172 Si02
#       8
#     2   2   2   2   2   2   2   2
#     4  10  21  37  63  89 126 168 211 258 318 381
#     4  11  25  46  60  95 136 170 211 272 335 378
#     4  11  20  37  67  96 121 169 223 255 314 383
#     4  11  24  39  68  95 132 164 215 271 315 378
#     4  10  18  36  63  92 122 164 216 256 307 379
#     4  10  22  39  67  92 126 171 215 263 317 379
#     4  12  25  43  66  99 123 168 225 266 318 386
#     4  11  27  45  66  89 131 177 218 268 330 388
#
# _framework density 24.056166000000001
#
# number of rings (size 3 to 8) (size 9 to 14) (size 15 to 20)
#    0.000    1.250    6.250    1.500    5.250    0.500 
#    0.000    1.250    0.000    0.000    0.000    0.000 
#    0.000    0.000    0.000    0.000    0.000    0.000 
#
# Total GULP energy -89408.850373 kJ/mol
# GULP energy per Si atom -5588.053148 kJ/mol
# Density = 2.400141 g / cm^3
# Si number density = 24.056166 Si / 1000 Ang^3
#
#
#
# Elastic Constant Matrix: (Units=GPa)
#
#
# Indices 1 2 3 4 5 6 
#
# 1 62.0207 30.4817 -0.9420 7.5746 5.2001 -7.4485
# 2 30.4817 123.4439 24.2361 28.9441 -8.0049 -10.9696
# 3 -0.9420 24.2361 46.6084 27.3593 -3.3953 0.3399
# 4 7.5746 28.9441 27.3593 38.1594 3.7449 -5.1264
# 5 5.2001 -8.0049 -3.3953 3.7449 29.4318 14.9144
# 6 -7.4485 -10.9696 0.3399 -5.1264 14.9144 50.5723
#
#
#
# Elastic Compliance Matrix: (Units=1/GPa)
#
#
# Indices 1 2 3 4 5 6 
#
# 1 0.019913 -0.005392 0.003504 -0.001313 -0.006146 0.003419
# 2 -0.005392 0.011736 -0.001556 -0.007287 0.005142 -0.000493
# 3 0.003504 -0.001556 0.041530 -0.031249 0.011029 -0.006521
# 4 -0.001313 -0.007287 -0.031249 0.057368 -0.017410 0.009386
# 5 -0.006146 0.005142 0.011029 -0.017410 0.047938 -0.015766
# 6 0.003419 -0.000493 -0.006521 0.009386 -0.015766 0.025815
#
#
# Mechanical properties :
#
#
# Convention : Reuss Voigt Hill
#
# Bulk Modulus (GPa) = 15.08500 37.73607 26.41053
# Shear Modulus (GPa) = 21.43297 35.51919 28.47608
#
# Velocity S-wave (km/s) = 2.98813 3.84671 3.44427
# Velocity P-wave (km/s) = 4.26492 5.95401 5.17879
#
# Compressibility (1/GPa) = 0.06629103
#
# Stress axis : x y z
#
# Youngs Moduli (GPa) = 50.21789 85.20830 24.07912
#
# Poissons Ratio (x) = 0.45944 -0.08438
# Poissons Ratio (y) = 0.27078 0.03747
# Poissons Ratio (z) = -0.17597 0.13259
#
# Static dielectric constant tensor:
#      x y z
#    x 1.978510 -0.073900 0.014700 
#    y -0.073900 1.915040 0.047830 
#    z 0.014700 0.047830 1.984730 
# 
# From -- ./inp_files/349605.got.cif
#   From: 2010.05.17/outbox.cif.g08.bks.cpg/sg2_175_cif.got.tgz:349605.got - 2010.06.03 11:33:40.
