data_PCOD9079861
_publ_section_title
;
Structure prediction by ZEFSAII (Michael W. Deem and Ramdas Pophale) SiO2 
 PCOD9079861
Probable space group: P -1
;
_chemical_formula_sum "Si O2"
_cell_formula_units_Z 14
_cell_length_a 6.875125
_cell_length_b 7.276702
_cell_length_c 16.322104
_cell_angle_alpha 54.785947
_cell_angle_beta 111.994582
_cell_angle_gamma 95.190984
_cell_volume 610.037003
_symmetry_space_group_name_H-M "P -1"
_symmetry_group_IT_number 2
_symmetry_cell_setting 'triclinic'
loop_
_space_group_symop_operation_xyz
x,y,z
-x,-y,-z
loop_
_atom_site_type_symbol
_atom_site_label
_atom_site_fract_x
_atom_site_fract_y
_atom_site_fract_z
Si Si1 0.288509 0.355435 0.819066
Si Si2 0.064076 0.246870 0.344703
Si Si3 0.996742 0.994882 0.901298
Si Si4 0.511611 0.694937 0.694779
Si Si5 0.526564 0.989800 0.773006
Si Si6 0.811368 0.880650 0.434734
Si Si7 0.612384 0.268714 0.034762
O O1 0.419077 0.459511 0.740731
O O2 0.138225 0.587837 0.765982
O O3 0.115622 0.190502 0.833063
O O4 0.466568 0.250903 0.937766
O O5 0.278571 0.290455 0.325967
O O6 0.091751 0.291157 0.435448
O O7 0.993488 0.998060 0.390111
O O8 0.144664 0.765727 0.949000
O O9 0.757956 0.035121 0.820601
O O10 0.000000 0.000000 0.000000
O O11 0.560369 0.763341 0.778376
O O12 0.327358 0.908228 0.589823
O O13 0.415923 0.926109 0.854203
O O14 0.362432 0.166318 0.646811
O O15 0.500000 0.500000 0.000000
#
# Coordination Sequence:
#
# PCOD9079861 Si02
#       7
#     2   2   2   2   2   2   2
#     4  11  24  39  60  97 128 165 218 265 323 387
#     4  10  18  37  67  91 131 166 216 267 325 377
#     4  12  28  43  64  94 135 183 210 264 338 386
#     4   9  20  35  64  97 125 169 216 270 312 384
#     4  10  23  38  63  96 127 171 217 271 316 388
#     4   8  19  36  60 102 124 163 220 272 312 379
#     4  12  24  43  66  94 130 168 225 274 315 388
#
# _framework density 22.949427
#
# number of rings (size 3 to 8) (size 9 to 14) (size 15 to 20)
#    0.857    0.857    2.857    0.857    6.000    0.571 
#    0.000    0.714    0.000    1.714    0.000    0.000 
#    0.000    0.000    0.000    0.000    0.000    0.000 
#
# Total GULP energy -78023.939040 kJ/mol
# GULP energy per Si atom -5573.138503 kJ/mol
# Density = 2.289719 g / cm^3
# Si number density = 22.949427 Si / 1000 Ang^3
#
#
#
# Elastic Constant Matrix: (Units=GPa)
#
#
# Indices 1 2 3 4 5 6 
#
# 1 175.5551 37.7111 28.1725 9.2726 -13.1315 21.0055
# 2 37.7111 54.9580 10.7408 11.4658 -2.7484 14.9650
# 3 28.1725 10.7408 69.8209 23.5114 2.3355 7.5514
# 4 9.2726 11.4658 23.5114 31.5820 13.9044 10.0692
# 5 -13.1315 -2.7484 2.3355 13.9044 34.4762 4.7033
# 6 21.0055 14.9650 7.5514 10.0692 4.7033 36.1851
#
#
#
# Elastic Compliance Matrix: (Units=1/GPa)
#
#
# Indices 1 2 3 4 5 6 
#
# 1 0.007418 -0.003871 -0.002424 0.000685 0.002780 -0.002751
# 2 -0.003871 0.024381 0.001285 -0.008771 0.004777 -0.006284
# 3 -0.002424 0.001285 0.020771 -0.017567 0.004746 0.000812
# 4 0.000685 -0.008771 -0.017567 0.059772 -0.022424 -0.006822
# 5 0.002780 0.004777 0.004746 -0.022424 0.039644 -0.003493
# 6 -0.002751 -0.006284 0.000812 -0.006822 -0.003493 0.034015
#
#
# Mechanical properties :
#
#
# Convention : Reuss Voigt Hill
#
# Bulk Modulus (GPa) = 23.50172 50.39807 36.94990
# Shear Modulus (GPa) = 23.78652 35.36264 29.57458
#
# Velocity S-wave (km/s) = 3.22293 3.92968 3.59372
# Velocity P-wave (km/s) = 4.91045 6.52672 5.77540
#
# Compressibility (1/GPa) = 0.04255007
#
# Stress axis : x y z
#
# Youngs Moduli (GPa) = 134.81459 41.01606 48.14299
#
# Poissons Ratio (x) = 0.15877 0.11668
# Poissons Ratio (y) = 0.52185 -0.06185
# Poissons Ratio (z) = 0.32674 -0.05269
#
# Static dielectric constant tensor:
#      x y z
#    x 1.835720 -0.039270 -0.002240 
#    y -0.039270 1.988640 -0.048290 
#    z -0.002240 -0.048290 1.885580 
# 
# From -- ./inp_files/581314.got.cif
#   From: 2010.05.17/outbox.cif.g08.bks.cpg/sg2_291_cif.got.tgz:581314.got - 2010.06.03 11:33:40.
