data_PCOD9079434
_publ_section_title
;
Structure prediction by ZEFSAII (Michael W. Deem and Ramdas Pophale) SiO2 
 PCOD9079434
Probable space group: P -1
;
_chemical_formula_sum "Si O2"
_cell_formula_units_Z 15
_cell_length_a 11.880658
_cell_length_b 7.765546
_cell_length_c 11.550429
_cell_angle_alpha 63.301593
_cell_angle_beta 43.964643
_cell_angle_gamma 77.362933
_cell_volume 651.440087
_symmetry_space_group_name_H-M "P -1"
_symmetry_group_IT_number 2
_symmetry_cell_setting 'triclinic'
loop_
_space_group_symop_operation_xyz
x,y,z
-x,-y,-z
loop_
_atom_site_type_symbol
_atom_site_label
_atom_site_fract_x
_atom_site_fract_y
_atom_site_fract_z
Si Si1 0.691921 0.105311 0.933302
Si Si2 0.691015 0.483909 0.458474
Si Si3 0.649989 0.062293 0.704072
Si Si4 0.000523 0.748632 0.203500
Si Si5 0.000000 0.000000 0.500000
Si Si6 0.848897 0.726800 0.898121
Si Si7 0.627449 0.400346 0.275211
Si Si8 0.869850 0.138251 0.183529
O O1 0.516645 0.095291 0.127402
O O2 0.671730 0.128740 0.803745
O O3 0.847607 0.250179 0.823228
O O4 0.747697 0.892874 0.971023
O O5 0.630432 0.255094 0.591055
O O6 0.685107 0.521185 0.314450
O O7 0.565220 0.599658 0.582379
O O8 0.873319 0.549920 0.350748
O O9 0.821770 0.998945 0.566232
O O10 0.070729 0.811506 0.006205
O O11 0.897068 0.920614 0.259153
O O12 0.087226 0.185876 0.298287
O O13 0.006115 0.724891 0.864163
O O14 0.725869 0.523296 0.061435
O O15 0.690422 0.195723 0.303684
#
# Coordination Sequence:
#
# PCOD9079434 Si02
#       8
#     2   2   2   2   1   2   2   2
#     4   9  20  39  62  81 122 163 199 243 309 358
#     4  11  23  37  63  95 122 158 210 253 303 357
#     4  10  20  39  61  90 114 160 205 255 291 371
#     4  10  22  38  59  94 123 167 197 250 314 365
#     4  10  22  32  64  92 112 144 214 254 294 346
#     4  10  18  37  57  91 114 158 199 259 287 355
#     4  11  22  36  61  93 124 162 206 254 295 364
#     4  10  21  37  60  85 128 165 198 247 311 358
#
# _framework density 23.025908000000001
#
# number of rings (size 3 to 8) (size 9 to 14) (size 15 to 20)
#    0.000    1.867    2.667    1.200    1.867    1.067 
#    0.000    4.000    0.000    1.600    0.000    0.000 
#    0.000    0.000    0.000    0.000    0.000    0.000 
#
# Total GULP energy -83531.781111 kJ/mol
# GULP energy per Si atom -5568.785407 kJ/mol
# Density = 2.297350 g / cm^3
# Si number density = 23.025908 Si / 1000 Ang^3
#
#
#
# Elastic Constant Matrix: (Units=GPa)
#
#
# Indices 1 2 3 4 5 6 
#
# 1 74.6056 1.8371 37.7501 -1.3183 -14.1392 -7.8304
# 2 1.8371 45.9883 12.8494 15.9875 -0.1536 -13.1544
# 3 37.7501 12.8494 87.5385 -13.9954 2.6997 3.7951
# 4 -1.3183 15.9875 -13.9954 18.6579 -4.1831 -9.3317
# 5 -14.1392 -0.1536 2.6997 -4.1831 34.6237 -4.6865
# 6 -7.8304 -13.1544 3.7951 -9.3317 -4.6865 27.8806
#
#
#
# Elastic Compliance Matrix: (Units=1/GPa)
#
#
# Indices 1 2 3 4 5 6 
#
# 1 0.023199 0.008856 -0.013367 -0.007502 0.011259 0.011895
# 2 0.008856 0.046178 -0.018641 -0.047048 0.001114 0.011252
# 3 -0.013367 -0.018641 0.025050 0.029212 -0.004914 -0.007008
# 4 -0.007502 -0.047048 0.029212 0.125853 0.011797 0.015824
# 5 0.011259 0.001114 -0.004914 0.011797 0.037265 0.014569
# 6 0.011895 0.011252 -0.007008 0.015824 0.014569 0.053216
#
#
# Mechanical properties :
#
#
# Convention : Reuss Voigt Hill
#
# Bulk Modulus (GPa) = 20.78033 34.77841 27.77937
# Shear Modulus (GPa) = 13.40107 26.61216 20.00661
#
# Velocity S-wave (km/s) = 2.41508 3.40332 2.95086
# Velocity P-wave (km/s) = 4.10136 5.52994 4.86834
#
# Compressibility (1/GPa) = 0.04812243
#
# Stress axis : x y z
#
# Youngs Moduli (GPa) = 43.10565 21.65549 39.92047
#
# Poissons Ratio (x) = -0.19178 0.53360
# Poissons Ratio (y) = -0.38175 0.74418
# Poissons Ratio (z) = 0.57618 0.40369
#
# Static dielectric constant tensor:
#      x y z
#    x 1.855990 0.014260 -0.009670 
#    y 0.014260 1.907610 0.083930 
#    z -0.009670 0.083930 1.864780 
# 
# From -- ./inp_files/214070.got.cif
#   From: 2010.05.17/outbox.cif.g08.bks.cpg/sg2_108_cif.got.tgz:214070.got - 2010.06.03 11:33:40.
