data_PCOD9079517
_publ_section_title
;
Structure prediction by ZEFSAII (Michael W. Deem and Ramdas Pophale) SiO2 
 PCOD9079517
Probable space group: P -1
;
_chemical_formula_sum "Si O2"
_cell_formula_units_Z 16
_cell_length_a 8.878421
_cell_length_b 11.466354
_cell_length_c 8.546060
_cell_angle_alpha 93.058089
_cell_angle_beta 116.929253
_cell_angle_gamma 85.531883
_cell_volume 773.159494
_symmetry_space_group_name_H-M "P -1"
_symmetry_group_IT_number 2
_symmetry_cell_setting 'triclinic'
loop_
_space_group_symop_operation_xyz
x,y,z
-x,-y,-z
loop_
_atom_site_type_symbol
_atom_site_label
_atom_site_fract_x
_atom_site_fract_y
_atom_site_fract_z
Si Si1 0.642318 0.533467 0.945474
Si Si2 0.555468 0.316164 0.386956
Si Si3 0.364090 0.085800 0.354804
Si Si4 0.645873 0.753174 0.152572
Si Si5 0.669603 0.309127 0.782361
Si Si6 0.826325 0.073278 0.950027
Si Si7 0.824848 0.938366 0.430958
Si Si8 0.340102 0.855740 0.811011
O O1 0.550386 0.583595 0.748967
O O2 0.738897 0.413211 0.927564
O O3 0.500000 0.500000 0.000000
O O4 0.719638 0.641674 0.079319
O O5 0.434893 0.210510 0.362373
O O6 0.638838 0.346140 0.591691
O O7 0.685004 0.257577 0.315591
O O8 0.211784 0.094113 0.409758
O O9 0.500000 0.000000 0.500000
O O10 0.307812 0.018864 0.170616
O O11 0.512237 0.718245 0.223822
O O12 0.790938 0.826801 0.299959
O O13 0.518805 0.828046 0.981185
O O14 0.786775 0.189485 0.835980
O O15 0.793340 0.117700 0.112607
O O16 0.000000 0.000000 0.000000
O O17 0.683594 0.034894 0.307213
O O18 0.000000 0.000000 0.500000
#
# Coordination Sequence:
#
# PCOD9079517 Si02
#       8
#     2   2   2   2   2   2   2   2
#     4   9  20  35  60  94 118 159 217 269 306 356
#     4  11  20  34  63  90 124 156 211 259 314 361
#     4  12  21  38  58  88 128 165 206 255 318 376
#     4   9  19  35  56  86 119 160 210 255 298 366
#     4  10  18  37  60  88 123 164 210 264 304 371
#     4  11  23  37  56  89 126 162 203 256 315 374
#     4  12  22  34  54  89 130 166 198 252 314 371
#     4  10  21  33  56  84 115 161 201 246 305 366
#
# _framework density 20.694307999999999
#
# number of rings (size 3 to 8) (size 9 to 14) (size 15 to 20)
#    0.000    1.500    3.750    3.000    3.500    0.000 
#    0.000    0.000    0.000    0.750    6.500    9.625 
#    0.000    0.000    0.000    0.000    0.000    0.000 
#
# Total GULP energy -89265.688059 kJ/mol
# GULP energy per Si atom -5579.105504 kJ/mol
# Density = 2.064721 g / cm^3
# Si number density = 20.694308 Si / 1000 Ang^3
#
#
#
# Elastic Constant Matrix: (Units=GPa)
#
#
# Indices 1 2 3 4 5 6 
#
# 1 75.1983 26.1357 35.8004 12.1402 -4.5276 -3.6051
# 2 26.1357 101.9558 26.3094 20.2950 3.3876 -11.9813
# 3 35.8004 26.3094 86.3360 13.6417 -17.2664 -1.2570
# 4 12.1402 20.2950 13.6417 43.6184 5.0065 -15.9115
# 5 -4.5276 3.3876 -17.2664 5.0065 31.1909 1.8134
# 6 -3.6051 -11.9813 -1.2570 -15.9115 1.8134 24.2333
#
#
#
# Elastic Compliance Matrix: (Units=1/GPa)
#
#
# Indices 1 2 3 4 5 6 
#
# 1 0.017396 -0.002499 -0.006264 -0.001695 -0.000396 -0.000056
# 2 -0.002499 0.012253 -0.002949 -0.002109 -0.003243 0.004391
# 3 -0.006264 -0.002949 0.018097 -0.006052 0.010763 -0.006231
# 4 -0.001695 -0.002109 -0.006052 0.035721 -0.010416 0.022625
# 5 -0.000396 -0.003243 0.010763 -0.010416 0.040624 -0.010983
# 6 -0.000056 0.004391 -0.006231 0.022625 -0.010983 0.058782
#
#
# Mechanical properties :
#
#
# Convention : Reuss Voigt Hill
#
# Bulk Modulus (GPa) = 41.11512 48.88680 45.00096
# Shear Modulus (GPa) = 23.32029 31.49147 27.40588
#
# Velocity S-wave (km/s) = 3.36057 3.90519 3.64307
# Velocity P-wave (km/s) = 5.91345 6.63390 6.28400
#
# Compressibility (1/GPa) = 0.02432195
#
# Stress axis : x y z
#
# Youngs Moduli (GPa) = 57.48422 81.60977 55.25798
#
# Poissons Ratio (x) = 0.20394 0.34615
# Poissons Ratio (y) = 0.14365 0.16296
# Poissons Ratio (z) = 0.36009 0.24068
#
# Static dielectric constant tensor:
#      x y z
#    x 1.772110 -0.010960 -0.070260 
#    y -0.010960 1.772290 0.000670 
#    z -0.070260 0.000670 1.717430 
# 
# From -- ./inp_files/179439.got.cif
#   From: 2010.05.17/outbox.cif.g08.bks.cpg/sg2_90_cif.got.tgz:179439.got - 2010.06.03 11:33:40.
