data_PCOD9079215
_publ_section_title
;
Structure prediction by ZEFSAII (Michael W. Deem and Ramdas Pophale) SiO2 
 PCOD9079215
Probable space group: P -1
;
_chemical_formula_sum "Si O2"
_cell_formula_units_Z 13
_cell_length_a 11.679335
_cell_length_b 16.282807
_cell_length_c 9.847130
_cell_angle_alpha 43.551377
_cell_angle_beta 42.264127
_cell_angle_gamma 24.102494
_cell_volume 505.993971
_symmetry_space_group_name_H-M "P -1"
_symmetry_group_IT_number 2
_symmetry_cell_setting 'triclinic'
loop_
_space_group_symop_operation_xyz
x,y,z
-x,-y,-z
loop_
_atom_site_type_symbol
_atom_site_label
_atom_site_fract_x
_atom_site_fract_y
_atom_site_fract_z
Si Si1 0.770525 0.199728 0.365382
Si Si2 0.347454 0.236198 0.723416
Si Si3 0.609313 0.761341 0.786559
Si Si4 0.091743 0.251421 0.670157
Si Si5 0.225929 0.792816 0.963015
Si Si6 0.053752 0.252967 0.179474
Si Si7 0.000000 0.500000 0.000000
O O1 0.472021 0.296651 0.525099
O O2 0.848342 0.148645 0.199951
O O3 0.824336 0.303938 0.241410
O O4 0.000000 0.000000 0.500000
O O5 0.169324 0.279247 0.705573
O O6 0.648485 0.987124 0.769168
O O7 0.160405 0.315882 0.929790
O O8 0.857015 0.685542 0.571262
O O9 0.521355 0.692343 0.863648
O O10 0.686969 0.684886 0.962694
O O11 0.345935 0.006451 0.727232
O O12 0.806245 0.329610 0.831404
O O13 0.000000 0.000000 0.000000
O O14 0.925177 0.399253 0.238931
#
# Coordination Sequence:
#
# PCOD9079215 Si02
#       7
#     2   2   2   2   2   2   1
#     4  10  20  34  61  96 124 157 209 267 309 361
#     4  10  18  36  64  90 118 159 213 253 304 366
#     4  10  22  37  60  91 127 162 204 259 315 373
#     4  10  18  36  64  90 118 159 213 253 304 366
#     4  10  20  34  61  96 124 157 209 267 309 361
#     4  10  22  37  60  91 127 162 204 259 315 373
#     4  12  24  44  62  92 132 172 198 264 332 378
#
# _framework density 25.692005000000002
#
# number of rings (size 3 to 8) (size 9 to 14) (size 15 to 20)
#    0.000    1.846    4.615    0.000    0.000    0.000 
#    0.000    4.615    0.000    0.000    0.000    0.000 
#    0.000    0.000    0.000    0.000    0.000    0.000 
#
# Total GULP energy -72535.611613 kJ/mol
# GULP energy per Si atom -5579.662432 kJ/mol
# Density = 2.563353 g / cm^3
# Si number density = 25.692005 Si / 1000 Ang^3
#
#
#
# Elastic Constant Matrix: (Units=GPa)
#
#
# Indices 1 2 3 4 5 6 
#
# 1 244.2465 22.1260 102.1105 8.0854 -38.5678 6.8134
# 2 22.1260 88.4706 38.5209 -6.5262 -23.9581 4.6476
# 3 102.1105 38.5209 172.9588 14.3022 -28.2673 -2.7604
# 4 8.0854 -6.5262 14.3022 25.9603 -3.3296 -4.1888
# 5 -38.5678 -23.9581 -28.2673 -3.3296 58.9116 -1.2406
# 6 6.8134 4.6476 -2.7604 -4.1888 -1.2406 34.6534
#
#
#
# Elastic Compliance Matrix: (Units=1/GPa)
#
#
# Indices 1 2 3 4 5 6 
#
# 1 0.005804 0.000727 -0.003216 0.000251 0.002537 -0.001374
# 2 0.000727 0.014418 -0.003305 0.005627 0.005040 -0.001479
# 3 -0.003216 -0.003305 0.008903 -0.004453 0.000597 0.001268
# 4 0.000251 0.005627 -0.004453 0.043351 0.002854 0.004184
# 5 0.002537 0.005040 0.000597 0.002854 0.021132 -0.000026
# 6 -0.001374 -0.001479 0.001268 0.004184 -0.000026 0.029931
#
#
# Mechanical properties :
#
#
# Convention : Reuss Voigt Hill
#
# Bulk Modulus (GPa) = 57.02962 92.35452 74.69207
# Shear Modulus (GPa) = 35.46745 46.76630 41.11687
#
# Velocity S-wave (km/s) = 3.71952 4.27109 4.00481
# Velocity P-wave (km/s) = 6.37903 7.76838 7.10773
#
# Compressibility (1/GPa) = 0.01753475
#
# Stress axis : x y z
#
# Youngs Moduli (GPa) = 172.30769 69.35594 112.32656
#
# Poissons Ratio (x) = -0.05039 0.36126
# Poissons Ratio (y) = -0.12519 0.37128
# Poissons Ratio (z) = 0.55416 0.22925
#
# Static dielectric constant tensor:
#      x y z
#    x 2.260420 0.095190 -0.004200 
#    y 0.095190 2.195640 0.052690 
#    z -0.004200 0.052690 2.091090 
# 
# From -- ./inp_files/434546.got.cif
#   From: 2010.05.17/outbox.cif.g08.bks.cpg/sg2_218_cif.got.tgz:434546.got - 2010.06.03 11:33:40.
