data_PCOD9079204
_publ_section_title
;
Structure prediction by ZEFSAII (Michael W. Deem and Ramdas Pophale) SiO2 
 PCOD9079204
Probable space group: P -1
;
_chemical_formula_sum "Si O2"
_cell_formula_units_Z 16
_cell_length_a 11.212986
_cell_length_b 8.209628
_cell_length_c 15.404601
_cell_angle_alpha 34.204488
_cell_angle_beta 73.180478
_cell_angle_gamma 59.364641
_cell_volume 659.832602
_symmetry_space_group_name_H-M "P -1"
_symmetry_group_IT_number 2
_symmetry_cell_setting 'triclinic'
loop_
_space_group_symop_operation_xyz
x,y,z
-x,-y,-z
loop_
_atom_site_type_symbol
_atom_site_label
_atom_site_fract_x
_atom_site_fract_y
_atom_site_fract_z
Si Si1 0.495426 0.262985 0.181838
Si Si2 0.210151 0.253538 0.600730
Si Si3 0.128128 0.694714 0.850180
Si Si4 0.682241 0.972327 0.787011
Si Si5 0.585724 0.211166 0.877600
Si Si6 0.922680 0.934000 0.936279
Si Si7 0.932974 0.793768 0.706368
Si Si8 0.070796 0.416226 0.380709
O O1 0.379966 0.168383 0.211507
O O2 0.476899 0.467910 0.185512
O O3 0.634823 0.894657 0.326013
O O4 0.500000 0.500000 0.000000
O O5 0.187715 0.336721 0.466700
O O6 0.073253 0.520545 0.566882
O O7 0.190660 0.929910 0.754182
O O8 0.081663 0.741073 0.739297
O O9 0.237523 0.339803 0.024573
O O10 0.975915 0.838669 0.867718
O O11 0.791022 0.047649 0.677468
O O12 0.583791 0.258662 0.751804
O O13 0.757622 0.038270 0.943039
O O14 0.500000 0.000000 0.000000
O O15 0.949554 0.240970 0.807377
O O16 0.033752 0.583816 0.110747
O O17 0.903376 0.829946 0.595167
#
# Coordination Sequence:
#
# PCOD9079204 Si02
#       8
#     2   2   2   2   2   2   2   2
#     4  12  24  37  63  91 129 167 205 256 315 378
#     4  10  23  43  58  93 126 163 209 256 310 372
#     4  10  18  36  64  88 131 151 202 271 305 356
#     4  11  21  40  58 100 125 159 208 264 317 365
#     4  12  22  35  60  95 128 159 202 262 319 362
#     4  10  20  36  59  91 123 155 205 260 308 361
#     4  11  20  35  66  94 118 162 208 264 311 363
#     4  10  23  40  66  87 123 166 210 258 311 370
#
# _framework density 24.248574000000001
#
# number of rings (size 3 to 8) (size 9 to 14) (size 15 to 20)
#    0.000    1.250    5.000    1.875    1.750    0.500 
#    0.000    2.500    0.000    1.500    0.000    0.000 
#    0.000    0.000    0.000    0.000    0.000    0.000 
#
# Total GULP energy -89121.809644 kJ/mol
# GULP energy per Si atom -5570.113103 kJ/mol
# Density = 2.419338 g / cm^3
# Si number density = 24.248574 Si / 1000 Ang^3
#
#
#
# Elastic Constant Matrix: (Units=GPa)
#
#
# Indices 1 2 3 4 5 6 
#
# 1 91.0300 27.7089 -3.6748 10.4675 2.5116 3.5087
# 2 27.7089 109.5024 14.7124 23.7355 16.5840 10.5231
# 3 -3.6748 14.7124 55.9723 2.5718 5.2283 -7.0156
# 4 10.4675 23.7355 2.5718 30.7384 3.7646 7.0116
# 5 2.5116 16.5840 5.2283 3.7646 30.5072 -1.3518
# 6 3.5087 10.5231 -7.0156 7.0116 -1.3518 35.7527
#
#
#
# Elastic Compliance Matrix: (Units=1/GPa)
#
#
# Indices 1 2 3 4 5 6 
#
# 1 0.012173 -0.002973 0.001680 -0.002170 0.000614 0.000459
# 2 -0.002973 0.013034 -0.003128 -0.007453 -0.005514 -0.002905
# 3 0.001680 -0.003128 0.019555 -0.000674 -0.001499 0.004668
# 4 -0.002170 -0.007453 -0.000674 0.040494 -0.000904 -0.005701
# 5 0.000614 -0.005514 -0.001499 -0.000904 0.036219 0.002815
# 6 0.000459 -0.002905 0.004668 -0.005701 0.002815 0.030921
#
#
# Mechanical properties :
#
#
# Convention : Reuss Voigt Hill
#
# Bulk Modulus (GPa) = 27.83833 37.11086 32.47459
# Shear Modulus (GPa) = 28.86660 33.91688 31.39174
#
# Velocity S-wave (km/s) = 3.45403 3.74400 3.60193
# Velocity P-wave (km/s) = 5.23568 5.83332 5.54256
#
# Compressibility (1/GPa) = 0.03592170
#
# Stress axis : x y z
#
# Youngs Moduli (GPa) = 82.14874 76.71969 51.13871
#
# Poissons Ratio (x) = 0.22807 -0.08594
# Poissons Ratio (y) = 0.24421 0.15996
# Poissons Ratio (z) = -0.13805 0.23998
#
# Static dielectric constant tensor:
#      x y z
#    x 1.972720 -0.022830 -0.030010 
#    y -0.022830 2.080450 -0.020340 
#    z -0.030010 -0.020340 1.953790 
# 
# From -- ./inp_files/514907.got.cif
#   From: 2010.05.17/outbox.cif.g08.bks.cpg/sg2_258_cif.got.tgz:514907.got - 2010.06.03 11:33:40.
