data_PCOD9079299
_publ_section_title
;
Structure prediction by ZEFSAII (Michael W. Deem and Ramdas Pophale) SiO2 
 PCOD9079299
Probable space group: P -1
;
_chemical_formula_sum "Si O2"
_cell_formula_units_Z 12
_cell_length_a 14.765350
_cell_length_b 19.741695
_cell_length_c 12.048247
_cell_angle_alpha 154.531157
_cell_angle_beta 28.186288
_cell_angle_gamma 161.551785
_cell_volume 469.776157
_symmetry_space_group_name_H-M "P -1"
_symmetry_group_IT_number 2
_symmetry_cell_setting 'triclinic'
loop_
_space_group_symop_operation_xyz
x,y,z
-x,-y,-z
loop_
_atom_site_type_symbol
_atom_site_label
_atom_site_fract_x
_atom_site_fract_y
_atom_site_fract_z
Si Si1 0.518597 0.852419 0.482330
Si Si2 0.250228 0.650549 0.043362
Si Si3 0.779402 0.846194 0.655037
Si Si4 0.353297 0.067715 0.299204
Si Si5 0.808603 0.276324 0.551075
Si Si6 0.169600 0.240602 0.989534
O O1 0.263630 0.665984 0.394482
O O2 0.592125 0.081836 0.746674
O O3 0.471281 0.776820 0.549684
O O4 0.792769 0.916597 0.242364
O O5 0.127414 0.582823 0.200628
O O6 0.499782 0.675159 0.785014
O O7 0.000000 0.500000 0.000000
O O8 0.015041 0.853202 0.389773
O O9 0.659855 0.823983 0.631097
O O10 0.988925 0.108386 0.874594
O O11 0.500000 0.000000 0.000000
O O12 0.012378 0.259004 0.270204
O O13 0.500000 0.000000 0.500000
O O14 0.500000 0.500000 0.000000
#
# Coordination Sequence:
#
# PCOD9079299 Si02
#       6
#     2   2   2   2   2   2
#     4  10  22  42  67  93 130 174 215 275 327 377
#     4  11  23  43  66  95 133 177 223 264 331 398
#     4  10  21  39  61  92 135 165 211 284 315 380
#     4  10  18  36  66  88 126 170 205 264 345 367
#     4  10  21  43  67  89 139 173 216 273 319 386
#     4  11  23  42  67 100 128 172 227 268 328 390
#
# _framework density 25.544080999999998
#
# number of rings (size 3 to 8) (size 9 to 14) (size 15 to 20)
#    0.000    1.667    5.000    0.000    0.000    7.333 
#    3.000    3.333    0.000    0.000    0.000    0.000 
#    0.000    0.000    0.000    0.000    0.000    0.000 
#
# Total GULP energy -67067.993626 kJ/mol
# GULP energy per Si atom -5588.999469 kJ/mol
# Density = 2.548594 g / cm^3
# Si number density = 25.544081 Si / 1000 Ang^3
#
#
#
# Elastic Constant Matrix: (Units=GPa)
#
#
# Indices 1 2 3 4 5 6 
#
# 1 157.9626 17.6713 71.3611 -12.6303 40.1975 28.3361
# 2 17.6713 98.4866 52.5363 -27.8359 18.1801 8.7026
# 3 71.3611 52.5363 235.4419 -60.0126 10.6594 24.4682
# 4 -12.6303 -27.8359 -60.0126 57.6482 8.5905 2.1418
# 5 40.1975 18.1801 10.6594 8.5905 58.9946 3.9485
# 6 28.3361 8.7026 24.4682 2.1418 3.9485 27.9875
#
#
#
# Elastic Compliance Matrix: (Units=1/GPa)
#
#
# Indices 1 2 3 4 5 6 
#
# 1 0.010586 0.001981 -0.001586 0.003063 -0.007371 -0.009142
# 2 0.001981 0.013992 -0.001089 0.007164 -0.006168 -0.005082
# 3 -0.001586 -0.001089 0.007282 0.006977 -0.000589 -0.004873
# 4 0.003063 0.007164 0.006977 0.030570 -0.009172 -0.012473
# 5 -0.007371 -0.006168 -0.000589 -0.009172 0.024841 0.007093
# 6 -0.009142 -0.005082 -0.004873 -0.012473 0.007093 0.050780
#
#
# Mechanical properties :
#
#
# Convention : Reuss Voigt Hill
#
# Bulk Modulus (GPa) = 32.81768 86.11429 59.46598
# Shear Modulus (GPa) = 33.42311 52.28089 42.85200
#
# Velocity S-wave (km/s) = 3.62117 4.52895 4.10026
# Velocity P-wave (km/s) = 5.50992 7.81880 6.76361
#
# Compressibility (1/GPa) = 0.03047138
#
# Stress axis : x y z
#
# Youngs Moduli (GPa) = 94.46383 71.47143 137.31558
#
# Poissons Ratio (x) = -0.14156 0.21781
# Poissons Ratio (y) = -0.18710 0.14952
# Poissons Ratio (z) = 0.14984 0.07782
#
# Static dielectric constant tensor:
#      x y z
#    x 2.126660 -0.079190 -0.025590 
#    y -0.079190 2.124540 0.003730 
#    z -0.025590 0.003730 2.078270 
# 
# From -- ./inp_files/457718.got.cif
#   From: 2010.05.17/outbox.cif.g08.bks.cpg/sg2_229_cif.got.tgz:457718.got - 2010.06.03 11:33:40.
