data_PCOD9079044
_publ_section_title
;
Structure prediction by ZEFSAII (Michael W. Deem and Ramdas Pophale) SiO2 
 PCOD9079044
Probable space group: P -1
;
_chemical_formula_sum "Si O2"
_cell_formula_units_Z 13
_cell_length_a 10.535973
_cell_length_b 7.900135
_cell_length_c 13.996748
_cell_angle_alpha 110.407959
_cell_angle_beta 150.485821
_cell_angle_gamma 85.868800
_cell_volume 465.474632
_symmetry_space_group_name_H-M "P -1"
_symmetry_group_IT_number 2
_symmetry_cell_setting 'triclinic'
loop_
_space_group_symop_operation_xyz
x,y,z
-x,-y,-z
loop_
_atom_site_type_symbol
_atom_site_label
_atom_site_fract_x
_atom_site_fract_y
_atom_site_fract_z
Si Si1 0.877299 0.054683 0.836128
Si Si2 0.326479 0.631965 0.630392
Si Si3 0.483786 0.107374 0.827781
Si Si4 0.781458 0.024549 0.559837
Si Si5 0.904767 0.465731 0.723955
Si Si6 0.000000 0.500000 0.000000
Si Si7 0.603599 0.389039 0.120971
O O1 0.876133 0.966096 0.710788
O O2 0.054734 0.301438 0.985751
O O3 0.549877 0.014972 0.641698
O O4 0.000000 0.000000 0.000000
O O5 0.340745 0.563868 0.519037
O O6 0.450951 0.590367 0.800075
O O7 0.963361 0.499632 0.374785
O O8 0.449614 0.880077 0.760311
O O9 0.261991 0.093642 0.593277
O O10 0.452221 0.160978 0.927403
O O11 0.801058 0.306116 0.044098
O O12 0.961985 0.271046 0.704641
O O13 0.808509 0.432222 0.762581
O O14 0.500000 0.500000 0.000000
#
# Coordination Sequence:
#
# PCOD9079044 Si02
#       7
#     2   2   2   2   2   1   2
#     4  10  20  37  59  85 116 157 205 246 296 353
#     4   9  20  38  58  84 114 155 191 233 304 350
#     4  10  18  37  62  82 116 160 185 241 306 337
#     4   9  19  37  57  80 119 151 192 252 288 346
#     4   9  18  34  60  82 112 159 194 236 299 345
#     4  10  18  36  62  80 122 160 192 254 292 334
#     4  10  21  38  59  87 117 146 194 245 287 359
#
# _framework density 27.928484999999998
#
# number of rings (size 3 to 8) (size 9 to 14) (size 15 to 20)
#    0.000    2.462    1.538    0.462    0.000    0.615 
#    2.769   22.308    0.000    0.000    0.000    0.000 
#    0.000    0.000    0.000    0.000    0.000    0.000 
#
# Total GULP energy -72367.923003 kJ/mol
# GULP energy per Si atom -5566.763308 kJ/mol
# Density = 2.786492 g / cm^3
# Si number density = 27.928485 Si / 1000 Ang^3
#
#
#
# Elastic Constant Matrix: (Units=GPa)
#
#
# Indices 1 2 3 4 5 6 
#
# 1 60.4096 25.5783 71.0773 -25.1875 -22.2622 23.5479
# 2 25.5783 113.5065 89.1653 -29.3977 -38.0931 14.9846
# 3 71.0773 89.1653 254.1727 -37.1787 -54.0271 24.8971
# 4 -25.1875 -29.3977 -37.1787 81.0672 20.7835 -19.2236
# 5 -22.2622 -38.0931 -54.0271 20.7835 77.4208 -15.1961
# 6 23.5479 14.9846 24.8971 -19.2236 -15.1961 28.1872
#
#
#
# Elastic Compliance Matrix: (Units=1/GPa)
#
#
# Indices 1 2 3 4 5 6 
#
# 1 0.034185 0.002000 -0.007701 0.002766 0.000658 -0.020578
# 2 0.002000 0.013550 -0.004062 0.002362 0.003413 -0.001835
# 3 -0.007701 -0.004062 0.007575 -0.000181 0.001645 0.002665
# 4 0.002766 0.002362 -0.000181 0.015866 -0.001088 0.006828
# 5 0.000658 0.003413 0.001645 -0.001088 0.017144 0.004683
# 6 -0.020578 -0.001835 0.002665 0.006828 0.004683 0.058471
#
#
# Mechanical properties :
#
#
# Convention : Reuss Voigt Hill
#
# Bulk Modulus (GPa) = 27.94547 88.85895 58.40221
# Shear Modulus (GPa) = 28.05128 53.48623 40.76875
#
# Velocity S-wave (km/s) = 3.17266 4.38095 3.82482
# Velocity P-wave (km/s) = 4.84240 7.58129 6.36101
#
# Compressibility (1/GPa) = 0.03578398
#
# Stress axis : x y z
#
# Youngs Moduli (GPa) = 29.25251 73.80294 132.01700
#
# Poissons Ratio (x) = -0.14761 1.01665
# Poissons Ratio (y) = -0.05851 0.53623
# Poissons Ratio (z) = 0.22527 0.29977
#
# Static dielectric constant tensor:
#      x y z
#    x 2.913120 -0.053750 0.158590 
#    y -0.053750 2.230470 0.019750 
#    z 0.158590 0.019750 2.313920 
# 
# From -- ./inp_files/103587.got.cif
#   From: 2010.05.17/outbox.cif.g08.bks.cpg/sg2_52_cif.got.tgz:103587.got - 2010.06.03 11:33:40.
