data_PCOD9079682
_publ_section_title
;
Structure prediction by ZEFSAII (Michael W. Deem and Ramdas Pophale) SiO2 
 PCOD9079682
Probable space group: P -1
;
_chemical_formula_sum "Si O2"
_cell_formula_units_Z 16
_cell_length_a 8.813460
_cell_length_b 7.194286
_cell_length_c 18.146696
_cell_angle_alpha 141.424367
_cell_angle_beta 125.540269
_cell_angle_gamma 58.886209
_cell_volume 579.388233
_symmetry_space_group_name_H-M "P -1"
_symmetry_group_IT_number 2
_symmetry_cell_setting 'triclinic'
loop_
_space_group_symop_operation_xyz
x,y,z
-x,-y,-z
loop_
_atom_site_type_symbol
_atom_site_label
_atom_site_fract_x
_atom_site_fract_y
_atom_site_fract_z
Si Si1 0.791301 0.071106 0.876802
Si Si2 0.525169 0.367504 0.704062
Si Si3 0.076906 0.200538 0.321588
Si Si4 0.711520 0.978771 0.133086
Si Si5 0.157207 0.225052 0.612444
Si Si6 0.169268 0.297144 0.073119
Si Si7 0.582544 0.525082 0.449717
Si Si8 0.369093 0.172543 0.789113
O O1 0.862134 0.845851 0.760928
O O2 0.787900 0.890234 0.896980
O O3 0.581403 0.202012 0.835178
O O4 0.946823 0.299485 0.998468
O O5 0.412742 0.695716 0.796394
O O6 0.372300 0.150373 0.619360
O O7 0.734813 0.395629 0.800911
O O8 0.546463 0.369612 0.622840
O O9 0.260057 0.249048 0.433432
O O10 0.920812 0.987715 0.227449
O O11 0.946112 0.517775 0.387453
O O12 0.629409 0.773562 0.106928
O O13 0.735867 0.879294 0.025382
O O14 0.207226 0.340207 0.744392
O O15 0.000000 0.000000 0.500000
O O16 0.500000 0.500000 0.500000
O O17 0.657517 0.178584 0.342679
#
# Coordination Sequence:
#
# PCOD9079682 Si02
#       8
#     2   2   2   2   2   2   2   2
#     4  10  20  35  67  90 112 151 199 252 285 351
#     4  10  21  35  58  90 119 156 196 243 289 352
#     4  10  20  37  60  89 116 154 196 242 295 350
#     4   9  20  33  63  86 115 151 200 247 285 348
#     4  11  24  38  57  85 129 160 190 239 299 356
#     4  10  18  37  63  88 113 148 209 244 291 334
#     4  11  19  34  63  88 118 148 202 247 292 342
#     4  11  21  37  57  90 119 153 197 240 299 342
#
# _framework density 27.615335000000002
#
# number of rings (size 3 to 8) (size 9 to 14) (size 15 to 20)
#    0.000    1.750    5.000    0.375    1.750    1.500 
#    0.000    1.875   11.000    0.000    0.000    0.000 
#    0.000    0.000    0.000    0.000    0.000    0.000 
#
# Total GULP energy -89537.959958 kJ/mol
# GULP energy per Si atom -5596.122497 kJ/mol
# Density = 2.755248 g / cm^3
# Si number density = 27.615335 Si / 1000 Ang^3
#
#
#
# Elastic Constant Matrix: (Units=GPa)
#
#
# Indices 1 2 3 4 5 6 
#
# 1 145.4088 23.6545 61.4417 -2.1894 24.7377 15.5462
# 2 23.6545 55.5725 23.0275 -6.9461 5.5641 16.0181
# 3 61.4417 23.0275 166.1610 1.5335 37.3164 6.6377
# 4 -2.1894 -6.9461 1.5335 42.2802 0.8964 5.8212
# 5 24.7377 5.5641 37.3164 0.8964 78.7935 -7.5772
# 6 15.5462 16.0181 6.6377 5.8212 -7.5772 53.7987
#
#
#
# Elastic Compliance Matrix: (Units=1/GPa)
#
#
# Indices 1 2 3 4 5 6 
#
# 1 0.008745 -0.001884 -0.002540 0.000536 -0.001602 -0.001936
# 2 -0.001884 0.022091 -0.001998 0.004496 -0.000686 -0.006369
# 3 -0.002540 -0.001998 0.007862 -0.000692 -0.002773 0.000043
# 4 0.000536 0.004496 -0.000692 0.025045 -0.000850 -0.004238
# 5 -0.001602 -0.000686 -0.002773 -0.000850 0.014873 0.003196
# 6 -0.001936 -0.006369 0.000043 -0.004238 0.003196 0.021947
#
#
# Mechanical properties :
#
#
# Convention : Reuss Voigt Hill
#
# Bulk Modulus (GPa) = 38.68054 64.82108 51.75081
# Shear Modulus (GPa) = 40.97566 52.24241 46.60903
#
# Velocity S-wave (km/s) = 3.85619 4.35419 4.11274
# Velocity P-wave (km/s) = 5.81930 6.98587 6.42910
#
# Compressibility (1/GPa) = 0.02585279
#
# Stress axis : x y z
#
# Youngs Moduli (GPa) = 114.35641 45.26768 127.19719
#
# Poissons Ratio (x) = 0.08529 0.32312
# Poissons Ratio (y) = 0.21546 0.25411
# Poissons Ratio (z) = 0.29050 0.09043
#
# Static dielectric constant tensor:
#      x y z
#    x 2.189600 -0.042530 0.018170 
#    y -0.042530 2.206470 0.048170 
#    z 0.018170 0.048170 2.140780 
# 
# From -- ./inp_files/355556.got.cif
#   From: 2010.05.17/outbox.cif.g08.bks.cpg/sg2_178_cif.got.tgz:355556.got - 2010.06.03 11:33:40.
