data_PCOD9079026
_publ_section_title
;
Structure prediction by ZEFSAII (Michael W. Deem and Ramdas Pophale) SiO2 
 PCOD9079026
Probable space group: P -1
;
_chemical_formula_sum "Si O2"
_cell_formula_units_Z 16
_cell_length_a 10.621649
_cell_length_b 7.822347
_cell_length_c 9.522594
_cell_angle_alpha 85.162329
_cell_angle_beta 68.791420
_cell_angle_gamma 76.293323
_cell_volume 716.601552
_symmetry_space_group_name_H-M "P -1"
_symmetry_group_IT_number 2
_symmetry_cell_setting 'triclinic'
loop_
_space_group_symop_operation_xyz
x,y,z
-x,-y,-z
loop_
_atom_site_type_symbol
_atom_site_label
_atom_site_fract_x
_atom_site_fract_y
_atom_site_fract_z
Si Si1 0.909220 0.327253 0.155731
Si Si2 0.894394 0.328100 0.676621
Si Si3 0.769924 0.760330 0.943198
Si Si4 0.092384 0.981181 0.605056
Si Si5 0.699776 0.851318 0.637631
Si Si6 0.850352 0.516012 0.422233
Si Si7 0.300398 0.599768 0.007061
Si Si8 0.569215 0.077249 0.101676
O O1 0.822585 0.489599 0.273048
O O2 0.828819 0.320481 0.046586
O O3 0.071230 0.324716 0.075416
O O4 0.904110 0.164055 0.270085
O O5 0.853398 0.344175 0.528456
O O6 0.001906 0.158897 0.700033
O O7 0.988676 0.470303 0.646081
O O8 0.755063 0.368584 0.815404
O O9 0.761442 0.816381 0.775739
O O10 0.679504 0.610766 0.007763
O O11 0.712847 0.931277 0.051067
O O12 0.237472 0.008440 0.484251
O O13 0.000000 0.000000 0.500000
O O14 0.753837 0.674771 0.535349
O O15 0.536864 0.914099 0.727685
O O16 0.407984 0.724039 0.934238
O O17 0.500000 0.000000 0.000000
#
# Coordination Sequence:
#
# PCOD9079026 Si02
#       8
#     2   2   2   2   2   2   2   2
#     4  12  23  39  65 106 131 168 209 280 346 386
#     4  10  19  34  61  91 125 166 205 270 324 375
#     4  11  21  42  70  98 136 166 217 276 333 390
#     4  11  20  35  64  93 130 164 220 277 325 380
#     4  10  21  42  63  93 126 174 228 271 308 388
#     4  10  18  36  61  91 129 159 212 264 321 382
#     4  12  25  42  65 101 138 170 218 267 342 395
#     4  10  26  44  65  95 131 181 227 265 316 395
#
# _framework density 22.327608000000001
#
# number of rings (size 3 to 8) (size 9 to 14) (size 15 to 20)
#    0.000    1.250    5.000    1.875    1.750    4.000 
#    4.500    1.250    0.000    0.000    0.000    0.000 
#    0.000    0.000    0.000    0.000    0.000    0.000 
#
# Total GULP energy -89143.307592 kJ/mol
# GULP energy per Si atom -5571.456725 kJ/mol
# Density = 2.227679 g / cm^3
# Si number density = 22.327608 Si / 1000 Ang^3
#
#
#
# Elastic Constant Matrix: (Units=GPa)
#
#
# Indices 1 2 3 4 5 6 
#
# 1 53.1581 16.4187 16.2280 3.0580 -2.2276 3.1481
# 2 16.4187 76.7150 30.2809 -11.7436 -21.7597 7.7095
# 3 16.2280 30.2809 62.5039 7.1751 -25.2787 -1.7273
# 4 3.0580 -11.7436 7.1751 36.7764 -5.4618 -13.5342
# 5 -2.2276 -21.7597 -25.2787 -5.4618 34.6645 -4.8026
# 6 3.1481 7.7095 -1.7273 -13.5342 -4.8026 25.6566
#
#
#
# Elastic Compliance Matrix: (Units=1/GPa)
#
#
# Indices 1 2 3 4 5 6 
#
# 1 0.022572 -0.004858 -0.006215 -0.005665 -0.007882 -0.006192
# 2 -0.004858 0.020664 -0.005732 0.010101 0.010243 0.001247
# 3 -0.006215 -0.005732 0.027529 -0.001810 0.016694 0.006509
# 4 -0.005665 0.010101 -0.001810 0.041488 0.014254 0.022092
# 5 -0.007882 0.010243 0.016694 0.014254 0.051430 0.016160
# 6 -0.006192 0.001247 0.006509 0.022092 0.016160 0.054478
#
#
# Mechanical properties :
#
#
# Convention : Reuss Voigt Hill
#
# Bulk Modulus (GPa) = 26.91499 35.35914 31.13706
# Shear Modulus (GPa) = 18.92814 28.04946 23.48880
#
# Velocity S-wave (km/s) = 2.91477 3.54823 3.24698
# Velocity P-wave (km/s) = 4.83824 5.71467 5.29462
#
# Compressibility (1/GPa) = 0.03715402
#
# Stress axis : x y z
#
# Youngs Moduli (GPa) = 44.30261 48.39350 36.32531
#
# Poissons Ratio (x) = 0.23511 0.22577
# Poissons Ratio (y) = 0.21523 0.20821
# Poissons Ratio (z) = 0.27536 0.27739
#
# Static dielectric constant tensor:
#      x y z
#    x 1.878200 -0.068420 -0.020370 
#    y -0.068420 2.376800 0.119710 
#    z -0.020370 0.119710 1.821690 
# 
# From -- ./inp_files/238223.got.cif
#   From: 2010.05.17/outbox.cif.g08.bks.cpg/sg2_120_cif.got.tgz:238223.got - 2010.06.03 11:33:40.
