data_PCOD9079950
_publ_section_title
;
Structure prediction by ZEFSAII (Michael W. Deem and Ramdas Pophale) SiO2 
 PCOD9079950
Probable space group: P -1
;
_chemical_formula_sum "Si O2"
_cell_formula_units_Z 16
_cell_length_a 10.027788
_cell_length_b 11.410891
_cell_length_c 17.222373
_cell_angle_alpha 126.456209
_cell_angle_beta 144.917935
_cell_angle_gamma 42.082801
_cell_volume 758.665283
_symmetry_space_group_name_H-M "P -1"
_symmetry_group_IT_number 2
_symmetry_cell_setting 'triclinic'
loop_
_space_group_symop_operation_xyz
x,y,z
-x,-y,-z
loop_
_atom_site_type_symbol
_atom_site_label
_atom_site_fract_x
_atom_site_fract_y
_atom_site_fract_z
Si Si1 0.342540 0.528926 0.145859
Si Si2 0.729047 0.881480 0.152049
Si Si3 0.372251 0.385994 0.808425
Si Si4 0.261509 0.368570 0.338706
Si Si5 0.332732 0.589569 0.343927
Si Si6 0.268481 0.854549 0.991143
Si Si7 0.315629 0.011824 0.222693
Si Si8 0.731489 0.767404 0.943765
O O1 0.568497 0.514970 0.189939
O O2 0.370275 0.587880 0.268585
O O3 0.331045 0.364734 0.099092
O O4 0.039396 0.659515 0.013019
O O5 0.528179 0.815087 0.048772
O O6 0.027099 0.760244 0.284772
O O7 0.548056 0.081813 0.170621
O O8 0.773474 0.865740 0.074592
O O9 0.606055 0.312678 0.958824
O O10 0.064620 0.506202 0.744230
O O11 0.447403 0.195560 0.734765
O O12 0.315615 0.429935 0.305921
O O13 0.432653 0.405239 0.496523
O O14 0.366926 0.165196 0.313272
O O15 0.225303 0.006452 0.088922
O O16 0.969787 0.923009 0.840209
#
# Coordination Sequence:
#
# PCOD9079950 Si02
#       8
#     2   2   2   2   2   2   2   2
#     4  10  21  38  58  86 124 152 189 248 301 347
#     4  10  18  38  58  88 118 151 200 240 293 361
#     4  10  21  39  58  89 119 149 199 245 291 356
#     4  11  23  42  63  84 117 163 204 243 286 345
#     4  10  23  42  58  85 119 154 207 245 278 356
#     4   9  19  35  58  90 118 146 194 246 294 357
#     4   9  21  37  58  90 121 151 189 250 303 341
#     4   9  21  33  60  88 119 155 188 240 310 354
#
# _framework density 21.089670999999999
#
# number of rings (size 3 to 8) (size 9 to 14) (size 15 to 20)
#    0.750    1.500    1.250    0.750    3.500    3.000 
#    2.250    2.500    0.000    0.000    0.000    0.000 
#    0.000    0.000    0.000    0.000    0.000    0.000 
#
# Total GULP energy -89079.803158 kJ/mol
# GULP energy per Si atom -5567.487697 kJ/mol
# Density = 2.104167 g / cm^3
# Si number density = 21.089671 Si / 1000 Ang^3
#
#
#
# Elastic Constant Matrix: (Units=GPa)
#
#
# Indices 1 2 3 4 5 6 
#
# 1 77.9980 -4.1144 4.9991 6.0141 11.0618 5.9424
# 2 -4.1144 74.5988 7.8240 4.5252 6.6763 4.6921
# 3 4.9991 7.8240 44.1521 5.4297 6.1036 -3.3401
# 4 6.0141 4.5252 5.4297 22.7310 4.8137 1.9468
# 5 11.0618 6.6763 6.1036 4.8137 21.3619 -0.2326
# 6 5.9424 4.6921 -3.3401 1.9468 -0.2326 26.0156
#
#
#
# Elastic Compliance Matrix: (Units=1/GPa)
#
#
# Indices 1 2 3 4 5 6 
#
# 1 0.014475 0.001921 -0.000980 -0.002099 -0.007383 -0.003687
# 2 0.001921 0.014451 -0.002195 -0.001618 -0.004555 -0.003247
# 3 -0.000980 -0.002195 0.024678 -0.004534 -0.004792 0.004084
# 4 -0.002099 -0.001618 -0.004534 0.047934 -0.007951 -0.003469
# 5 -0.007383 -0.004555 -0.004792 -0.007951 0.055252 0.002982
# 6 -0.003687 -0.003247 0.004084 -0.003469 0.002982 0.040677
#
#
# Mechanical properties :
#
#
# Convention : Reuss Voigt Hill
#
# Bulk Modulus (GPa) = 19.57087 23.79626 21.68356
# Shear Modulus (GPa) = 23.04070 26.55769 24.79920
#
# Velocity S-wave (km/s) = 3.30890 3.55248 3.43285
# Velocity P-wave (km/s) = 4.88860 5.30421 5.10064
#
# Compressibility (1/GPa) = 0.05109636
#
# Stress axis : x y z
#
# Youngs Moduli (GPa) = 69.08542 69.19816 40.52218
#
# Poissons Ratio (x) = -0.13294 0.03969
# Poissons Ratio (y) = -0.13272 0.08896
# Poissons Ratio (z) = 0.06767 0.15191
#
# Static dielectric constant tensor:
#      x y z
#    x 1.840060 -0.021410 -0.010100 
#    y -0.021410 1.858770 0.010450 
#    z -0.010100 0.010450 1.743270 
# 
# From -- ./inp_files/594966.got.cif
#   From: 2010.05.17/outbox.cif.g08.bks.cpg/sg2_298_cif.got.tgz:594966.got - 2010.06.03 11:33:40.
