data_PCOD9079724
_publ_section_title
;
Structure prediction by ZEFSAII (Michael W. Deem and Ramdas Pophale) SiO2 
 PCOD9079724
Probable space group: P -1
;
_chemical_formula_sum "Si O2"
_cell_formula_units_Z 16
_cell_length_a 33.677283
_cell_length_b 16.997922
_cell_length_c 9.857887
_cell_angle_alpha 144.453842
_cell_angle_beta 145.434624
_cell_angle_gamma 16.222691
_cell_volume 884.999847
_symmetry_space_group_name_H-M "P -1"
_symmetry_group_IT_number 2
_symmetry_cell_setting 'triclinic'
loop_
_space_group_symop_operation_xyz
x,y,z
-x,-y,-z
loop_
_atom_site_type_symbol
_atom_site_label
_atom_site_fract_x
_atom_site_fract_y
_atom_site_fract_z
Si Si1 0.539352 0.300250 0.742246
Si Si2 0.159405 0.947530 0.911014
Si Si3 0.919612 0.841157 0.524431
Si Si4 0.235583 0.698470 0.483792
Si Si5 0.606839 0.288209 0.625399
Si Si6 0.878908 0.692539 0.813140
Si Si7 0.835714 0.749664 0.334774
Si Si8 0.929800 0.296490 0.979056
O O1 0.412201 0.409026 0.567162
O O2 0.531537 0.353763 0.637254
O O3 0.710644 0.968398 0.778792
O O4 0.500000 0.500000 0.000000
O O5 0.188276 0.823340 0.677478
O O6 0.307616 0.723598 0.099251
O O7 0.039426 0.086891 0.867090
O O8 0.112907 0.180317 0.067634
O O9 0.065985 0.527005 0.428949
O O10 0.822390 0.877224 0.351197
O O11 0.971433 0.835008 0.795099
O O12 0.834294 0.076839 0.505685
O O13 0.170370 0.662495 0.220055
O O14 0.500000 0.500000 0.500000
O O15 0.724238 0.984434 0.466552
O O16 0.000000 0.500000 0.000000
O O17 0.000000 0.500000 0.500000
O O18 0.834517 0.591896 0.087517
#
# Coordination Sequence:
#
# PCOD9079724 Si02
#       8
#     2   2   2   2   2   2   2   2
#     4  11  21  37  58  88 122 153 195 242 300 359
#     4  11  20  39  59  90 119 156 198 250 296 358
#     4  11  20  38  63  91 112 158 211 245 281 355
#     4  12  24  38  59  91 127 157 189 251 309 351
#     4  11  21  36  61  91 114 149 206 252 291 340
#     4  11  20  37  65  91 114 150 211 252 289 344
#     4  10  18  37  64  84 114 151 206 246 280 346
#     4  11  22  38  62  89 122 159 200 243 300 356
#
# _framework density 18.0791
#
# number of rings (size 3 to 8) (size 9 to 14) (size 15 to 20)
#    0.000    1.000    7.500    3.750    0.000    0.000 
#    0.000    2.500    0.000    1.500    0.000    0.000 
#    0.000    0.000    0.000    0.000    0.000    0.000 
#
# Total GULP energy -89282.732851 kJ/mol
# GULP energy per Si atom -5580.170803 kJ/mol
# Density = 1.803795 g / cm^3
# Si number density = 18.079100 Si / 1000 Ang^3
#
#
#
# Elastic Constant Matrix: (Units=GPa)
#
#
# Indices 1 2 3 4 5 6 
#
# 1 104.3301 48.7829 52.5975 -0.6457 -10.1798 -11.2850
# 2 48.7829 90.7815 33.7998 -6.1032 -10.3394 -2.4702
# 3 52.5975 33.7998 75.2941 -2.3558 -5.7018 5.7454
# 4 -0.6457 -6.1032 -2.3558 27.7751 -1.0768 -9.1898
# 5 -10.1798 -10.3394 -5.7018 -1.0768 39.3439 3.2558
# 6 -11.2850 -2.4702 5.7454 -9.1898 3.2558 33.6225
#
#
#
# Elastic Compliance Matrix: (Units=1/GPa)
#
#
# Indices 1 2 3 4 5 6 
#
# 1 0.018741 -0.005527 -0.011098 0.000948 0.001158 0.007927
# 2 -0.005527 0.015552 -0.002878 0.003284 0.002292 0.000455
# 3 -0.011098 -0.002878 0.022936 -0.001695 0.000341 -0.008352
# 4 0.000948 0.003284 -0.001695 0.040559 0.000993 0.011839
# 5 0.001158 0.002292 0.000341 0.000993 0.026544 -0.001800
# 6 0.007927 0.000455 -0.008352 0.011839 -0.001800 0.037273
#
#
# Mechanical properties :
#
#
# Convention : Reuss Voigt Hill
#
# Bulk Modulus (GPa) = 54.88146 60.08511 57.48328
# Shear Modulus (GPa) = 24.19138 29.16335 26.67736
#
# Velocity S-wave (km/s) = 3.66195 4.02070 3.84551
# Velocity P-wave (km/s) = 6.94997 7.40685 7.18204
#
# Compressibility (1/GPa) = 0.01822109
#
# Stress axis : x y z
#
# Youngs Moduli (GPa) = 53.35993 64.30240 43.59980
#
# Poissons Ratio (x) = 0.35542 0.48386
# Poissons Ratio (y) = 0.29494 0.12550
# Poissons Ratio (z) = 0.59218 0.18508
#
# Static dielectric constant tensor:
#      x y z
#    x 1.651060 0.013110 -0.023780 
#    y 0.013110 1.675970 -0.012020 
#    z -0.023780 -0.012020 1.627490 
# 
# From -- ./inp_files/358893.got.cif
#   From: 2010.05.17/outbox.cif.g08.bks.cpg/sg2_180_cif.got.tgz:358893.got - 2010.06.03 11:33:40.
