data_PCOD9079840
_publ_section_title
;
Structure prediction by ZEFSAII (Michael W. Deem and Ramdas Pophale) SiO2 
 PCOD9079840
Probable space group: P -1
;
_chemical_formula_sum "Si O2"
_cell_formula_units_Z 16
_cell_length_a 13.083470
_cell_length_b 9.286305
_cell_length_c 9.556381
_cell_angle_alpha 72.257114
_cell_angle_beta 106.614846
_cell_angle_gamma 49.491080
_cell_volume 625.504152
_symmetry_space_group_name_H-M "P -1"
_symmetry_group_IT_number 2
_symmetry_cell_setting 'triclinic'
loop_
_space_group_symop_operation_xyz
x,y,z
-x,-y,-z
loop_
_atom_site_type_symbol
_atom_site_label
_atom_site_fract_x
_atom_site_fract_y
_atom_site_fract_z
Si Si1 0.660605 0.220081 0.853269
Si Si2 0.789053 0.598280 0.757643
Si Si3 0.390829 0.076441 0.798889
Si Si4 0.612148 0.545528 0.105350
Si Si5 0.459170 0.868010 0.388136
Si Si6 0.915964 0.198157 0.529195
Si Si7 0.922467 0.715155 0.274198
Si Si8 0.098760 0.813005 0.922087
O O1 0.507698 0.428809 0.851087
O O2 0.812808 0.175924 0.931478
O O3 0.579466 0.246999 0.668985
O O4 0.766409 0.953957 0.036301
O O5 0.718717 0.837404 0.720119
O O6 0.908681 0.498009 0.698522
O O7 0.901867 0.358067 0.974369
O O8 0.610146 0.702929 0.617864
O O9 0.179190 0.301628 0.679956
O O10 0.450231 0.119426 0.689014
O O11 0.500000 0.000000 0.000000
O O12 0.474022 0.813236 0.890837
O O13 0.736125 0.467404 0.305786
O O14 0.757610 0.340153 0.104764
O O15 0.038997 0.193309 0.631287
O O16 0.000000 0.000000 0.500000
O O17 0.916365 0.089471 0.698694
#
# Coordination Sequence:
#
# PCOD9079840 Si02
#       8
#     2   2   2   2   2   2   2   2
#     4  10  21  38  66  93 123 168 220 266 312 376
#     4  11  25  42  64  92 134 175 207 262 326 391
#     4  11  21  41  70  93 124 170 222 267 320 371
#     4  10  18  37  66  96 126 162 216 272 314 368
#     4  11  23  44  64  93 133 170 216 265 315 389
#     4   9  20  38  62  99 129 159 212 276 315 373
#     4  10  22  39  67  96 126 168 216 263 322 379
#     4  10  21  39  65  93 129 171 210 261 327 382
#
# _framework density 25.579366
#
# number of rings (size 3 to 8) (size 9 to 14) (size 15 to 20)
#    0.000    1.750    3.750    1.125    0.000    4.500 
#    0.000    1.250    8.250    0.750    0.000    0.000 
#    0.000    0.000    0.000    0.000    0.000    0.000 
#
# Total GULP energy -89338.007143 kJ/mol
# GULP energy per Si atom -5583.625446 kJ/mol
# Density = 2.552115 g / cm^3
# Si number density = 25.579366 Si / 1000 Ang^3
#
#
#
# Elastic Constant Matrix: (Units=GPa)
#
#
# Indices 1 2 3 4 5 6 
#
# 1 101.2149 47.0637 35.4454 5.2683 4.6461 -16.4950
# 2 47.0637 116.6600 15.0270 11.1977 -10.2059 -15.8160
# 3 35.4454 15.0270 103.8859 3.3850 -4.4129 7.1487
# 4 5.2683 11.1977 3.3850 38.0942 4.8171 -6.6466
# 5 4.6461 -10.2059 -4.4129 4.8171 33.8240 -9.9861
# 6 -16.4950 -15.8160 7.1487 -6.6466 -9.9861 25.0194
#
#
#
# Elastic Compliance Matrix: (Units=1/GPa)
#
#
# Indices 1 2 3 4 5 6 
#
# 1 0.015224 -0.004672 -0.005209 0.001403 -0.001972 0.008158
# 2 -0.004672 0.012228 -0.000268 -0.002597 0.006641 0.006687
# 3 -0.005209 -0.000268 0.012011 -0.001584 0.000256 -0.007354
# 4 0.001403 -0.002597 -0.001584 0.028431 -0.003492 0.005895
# 5 -0.001972 0.006641 0.000256 -0.003492 0.037329 0.016796
# 6 0.008158 0.006687 -0.007354 0.005895 0.016796 0.059946
#
#
# Mechanical properties :
#
#
# Convention : Reuss Voigt Hill
#
# Bulk Modulus (GPa) = 52.18218 57.42589 54.80403
# Shear Modulus (GPa) = 26.06145 34.33583 30.19864
#
# Velocity S-wave (km/s) = 3.19540 3.66775 3.43969
# Velocity P-wave (km/s) = 5.83597 6.35888 6.10303
#
# Compressibility (1/GPa) = 0.01916363
#
# Stress axis : x y z
#
# Youngs Moduli (GPa) = 65.68790 81.77935 83.25942
#
# Poissons Ratio (x) = 0.38206 0.43372
# Poissons Ratio (y) = 0.30688 0.02233
# Poissons Ratio (z) = 0.34219 0.02193
#
# Static dielectric constant tensor:
#      x y z
#    x 2.009180 -0.004560 0.002490 
#    y -0.004560 2.110570 -0.062340 
#    z 0.002490 -0.062340 2.099450 
# 
# From -- ./inp_files/321021.got.cif
#   From: 2010.05.17/outbox.cif.g08.bks.cpg/sg2_161_cif.got.tgz:321021.got - 2010.06.03 11:33:40.
