data_PCOD9079212
_publ_section_title
;
Structure prediction by ZEFSAII (Michael W. Deem and Ramdas Pophale) SiO2 
 PCOD9079212
Probable space group: P -1
;
_chemical_formula_sum "Si O2"
_cell_formula_units_Z 14
_cell_length_a 9.572263
_cell_length_b 14.959330
_cell_length_c 9.253300
_cell_angle_alpha 139.761445
_cell_angle_beta 61.858489
_cell_angle_gamma 93.103508
_cell_volume 636.671302
_symmetry_space_group_name_H-M "P -1"
_symmetry_group_IT_number 2
_symmetry_cell_setting 'triclinic'
loop_
_space_group_symop_operation_xyz
x,y,z
-x,-y,-z
loop_
_atom_site_type_symbol
_atom_site_label
_atom_site_fract_x
_atom_site_fract_y
_atom_site_fract_z
Si Si1 0.169433 0.848799 0.148482
Si Si2 0.167351 0.543818 0.710428
Si Si3 0.256438 0.225983 0.822927
Si Si4 0.615697 0.143701 0.713727
Si Si5 0.280919 0.636584 0.237574
Si Si6 0.274788 0.694698 0.622701
Si Si7 0.312645 0.372261 0.704444
O O1 0.169761 0.685025 0.978360
O O2 0.354407 0.833638 0.104874
O O3 0.163203 0.846219 0.974792
O O4 0.000000 0.000000 0.500000
O O5 0.955423 0.628529 0.863842
O O6 0.292491 0.540532 0.511546
O O7 0.227592 0.402079 0.622262
O O8 0.406682 0.225898 0.855411
O O9 0.304466 0.245171 0.657458
O O10 0.282809 0.049289 0.606474
O O11 0.712751 0.224840 0.682933
O O12 0.187313 0.705304 0.523311
O O13 0.500000 0.500000 0.000000
O O14 0.213944 0.537250 0.055499
O O15 0.475951 0.671920 0.476408
#
# Coordination Sequence:
#
# PCOD9079212 Si02
#       7
#     2   2   2   2   2   2   2
#     4  10  20  39  64  86 118 164 208 239 299 369
#     4  10  21  37  64  88 124 156 205 252 301 351
#     4  11  23  36  61  93 125 160 198 256 318 345
#     4  11  20  38  65  82 126 167 201 241 314 365
#     4  10  18  36  64  90 113 160 211 241 287 372
#     4   9  20  36  65  92 113 159 218 246 288 374
#     4  11  20  39  66  89 120 164 208 249 299 362
#
# _framework density 21.989367999999999
#
# number of rings (size 3 to 8) (size 9 to 14) (size 15 to 20)
#    0.857    0.857    5.714    0.857    0.000    0.000 
#    0.000    4.286    3.143    0.000    0.000    0.000 
#    0.000    0.000    0.000    0.000    0.000    0.000 
#
# Total GULP energy -78023.424456 kJ/mol
# GULP energy per Si atom -5573.101747 kJ/mol
# Density = 2.193932 g / cm^3
# Si number density = 21.989368 Si / 1000 Ang^3
#
#
#
# Elastic Constant Matrix: (Units=GPa)
#
#
# Indices 1 2 3 4 5 6 
#
# 1 50.3339 1.2251 0.2268 2.0313 -0.4506 -1.1307
# 2 1.2251 100.9992 13.9831 1.1078 6.5014 9.4252
# 3 0.2268 13.9831 69.7092 -13.8063 15.7469 6.3592
# 4 2.0313 1.1078 -13.8063 27.2199 -4.7402 1.8880
# 5 -0.4506 6.5014 15.7469 -4.7402 34.2472 -6.9375
# 6 -1.1307 9.4252 6.3592 1.8880 -6.9375 20.2693
#
#
#
# Elastic Compliance Matrix: (Units=1/GPa)
#
#
# Indices 1 2 3 4 5 6 
#
# 1 0.020004 -0.000357 -0.000717 -0.001838 0.000802 0.001952
# 2 -0.000357 0.010780 -0.001275 -0.001156 -0.002731 -0.005459
# 3 -0.000717 -0.001275 0.019367 0.008960 -0.009370 -0.009565
# 4 -0.001838 -0.001156 0.008960 0.042003 0.000661 -0.006063
# 5 0.000802 -0.002731 -0.009370 0.000661 0.037583 0.017056
# 6 0.001952 -0.005459 -0.009565 -0.006063 0.017056 0.061387
#
#
# Mechanical properties :
#
#
# Convention : Reuss Voigt Hill
#
# Bulk Modulus (GPa) = 22.00036 27.99024 24.99530
# Shear Modulus (GPa) = 23.69972 30.05441 26.87707
#
# Velocity S-wave (km/s) = 3.28652 3.70100 3.49990
# Velocity P-wave (km/s) = 4.94250 5.56954 5.26536
#
# Compressibility (1/GPa) = 0.04545380
#
# Stress axis : x y z
#
# Youngs Moduli (GPa) = 49.98889 92.76538 51.63356
#
# Poissons Ratio (x) = 0.03312 0.03700
# Poissons Ratio (y) = 0.01785 0.06584
# Poissons Ratio (z) = 0.03582 0.11830
#
# Static dielectric constant tensor:
#      x y z
#    x 1.854810 -0.047600 -0.012310 
#    y -0.047600 1.859480 -0.014920 
#    z -0.012310 -0.014920 1.858740 
# 
# From -- ./inp_files/268788.got.cif
#   From: 2010.05.17/outbox.cif.g08.bks.cpg/sg2_135_cif.got.tgz:268788.got - 2010.06.03 11:33:40.
