data_PCOD9079780
_publ_section_title
;
Structure prediction by ZEFSAII (Michael W. Deem and Ramdas Pophale) SiO2 
 PCOD9079780
Probable space group: P -1
;
_chemical_formula_sum "Si O2"
_cell_formula_units_Z 16
_cell_length_a 13.701296
_cell_length_b 20.743678
_cell_length_c 9.301982
_cell_angle_alpha 28.184784
_cell_angle_beta 140.842365
_cell_angle_gamma 146.867457
_cell_volume 675.348653
_symmetry_space_group_name_H-M "P -1"
_symmetry_group_IT_number 2
_symmetry_cell_setting 'triclinic'
loop_
_space_group_symop_operation_xyz
x,y,z
-x,-y,-z
loop_
_atom_site_type_symbol
_atom_site_label
_atom_site_fract_x
_atom_site_fract_y
_atom_site_fract_z
Si Si1 0.500971 0.074140 0.010114
Si Si2 0.147060 0.576325 0.229404
Si Si3 0.543580 0.622819 0.971561
Si Si4 0.411668 0.568875 0.370193
Si Si5 0.021805 0.226733 0.306325
Si Si6 0.812619 0.602279 0.122714
Si Si7 0.700263 0.953209 0.645006
Si Si8 0.713379 0.890448 0.088746
O O1 0.543218 0.985761 0.359556
O O2 0.668171 0.257695 0.839025
O O3 0.314713 0.055428 0.893190
O O4 0.500000 0.000000 0.000000
O O5 0.206369 0.516018 0.276258
O O6 0.098379 0.449016 0.551112
O O7 0.005146 0.633264 0.937305
O O8 0.341212 0.560260 0.812491
O O9 0.628908 0.770707 0.885149
O O10 0.531786 0.471750 0.333331
O O11 0.688493 0.663492 0.931951
O O12 0.500000 0.500000 0.500000
O O13 0.509760 0.754325 0.082657
O O14 0.182081 0.204402 0.589454
O O15 0.053091 0.271731 0.086038
O O16 0.850286 0.062549 0.484275
O O17 0.776945 0.997697 0.807442
#
# Coordination Sequence:
#
# PCOD9079780 Si02
#       8
#     2   2   2   2   2   2   2   2
#     4  10  22  40  64  94 120 160 212 261 302 369
#     4   9  21  38  60  91 124 155 205 261 310 361
#     4  10  20  35  64  94 114 158 215 258 299 372
#     4  10  18  37  65  88 114 160 212 254 296 365
#     4  11  23  39  61  87 129 169 197 255 319 369
#     4  10  20  37  64  90 123 158 207 260 311 358
#     4  11  23  39  63  91 129 158 207 255 314 366
#     4  11  22  40  64  89 126 169 207 248 312 371
#
# _framework density 23.691466999999999
#
# number of rings (size 3 to 8) (size 9 to 14) (size 15 to 20)
#    0.000    1.750    2.500    1.875    3.500    0.500 
#    2.250    0.625    2.750    0.000    0.000    0.000 
#    0.000    0.000    0.000    0.000    0.000    0.000 
#
# Total GULP energy -89167.286643 kJ/mol
# GULP energy per Si atom -5572.955415 kJ/mol
# Density = 2.363754 g / cm^3
# Si number density = 23.691467 Si / 1000 Ang^3
#
#
#
# Elastic Constant Matrix: (Units=GPa)
#
#
# Indices 1 2 3 4 5 6 
#
# 1 173.6513 28.1548 58.8986 5.7268 -0.2832 -14.4073
# 2 28.1548 35.1976 15.8136 0.8489 -6.6840 -16.2040
# 3 58.8986 15.8136 123.8624 9.2699 -0.4308 -1.0014
# 4 5.7268 0.8489 9.2699 22.4625 12.7928 -0.1816
# 5 -0.2832 -6.6840 -0.4308 12.7928 39.3730 -3.4979
# 6 -14.4073 -16.2040 -1.0014 -0.1816 -3.4979 27.8416
#
#
#
# Elastic Compliance Matrix: (Units=1/GPa)
#
#
# Indices 1 2 3 4 5 6 
#
# 1 0.007586 -0.004181 -0.003048 -0.000224 -0.000499 0.001318
# 2 -0.004181 0.048540 -0.003468 -0.006333 0.012674 0.027513
# 3 -0.003048 -0.003468 0.010206 -0.003538 0.000366 -0.003206
# 4 -0.000224 -0.006333 -0.003538 0.057881 -0.020466 -0.006122
# 5 -0.000499 0.012674 0.000366 -0.020466 0.035214 0.011422
# 6 0.001318 0.027513 -0.003206 -0.006122 0.011422 0.053892
#
#
# Mechanical properties :
#
#
# Convention : Reuss Voigt Hill
#
# Bulk Modulus (GPa) = 22.25361 59.82725 41.04043
# Shear Modulus (GPa) = 20.02453 33.25836 26.64145
#
# Velocity S-wave (km/s) = 2.91042 3.75081 3.35702
# Velocity P-wave (km/s) = 4.55056 6.63819 5.69092
#
# Compressibility (1/GPa) = 0.04493653
#
# Stress axis : x y z
#
# Youngs Moduli (GPa) = 131.81585 20.60167 97.98408
#
# Poissons Ratio (x) = 0.08614 0.29865
# Poissons Ratio (y) = 0.55117 0.33984
# Poissons Ratio (z) = 0.40177 0.07145
#
# Static dielectric constant tensor:
#      x y z
#    x 2.039760 0.003670 0.042920 
#    y 0.003670 1.969280 0.040340 
#    z 0.042920 0.040340 1.921040 
# 
# From -- ./inp_files/268943.got.cif
#   From: 2010.05.17/outbox.cif.g08.bks.cpg/sg2_135_cif.got.tgz:268943.got - 2010.06.03 11:33:40.
