data_PCOD9079564
_publ_section_title
;
Structure prediction by ZEFSAII (Michael W. Deem and Ramdas Pophale) SiO2 
 PCOD9079564
Probable space group: P -1
;
_chemical_formula_sum "Si O2"
_cell_formula_units_Z 16
_cell_length_a 11.117252
_cell_length_b 10.781871
_cell_length_c 9.109789
_cell_angle_alpha 127.801427
_cell_angle_beta 104.998328
_cell_angle_gamma 61.335244
_cell_volume 756.067916
_symmetry_space_group_name_H-M "P -1"
_symmetry_group_IT_number 2
_symmetry_cell_setting 'triclinic'
loop_
_space_group_symop_operation_xyz
x,y,z
-x,-y,-z
loop_
_atom_site_type_symbol
_atom_site_label
_atom_site_fract_x
_atom_site_fract_y
_atom_site_fract_z
Si Si1 0.955728 0.083355 0.302111
Si Si2 0.144510 0.438627 0.587064
Si Si3 0.615595 0.214647 0.062926
Si Si4 0.900246 0.223678 0.067860
Si Si5 0.798918 0.906361 0.469875
Si Si6 0.464511 0.848132 0.308895
Si Si7 0.325489 0.900582 0.702422
Si Si8 0.573528 0.588268 0.397283
O O1 0.969415 0.168542 0.212323
O O2 0.800740 0.154368 0.358293
O O3 0.050565 0.102575 0.471839
O O4 0.010247 0.887484 0.117845
O O5 0.126740 0.579064 0.808836
O O6 0.193570 0.254041 0.547154
O O7 0.271997 0.440017 0.532247
O O8 0.000000 0.500000 0.500000
O O9 0.760610 0.198428 0.029055
O O10 0.640698 0.079413 0.104296
O O11 0.556994 0.409260 0.253489
O O12 0.529839 0.178425 0.881655
O O13 0.694496 0.081317 0.643204
O O14 0.736248 0.935883 0.308015
O O15 0.550954 0.668015 0.284058
O O16 0.500000 0.000000 0.500000
O O17 0.457693 0.744097 0.562641
#
# Coordination Sequence:
#
# PCOD9079564 Si02
#       8
#     2   2   2   2   2   2   2   2
#     4  10  18  37  61  88 122 155 211 249 302 360
#     4  11  21  37  64  89 122 160 209 257 305 354
#     4  10  20  39  63  92 124 160 209 258 303 368
#     4   9  19  33  62  92 112 158 215 257 288 361
#     4  11  21  38  61  90 123 162 205 254 305 370
#     4  11  21  38  65  91 122 160 207 260 308 361
#     4  10  23  37  63  94 128 164 202 249 319 370
#     4  10  22  40  63  93 124 160 209 253 309 370
#
# _framework density 21.162119000000001
#
# number of rings (size 3 to 8) (size 9 to 14) (size 15 to 20)
#    0.000    1.750    3.750    1.125    0.000    0.000 
#    0.000    3.125    0.000    0.000    0.000    0.000 
#    0.000    0.000    0.000    0.000    0.000    0.000 
#
# Total GULP energy -89141.786252 kJ/mol
# GULP energy per Si atom -5571.361641 kJ/mol
# Density = 2.111395 g / cm^3
# Si number density = 21.162119 Si / 1000 Ang^3
#
#
#
# Elastic Constant Matrix: (Units=GPa)
#
#
# Indices 1 2 3 4 5 6 
#
# 1 80.1219 9.7707 28.9670 -1.7666 -0.3201 -20.7547
# 2 9.7707 96.2749 26.2383 -17.5664 9.3712 -4.2791
# 3 28.9670 26.2383 61.3431 -19.6856 12.2028 -2.7307
# 4 -1.7666 -17.5664 -19.6856 39.1825 -5.0663 -5.8239
# 5 -0.3201 9.3712 12.2028 -5.0663 18.7751 1.7492
# 6 -20.7547 -4.2791 -2.7307 -5.8239 1.7492 29.7885
#
#
#
# Elastic Compliance Matrix: (Units=1/GPa)
#
#
# Indices 1 2 3 4 5 6 
#
# 1 0.019224 0.000598 -0.010364 -0.001628 0.005217 0.011905
# 2 0.000598 0.012434 -0.003653 0.003785 -0.003060 0.002787
# 3 -0.010364 -0.003653 0.028713 0.010161 -0.014059 -0.002301
# 4 -0.001628 0.003785 0.010161 0.033244 -0.000188 0.006851
# 5 0.005217 -0.003060 -0.014059 -0.000188 0.064142 -0.001897
# 6 0.011905 0.002787 -0.002301 0.006851 -0.001897 0.043505
#
#
# Mechanical properties :
#
#
# Convention : Reuss Voigt Hill
#
# Bulk Modulus (GPa) = 29.82176 40.85467 35.33822
# Shear Modulus (GPa) = 20.89622 29.06681 24.98151
#
# Velocity S-wave (km/s) = 3.14576 3.71014 3.43954
# Velocity P-wave (km/s) = 5.22657 6.14011 5.70167
#
# Compressibility (1/GPa) = 0.03353256
#
# Stress axis : x y z
#
# Youngs Moduli (GPa) = 52.01903 80.42312 34.82721
#
# Poissons Ratio (x) = -0.04808 0.36094
# Poissons Ratio (y) = -0.03110 0.12724
# Poissons Ratio (z) = 0.53911 0.29382
#
# Static dielectric constant tensor:
#      x y z
#    x 1.842400 0.001090 0.012690 
#    y 0.001090 1.832490 -0.015450 
#    z 0.012690 -0.015450 1.772880 
# 
# From -- ./inp_files/256294.got.cif
#   From: 2010.05.17/outbox.cif.g08.bks.cpg/sg2_129_cif.got.tgz:256294.got - 2010.06.03 11:33:40.
