data_PCOD9079912
_publ_section_title
;
Structure prediction by ZEFSAII (Michael W. Deem and Ramdas Pophale) SiO2 
 PCOD9079912
Probable space group: P -1
;
_chemical_formula_sum "Si O2"
_cell_formula_units_Z 14
_cell_length_a 8.880820
_cell_length_b 11.724275
_cell_length_c 8.526571
_cell_angle_alpha 78.289940
_cell_angle_beta 58.062964
_cell_angle_gamma 113.745960
_cell_volume 582.411645
_symmetry_space_group_name_H-M "P -1"
_symmetry_group_IT_number 2
_symmetry_cell_setting 'triclinic'
loop_
_space_group_symop_operation_xyz
x,y,z
-x,-y,-z
loop_
_atom_site_type_symbol
_atom_site_label
_atom_site_fract_x
_atom_site_fract_y
_atom_site_fract_z
Si Si1 0.714005 0.555620 0.978828
Si Si2 0.543714 0.991248 0.654802
Si Si3 0.348906 0.824238 0.081126
Si Si4 0.758045 0.819256 0.854019
Si Si5 0.820253 0.876352 0.460542
Si Si6 0.558678 0.396857 0.432333
Si Si7 0.152338 0.666990 0.516432
O O1 0.778764 0.709113 0.968278
O O2 0.918697 0.588418 0.755360
O O3 0.500000 0.500000 0.000000
O O4 0.661755 0.452779 0.184233
O O5 0.672052 0.156667 0.597238
O O6 0.500000 0.000000 0.500000
O O7 0.713980 0.952301 0.565817
O O8 0.325611 0.855330 0.905327
O O9 0.136784 0.689382 0.331741
O O10 0.515609 0.780374 0.007618
O O11 0.500000 0.000000 0.000000
O O12 0.818636 0.804911 0.644682
O O13 0.931327 0.988512 0.763677
O O14 0.670114 0.765346 0.436758
O O15 0.500000 0.500000 0.500000
O O16 0.716950 0.391040 0.467645
#
# Coordination Sequence:
#
# PCOD9079912 Si02
#       7
#     2   2   2   2   2   2   2
#     4  12  25  45  72  97 135 193 236 288 353 418
#     4  10  18  37  71 105 130 170 232 294 340 404
#     4   9  21  37  64 101 137 170 221 292 347 407
#     4  10  20  41  70 100 131 177 243 286 341 411
#     4  10  20  38  72 100 133 181 231 289 346 412
#     4  12  26  45  68 105 149 183 229 290 357 421
#     4  11  23  45  67  98 144 183 233 288 349 425
#
# _framework density 24.037980999999998
#
# number of rings (size 3 to 8) (size 9 to 14) (size 15 to 20)
#    0.000    1.429    4.286    1.286    2.000    0.000 
#    0.000   11.429    0.000    0.000    0.000    0.000 
#    0.000    0.000    0.000    0.000    0.000    0.000 
#
# Total GULP energy -78115.952011 kJ/mol
# GULP energy per Si atom -5579.710858 kJ/mol
# Density = 2.398327 g / cm^3
# Si number density = 24.037981 Si / 1000 Ang^3
#
#
#
# Elastic Constant Matrix: (Units=GPa)
#
#
# Indices 1 2 3 4 5 6 
#
# 1 90.7638 34.4508 54.8789 -7.6798 13.2877 -7.0650
# 2 34.4508 81.4119 7.9083 -11.2600 -9.4824 -14.9315
# 3 54.8789 7.9083 164.5873 -4.6056 14.4460 2.2467
# 4 -7.6798 -11.2600 -4.6056 23.3644 -3.0454 -2.7718
# 5 13.2877 -9.4824 14.4460 -3.0454 36.3217 -1.3830
# 6 -7.0650 -14.9315 2.2467 -2.7718 -1.3830 33.4075
#
#
#
# Elastic Compliance Matrix: (Units=1/GPa)
#
#
# Indices 1 2 3 4 5 6 
#
# 1 0.018066 -0.007785 -0.005068 0.000383 -0.006577 0.000441
# 2 -0.007785 0.019149 0.001074 0.008926 0.008471 0.007931
# 3 -0.005068 0.001074 0.007822 0.000126 -0.001010 -0.001149
# 4 0.000383 0.008926 0.000126 0.049108 0.006578 0.008409
# 5 -0.006577 0.008471 -0.001010 0.006578 0.033269 0.004386
# 6 0.000441 0.007931 -0.001149 0.008409 0.004386 0.034528
#
#
# Mechanical properties :
#
#
# Convention : Reuss Voigt Hill
#
# Bulk Modulus (GPa) = 46.55707 59.02655 52.79181
# Shear Modulus (GPa) = 25.95238 34.58705 30.26972
#
# Velocity S-wave (km/s) = 3.28935 3.79733 3.55243
# Velocity P-wave (km/s) = 5.81693 6.62081 6.23185
#
# Compressibility (1/GPa) = 0.02147902
#
# Stress axis : x y z
#
# Youngs Moduli (GPa) = 55.35152 52.22170 127.84702
#
# Poissons Ratio (x) = 0.40654 0.64791
# Poissons Ratio (y) = 0.43091 -0.13727
# Poissons Ratio (z) = 0.28052 -0.05607
#
# Static dielectric constant tensor:
#      x y z
#    x 2.058940 0.287370 0.254260 
#    y 0.287370 2.001760 0.116030 
#    z 0.254260 0.116030 2.169370 
# 
# From -- ./inp_files/185725.got.cif
#   From: 2010.05.17/outbox.cif.g08.bks.cpg/sg2_93_cif.got.tgz:185725.got - 2010.06.03 11:33:40.
