data_PCOD9079842
_publ_section_title
;
Structure prediction by ZEFSAII (Michael W. Deem and Ramdas Pophale) SiO2 
 PCOD9079842
Probable space group: P -1
;
_chemical_formula_sum "Si O2"
_cell_formula_units_Z 16
_cell_length_a 14.870160
_cell_length_b 8.129396
_cell_length_c 8.223723
_cell_angle_alpha 54.546728
_cell_angle_beta 88.070481
_cell_angle_gamma 105.241767
_cell_volume 759.087183
_symmetry_space_group_name_H-M "P -1"
_symmetry_group_IT_number 2
_symmetry_cell_setting 'triclinic'
loop_
_space_group_symop_operation_xyz
x,y,z
-x,-y,-z
loop_
_atom_site_type_symbol
_atom_site_label
_atom_site_fract_x
_atom_site_fract_y
_atom_site_fract_z
Si Si1 0.606556 0.858380 0.088516
Si Si2 0.259397 0.955758 0.719312
Si Si3 0.397768 0.817861 0.601225
Si Si4 0.401243 0.706921 0.303643
Si Si5 0.118586 0.527829 0.873231
Si Si6 0.712357 0.601221 0.029836
Si Si7 0.019019 0.255095 0.329133
Si Si8 0.781067 0.652969 0.631442
O O1 0.501724 0.694829 0.240289
O O2 0.668190 0.753198 0.038757
O O3 0.665510 0.962367 0.186970
O O4 0.592872 0.051998 0.877310
O O5 0.319295 0.930572 0.571480
O O6 0.179987 0.721027 0.880479
O O7 0.211578 0.131627 0.587862
O O8 0.391923 0.692699 0.505795
O O9 0.371380 0.633117 0.846333
O O10 0.500000 0.000000 0.500000
O O11 0.307933 0.538341 0.325502
O O12 0.200905 0.441769 0.852083
O O13 0.065629 0.647605 0.691008
O O14 0.046506 0.335054 0.094435
O O15 0.755029 0.680140 0.805514
O O16 0.115393 0.371260 0.359333
O O17 0.000000 0.000000 0.500000
#
# Coordination Sequence:
#
# PCOD9079842 Si02
#       8
#     2   2   2   2   2   2   2   2
#     4  11  23  39  61  87 128 169 212 256 310 372
#     4  11  21  39  63  92 126 167 209 259 313 371
#     4  11  22  38  60  86 121 163 208 262 303 368
#     4  11  24  39  59  91 125 168 215 260 307 373
#     4   9  20  37  64  95 126 158 210 260 319 376
#     4  10  23  39  58  91 128 165 210 258 310 379
#     4  10  18  37  66  97 120 164 209 261 318 382
#     4  11  23  38  64  92 125 165 208 260 319 372
#
# _framework density 21.077950000000001
#
# number of rings (size 3 to 8) (size 9 to 14) (size 15 to 20)
#    0.000    1.500    2.500    3.750    3.500    1.500 
#    0.000    0.000    0.000   20.250    0.000    0.000 
#    0.000    0.000    0.000    0.000    0.000    0.000 
#
# Total GULP energy -89283.619070 kJ/mol
# GULP energy per Si atom -5580.226192 kJ/mol
# Density = 2.102998 g / cm^3
# Si number density = 21.077950 Si / 1000 Ang^3
#
#
#
# Elastic Constant Matrix: (Units=GPa)
#
#
# Indices 1 2 3 4 5 6 
#
# 1 114.0065 45.9037 13.1543 -8.6737 7.5069 3.1197
# 2 45.9037 68.2429 0.6320 -3.3578 -0.3222 3.3339
# 3 13.1543 0.6320 71.5475 -22.5170 5.1880 2.5637
# 4 -8.6737 -3.3578 -22.5170 30.4081 -1.0649 3.7661
# 5 7.5069 -0.3222 5.1880 -1.0649 25.7462 -6.2930
# 6 3.1197 3.3339 2.5637 3.7661 -6.2930 34.5587
#
#
#
# Elastic Compliance Matrix: (Units=1/GPa)
#
#
# Indices 1 2 3 4 5 6 
#
# 1 0.012734 -0.008436 -0.001443 0.001636 -0.003725 -0.001085
# 2 -0.008436 0.020439 0.001657 0.001287 0.002172 -0.001078
# 3 -0.001443 0.001657 0.019114 0.014250 -0.003720 -0.003678
# 4 0.001636 0.001287 0.014250 0.044777 -0.003138 -0.006780
# 5 -0.003725 0.002172 -0.003720 -0.003138 0.042654 0.008512
# 6 -0.001085 -0.001078 -0.003678 -0.006780 0.008512 0.031700
#
#
# Mechanical properties :
#
#
# Convention : Reuss Voigt Hill
#
# Bulk Modulus (GPa) = 27.90012 41.46411 34.68211
# Shear Modulus (GPa) = 25.02374 31.08305 28.05339
#
# Velocity S-wave (km/s) = 3.44931 3.84431 3.65216
# Velocity P-wave (km/s) = 5.39713 6.27849 5.85442
#
# Compressibility (1/GPa) = 0.03584215
#
# Stress axis : x y z
#
# Youngs Moduli (GPa) = 78.52839 48.92565 52.31893
#
# Poissons Ratio (x) = 0.41276 0.07548
# Poissons Ratio (y) = 0.66250 -0.08667
# Poissons Ratio (z) = 0.11329 -0.08105
#
# Static dielectric constant tensor:
#      x y z
#    x 1.828360 0.015580 0.014360 
#    y 0.015580 1.735710 -0.024220 
#    z 0.014360 -0.024220 1.790490 
# 
# From -- ./inp_files/297504.got.cif
#   From: 2010.05.17/outbox.cif.g08.bks.cpg/sg2_149_cif.got.tgz:297504.got - 2010.06.03 11:33:40.
