data_PCOD9079320
_publ_section_title
;
Structure prediction by ZEFSAII (Michael W. Deem and Ramdas Pophale) SiO2 
 PCOD9079320
Probable space group: P -1
;
_chemical_formula_sum "Si O2"
_cell_formula_units_Z 15
_cell_length_a 16.656262
_cell_length_b 9.659552
_cell_length_c 6.314817
_cell_angle_alpha 46.113017
_cell_angle_beta 103.740538
_cell_angle_gamma 95.770997
_cell_volume 708.298220
_symmetry_space_group_name_H-M "P -1"
_symmetry_group_IT_number 2
_symmetry_cell_setting 'triclinic'
loop_
_space_group_symop_operation_xyz
x,y,z
-x,-y,-z
loop_
_atom_site_type_symbol
_atom_site_label
_atom_site_fract_x
_atom_site_fract_y
_atom_site_fract_z
Si Si1 0.916690 0.924349 0.427813
Si Si2 0.167422 0.723738 0.191627
Si Si3 0.705772 0.461533 0.215509
Si Si4 0.023691 0.680813 0.456121
Si Si5 0.500000 0.500000 0.500000
Si Si6 0.564416 0.234991 0.427650
Si Si7 0.585449 0.791011 0.965756
Si Si8 0.144273 0.462202 0.077309
O O1 0.880841 0.754508 0.718363
O O2 0.947870 0.824798 0.331928
O O3 0.000000 0.000000 0.500000
O O4 0.844924 0.095634 0.164594
O O5 0.249449 0.673802 0.431027
O O6 0.092593 0.766352 0.265334
O O7 0.154983 0.535113 0.244576
O O8 0.631183 0.341174 0.216522
O O9 0.667777 0.662669 0.078014
O O10 0.773488 0.503710 0.038908
O O11 0.000000 0.500000 0.500000
O O12 0.069243 0.597221 0.784160
O O13 0.544796 0.376015 0.463051
O O14 0.451417 0.308168 0.747347
O O15 0.482747 0.225878 0.244597
O O16 0.595463 0.018367 0.747929
#
# Coordination Sequence:
#
# PCOD9079320 Si02
#       8
#     2   2   2   2   1   2   2   2
#     4  12  23  41  69  92 121 167 220 266 314 378
#     4  11  24  40  60  94 125 167 208 264 324 373
#     4  10  24  41  61  90 136 169 205 259 320 378
#     4  11  21  42  67  88 123 161 214 268 315 375
#     4  10  18  36  66  98 124 156 206 256 300 360
#     4  10  22  42  68  98 125 168 216 253 310 376
#     4  10  22  42  67  96 128 167 212 258 310 372
#     4  11  24  42  60  93 131 165 208 265 327 370
#
# _framework density 21.177523000000001
#
# number of rings (size 3 to 8) (size 9 to 14) (size 15 to 20)
#    0.000    1.333    2.667    3.600    0.000    6.400 
#    0.000    2.667    0.000    0.000    0.000    0.000 
#    0.000    0.000    0.000    0.000    0.000    0.000 
#
# Total GULP energy -83537.387464 kJ/mol
# GULP energy per Si atom -5569.159164 kJ/mol
# Density = 2.112932 g / cm^3
# Si number density = 21.177523 Si / 1000 Ang^3
#
#
#
# Elastic Constant Matrix: (Units=GPa)
#
#
# Indices 1 2 3 4 5 6 
#
# 1 84.6813 30.4964 32.0026 -14.4569 -10.3102 -9.3090
# 2 30.4964 86.1594 15.5777 -20.5432 -1.0363 4.7980
# 3 32.0026 15.5777 79.4868 -33.9513 -8.9346 -2.0859
# 4 -14.4569 -20.5432 -33.9513 38.6118 2.6871 -3.1752
# 5 -10.3102 -1.0363 -8.9346 2.6871 34.6185 -5.2428
# 6 -9.3090 4.7980 -2.0859 -3.1752 -5.2428 21.7855
#
#
#
# Elastic Compliance Matrix: (Units=1/GPa)
#
#
# Indices 1 2 3 4 5 6 
#
# 1 0.017482 -0.005893 -0.005498 -0.001013 0.005101 0.009322
# 2 -0.005893 0.015374 0.002289 0.007714 -0.002069 -0.005058
# 3 -0.005498 0.002289 0.023138 0.019520 0.003344 0.003011
# 4 -0.001013 0.007714 0.019520 0.047213 0.002392 0.007194
# 5 0.005101 -0.002069 0.003344 0.002392 0.032714 0.011177
# 6 0.009322 -0.005058 0.003011 0.007194 0.011177 0.055026
#
#
# Mechanical properties :
#
#
# Convention : Reuss Voigt Hill
#
# Bulk Modulus (GPa) = 26.46136 45.16455 35.81295
# Shear Modulus (GPa) = 22.54816 30.48654 26.51735
#
# Velocity S-wave (km/s) = 3.26655 3.79828 3.54241
# Velocity P-wave (km/s) = 5.17197 6.37251 5.80337
#
# Compressibility (1/GPa) = 0.03779095
#
# Stress axis : x y z
#
# Youngs Moduli (GPa) = 57.20172 65.04283 43.21893
#
# Poissons Ratio (x) = 0.38329 0.23763
# Poissons Ratio (y) = 0.33709 -0.09894
# Poissons Ratio (z) = 0.31451 -0.14890
#
# Static dielectric constant tensor:
#      x y z
#    x 1.775460 0.029380 -0.017110 
#    y 0.029380 1.758390 -0.008550 
#    z -0.017110 -0.008550 1.830300 
# 
# From -- ./inp_files/106115.got.cif
#   From: 2010.05.17/outbox.cif.g08.bks.cpg/sg2_54_cif.got.tgz:106115.got - 2010.06.03 11:33:40.
