data_PCOD9079372
_publ_section_title
;
Structure prediction by ZEFSAII (Michael W. Deem and Ramdas Pophale) SiO2 
 PCOD9079372
Probable space group: P -1
;
_chemical_formula_sum "Si O2"
_cell_formula_units_Z 15
_cell_length_a 11.298246
_cell_length_b 18.394963
_cell_length_c 14.956277
_cell_angle_alpha 152.033997
_cell_angle_beta 28.551753
_cell_angle_gamma 131.264302
_cell_volume 595.603618
_symmetry_space_group_name_H-M "P -1"
_symmetry_group_IT_number 2
_symmetry_cell_setting 'triclinic'
loop_
_space_group_symop_operation_xyz
x,y,z
-x,-y,-z
loop_
_atom_site_type_symbol
_atom_site_label
_atom_site_fract_x
_atom_site_fract_y
_atom_site_fract_z
Si Si1 0.462179 0.004352 0.684713
Si Si2 0.137823 0.451237 0.695000
Si Si3 0.500000 0.500000 0.000000
Si Si4 0.816547 0.049619 0.340411
Si Si5 0.238793 0.843440 0.235077
Si Si6 0.801359 0.898563 0.741910
Si Si7 0.397448 0.563231 0.509592
Si Si8 0.509486 0.650526 0.349868
O O1 0.182784 0.052060 0.861211
O O2 0.496415 0.831973 0.525656
O O3 0.680305 0.987548 0.442173
O O4 0.517742 0.120205 0.846493
O O5 0.161624 0.285358 0.444357
O O6 0.139395 0.590010 0.773527
O O7 0.415035 0.377077 0.493237
O O8 0.844828 0.535563 0.035676
O O9 0.370476 0.728886 0.309612
O O10 0.483173 0.551064 0.171811
O O11 0.125860 0.005944 0.124803
O O12 0.050930 0.843751 0.443373
O O13 0.392808 0.653694 0.875841
O O14 0.000000 0.000000 0.500000
O O15 0.500000 0.000000 0.000000
O O16 0.329199 0.639909 0.539589
#
# Coordination Sequence:
#
# PCOD9079372 Si02
#       8
#     2   2   1   2   2   2   2   2
#     4   9  20  34  66  94 125 172 218 267 335 389
#     4  11  23  41  63  96 129 174 220 276 330 393
#     4  10  18  36  70  94 124 174 220 266 322 396
#     4   9  18  37  59 101 125 167 228 262 328 404
#     4  11  21  37  60  96 126 173 221 271 331 399
#     4  11  22  38  64  94 136 171 214 277 335 392
#     4  11  24  39  63  93 132 169 228 268 328 401
#     4  11  20  39  66  91 129 173 213 273 326 393
#
# _framework density 25.184536000000001
#
# number of rings (size 3 to 8) (size 9 to 14) (size 15 to 20)
#    0.000    1.600    2.667    2.800    1.867    3.200 
#    0.000    0.667    0.000    4.800    0.000    0.000 
#    0.000    0.000    0.000    0.000    0.000    0.000 
#
# Total GULP energy -83554.491366 kJ/mol
# GULP energy per Si atom -5570.299424 kJ/mol
# Density = 2.512721 g / cm^3
# Si number density = 25.184536 Si / 1000 Ang^3
#
#
#
# Elastic Constant Matrix: (Units=GPa)
#
#
# Indices 1 2 3 4 5 6 
#
# 1 164.7179 57.2275 24.3223 3.5855 10.4705 9.4297
# 2 57.2275 113.7657 21.8082 7.6849 -0.5371 -17.7885
# 3 24.3223 21.8082 54.4882 14.0258 3.0373 -3.0914
# 4 3.5855 7.6849 14.0258 35.3858 -4.6256 0.0784
# 5 10.4705 -0.5371 3.0373 -4.6256 39.8901 5.7763
# 6 9.4297 -17.7885 -3.0914 0.0784 5.7763 51.3914
#
#
#
# Elastic Compliance Matrix: (Units=1/GPa)
#
#
# Indices 1 2 3 4 5 6 
#
# 1 0.008086 -0.004151 -0.002228 0.000775 -0.001501 -0.002887
# 2 -0.004151 0.012181 -0.002486 -0.001169 0.000618 0.004761
# 3 -0.002228 -0.002486 0.022743 -0.008558 -0.002346 0.001193
# 4 0.000775 -0.001169 -0.008558 0.032409 0.004423 -0.001608
# 5 -0.001501 0.000618 -0.002346 0.004423 0.026545 -0.002642
# 6 -0.002887 0.004761 0.001193 -0.001608 -0.002642 0.022007
#
#
# Mechanical properties :
#
#
# Convention : Reuss Voigt Hill
#
# Bulk Modulus (GPa) = 39.55514 59.96530 49.76022
# Shear Modulus (GPa) = 33.30478 40.64104 36.97291
#
# Velocity S-wave (km/s) = 3.64047 4.02148 3.83571
# Velocity P-wave (km/s) = 5.78022 6.73982 6.27838
#
# Compressibility (1/GPa) = 0.02528117
#
# Stress axis : x y z
#
# Youngs Moduli (GPa) = 123.67026 82.09478 43.96912
#
# Poissons Ratio (x) = 0.34081 0.09795
# Poissons Ratio (y) = 0.51340 0.10929
# Poissons Ratio (z) = 0.27549 0.20405
#
# Static dielectric constant tensor:
#      x y z
#    x 1.937720 -0.004320 -0.054400 
#    y -0.004320 2.020930 0.022820 
#    z -0.054400 0.022820 2.065720 
# 
# From -- ./inp_files/523465.got.cif
#   From: 2010.05.17/outbox.cif.g08.bks.cpg/sg2_262_cif.got.tgz:523465.got - 2010.06.03 11:33:40.
