data_PCOD9079583
_publ_section_title
;
Structure prediction by ZEFSAII (Michael W. Deem and Ramdas Pophale) SiO2 
 PCOD9079583
Probable space group: P -1
;
_chemical_formula_sum "Si O2"
_cell_formula_units_Z 16
_cell_length_a 8.016590
_cell_length_b 16.943616
_cell_length_c 8.207104
_cell_angle_alpha 48.712195
_cell_angle_beta 126.048610
_cell_angle_gamma 122.707049
_cell_volume 655.697404
_symmetry_space_group_name_H-M "P -1"
_symmetry_group_IT_number 2
_symmetry_cell_setting 'triclinic'
loop_
_space_group_symop_operation_xyz
x,y,z
-x,-y,-z
loop_
_atom_site_type_symbol
_atom_site_label
_atom_site_fract_x
_atom_site_fract_y
_atom_site_fract_z
Si Si1 0.685088 0.993383 0.243531
Si Si2 0.585742 0.818067 0.697872
Si Si3 0.906944 0.370808 0.781757
Si Si4 0.179738 0.173543 0.648073
Si Si5 0.069916 0.234434 0.824903
Si Si6 0.626473 0.199907 0.060971
Si Si7 0.323859 0.363772 0.209436
Si Si8 0.630704 0.531806 0.366526
O O1 0.586770 0.913431 0.443311
O O2 0.848160 0.935109 0.327171
O O3 0.754046 0.113150 0.194143
O O4 0.500000 0.000000 0.000000
O O5 0.426367 0.810986 0.765349
O O6 0.550539 0.706928 0.727155
O O7 0.820971 0.832849 0.895602
O O8 0.144442 0.391697 0.955737
O O9 0.760761 0.315590 0.922869
O O10 0.893623 0.281931 0.750794
O O11 0.176383 0.526383 0.450776
O O12 0.018738 0.176671 0.699912
O O13 0.216657 0.278693 0.408122
O O14 0.403854 0.180095 0.861820
O O15 0.263212 0.341300 0.754653
O O16 0.468380 0.473066 0.216063
O O17 0.500000 0.500000 0.500000
#
# Coordination Sequence:
#
# PCOD9079583 Si02
#       8
#     2   2   2   2   2   2   2   2
#     4   9  18  32  65  94 121 161 214 252 308 377
#     4   9  19  36  60  88 125 165 204 255 308 366
#     4  11  24  39  60  95 128 160 213 256 306 369
#     4   9  17  39  60  87 124 166 202 261 307 359
#     4  10  21  39  61  87 127 167 204 262 311 360
#     4  10  18  37  61  92 126 168 205 255 311 369
#     4  10  21  40  61  89 127 161 209 259 302 363
#     4  12  22  42  67  88 124 171 208 253 314 366
#
# _framework density 24.401499999999999
#
# number of rings (size 3 to 8) (size 9 to 14) (size 15 to 20)
#    0.000    2.000    2.500    1.500    0.000    2.500 
#    2.250    6.250    0.000    0.000    0.000    0.000 
#    0.000    0.000    0.000    0.000    0.000    0.000 
#
# Total GULP energy -89555.110914 kJ/mol
# GULP energy per Si atom -5597.194432 kJ/mol
# Density = 2.434596 g / cm^3
# Si number density = 24.401500 Si / 1000 Ang^3
#
#
#
# Elastic Constant Matrix: (Units=GPa)
#
#
# Indices 1 2 3 4 5 6 
#
# 1 99.7003 26.3651 52.6155 13.7520 -4.2851 -24.1505
# 2 26.3651 44.0323 10.0222 -0.0530 -0.5707 -15.6255
# 3 52.6155 10.0222 125.2526 2.1074 -3.4283 -8.1206
# 4 13.7520 -0.0530 2.1074 35.2392 -2.4117 -3.6610
# 5 -4.2851 -0.5707 -3.4283 -2.4117 50.6394 6.0048
# 6 -24.1505 -15.6255 -8.1206 -3.6610 6.0048 35.3348
#
#
#
# Elastic Compliance Matrix: (Units=1/GPa)
#
#
# Indices 1 2 3 4 5 6 
#
# 1 0.017622 -0.006604 -0.006321 -0.005781 -0.000128 0.007094
# 2 -0.006604 0.029789 0.000912 0.003470 -0.001113 0.009418
# 3 -0.006321 0.000912 0.010457 0.001726 0.000433 -0.001408
# 4 -0.005781 0.003470 0.001726 0.030708 0.001012 0.000990
# 5 -0.000128 -0.001113 0.000433 0.001012 0.020254 -0.003817
# 6 0.007094 0.009418 -0.001408 0.000990 -0.003817 0.037742
#
#
# Mechanical properties :
#
#
# Convention : Reuss Voigt Hill
#
# Bulk Modulus (GPa) = 29.54721 49.66565 39.60643
# Shear Modulus (GPa) = 27.49090 36.24152 31.86621
#
# Velocity S-wave (km/s) = 3.36014 3.85803 3.61766
# Velocity P-wave (km/s) = 5.21432 6.34378 5.80658
#
# Compressibility (1/GPa) = 0.03384414
#
# Stress axis : x y z
#
# Youngs Moduli (GPa) = 56.74604 33.56944 95.62522
#
# Poissons Ratio (x) = 0.22170 0.60441
# Poissons Ratio (y) = 0.37476 -0.08725
# Poissons Ratio (z) = 0.35867 -0.03063
#
# Static dielectric constant tensor:
#      x y z
#    x 1.986730 -0.028730 -0.033880 
#    y -0.028730 1.907320 0.024420 
#    z -0.033880 0.024420 1.935870 
# 
# From -- ./inp_files/221861.got.cif
#   From: 2010.05.17/outbox.cif.g08.bks.cpg/sg2_111_cif.got.tgz:221861.got - 2010.06.03 11:33:40.
