data_PCOD9079321
_publ_section_title
;
Structure prediction by ZEFSAII (Michael W. Deem and Ramdas Pophale) SiO2 
 PCOD9079321
Probable space group: P -1
;
_chemical_formula_sum "Si O2"
_cell_formula_units_Z 15
_cell_length_a 8.971682
_cell_length_b 6.084920
_cell_length_c 18.413808
_cell_angle_alpha 62.083563
_cell_angle_beta 60.428648
_cell_angle_gamma 51.089851
_cell_volume 661.473313
_symmetry_space_group_name_H-M "P -1"
_symmetry_group_IT_number 2
_symmetry_cell_setting 'triclinic'
loop_
_space_group_symop_operation_xyz
x,y,z
-x,-y,-z
loop_
_atom_site_type_symbol
_atom_site_label
_atom_site_fract_x
_atom_site_fract_y
_atom_site_fract_z
Si Si1 0.195419 0.080875 0.564635
Si Si2 0.385280 0.076011 0.817557
Si Si3 0.618048 0.116201 0.302551
Si Si4 0.500000 0.500000 0.500000
Si Si5 0.204166 0.713622 0.973464
Si Si6 0.743578 0.435914 0.595236
Si Si7 0.350280 0.123962 0.085388
Si Si8 0.092271 0.678000 0.851882
O O1 0.222709 0.296386 0.472674
O O2 0.962043 0.182373 0.608208
O O3 0.294300 0.090478 0.616390
O O4 0.333609 0.756524 0.553131
O O5 0.441500 0.015073 0.729444
O O6 0.346550 0.827491 0.895722
O O7 0.547599 0.051176 0.839141
O O8 0.184014 0.387103 0.827164
O O9 0.431875 0.424257 0.324458
O O10 0.798631 0.154922 0.226250
O O11 0.662332 0.372852 0.550916
O O12 0.159942 0.583715 0.932845
O O13 0.285742 0.463269 0.051990
O O14 0.000000 0.000000 0.000000
O O15 0.145015 0.131257 0.121676
O O16 0.500000 0.000000 0.000000
#
# Coordination Sequence:
#
# PCOD9079321 Si02
#       8
#     2   2   2   1   2   2   2   2
#     4  10  22  42  68  97 127 168 214 256 307 378
#     4  11  24  41  61  94 126 169 209 261 326 373
#     4  10  24  41  61  90 136 169 204 260 323 375
#     4  10  18  36  66  98 124 158 202 256 306 354
#     4  11  21  42  67  88 122 162 214 266 316 373
#     4  10  22  42  67  97 126 165 218 256 306 378
#     4  12  23  41  69  92 122 166 220 268 312 377
#     4  11  24  41  59  93 130 162 208 268 321 377
#
# _framework density 22.676651
#
# number of rings (size 3 to 8) (size 9 to 14) (size 15 to 20)
#    0.000    1.333    2.667    3.600    0.000    6.400 
#    0.000    2.667    0.000    0.000    0.000    0.000 
#    0.000    0.000    0.000    0.000    0.000    0.000 
#
# Total GULP energy -83611.153010 kJ/mol
# GULP energy per Si atom -5574.076867 kJ/mol
# Density = 2.262504 g / cm^3
# Si number density = 22.676651 Si / 1000 Ang^3
#
#
#
# Elastic Constant Matrix: (Units=GPa)
#
#
# Indices 1 2 3 4 5 6 
#
# 1 107.2016 19.0908 35.5151 21.5441 15.2477 -34.7996
# 2 19.0908 81.5597 31.0751 15.8323 12.2075 -24.6677
# 3 35.5151 31.0751 65.7995 21.1272 11.0887 -12.2082
# 4 21.5441 15.8323 21.1272 32.3440 14.8291 -2.5034
# 5 15.2477 12.2075 11.0887 14.8291 47.5490 2.4714
# 6 -34.7996 -24.6677 -12.2082 -2.5034 2.4714 40.8602
#
#
#
# Elastic Compliance Matrix: (Units=1/GPa)
#
#
# Indices 1 2 3 4 5 6 
#
# 1 0.017660 0.005007 -0.005890 -0.007210 -0.004164 0.016113
# 2 0.005007 0.019618 -0.006943 -0.005471 -0.004042 0.013943
# 3 -0.005890 -0.006943 0.023853 -0.008943 0.001038 -0.002692
# 4 -0.007210 -0.005471 -0.008943 0.047491 -0.008557 -0.008689
# 5 -0.004164 -0.004042 0.001038 -0.008557 0.026235 -0.007787
# 6 0.016113 0.013943 -0.002692 -0.008689 -0.007787 0.045749
#
#
# Mechanical properties :
#
#
# Convention : Reuss Voigt Hill
#
# Bulk Modulus (GPa) = 21.98825 47.32476 34.65650
# Shear Modulus (GPa) = 23.64989 35.40931 29.52960
#
# Velocity S-wave (km/s) = 3.23293 3.95585 3.61252
# Velocity P-wave (km/s) = 4.86346 6.46372 5.71983
#
# Compressibility (1/GPa) = 0.04547883
#
# Stress axis : x y z
#
# Youngs Moduli (GPa) = 56.62548 50.97303 41.92368
#
# Poissons Ratio (x) = -0.25521 0.24693
# Poissons Ratio (y) = -0.28352 0.29107
# Poissons Ratio (z) = 0.33352 0.35390
#
# Static dielectric constant tensor:
#      x y z
#    x 1.936100 0.033500 -0.043420 
#    y 0.033500 1.860380 -0.059640 
#    z -0.043420 -0.059640 1.933030 
# 
# From -- ./inp_files/120157.got.cif
#   From: 2010.05.17/outbox.cif.g08.bks.cpg/sg2_61_cif.got.tgz:120157.got - 2010.06.03 11:33:40.
