data_PCOD9079817
_publ_section_title
;
Structure prediction by ZEFSAII (Michael W. Deem and Ramdas Pophale) SiO2 
 PCOD9079817
Probable space group: P -1
;
_chemical_formula_sum "Si O2"
_cell_formula_units_Z 16
_cell_length_a 16.601621
_cell_length_b 8.258974
_cell_length_c 8.541573
_cell_angle_alpha 52.006210
_cell_angle_beta 59.802679
_cell_angle_gamma 51.902013
_cell_volume 711.863341
_symmetry_space_group_name_H-M "P -1"
_symmetry_group_IT_number 2
_symmetry_cell_setting 'triclinic'
loop_
_space_group_symop_operation_xyz
x,y,z
-x,-y,-z
loop_
_atom_site_type_symbol
_atom_site_label
_atom_site_fract_x
_atom_site_fract_y
_atom_site_fract_z
Si Si1 0.448946 0.457263 0.801055
Si Si2 0.470295 0.217749 0.584411
Si Si3 0.989731 0.406411 0.806302
Si Si4 0.674574 0.100108 0.796069
Si Si5 0.138097 0.548155 0.371526
Si Si6 0.851397 0.720410 0.017843
Si Si7 0.245245 0.566479 0.543168
Si Si8 0.356446 0.229036 0.223097
O O1 0.444042 0.334277 0.715246
O O2 0.450207 0.694607 0.618573
O O3 0.565461 0.297004 0.845230
O O4 0.368552 0.442515 0.009640
O O5 0.357108 0.341607 0.540793
O O6 0.536449 0.944139 0.692403
O O7 0.062222 0.473229 0.585593
O O8 0.068619 0.253027 0.955455
O O9 0.922265 0.331793 0.799797
O O10 0.908430 0.626760 0.852384
O O11 0.724459 0.231281 0.561803
O O12 0.649870 0.926873 0.819630
O O13 0.748969 0.952687 0.948633
O O14 0.178218 0.666570 0.391399
O O15 0.245647 0.325671 0.356937
O O16 0.818537 0.525783 0.229307
#
# Coordination Sequence:
#
# PCOD9079817 Si02
#       8
#     2   2   2   2   2   2   2   2
#     4   9  18  32  54  86 116 143 182 231 265 318
#     4   9  18  32  52  86 117 141 186 226 260 329
#     4   9  20  38  60  79 110 147 187 237 282 325
#     4  10  19  34  59  88 112 141 191 229 266 333
#     4  10  21  38  56  82 118 147 177 237 294 319
#     4  10  18  37  66  82 101 150 196 224 274 338
#     4  10  21  36  58  86 118 144 178 232 280 327
#     4  11  19  33  59  81 111 155 185 217 277 333
#
# _framework density 22.476223999999998
#
# number of rings (size 3 to 8) (size 9 to 14) (size 15 to 20)
#    0.000    2.250    1.250    3.750    0.000    0.500 
#    0.000   11.250    0.000    0.000    0.000    0.000 
#    0.000    0.000    0.000    0.000    0.000    0.000 
#
# Total GULP energy -89203.622268 kJ/mol
# GULP energy per Si atom -5575.226392 kJ/mol
# Density = 2.242507 g / cm^3
# Si number density = 22.476224 Si / 1000 Ang^3
#
#
#
# Elastic Constant Matrix: (Units=GPa)
#
#
# Indices 1 2 3 4 5 6 
#
# 1 97.8625 8.6667 32.7322 7.7111 13.9969 -37.5907
# 2 8.6667 4.4874 23.5259 7.4313 -4.3940 1.2973
# 3 32.7322 23.5259 91.6388 0.5859 -10.5673 5.8919
# 4 7.7111 7.4313 0.5859 20.1811 -4.3440 4.6668
# 5 13.9969 -4.3940 -10.5673 -4.3440 37.2496 -11.3331
# 6 -37.5907 1.2973 5.8919 4.6668 -11.3331 -9.5272
#
#
#
# Elastic Compliance Matrix: (Units=1/GPa)
#
#
# Indices 1 2 3 4 5 6 
#
# 1 0.005878 0.004098 -0.002988 -0.001587 -0.007668 -0.016138
# 2 0.004098 -0.252988 0.061758 0.084825 0.003592 0.024854
# 3 -0.002988 0.061758 -0.003200 -0.020660 0.005547 0.001501
# 4 -0.001587 0.084825 -0.020660 0.020259 0.008558 0.004778
# 5 -0.007668 0.003592 0.005547 0.008558 0.032598 -0.000410
# 6 -0.016138 0.024854 0.001501 0.004778 -0.000410 -0.034148
#
#
# Mechanical properties :
#
#
# Convention : Reuss Voigt Hill
#
# Bulk Modulus (GPa) = -8.02736 35.98202 13.97733
# Shear Modulus (GPa) = -12.53568 18.18498 2.82465
#
# Velocity S-wave (km/s) = -2.36419 2.84751 1.12226
# Velocity P-wave (km/s) = 3.32141 5.18216 2.81274
#
# Compressibility (1/GPa) = -0.12457390
#
# Stress axis : x y z
#
# Youngs Moduli (GPa) = 170.12951 -3.95276 -312.50719
#
# Poissons Ratio (x) = 0.01620 -0.93376
# Poissons Ratio (y) = -0.69712 19.29993
# Poissons Ratio (z) = 0.50834 0.24412
#
# Static dielectric constant tensor:
#      x y z
#    x 1.916620 0.018950 0.051790 
#    y 0.018950 1.795270 0.010550 
#    z 0.051790 0.010550 1.874330 
# 
# From -- ./inp_files/208497.got.cif
#   From: 2010.05.17/outbox.cif.g08.bks.cpg/sg2_105_cif.got.tgz:208497.got - 2010.06.03 11:33:40.
