data_PCOD9079878
_publ_section_title
;
Structure prediction by ZEFSAII (Michael W. Deem and Ramdas Pophale) SiO2 
 PCOD9079878
Probable space group: P -1
;
_chemical_formula_sum "Si O2"
_cell_formula_units_Z 16
_cell_length_a 8.885504
_cell_length_b 14.061636
_cell_length_c 10.920218
_cell_angle_alpha 132.924088
_cell_angle_beta 43.020606
_cell_angle_gamma 109.598259
_cell_volume 644.594319
_symmetry_space_group_name_H-M "P -1"
_symmetry_group_IT_number 2
_symmetry_cell_setting 'triclinic'
loop_
_space_group_symop_operation_xyz
x,y,z
-x,-y,-z
loop_
_atom_site_type_symbol
_atom_site_label
_atom_site_fract_x
_atom_site_fract_y
_atom_site_fract_z
Si Si1 0.179439 0.905665 0.547335
Si Si2 0.894140 0.432626 0.895335
Si Si3 0.352302 0.038225 0.372516
Si Si4 0.259311 0.645594 0.640093
Si Si5 0.558963 0.338453 0.181195
Si Si6 0.863239 0.901731 0.048906
Si Si7 0.239158 0.189991 0.324583
Si Si8 0.417870 0.280502 0.690345
O O1 0.409116 0.795620 0.371131
O O2 0.957702 0.858667 0.665714
O O3 0.198822 0.947265 0.432231
O O4 0.164182 0.043142 0.748681
O O5 0.731888 0.352922 0.983955
O O6 0.741792 0.570900 0.038460
O O7 0.000000 0.500000 0.000000
O O8 0.089812 0.330100 0.606446
O O9 0.341378 0.082189 0.277574
O O10 0.297582 0.181312 0.607778
O O11 0.612786 0.950027 0.179725
O O12 0.345243 0.482449 0.432286
O O13 0.309319 0.672351 0.775459
O O14 0.429939 0.692052 0.488961
O O15 0.006712 0.741398 0.829817
O O16 0.436370 0.222362 0.156139
O O17 0.000000 0.000000 0.000000
#
# Coordination Sequence:
#
# PCOD9079878 Si02
#       8
#     2   2   2   2   2   2   2   2
#     4  11  26  39  61  90 136 169 204 268 324 368
#     4  11  22  39  73  97 121 170 216 261 321 380
#     4  11  22  41  62  89 129 166 220 259 304 391
#     4  10  18  37  67  96 121 154 219 267 311 370
#     4  10  22  39  66  99 126 163 209 275 311 376
#     4  11  20  39  68  93 119 170 212 260 318 378
#     4  12  24  46  59  95 138 166 209 269 321 377
#     4  10  19  41  64  97 121 158 225 263 306 390
#
# _framework density 24.821814
#
# number of rings (size 3 to 8) (size 9 to 14) (size 15 to 20)
#    0.000    1.250    5.000    3.375    1.750    3.500 
#    2.250    3.750    0.000    0.000    0.000    0.000 
#    0.000    0.000    0.000    0.000    0.000    0.000 
#
# Total GULP energy -89562.002868 kJ/mol
# GULP energy per Si atom -5597.625179 kJ/mol
# Density = 2.476532 g / cm^3
# Si number density = 24.821814 Si / 1000 Ang^3
#
#
#
# Elastic Constant Matrix: (Units=GPa)
#
#
# Indices 1 2 3 4 5 6 
#
# 1 64.6697 25.1354 8.4156 11.8880 -3.4740 -0.6129
# 2 25.1354 161.7980 40.6851 -9.7054 -2.9914 -13.8546
# 3 8.4156 40.6851 87.0202 15.8801 -7.8522 -5.2722
# 4 11.8880 -9.7054 15.8801 41.5538 -4.5951 -6.7860
# 5 -3.4740 -2.9914 -7.8522 -4.5951 30.0894 6.5862
# 6 -0.6129 -13.8546 -5.2722 -6.7860 6.5862 40.3031
#
#
#
# Elastic Compliance Matrix: (Units=1/GPa)
#
#
# Indices 1 2 3 4 5 6 
#
# 1 0.018012 -0.003654 0.001182 -0.006651 0.001489 -0.002191
# 2 -0.003654 0.008426 -0.004388 0.005147 -0.000652 0.003240
# 3 0.001182 -0.004388 0.014873 -0.006930 0.002778 -0.001166
# 4 -0.006651 0.005147 -0.006930 0.030910 0.001400 0.005737
# 5 0.001489 -0.000652 0.002778 0.001400 0.035462 -0.005398
# 6 -0.002191 0.003240 -0.001166 0.005737 -0.005398 0.027588
#
#
# Mechanical properties :
#
#
# Convention : Reuss Voigt Hill
#
# Bulk Modulus (GPa) = 36.24427 51.32888 43.78658
# Shear Modulus (GPa) = 31.60792 38.33938 34.97365
#
# Velocity S-wave (km/s) = 3.57233 3.93438 3.75772
# Velocity P-wave (km/s) = 5.62574 6.43141 6.04202
#
# Compressibility (1/GPa) = 0.02759057
#
# Stress axis : x y z
#
# Youngs Moduli (GPa) = 55.51968 118.68394 67.23371
#
# Poissons Ratio (x) = 0.43372 -0.07947
# Poissons Ratio (y) = 0.20289 0.29501
# Poissons Ratio (z) = -0.06563 0.52076
#
# Static dielectric constant tensor:
#      x y z
#    x 1.950060 -0.012960 0.008490 
#    y -0.012960 1.962550 -0.033790 
#    z 0.008490 -0.033790 2.074670 
# 
# From -- ./inp_files/399512.got.cif
#   From: 2010.05.17/outbox.cif.g08.bks.cpg/sg2_200_cif.got.tgz:399512.got - 2010.06.03 11:33:40.
