data_PCOD9079115
_publ_section_title
;
Structure prediction by ZEFSAII (Michael W. Deem and Ramdas Pophale) SiO2 
 PCOD9079115
Probable space group: P -1
;
_chemical_formula_sum "Si O2"
_cell_formula_units_Z 14
_cell_length_a 8.970917
_cell_length_b 14.219049
_cell_length_c 12.429773
_cell_angle_alpha 149.213995
_cell_angle_beta 64.365320
_cell_angle_gamma 104.677249
_cell_volume 707.193792
_symmetry_space_group_name_H-M "P -1"
_symmetry_group_IT_number 2
_symmetry_cell_setting 'triclinic'
loop_
_space_group_symop_operation_xyz
x,y,z
-x,-y,-z
loop_
_atom_site_type_symbol
_atom_site_label
_atom_site_fract_x
_atom_site_fract_y
_atom_site_fract_z
Si Si1 0.268599 0.864810 0.778163
Si Si2 0.854350 0.784398 0.974653
Si Si3 0.656618 0.322076 0.767953
Si Si4 0.851671 0.048355 0.872390
Si Si5 0.480191 0.945181 0.609135
Si Si6 0.198100 0.927156 0.335013
Si Si7 0.076211 0.652126 0.471042
O O1 0.173290 0.724503 0.610829
O O2 0.440225 0.850211 0.641101
O O3 0.268166 0.852532 0.894145
O O4 0.162548 0.080830 0.992756
O O5 0.933119 0.562300 0.715715
O O6 0.656801 0.845643 0.137498
O O7 0.977402 0.873304 0.097893
O O8 0.730735 0.260328 0.801311
O O9 0.801918 0.360232 0.682846
O O10 0.587046 0.160335 0.570177
O O11 0.500000 0.500000 0.000000
O O12 0.780337 0.090727 0.817287
O O13 0.912668 0.822401 0.656768
O O14 0.676299 0.943953 0.541295
O O15 0.000000 0.000000 0.500000
#
# Coordination Sequence:
#
# PCOD9079115 Si02
#       7
#     2   2   2   2   2   2   2
#     4   8  20  36  62  92 120 163 204 255 295 368
#     4   9  18  37  65  90 118 164 203 247 301 363
#     4  11  22  40  66  87 120 166 213 245 295 379
#     4  11  21  38  59  94 132 154 200 259 312 351
#     4   9  21  41  62  85 118 163 209 247 301 361
#     4  12  23  40  61  88 130 162 196 262 310 352
#     4  10  18  36  62  93 118 160 211 245 296 365
#
# _framework density 19.796554
#
# number of rings (size 3 to 8) (size 9 to 14) (size 15 to 20)
#    0.857    1.143    2.857    3.000    0.000    4.000 
#    2.571    1.429    0.000    2.571    0.000    0.000 
#    0.000    0.000    0.000    0.000    0.000    0.000 
#
# Total GULP energy -77980.704290 kJ/mol
# GULP energy per Si atom -5570.050306 kJ/mol
# Density = 1.975150 g / cm^3
# Si number density = 19.796554 Si / 1000 Ang^3
#
#
#
# Elastic Constant Matrix: (Units=GPa)
#
#
# Indices 1 2 3 4 5 6 
#
# 1 64.4990 28.7824 8.1343 2.0548 -5.0372 1.6303
# 2 28.7824 97.5174 48.0723 -11.8977 13.6114 -26.3359
# 3 8.1343 48.0723 84.6248 7.2396 -1.6342 -12.5039
# 4 2.0548 -11.8977 7.2396 39.2606 2.7382 9.1108
# 5 -5.0372 13.6114 -1.6342 2.7382 23.2831 -1.0197
# 6 1.6303 -26.3359 -12.5039 9.1108 -1.0197 32.1546
#
#
#
# Elastic Compliance Matrix: (Units=1/GPa)
#
#
# Indices 1 2 3 4 5 6 
#
# 1 0.022724 -0.014376 0.005415 -0.005469 0.013957 -0.008829
# 2 -0.014376 0.030807 -0.015049 0.010648 -0.022712 0.016372
# 3 0.005415 -0.015049 0.020632 -0.009145 0.012423 -0.001592
# 4 -0.005469 0.010648 -0.009145 0.032472 -0.012050 -0.004141
# 5 0.013957 -0.022712 0.012423 -0.012050 0.061136 -0.009125
# 6 -0.008829 0.016372 -0.001592 -0.004141 -0.009125 0.045221
#
#
# Mechanical properties :
#
#
# Convention : Reuss Voigt Hill
#
# Bulk Modulus (GPa) = 38.25088 46.29101 42.27095
# Shear Modulus (GPa) = 18.53732 29.71647 24.12690
#
# Velocity S-wave (km/s) = 3.06337 3.87860 3.49484
# Velocity P-wave (km/s) = 5.64591 6.59486 6.13875
#
# Compressibility (1/GPa) = 0.02614319
#
# Stress axis : x y z
#
# Youngs Moduli (GPa) = 44.00642 32.46033 48.46803
#
# Poissons Ratio (x) = 0.46666 -0.26247
# Poissons Ratio (y) = 0.63265 0.72939
# Poissons Ratio (z) = -0.23831 0.48849
#
# Static dielectric constant tensor:
#      x y z
#    x 1.692770 0.032750 -0.019760 
#    y 0.032750 1.755360 -0.017010 
#    z -0.019760 -0.017010 1.611370 
# 
# From -- ./inp_files/399977.got.cif
#   From: 2010.05.17/outbox.cif.g08.bks.cpg/sg2_200_cif.got.tgz:399977.got - 2010.06.03 11:33:40.
