data_PCOD9079463
_publ_section_title
;
Structure prediction by ZEFSAII (Michael W. Deem and Ramdas Pophale) SiO2 
 PCOD9079463
Probable space group: P -1
;
_chemical_formula_sum "Si O2"
_cell_formula_units_Z 10
_cell_length_a 11.126680
_cell_length_b 8.378361
_cell_length_c 7.189916
_cell_angle_alpha 73.399717
_cell_angle_beta 119.086005
_cell_angle_gamma 72.187623
_cell_volume 475.617098
_symmetry_space_group_name_H-M "P -1"
_symmetry_group_IT_number 2
_symmetry_cell_setting 'triclinic'
loop_
_space_group_symop_operation_xyz
x,y,z
-x,-y,-z
loop_
_atom_site_type_symbol
_atom_site_label
_atom_site_fract_x
_atom_site_fract_y
_atom_site_fract_z
Si Si1 0.122407 0.404276 0.853668
Si Si2 0.733677 0.131415 0.290446
Si Si3 0.664660 0.845160 0.566427
Si Si4 0.420775 0.234879 0.846416
Si Si5 0.022383 0.767823 0.449861
O O1 0.269018 0.329395 0.838894
O O2 0.027922 0.637077 0.673390
O O3 0.012579 0.323872 0.723389
O O4 0.202734 0.311083 0.139909
O O5 0.811252 0.236911 0.420461
O O6 0.714802 0.986676 0.461264
O O7 0.870869 0.988508 0.291864
O O8 0.561984 0.266079 0.013728
O O9 0.630312 0.730710 0.418132
O O10 0.500000 0.000000 0.500000
O O11 0.500000 0.000000 0.000000
#
# Coordination Sequence:
#
# PCOD9079463 Si02
#       5
#     2   2   2   2   2
#     4  11  21  38  61  84 114 150 191 229 282 336
#     4  10  20  39  61  82 116 150 187 232 285 333
#     4  11  19  35  64  84 106 154 197 223 274 341
#     4  10  18  37  59  81 110 155 187 227 275 339
#     4  10  22  38  57  87 119 147 179 241 291 324
#
# _framework density 21.025319
#
# number of rings (size 3 to 8) (size 9 to 14) (size 15 to 20)
#    0.000    1.600    8.000    0.000    0.000    2.400 
#    0.000    1.000    0.000    0.000    0.000    0.000 
#    0.000    0.000    0.000    0.000    0.000    0.000 
#
# Total GULP energy -55834.931750 kJ/mol
# GULP energy per Si atom -5583.493175 kJ/mol
# Density = 2.097746 g / cm^3
# Si number density = 21.025319 Si / 1000 Ang^3
#
#
#
# Elastic Constant Matrix: (Units=GPa)
#
#
# Indices 1 2 3 4 5 6 
#
# 1 68.1045 21.8565 40.7464 29.3610 10.0087 0.9462
# 2 21.8565 49.0186 44.0649 17.1822 18.5979 7.2399
# 3 40.7464 44.0649 207.3367 38.0029 -6.3373 18.1451
# 4 29.3610 17.1822 38.0029 34.9549 13.4206 12.6032
# 5 10.0087 18.5979 -6.3373 13.4206 38.9881 5.4353
# 6 0.9462 7.2399 18.1451 12.6032 5.4353 23.1398
#
#
#
# Elastic Compliance Matrix: (Units=1/GPa)
#
#
# Indices 1 2 3 4 5 6 
#
# 1 0.027442 -0.005663 -0.000688 -0.025697 0.002350 0.014634
# 2 -0.005663 0.035319 -0.007189 0.002747 -0.017138 -0.002653
# 3 -0.000688 -0.007189 0.008177 -0.006928 0.007620 -0.002151
# 4 -0.025697 0.002747 -0.006928 0.073969 -0.017027 -0.030664
# 5 0.002350 -0.017138 0.007620 -0.017027 0.040451 -0.000937
# 6 0.014634 -0.002653 -0.002151 -0.030664 -0.000937 0.062055
#
#
# Mechanical properties :
#
#
# Convention : Reuss Voigt Hill
#
# Bulk Modulus (GPa) = 22.80043 59.75504 41.27774
# Shear Modulus (GPa) = 17.29434 33.93602 25.61518
#
# Velocity S-wave (km/s) = 2.87112 4.02189 3.49420
# Velocity P-wave (km/s) = 4.67535 7.07458 5.99619
#
# Compressibility (1/GPa) = 0.04385881
#
# Stress axis : x y z
#
# Youngs Moduli (GPa) = 36.43998 28.31377 122.29159
#
# Poissons Ratio (x) = 0.16033 0.08417
# Poissons Ratio (y) = 0.20635 0.87910
# Poissons Ratio (z) = 0.02508 0.20354
#
# Static dielectric constant tensor:
#      x y z
#    x 1.767910 -0.020050 0.030180 
#    y -0.020050 1.767750 0.008260 
#    z 0.030180 0.008260 1.804990 
# 
# From -- ./inp_files/157756.got.cif
#   From: 2010.05.17/outbox.cif.g08.bks.cpg/sg2_79_cif.got.tgz:157756.got - 2010.06.03 11:33:40.
