data_PCOD9079186
_publ_section_title
;
Structure prediction by ZEFSAII (Michael W. Deem and Ramdas Pophale) SiO2 
 PCOD9079186
Probable space group: P -1
;
_chemical_formula_sum "Si O2"
_cell_formula_units_Z 14
_cell_length_a 8.791105
_cell_length_b 8.766982
_cell_length_c 11.550141
_cell_angle_alpha 101.493803
_cell_angle_beta 116.425599
_cell_angle_gamma 56.046058
_cell_volume 659.786717
_symmetry_space_group_name_H-M "P -1"
_symmetry_group_IT_number 2
_symmetry_cell_setting 'triclinic'
loop_
_space_group_symop_operation_xyz
x,y,z
-x,-y,-z
loop_
_atom_site_type_symbol
_atom_site_label
_atom_site_fract_x
_atom_site_fract_y
_atom_site_fract_z
Si Si1 0.314351 0.476405 0.416935
Si Si2 0.656758 0.295112 0.968483
Si Si3 0.100421 0.158884 0.660170
Si Si4 0.161744 0.798620 0.743693
Si Si5 0.634016 0.546988 0.831770
Si Si6 0.147690 0.292231 0.471563
Si Si7 0.368037 0.200571 0.931738
O O1 0.500000 0.500000 0.500000
O O2 0.296747 0.445744 0.270778
O O3 0.310666 0.316402 0.462463
O O4 0.124692 0.676727 0.416143
O O5 0.729984 0.341263 0.884165
O O6 0.514259 0.217753 0.894003
O O7 0.500000 0.500000 0.000000
O O8 0.813602 0.183705 0.107111
O O9 0.218023 0.151059 0.581893
O O10 0.184001 0.222215 0.802908
O O11 0.113114 0.975923 0.679430
O O12 0.390499 0.642085 0.759704
O O13 0.995076 0.748893 0.660028
O O14 0.680152 0.658679 0.958157
O O15 0.000000 0.500000 0.500000
O O16 0.500000 0.000000 0.000000
#
# Coordination Sequence:
#
# PCOD9079186 Si02
#       7
#     2   2   2   2   2   2   2
#     4  11  26  43  57  88 126 162 204 252 306 352
#     4   8  18  31  61  87 119 148 194 240 295 357
#     4  11  22  39  65  89 121 160 203 253 293 369
#     4  10  19  41  62  92 114 157 210 247 295 360
#     4  10  21  38  64  88 128 156 196 255 300 357
#     4  10  23  37  64  84 114 165 210 243 293 366
#     4  10  18  36  63  97 117 151 203 250 302 354
#
# _framework density 21.218976999999999
#
# number of rings (size 3 to 8) (size 9 to 14) (size 15 to 20)
#    0.000    2.286    2.857    2.143   14.000    0.571 
#    0.000    5.000    0.000    0.000    0.000    0.000 
#    0.000    0.000    0.000    0.000    0.000    0.000 
#
# Total GULP energy -78058.134466 kJ/mol
# GULP energy per Si atom -5575.581033 kJ/mol
# Density = 2.117068 g / cm^3
# Si number density = 21.218977 Si / 1000 Ang^3
#
#
#
# Elastic Constant Matrix: (Units=GPa)
#
#
# Indices 1 2 3 4 5 6 
#
# 1 111.9916 39.5601 49.5202 -6.1714 -3.0747 41.3011
# 2 39.5601 61.6199 18.8237 -19.4840 -0.9016 37.3752
# 3 49.5202 18.8237 77.4090 -6.6574 5.2441 15.8482
# 4 -6.1714 -19.4840 -6.6574 33.0123 9.7326 -3.6923
# 5 -3.0747 -0.9016 5.2441 9.7326 46.9897 -1.4335
# 6 41.3011 37.3752 15.8482 -3.6923 -1.4335 35.1954
#
#
#
# Elastic Compliance Matrix: (Units=1/GPa)
#
#
# Indices 1 2 3 4 5 6 
#
# 1 0.020807 0.006765 -0.009256 0.002645 0.001149 -0.027108
# 2 0.006765 0.074288 -0.001685 0.038008 -0.008331 -0.082421
# 3 -0.009256 -0.001685 0.018787 0.002465 -0.003113 0.004323
# 4 0.002645 0.038008 0.002465 0.052684 -0.011490 -0.039517
# 5 0.001149 -0.008331 -0.003113 -0.011490 0.024189 0.008679
# 6 -0.027108 -0.082421 0.004323 -0.039517 0.008679 0.142010
#
#
# Mechanical properties :
#
#
# Convention : Reuss Voigt Hill
#
# Bulk Modulus (GPa) = 9.47598 51.86985 30.67292
# Shear Modulus (GPa) = 13.28749 32.58058 22.93403
#
# Velocity S-wave (km/s) = 2.50513 3.92273 3.29116
# Velocity P-wave (km/s) = 3.58372 6.70933 5.37858
#
# Compressibility (1/GPa) = 0.10552997
#
# Stress axis : x y z
#
# Youngs Moduli (GPa) = 48.06107 13.46110 53.22754
#
# Poissons Ratio (x) = -0.09106 0.49268
# Poissons Ratio (y) = -0.32513 0.08969
# Poissons Ratio (z) = 0.44486 0.02268
#
# Static dielectric constant tensor:
#      x y z
#    x 1.828610 -0.025300 -0.066490 
#    y -0.025300 1.745560 -0.021210 
#    z -0.066490 -0.021210 1.798590 
# 
# From -- ./inp_files/347512.got.cif
#   From: 2010.05.17/outbox.cif.g08.bks.cpg/sg2_174_cif.got.tgz:347512.got - 2010.06.03 11:33:40.
