data_PCOD9079162
_publ_section_title
;
Structure prediction by ZEFSAII (Michael W. Deem and Ramdas Pophale) SiO2 
 PCOD9079162
Probable space group: P -1
;
_chemical_formula_sum "Si O2"
_cell_formula_units_Z 15
_cell_length_a 7.088731
_cell_length_b 9.900167
_cell_length_c 12.547632
_cell_angle_alpha 115.265864
_cell_angle_beta 84.153759
_cell_angle_gamma 54.199617
_cell_volume 566.872515
_symmetry_space_group_name_H-M "P -1"
_symmetry_group_IT_number 2
_symmetry_cell_setting 'triclinic'
loop_
_space_group_symop_operation_xyz
x,y,z
-x,-y,-z
loop_
_atom_site_type_symbol
_atom_site_label
_atom_site_fract_x
_atom_site_fract_y
_atom_site_fract_z
Si Si1 0.500000 0.000000 0.500000
Si Si2 0.726628 0.033692 0.196514
Si Si3 0.769247 0.929701 0.925051
Si Si4 0.057848 0.304054 0.756498
Si Si5 0.885298 0.212408 0.528068
Si Si6 0.500906 0.631957 0.958498
Si Si7 0.210758 0.251195 0.401884
Si Si8 0.325063 0.606501 0.728147
O O1 0.598165 0.841606 0.537382
O O2 0.651163 0.803021 0.331882
O O3 0.421999 0.141334 0.257662
O O4 0.699062 0.224803 0.277262
O O5 0.853979 0.939446 0.042144
O O6 0.893430 0.853655 0.213604
O O7 0.684199 0.123450 0.928280
O O8 0.029021 0.705102 0.788250
O O9 0.500000 0.000000 0.000000
O O10 0.970099 0.281169 0.640688
O O11 0.803351 0.529511 0.891667
O O12 0.572754 0.383258 0.590494
O O13 0.047656 0.189036 0.411938
O O14 0.000000 0.000000 0.500000
O O15 0.420786 0.602530 0.840115
O O16 0.500000 0.500000 0.000000
O O17 0.000000 0.500000 0.500000
#
# Coordination Sequence:
#
# PCOD9079162 Si02
#       8
#     1   2   2   2   2   2   2   2
#     4   8  18  30  54  88 116 144 202 248 278 350
#     4  10  19  39  66  88 114 165 210 241 296 379
#     4  11  24  41  57  91 124 152 201 265 305 353
#     4   9  18  35  60  86 114 154 204 235 290 369
#     4  10  21  39  59  93 129 154 193 260 316 353
#     4  10  19  37  65  85 110 157 204 241 298 367
#     4  10  18  36  63  89 121 159 210 252 295 377
#     4  10  20  39  64  82 121 165 203 239 303 383
#
# _framework density 26.460975999999999
#
# number of rings (size 3 to 8) (size 9 to 14) (size 15 to 20)
#    0.000    2.133    1.333    3.200    1.867    0.000 
#   14.400    2.000    0.000    0.000    0.000    0.000 
#    0.000    0.000    0.000    0.000    0.000    0.000 
#
# Total GULP energy -83558.850789 kJ/mol
# GULP energy per Si atom -5570.590053 kJ/mol
# Density = 2.640075 g / cm^3
# Si number density = 26.460976 Si / 1000 Ang^3
#
#
#
# Elastic Constant Matrix: (Units=GPa)
#
#
# Indices 1 2 3 4 5 6 
#
# 1 78.8636 11.6611 21.4563 5.5542 -35.0763 4.2594
# 2 11.6611 126.4547 44.1755 -5.2826 -11.6556 -5.0043
# 3 21.4563 44.1755 143.6224 13.0387 -40.3447 6.0924
# 4 5.5542 -5.2826 13.0387 45.8450 -13.4180 -6.3548
# 5 -35.0763 -11.6556 -40.3447 -13.4180 42.6142 -9.2569
# 6 4.2594 -5.0043 6.0924 -6.3548 -9.2569 27.8703
#
#
#
# Elastic Compliance Matrix: (Units=1/GPa)
#
#
# Indices 1 2 3 4 5 6 
#
# 1 0.021324 -0.000552 0.002645 0.003603 0.021946 0.004175
# 2 -0.000552 0.009301 -0.002910 0.002687 0.000898 0.003301
# 3 0.002645 -0.002910 0.010709 -0.000249 0.011552 0.000513
# 4 0.003603 0.002687 -0.000249 0.027555 0.014552 0.011103
# 5 0.021946 0.000898 0.011552 0.014552 0.061189 0.017923
# 6 0.004175 0.003301 0.000513 0.011103 0.017923 0.044208
#
#
# Mechanical properties :
#
#
# Convention : Reuss Voigt Hill
#
# Bulk Modulus (GPa) = 25.18922 55.94739 40.56830
# Shear Modulus (GPa) = 26.43363 41.37575 33.90469
#
# Velocity S-wave (km/s) = 3.16407 3.95859 3.58342
# Velocity P-wave (km/s) = 4.78419 6.48716 5.69964
#
# Compressibility (1/GPa) = 0.03969953
#
# Stress axis : x y z
#
# Youngs Moduli (GPa) = 46.89532 107.51400 93.38198
#
# Poissons Ratio (x) = 0.05933 -0.24698
# Poissons Ratio (y) = 0.02588 0.27176
# Poissons Ratio (z) = -0.12403 0.31289
#
# Static dielectric constant tensor:
#      x y z
#    x 2.275920 -0.092170 -0.071120 
#    y -0.092170 2.035620 0.049370 
#    z -0.071120 0.049370 2.176130 
# 
# From -- ./inp_files/213702.got.cif
#   From: 2010.05.17/outbox.cif.g08.bks.cpg/sg2_107_cif.got.tgz:213702.got - 2010.06.03 11:33:40.
