data_PCOD9079019
_publ_section_title
;
Structure prediction by ZEFSAII (Michael W. Deem and Ramdas Pophale) SiO2 
 PCOD9079019
Probable space group: P -1
;
_chemical_formula_sum "Si O2"
_cell_formula_units_Z 16
_cell_length_a 24.546769
_cell_length_b 8.273155
_cell_length_c 13.386555
_cell_angle_alpha 110.711965
_cell_angle_beta 21.855761
_cell_angle_gamma 123.283914
_cell_volume 732.562428
_symmetry_space_group_name_H-M "P -1"
_symmetry_group_IT_number 2
_symmetry_cell_setting 'triclinic'
loop_
_space_group_symop_operation_xyz
x,y,z
-x,-y,-z
loop_
_atom_site_type_symbol
_atom_site_label
_atom_site_fract_x
_atom_site_fract_y
_atom_site_fract_z
Si Si1 0.431900 0.144963 0.031250
Si Si2 0.893848 0.424134 0.772829
Si Si3 0.183797 0.182071 0.585344
Si Si4 0.493349 0.970712 0.319988
Si Si5 0.725145 0.349361 0.744549
Si Si6 0.836362 0.695509 0.062327
Si Si7 0.422846 0.260915 0.381156
Si Si8 0.856337 0.494938 0.172698
O O1 0.305268 0.211466 0.291474
O O2 0.326009 0.888250 0.190787
O O3 0.460665 0.137596 0.865456
O O4 0.625740 0.300832 0.797325
O O5 0.000000 0.500000 0.500000
O O6 0.052415 0.465176 0.585174
O O7 0.844475 0.582300 0.926493
O O8 0.696243 0.175310 0.062246
O O9 0.271169 0.144631 0.523817
O O10 0.206002 0.394189 0.625615
O O11 0.970415 0.962136 0.883642
O O12 0.314716 0.753208 0.630686
O O13 0.417975 0.085984 0.417722
O O14 0.620359 0.393247 0.013994
O O15 0.634712 0.616797 0.427540
O O16 0.924933 0.645363 0.989873
O O17 0.000000 0.500000 0.000000
#
# Coordination Sequence:
#
# PCOD9079019 Si02
#       8
#     2   2   2   2   2   2   2   2
#     4   9  17  32  61  87 114 152 201 249 297 340
#     4  12  22  38  60  92 122 160 201 250 294 361
#     4  10  18  36  61  90 114 149 210 257 297 338
#     4  11  22  37  59  90 129 156 197 239 307 361
#     4   9  17  32  58  89 117 148 199 251 295 340
#     4  11  22  37  63  86 120 159 201 250 301 347
#     4   9  18  34  58  88 117 149 199 253 289 349
#     4  11  24  38  59  89 126 157 198 250 303 362
#
# _framework density 21.841141
#
# number of rings (size 3 to 8) (size 9 to 14) (size 15 to 20)
#    0.000    1.750    3.750    3.750    1.750    1.500 
#    0.000    0.000    0.000    6.750    0.000    0.000 
#    0.000    0.000    0.000    0.000    0.000    0.000 
#
# Total GULP energy -89280.895233 kJ/mol
# GULP energy per Si atom -5580.055952 kJ/mol
# Density = 2.179143 g / cm^3
# Si number density = 21.841141 Si / 1000 Ang^3
#
#
#
# Elastic Constant Matrix: (Units=GPa)
#
#
# Indices 1 2 3 4 5 6 
#
# 1 23.2856 25.1623 19.1622 3.9489 -4.0763 5.6870
# 2 25.1623 97.7851 68.2418 -1.4084 -6.5361 19.0101
# 3 19.1622 68.2418 107.5361 3.1899 -22.9077 16.4926
# 4 3.9489 -1.4084 3.1899 58.0949 13.6942 8.0173
# 5 -4.0763 -6.5361 -22.9077 13.6942 29.8007 4.3149
# 6 5.6870 19.0101 16.4926 8.0173 4.3149 25.2364
#
#
#
# Elastic Compliance Matrix: (Units=1/GPa)
#
#
# Indices 1 2 3 4 5 6 
#
# 1 0.062569 -0.016415 0.001988 -0.006751 0.009964 -0.002593
# 2 -0.016415 0.024929 -0.014114 0.005516 -0.009291 -0.006019
# 3 0.001988 -0.014114 0.022830 -0.005114 0.017971 -0.006184
# 4 -0.006751 0.005516 -0.005114 0.021708 -0.013047 -0.003957
# 5 0.009964 -0.009291 0.017971 -0.013047 0.054451 -0.012157
# 6 -0.002593 -0.006019 -0.006184 -0.003957 -0.012157 0.052121
#
#
# Mechanical properties :
#
#
# Convention : Reuss Voigt Hill
#
# Bulk Modulus (GPa) = 18.78077 50.41549 34.59813
# Shear Modulus (GPa) = 15.95194 30.36242 23.15718
#
# Velocity S-wave (km/s) = 2.70545 3.73251 3.25969
# Velocity P-wave (km/s) = 4.28681 6.45821 5.48111
#
# Compressibility (1/GPa) = 0.05324595
#
# Stress axis : x y z
#
# Youngs Moduli (GPa) = 15.98224 40.11355 43.80141
#
# Poissons Ratio (x) = 0.65846 -0.08707
# Poissons Ratio (y) = 0.26235 0.61823
# Poissons Ratio (z) = -0.03177 0.56618
#
# Static dielectric constant tensor:
#      x y z
#    x 1.829040 0.006720 0.040910 
#    y 0.006720 1.791120 -0.005680 
#    z 0.040910 -0.005680 1.892170 
# 
# From -- ./inp_files/543843.got.cif
#   From: 2010.05.17/outbox.cif.g08.bks.cpg/sg2_272_cif.got.tgz:543843.got - 2010.06.03 11:33:40.
