data_PCOD9079919
_publ_section_title
;
Structure prediction by ZEFSAII (Michael W. Deem and Ramdas Pophale) SiO2 
 PCOD9079919
Probable space group: P -1
;
_chemical_formula_sum "Si O2"
_cell_formula_units_Z 14
_cell_length_a 11.830467
_cell_length_b 8.872935
_cell_length_c 7.867619
_cell_angle_alpha 80.168375
_cell_angle_beta 77.568529
_cell_angle_gamma 39.511315
_cell_volume 513.110763
_symmetry_space_group_name_H-M "P -1"
_symmetry_group_IT_number 2
_symmetry_cell_setting 'triclinic'
loop_
_space_group_symop_operation_xyz
x,y,z
-x,-y,-z
loop_
_atom_site_type_symbol
_atom_site_label
_atom_site_fract_x
_atom_site_fract_y
_atom_site_fract_z
Si Si1 0.896301 0.974726 0.318285
Si Si2 0.457329 0.721272 0.018894
Si Si3 0.635203 0.662005 0.459658
Si Si4 0.238629 0.177334 0.436228
Si Si5 0.732674 0.277410 0.657870
Si Si6 0.193391 0.640028 0.879086
Si Si7 0.132204 0.232018 0.069781
O O1 0.822155 0.121138 0.490125
O O2 0.803006 0.178910 0.170704
O O3 0.852451 0.842537 0.389685
O O4 0.105928 0.805737 0.275579
O O5 0.362726 0.768371 0.217342
O O6 0.659420 0.577789 0.000037
O O7 0.321568 0.996581 0.960379
O O8 0.500000 0.500000 0.000000
O O9 0.758514 0.653872 0.525877
O O10 0.595241 0.551286 0.605602
O O11 0.743978 0.492260 0.296111
O O12 0.449790 0.923085 0.415244
O O13 0.160856 0.235085 0.261211
O O14 0.991233 0.789921 0.930769
O O15 0.000000 0.500000 0.000000
#
# Coordination Sequence:
#
# PCOD9079919 Si02
#       7
#     2   2   2   2   2   2   2
#     4  10  18  37  76  99 134 171 231 310 366 414
#     4  12  26  48  72 103 146 198 253 290 341 439
#     4  10  22  38  73 109 139 179 228 313 380 425
#     4  11  21  42  67 109 145 178 237 295 377 430
#     4  10  19  39  67 103 134 177 233 300 362 414
#     4  11  23  46  74 104 139 186 241 302 376 417
#     4  12  27  49  71 102 150 199 240 291 353 437
#
# _framework density 27.284557
#
# number of rings (size 3 to 8) (size 9 to 14) (size 15 to 20)
#    0.000    1.143    4.286    2.571    0.000    6.857 
#   10.286    0.000    0.000    0.000    0.000    0.000 
#    0.000    0.000    0.000    0.000    0.000    0.000 
#
# Total GULP energy -78289.917925 kJ/mol
# GULP energy per Si atom -5592.136995 kJ/mol
# Density = 2.722246 g / cm^3
# Si number density = 27.284557 Si / 1000 Ang^3
#
#
#
# Elastic Constant Matrix: (Units=GPa)
#
#
# Indices 1 2 3 4 5 6 
#
# 1 113.4638 37.3108 23.0493 -6.3816 9.5319 -1.5217
# 2 37.3108 172.3131 59.1985 -6.9659 22.8876 -2.8537
# 3 23.0493 59.1985 54.6122 -11.7884 6.5382 -3.4157
# 4 -6.3816 -6.9659 -11.7884 46.4736 -2.1784 1.9510
# 5 9.5319 22.8876 6.5382 -2.1784 31.2420 -6.4969
# 6 -1.5217 -2.8537 -3.4157 1.9510 -6.4969 60.8333
#
#
#
# Elastic Compliance Matrix: (Units=1/GPa)
#
#
# Indices 1 2 3 4 5 6 
#
# 1 0.009865 -0.000889 -0.002912 0.000407 -0.001754 -0.000159
# 2 -0.000889 0.010200 -0.010405 -0.001452 -0.005258 -0.000643
# 3 -0.002912 -0.010405 0.031937 0.006205 0.002531 0.001304
# 4 0.000407 -0.001452 0.006205 0.022999 0.001178 -0.000321
# 5 -0.001754 -0.005258 0.002531 0.001178 0.036725 0.003736
# 6 -0.000159 -0.000643 0.001304 -0.000321 0.003736 0.016887
#
#
# Mechanical properties :
#
#
# Convention : Reuss Voigt Hill
#
# Bulk Modulus (GPa) = 42.39191 64.38959 53.39075
# Shear Modulus (GPa) = 30.32358 42.43181 36.37769
#
# Velocity S-wave (km/s) = 3.33736 3.94783 3.65536
# Velocity P-wave (km/s) = 5.51555 6.66566 6.11769
#
# Compressibility (1/GPa) = 0.02358941
#
# Stress axis : x y z
#
# Youngs Moduli (GPa) = 101.36442 98.04236 31.31157
#
# Poissons Ratio (x) = 0.08714 0.09119
# Poissons Ratio (y) = 0.09009 0.32580
# Poissons Ratio (z) = 0.29521 1.02015
#
# Static dielectric constant tensor:
#      x y z
#    x 2.159510 -0.009460 -0.005290 
#    y -0.009460 2.172720 -0.019710 
#    z -0.005290 -0.019710 2.236060 
# 
# From -- ./inp_files/243462.got.cif
#   From: 2010.05.17/outbox.cif.g08.bks.cpg/sg2_122_cif.got.tgz:243462.got - 2010.06.03 11:33:40.
