data_PCOD9079030
_publ_section_title
;
Structure prediction by ZEFSAII (Michael W. Deem and Ramdas Pophale) SiO2 
 PCOD9079030
Probable space group: P -1
;
_chemical_formula_sum "Si O2"
_cell_formula_units_Z 14
_cell_length_a 9.192894
_cell_length_b 11.368524
_cell_length_c 8.809388
_cell_angle_alpha 70.791253
_cell_angle_beta 61.049229
_cell_angle_gamma 103.474370
_cell_volume 669.576310
_symmetry_space_group_name_H-M "P -1"
_symmetry_group_IT_number 2
_symmetry_cell_setting 'triclinic'
loop_
_space_group_symop_operation_xyz
x,y,z
-x,-y,-z
loop_
_atom_site_type_symbol
_atom_site_label
_atom_site_fract_x
_atom_site_fract_y
_atom_site_fract_z
Si Si1 0.781107 0.531129 0.961662
Si Si2 0.432868 0.397311 0.724141
Si Si3 0.271013 0.991743 0.800463
Si Si4 0.802766 0.289352 0.196510
Si Si5 0.643728 0.234384 0.625675
Si Si6 0.882449 0.808307 0.236662
Si Si7 0.039449 0.370728 0.488515
O O1 0.827781 0.585583 0.744494
O O2 0.973717 0.629836 0.916989
O O3 0.612813 0.538788 0.132008
O O4 0.759491 0.374791 0.053230
O O5 0.500000 0.500000 0.500000
O O6 0.574289 0.333115 0.705208
O O7 0.237721 0.265675 0.821144
O O8 0.270027 0.871773 0.744410
O O9 0.466648 0.081684 0.751597
O O10 0.217435 0.100804 0.693040
O O11 0.097593 0.910894 0.038543
O O12 0.707089 0.299041 0.397089
O O13 0.831093 0.246030 0.600724
O O14 0.877785 0.687988 0.399127
O O15 0.000000 0.500000 0.500000
#
# Coordination Sequence:
#
# PCOD9079030 Si02
#       7
#     2   2   2   2   2   2   2
#     4  10  21  35  65  91 120 158 204 249 311 355
#     4  11  19  38  64  90 118 157 210 255 290 363
#     4  10  20  38  64  86 119 164 211 239 293 368
#     4  10  18  36  61  93 114 156 207 251 290 363
#     4  10  22  35  62  90 121 157 204 249 298 356
#     4  10  22  38  62  89 121 163 199 248 308 360
#     4  11  23  41  61  93 128 157 195 258 315 354
#
# _framework density 20.908745
#
# number of rings (size 3 to 8) (size 9 to 14) (size 15 to 20)
#    0.000    1.714    2.857    2.143    2.000    0.571 
#    0.000    5.714    6.286    0.000    0.000    0.000 
#    0.000    0.000    0.000    0.000    0.000    0.000 
#
# Total GULP energy -78201.684989 kJ/mol
# GULP energy per Si atom -5585.834642 kJ/mol
# Density = 2.086116 g / cm^3
# Si number density = 20.908745 Si / 1000 Ang^3
#
#
#
# Elastic Constant Matrix: (Units=GPa)
#
#
# Indices 1 2 3 4 5 6 
#
# 1 81.7252 27.5167 24.2663 1.9624 -1.2823 -2.9651
# 2 27.5167 100.2511 20.4076 4.7885 -4.0978 -24.1695
# 3 24.2663 20.4076 66.5894 15.4393 -13.9046 -11.9026
# 4 1.9624 4.7885 15.4393 33.4363 -0.6078 -12.1167
# 5 -1.2823 -4.0978 -13.9046 -0.6078 33.0439 -12.9823
# 6 -2.9651 -24.1695 -11.9026 -12.1167 -12.9823 31.1617
#
#
#
# Elastic Compliance Matrix: (Units=1/GPa)
#
#
# Indices 1 2 3 4 5 6 
#
# 1 0.015484 -0.004837 -0.006622 0.000187 -0.005551 -0.007048
# 2 -0.004837 0.015409 0.001072 0.003978 0.009005 0.017199
# 3 -0.006622 0.001072 0.023994 -0.005687 0.015161 0.013471
# 4 0.000187 0.003978 -0.005687 0.038790 0.006113 0.018561
# 5 -0.005551 0.009005 0.015161 0.006113 0.051896 0.036244
# 6 -0.007048 0.017199 0.013471 0.018561 0.036244 0.072223
#
#
# Mechanical properties :
#
#
# Convention : Reuss Voigt Hill
#
# Bulk Modulus (GPa) = 29.31403 43.66078 36.48740
# Shear Modulus (GPa) = 20.00478 31.28670 25.64574
#
# Velocity S-wave (km/s) = 3.09652 3.87246 3.50602
# Velocity P-wave (km/s) = 5.18025 6.39699 5.82050
#
# Compressibility (1/GPa) = 0.03411336
#
# Stress axis : x y z
#
# Youngs Moduli (GPa) = 64.58380 64.89788 41.67656
#
# Poissons Ratio (x) = 0.31390 0.27600
# Poissons Ratio (y) = 0.31238 -0.04470
# Poissons Ratio (z) = 0.42770 -0.06960
#
# Static dielectric constant tensor:
#      x y z
#    x 1.748400 0.001420 -0.042770 
#    y 0.001420 1.778470 -0.010360 
#    z -0.042770 -0.010360 1.764630 
# 
# From -- ./inp_files/175437.got.cif
#   From: 2010.05.17/outbox.cif.g08.bks.cpg/sg2_88_cif.got.tgz:175437.got - 2010.06.03 11:33:40.
