data_PCOD9079358
_publ_section_title
;
Structure prediction by ZEFSAII (Michael W. Deem and Ramdas Pophale) SiO2 
 PCOD9079358
Probable space group: P -1
;
_chemical_formula_sum "Si O2"
_cell_formula_units_Z 14
_cell_length_a 9.046328
_cell_length_b 11.511882
_cell_length_c 17.168590
_cell_angle_alpha 52.938701
_cell_angle_beta 151.662457
_cell_angle_gamma 128.280602
_cell_volume 658.245999
_symmetry_space_group_name_H-M "P -1"
_symmetry_group_IT_number 2
_symmetry_cell_setting 'triclinic'
loop_
_space_group_symop_operation_xyz
x,y,z
-x,-y,-z
loop_
_atom_site_type_symbol
_atom_site_label
_atom_site_fract_x
_atom_site_fract_y
_atom_site_fract_z
Si Si1 0.136210 0.335859 0.070597
Si Si2 0.889220 0.648211 0.415451
Si Si3 0.117527 0.820633 0.741238
Si Si4 0.676390 0.913149 0.840695
Si Si5 0.671348 0.040389 0.480633
Si Si6 0.478187 0.824128 0.059881
Si Si7 0.731004 0.547187 0.744170
O O1 0.277756 0.241594 0.112290
O O2 0.304575 0.382781 0.213696
O O3 0.801064 0.232974 0.984669
O O4 0.032302 0.473845 0.926642
O O5 0.748983 0.738963 0.245285
O O6 0.594349 0.580235 0.364677
O O7 0.000000 0.500000 0.500000
O O8 0.167118 0.782310 0.523196
O O9 0.351556 0.874977 0.756165
O O10 0.824429 0.672671 0.670474
O O11 0.353643 0.784823 0.931487
O O12 0.952060 0.953702 0.635466
O O13 0.594870 0.004910 0.691498
O O14 0.000000 0.000000 0.000000
O O15 0.500000 0.000000 0.500000
O O16 0.500000 0.000000 0.000000
#
# Coordination Sequence:
#
# PCOD9079358 Si02
#       7
#     2   2   2   2   2   2   2
#     4   9  19  39  63  96 135 177 232 281 338 417
#     4  11  22  38  69 104 138 173 238 299 345 397
#     4  11  23  42  67 101 138 184 229 291 355 419
#     4  12  27  42  67 103 148 181 230 291 365 419
#     4  12  26  45  72 100 140 184 245 290 341 425
#     4  10  18  36  68  97 129 182 237 280 338 411
#     4   9  20  41  69  97 133 180 233 290 341 410
#
# _framework density 21.268643000000001
#
# number of rings (size 3 to 8) (size 9 to 14) (size 15 to 20)
#    0.000    1.429    1.429    5.571    4.000    0.571 
#    0.000    0.714    0.000    0.000    0.000    0.000 
#    0.000    0.000    0.000    0.000    0.000    0.000 
#
# Total GULP energy -78022.783590 kJ/mol
# GULP energy per Si atom -5573.055971 kJ/mol
# Density = 2.122023 g / cm^3
# Si number density = 21.268643 Si / 1000 Ang^3
#
#
#
# Elastic Constant Matrix: (Units=GPa)
#
#
# Indices 1 2 3 4 5 6 
#
# 1 134.4180 33.9577 40.8938 -5.2485 14.0241 2.7913
# 2 33.9577 123.6667 33.5549 -4.9079 -1.1854 14.3861
# 3 40.8938 33.5549 119.3264 -3.7274 -4.5983 -9.1274
# 4 -5.2485 -4.9079 -3.7274 38.9031 -2.0800 6.6053
# 5 14.0241 -1.1854 -4.5983 -2.0800 25.8440 -8.1503
# 6 2.7913 14.3861 -9.1274 6.6053 -8.1503 28.5186
#
#
#
# Elastic Compliance Matrix: (Units=1/GPa)
#
#
# Indices 1 2 3 4 5 6 
#
# 1 0.009669 -0.001321 -0.003456 0.001049 -0.006981 -0.003624
# 2 -0.001321 0.010069 -0.002880 0.001881 -0.001288 -0.006676
# 3 -0.003456 -0.002880 0.011134 -0.000669 0.005943 0.007208
# 4 0.001049 0.001881 -0.000669 0.027304 -0.000877 -0.007840
# 5 -0.006981 -0.001288 0.005943 -0.000877 0.048901 0.017414
# 6 -0.003624 -0.006676 0.007208 -0.007840 0.017414 0.047886
#
#
# Mechanical properties :
#
#
# Convention : Reuss Voigt Hill
#
# Bulk Modulus (GPa) = 64.27340 66.02489 65.14915
# Shear Modulus (GPa) = 28.49588 36.58680 32.54134
#
# Velocity S-wave (km/s) = 3.66431 4.15206 3.91578
# Velocity P-wave (km/s) = 6.94178 7.35505 7.15140
#
# Compressibility (1/GPa) = 0.01555853
#
# Stress axis : x y z
#
# Youngs Moduli (GPa) = 103.42308 99.31078 89.81469
#
# Poissons Ratio (x) = 0.13120 0.31036
# Poissons Ratio (y) = 0.13664 0.25869
# Poissons Ratio (z) = 0.35738 0.28604
#
# Static dielectric constant tensor:
#      x y z
#    x 1.770880 -0.001170 -0.002410 
#    y -0.001170 1.886190 0.010350 
#    z -0.002410 0.010350 1.865990 
# 
# From -- ./inp_files/204998.got.cif
#   From: 2010.05.17/outbox.cif.g08.bks.cpg/sg2_103_cif.got.tgz:204998.got - 2010.06.03 11:33:40.
