data_PCOD9079028
_publ_section_title
;
Structure prediction by ZEFSAII (Michael W. Deem and Ramdas Pophale) SiO2 
 PCOD9079028
Probable space group: P -1
;
_chemical_formula_sum "Si O2"
_cell_formula_units_Z 16
_cell_length_a 25.282066
_cell_length_b 9.465175
_cell_length_c 11.429651
_cell_angle_alpha 53.415738
_cell_angle_beta 149.540865
_cell_angle_gamma 145.816100
_cell_volume 710.154100
_symmetry_space_group_name_H-M "P -1"
_symmetry_group_IT_number 2
_symmetry_cell_setting 'triclinic'
loop_
_space_group_symop_operation_xyz
x,y,z
-x,-y,-z
loop_
_atom_site_type_symbol
_atom_site_label
_atom_site_fract_x
_atom_site_fract_y
_atom_site_fract_z
Si Si1 0.690293 0.280574 0.995538
Si Si2 0.802446 0.504584 0.535823
Si Si3 0.035789 0.732713 0.383957
Si Si4 0.830417 0.036817 0.043841
Si Si5 0.402082 0.934648 0.461693
Si Si6 0.393415 0.500110 0.010585
Si Si7 0.272402 0.065027 0.855263
Si Si8 0.277852 0.864663 0.629499
O O1 0.534139 0.165087 0.697472
O O2 0.700744 0.256681 0.166405
O O3 0.857401 0.581725 0.117867
O O4 0.677707 0.064519 0.024764
O O5 0.706067 0.362944 0.542723
O O6 0.759462 0.270945 0.497226
O O7 0.722924 0.542902 0.277922
O O8 0.997662 0.767355 0.786864
O O9 0.124692 0.787697 0.409874
O O10 0.000000 0.500000 0.500000
O O11 0.172133 0.010628 0.581742
O O12 0.723377 0.067944 0.794559
O O13 0.714187 0.713864 0.981915
O O14 0.858978 0.102528 0.206076
O O15 0.500000 0.000000 0.500000
O O16 0.555966 0.809272 0.203939
O O17 0.421729 0.363926 0.050098
#
# Coordination Sequence:
#
# PCOD9079028 Si02
#       8
#     2   2   2   2   2   2   2   2
#     4  10  18  36  61  92 123 163 205 252 310 357
#     4  12  23  41  64  94 122 165 210 253 303 373
#     4   8  16  31  58  91 121 156 199 256 305 349
#     4  10  22  41  60  92 127 161 198 255 314 359
#     4  12  24  40  62  90 125 168 208 250 299 381
#     4  10  21  36  62  98 123 156 202 264 310 353
#     4   8  17  34  59  90 124 152 193 257 304 349
#     4  10  20  36  63  95 121 155 212 258 305 359
#
# _framework density 22.530322000000002
#
# number of rings (size 3 to 8) (size 9 to 14) (size 15 to 20)
#    0.750    1.500    2.500    3.375    0.000    2.000 
#    4.500    0.625    0.000    2.250    0.000    0.000 
#    0.000    0.000    0.000    0.000    0.000    0.000 
#
# Total GULP energy -89203.465588 kJ/mol
# GULP energy per Si atom -5575.216599 kJ/mol
# Density = 2.247904 g / cm^3
# Si number density = 22.530322 Si / 1000 Ang^3
#
#
#
# Elastic Constant Matrix: (Units=GPa)
#
#
# Indices 1 2 3 4 5 6 
#
# 1 75.6663 20.9108 2.2457 9.3667 3.9158 25.0029
# 2 20.9108 86.7260 42.1599 21.7139 13.7187 17.1038
# 3 2.2457 42.1599 58.8862 11.9874 17.2853 22.2125
# 4 9.3667 21.7139 11.9874 30.9443 3.1151 -0.1138
# 5 3.9158 13.7187 17.2853 3.1151 24.9792 10.5157
# 6 25.0029 17.1038 22.2125 -0.1138 10.5157 32.4632
#
#
#
# Elastic Compliance Matrix: (Units=1/GPa)
#
#
# Indices 1 2 3 4 5 6 
#
# 1 0.023830 -0.005524 0.014126 -0.009047 0.001430 -0.025603
# 2 -0.005524 0.021294 -0.014324 -0.007575 -0.001338 0.003243
# 3 0.014126 -0.014324 0.042812 -0.009869 -0.010412 -0.029288
# 4 -0.009047 -0.007575 -0.009869 0.044334 -0.000744 0.018108
# 5 0.001430 -0.001338 -0.010412 -0.000744 0.052118 -0.010157
# 6 -0.025603 0.003243 -0.029288 0.018108 -0.010157 0.072209
#
#
# Mechanical properties :
#
#
# Convention : Reuss Voigt Hill
#
# Bulk Modulus (GPa) = 13.07335 39.10128 26.08731
# Shear Modulus (GPa) = 17.03362 28.07483 22.55422
#
# Velocity S-wave (km/s) = 2.75258 3.53383 3.16739
# Velocity P-wave (km/s) = 3.98967 5.83466 4.99803
#
# Compressibility (1/GPa) = 0.07649148
#
# Stress axis : x y z
#
# Youngs Moduli (GPa) = 41.96470 46.96104 23.35815
#
# Poissons Ratio (x) = 0.25943 -0.32996
# Poissons Ratio (y) = 0.23183 0.33458
# Poissons Ratio (z) = -0.59280 0.67266
#
# Static dielectric constant tensor:
#      x y z
#    x 1.932450 -0.002880 0.053210 
#    y -0.002880 1.932970 -0.000920 
#    z 0.053210 -0.000920 1.895760 
# 
# From -- ./inp_files/477564.got.cif
#   From: 2010.05.17/outbox.cif.g08.bks.cpg/sg2_239_cif.got.tgz:477564.got - 2010.06.03 11:33:40.
