data_PCOD9079414
_publ_section_title
;
Structure prediction by ZEFSAII (Michael W. Deem and Ramdas Pophale) SiO2 
 PCOD9079414
Probable space group: P -1
;
_chemical_formula_sum "Si O2"
_cell_formula_units_Z 14
_cell_length_a 12.404466
_cell_length_b 7.503847
_cell_length_c 7.009215
_cell_angle_alpha 120.343226
_cell_angle_beta 104.805204
_cell_angle_gamma 86.441507
_cell_volume 542.601047
_symmetry_space_group_name_H-M "P -1"
_symmetry_group_IT_number 2
_symmetry_cell_setting 'triclinic'
loop_
_space_group_symop_operation_xyz
x,y,z
-x,-y,-z
loop_
_atom_site_type_symbol
_atom_site_label
_atom_site_fract_x
_atom_site_fract_y
_atom_site_fract_z
Si Si1 0.084909 0.336066 0.019399
Si Si2 0.130847 0.964154 0.230839
Si Si3 0.878337 0.574953 0.495600
Si Si4 0.723824 0.888014 0.994263
Si Si5 0.648134 0.152969 0.648694
Si Si6 0.435197 0.292018 0.488669
Si Si7 0.662366 0.311625 0.164145
O O1 0.143057 0.421428 0.286020
O O2 0.000000 0.500000 0.000000
O O3 0.991078 0.146643 0.907485
O O4 0.193014 0.245136 0.919122
O O5 0.218295 0.830403 0.309208
O O6 0.120741 0.187937 0.439805
O O7 0.194653 0.012772 0.085142
O O8 0.787462 0.424025 0.270388
O O9 0.000000 0.500000 0.500000
O O10 0.671990 0.092653 0.160948
O O11 0.625894 0.751996 0.765638
O O12 0.566400 0.265182 0.536462
O O13 0.614400 0.905078 0.511871
O O14 0.623365 0.244257 0.897792
O O15 0.405789 0.506843 0.682825
#
# Coordination Sequence:
#
# PCOD9079414 Si02
#       7
#     2   2   2   2   2   2   2
#     4  11  21  35  52  73 106 138 169 216 260 303
#     4   9  17  33  47  72 102 132 168 205 253 307
#     4  11  18  31  54  76 103 135 173 210 255 307
#     4   9  18  32  51  75 102 137 172 205 253 312
#     4   9  17  26  46  76 108 128 165 211 255 298
#     4   9  15  28  45  74 107 130 166 210 255 292
#     4  10  15  27  47  76 101 130 164 208 257 296
#
# _framework density 25.801645000000001
#
# number of rings (size 3 to 8) (size 9 to 14) (size 15 to 20)
#    0.000    2.571    4.286    4.714    0.000    0.000 
#    0.000    2.857    0.000    0.857    0.000    1.000 
#    0.000    0.714    0.000    0.000    0.000    0.000 
#
# Total GULP energy -78216.430741 kJ/mol
# GULP energy per Si atom -5586.887910 kJ/mol
# Density = 2.574292 g / cm^3
# Si number density = 25.801645 Si / 1000 Ang^3
#
#
#
# Elastic Constant Matrix: (Units=GPa)
#
#
# Indices 1 2 3 4 5 6 
#
# 1 93.1463 60.9696 44.0069 2.6341 14.9313 -52.5399
# 2 60.9696 160.0181 74.8712 26.3239 -1.6456 -50.2697
# 3 44.0069 74.8712 118.3554 22.5169 2.0929 -21.7916
# 4 2.6341 26.3239 22.5169 46.4783 -18.0998 -3.5119
# 5 14.9313 -1.6456 2.0929 -18.0998 37.6105 4.4416
# 6 -52.5399 -50.2697 -21.7916 -3.5119 4.4416 56.5690
#
#
#
# Elastic Compliance Matrix: (Units=1/GPa)
#
#
# Indices 1 2 3 4 5 6 
#
# 1 0.033571 -0.000239 -0.005748 -0.003897 -0.018431 0.029959
# 2 -0.000239 0.012135 -0.005097 -0.004658 -0.002335 0.008493
# 3 -0.005748 -0.005097 0.013623 -0.003722 0.000084 -0.004858
# 4 -0.003897 -0.004658 -0.003722 0.032645 0.018276 -0.008601
# 5 -0.018431 -0.002335 0.000084 0.018276 0.045141 -0.021571
# 6 0.029959 0.008493 -0.004858 -0.008601 -0.021571 0.052338
#
#
# Mechanical properties :
#
#
# Convention : Reuss Voigt Hill
#
# Bulk Modulus (GPa) = 26.90923 81.24614 54.07768
# Shear Modulus (GPa) = 22.32063 40.90968 31.61516
#
# Velocity S-wave (km/s) = 2.94442 3.98621 3.50425
# Velocity P-wave (km/s) = 4.69163 7.26248 6.11372
#
# Compressibility (1/GPa) = 0.03716196
#
# Stress axis : x y z
#
# Youngs Moduli (GPa) = 29.78779 82.40365 73.40623
#
# Poissons Ratio (x) = 0.01965 0.42195
# Poissons Ratio (y) = 0.00710 0.37414
# Poissons Ratio (z) = 0.17123 0.42000
#
# Static dielectric constant tensor:
#      x y z
#    x 2.840450 0.136570 -0.773800 
#    y 0.136570 2.199650 -0.157210 
#    z -0.773800 -0.157210 2.642050 
# 
# From -- ./inp_files/293559.got.cif
#   From: 2010.05.17/outbox.cif.g08.bks.cpg/sg2_147_cif.got.tgz:293559.got - 2010.06.03 11:33:40.
