data_PCOD9079650
_publ_section_title
;
Structure prediction by ZEFSAII (Michael W. Deem and Ramdas Pophale) SiO2 
 PCOD9079650
Probable space group: P -1
;
_chemical_formula_sum "Si O2"
_cell_formula_units_Z 14
_cell_length_a 8.782772
_cell_length_b 7.811577
_cell_length_c 12.094573
_cell_angle_alpha 91.351482
_cell_angle_beta 127.049901
_cell_angle_gamma 61.393328
_cell_volume 538.261234
_symmetry_space_group_name_H-M "P -1"
_symmetry_group_IT_number 2
_symmetry_cell_setting 'triclinic'
loop_
_space_group_symop_operation_xyz
x,y,z
-x,-y,-z
loop_
_atom_site_type_symbol
_atom_site_label
_atom_site_fract_x
_atom_site_fract_y
_atom_site_fract_z
Si Si1 0.350895 0.944916 0.140927
Si Si2 0.892321 0.737225 0.134520
Si Si3 0.508643 0.230140 0.445192
Si Si4 0.973805 0.694220 0.831969
Si Si5 0.600043 0.387149 0.705327
Si Si6 0.160147 0.157087 0.643764
Si Si7 0.040972 0.835453 0.651696
O O1 0.123306 0.126367 0.114546
O O2 0.396752 0.722694 0.183242
O O3 0.581403 0.924273 0.282320
O O4 0.303356 0.036776 0.998708
O O5 0.883978 0.715654 0.261660
O O6 0.893285 0.548396 0.076418
O O7 0.133967 0.709246 0.215257
O O8 0.272082 0.249637 0.324180
O O9 0.492097 0.329199 0.559114
O O10 0.515659 0.368358 0.353251
O O11 0.763101 0.014974 0.551927
O O12 0.117609 0.711377 0.797895
O O13 0.970654 0.276252 0.464728
O O14 0.147713 0.964795 0.673336
#
# Coordination Sequence:
#
# PCOD9079650 Si02
#       7
#     2   2   2   2   2   2   2
#     4  12  22  41  62  86 120 162 198 238 285 354
#     4  11  24  41  58  88 125 156 198 238 287 359
#     4  10  18  37  62  93 113 141 199 258 285 342
#     4  11  22  39  65  91 111 157 203 244 292 341
#     4  10  21  36  66  88 114 153 202 244 296 338
#     4  11  24  40  60  88 122 159 190 243 304 349
#     4  11  21  41  64  85 124 150 194 250 303 345
#
# _framework density 26.009672999999999
#
# number of rings (size 3 to 8) (size 9 to 14) (size 15 to 20)
#    0.000    1.143    4.286    2.571    0.000    0.571 
#    5.143    0.714    0.000    0.000    0.000    0.000 
#    0.000    0.000    0.000    0.000    0.000    0.000 
#
# Total GULP energy -78369.136565 kJ/mol
# GULP energy per Si atom -5597.795469 kJ/mol
# Density = 2.595047 g / cm^3
# Si number density = 26.009673 Si / 1000 Ang^3
#
#
#
# Elastic Constant Matrix: (Units=GPa)
#
#
# Indices 1 2 3 4 5 6 
#
# 1 84.4676 15.9985 16.4293 -16.5494 -26.3688 12.6266
# 2 15.9985 62.7944 14.3604 -15.1832 -23.9757 10.5694
# 3 16.4293 14.3604 60.5994 -11.9273 -17.6540 8.1258
# 4 -16.5494 -15.1832 -11.9273 35.9607 3.9152 -15.3198
# 5 -26.3688 -23.9757 -17.6540 3.9152 43.6167 -3.0997
# 6 12.6266 10.5694 8.1258 -15.3198 -3.0997 32.1806
#
#
#
# Elastic Compliance Matrix: (Units=1/GPa)
#
#
# Indices 1 2 3 4 5 6 
#
# 1 0.016249 0.001582 -0.000396 0.005588 0.009804 -0.003191
# 2 0.001582 0.022677 -0.000282 0.007477 0.012406 -0.003243
# 3 -0.000396 -0.000282 0.019930 0.004752 0.007115 -0.001837
# 4 0.005588 0.007477 0.004752 0.040343 0.006786 0.014011
# 5 0.009804 0.012406 0.007115 0.006786 0.037742 -0.002852
# 6 -0.003191 -0.003243 -0.001837 0.014011 -0.002852 0.040251
#
#
# Mechanical properties :
#
#
# Convention : Reuss Voigt Hill
#
# Bulk Modulus (GPa) = 16.48427 33.49307 24.98867
# Shear Modulus (GPa) = 25.56173 33.08982 29.32578
#
# Velocity S-wave (km/s) = 3.13833 3.57068 3.36146
# Velocity P-wave (km/s) = 4.41403 5.46853 4.96933
#
# Compressibility (1/GPa) = 0.06066391
#
# Stress axis : x y z
#
# Youngs Moduli (GPa) = 61.54365 44.09774 50.17438
#
# Poissons Ratio (x) = -0.06978 0.01989
# Poissons Ratio (y) = -0.09739 0.01415
# Poissons Ratio (z) = 0.02439 0.01244
#
# Static dielectric constant tensor:
#      x y z
#    x 2.053810 -0.056560 -0.071790 
#    y -0.056560 2.087700 0.041120 
#    z -0.071790 0.041120 2.058500 
# 
# From -- ./inp_files/182844.got.cif
#   From: 2010.05.17/outbox.cif.g08.bks.cpg/sg2_92_cif.got.tgz:182844.got - 2010.06.03 11:33:40.
