data_PCOD9079606
_publ_section_title
;
Structure prediction by ZEFSAII (Michael W. Deem and Ramdas Pophale) SiO2 
 PCOD9079606
Probable space group: P -1
;
_chemical_formula_sum "Si O2"
_cell_formula_units_Z 16
_cell_length_a 11.308143
_cell_length_b 11.962938
_cell_length_c 12.984464
_cell_angle_alpha 57.897001
_cell_angle_beta 34.212649
_cell_angle_gamma 50.721585
_cell_volume 764.378494
_symmetry_space_group_name_H-M "P -1"
_symmetry_group_IT_number 2
_symmetry_cell_setting 'triclinic'
loop_
_space_group_symop_operation_xyz
x,y,z
-x,-y,-z
loop_
_atom_site_type_symbol
_atom_site_label
_atom_site_fract_x
_atom_site_fract_y
_atom_site_fract_z
Si Si1 0.698041 0.880223 0.126719
Si Si2 0.300740 0.602531 0.168798
Si Si3 0.938996 0.516857 0.735862
Si Si4 0.585934 0.495698 0.636522
Si Si5 0.820699 0.908393 0.787933
Si Si6 0.905162 0.418062 0.023857
Si Si7 0.460291 0.191108 0.123171
Si Si8 0.706864 0.192436 0.606881
O O1 0.911518 0.734995 0.076213
O O2 0.477884 0.841188 0.308235
O O3 0.600023 0.044489 0.159007
O O4 0.774243 0.892974 0.947420
O O5 0.332052 0.528253 0.292703
O O6 0.079114 0.602943 0.269161
O O7 0.500000 0.500000 0.000000
O O8 0.353207 0.744074 0.069215
O O9 0.203659 0.485955 0.579286
O O10 0.832217 0.516014 0.925738
O O11 0.771903 0.675812 0.732858
O O12 0.586184 0.346100 0.670125
O O13 0.320638 0.602561 0.764268
O O14 0.646182 0.862808 0.869931
O O15 0.078216 0.812208 0.611956
O O16 0.789125 0.067579 0.695841
O O17 0.000000 0.500000 0.000000
#
# Coordination Sequence:
#
# PCOD9079606 Si02
#       8
#     2   2   2   2   2   2   2   2
#     4  11  22  36  56  83 126 159 189 233 297 352
#     4  10  20  39  66  89 111 147 206 261 290 334
#     4  11  24  40  63  89 116 153 208 247 293 341
#     4  12  21  38  64  87 119 155 196 248 297 341
#     4  10  19  33  55  87 120 150 193 242 296 344
#     4  12  25  39  57  88 129 164 189 232 295 367
#     4  10  18  37  62  85 110 153 199 252 288 336
#     4  10  20  32  56  89 116 150 197 243 287 349
#
# _framework density 20.932037999999999
#
# number of rings (size 3 to 8) (size 9 to 14) (size 15 to 20)
#    0.000    1.250    5.000    4.125    0.000    1.500 
#    0.000    0.625    0.000    0.750    0.000    0.000 
#    0.000    0.000    0.000    0.000    0.000    0.000 
#
# Total GULP energy -89179.873621 kJ/mol
# GULP energy per Si atom -5573.742101 kJ/mol
# Density = 2.088440 g / cm^3
# Si number density = 20.932038 Si / 1000 Ang^3
#
#
#
# Elastic Constant Matrix: (Units=GPa)
#
#
# Indices 1 2 3 4 5 6 
#
# 1 42.5454 14.3259 11.5013 -8.0757 -13.3873 8.8303
# 2 14.3259 81.9612 16.7293 7.4337 -15.1073 -4.3398
# 3 11.5013 16.7293 75.5267 4.1329 -11.9492 3.1245
# 4 -8.0757 7.4337 4.1329 30.7905 0.2759 -11.8931
# 5 -13.3873 -15.1073 -11.9492 0.2759 25.9713 1.7377
# 6 8.8303 -4.3398 3.1245 -11.8931 1.7377 18.1549
#
#
#
# Elastic Compliance Matrix: (Units=1/GPa)
#
#
# Indices 1 2 3 4 5 6 
#
# 1 0.034317 -0.004015 -0.001348 0.003610 0.015804 -0.016567
# 2 -0.004015 0.014733 -0.001731 -0.003215 0.005528 0.003137
# 3 -0.001348 -0.001731 0.015200 -0.004224 0.005717 -0.005689
# 4 0.003610 -0.003215 -0.004224 0.045884 -0.004359 0.028678
# 5 0.015804 0.005528 0.005717 -0.004359 0.053568 -0.015332
# 6 -0.016567 0.003137 -0.005689 0.028678 -0.015332 0.085122
#
#
# Mechanical properties :
#
#
# Convention : Reuss Voigt Hill
#
# Bulk Modulus (GPa) = 19.97549 31.68291 25.82920
# Shear Modulus (GPa) = 17.87628 25.48179 21.67903
#
# Velocity S-wave (km/s) = 2.92552 3.49285 3.22170
# Velocity P-wave (km/s) = 4.57988 5.60675 5.11913
#
# Compressibility (1/GPa) = 0.05006135
#
# Stress axis : x y z
#
# Youngs Moduli (GPa) = 29.13998 67.87634 65.78895
#
# Poissons Ratio (x) = 0.27250 0.08871
# Poissons Ratio (y) = 0.11699 0.11389
# Poissons Ratio (z) = 0.03929 0.11750
#
# Static dielectric constant tensor:
#      x y z
#    x 1.760200 -0.019420 -0.038280 
#    y -0.019420 1.853650 0.023920 
#    z -0.038280 0.023920 1.798270 
# 
# From -- ./inp_files/518822.got.cif
#   From: 2010.05.17/outbox.cif.g08.bks.cpg/sg2_260_cif.got.tgz:518822.got - 2010.06.03 11:33:40.
