data_PCOD9079303
_publ_section_title
;
Structure prediction by ZEFSAII (Michael W. Deem and Ramdas Pophale) SiO2 
 PCOD9079303
Probable space group: P -1
;
_chemical_formula_sum "Si O2"
_cell_formula_units_Z 15
_cell_length_a 9.388982
_cell_length_b 17.650669
_cell_length_c 11.411452
_cell_angle_alpha 151.521739
_cell_angle_beta 126.892726
_cell_angle_gamma 51.547290
_cell_volume 698.830159
_symmetry_space_group_name_H-M "P -1"
_symmetry_group_IT_number 2
_symmetry_cell_setting 'triclinic'
loop_
_space_group_symop_operation_xyz
x,y,z
-x,-y,-z
loop_
_atom_site_type_symbol
_atom_site_label
_atom_site_fract_x
_atom_site_fract_y
_atom_site_fract_z
Si Si1 0.130671 0.623004 0.720435
Si Si2 0.581609 0.861760 0.094659
Si Si3 0.800194 0.548281 0.910959
Si Si4 0.678428 0.346912 0.387752
Si Si5 0.231586 0.869530 0.518031
Si Si6 0.500000 0.000000 0.500000
Si Si7 0.483022 0.517926 0.154902
Si Si8 0.890653 0.071477 0.727081
O O1 0.190346 0.653682 0.659629
O O2 0.320971 0.541410 0.769578
O O3 0.000000 0.500000 0.500000
O O4 0.052528 0.794094 0.980842
O O5 0.501554 0.960133 0.305272
O O6 0.678414 0.976353 0.223804
O O7 0.738890 0.704693 0.007216
O O8 0.418284 0.803123 0.869638
O O9 0.776965 0.393565 0.613521
O O10 0.649324 0.585340 0.991923
O O11 0.000000 0.500000 0.000000
O O12 0.500000 0.500000 0.500000
O O13 0.385071 0.704581 0.389750
O O14 0.158163 0.858297 0.333421
O O15 0.055537 0.912079 0.572349
O O16 0.292338 0.967288 0.366219
O O17 0.500000 0.500000 0.000000
#
# Coordination Sequence:
#
# PCOD9079303 Si02
#       8
#     2   2   2   2   2   1   2   2
#     4  12  25  43  73  99 139 186 234 291 348 420
#     4  10  21  41  69  95 135 188 223 279 347 417
#     4  11  26  41  71  99 135 179 234 288 340 419
#     4  10  21  44  65  97 131 185 233 273 352 412
#     4  10  24  38  72 100 143 177 232 287 347 413
#     4  10  18  36  66  90 132 172 236 266 326 416
#     4  12  25  46  66 109 139 175 238 294 343 412
#     4  10  21  40  63 106 130 190 226 275 350 414
#
# _framework density 21.464442999999999
#
# number of rings (size 3 to 8) (size 9 to 14) (size 15 to 20)
#    0.000    1.333    5.333    0.000   13.067    0.000 
#    0.000    2.667    0.000    2.400    0.000    0.000 
#    0.000    0.000    0.000    0.000    0.000    0.000 
#
# Total GULP energy -83592.436351 kJ/mol
# GULP energy per Si atom -5572.829090 kJ/mol
# Density = 2.141559 g / cm^3
# Si number density = 21.464443 Si / 1000 Ang^3
#
#
#
# Elastic Constant Matrix: (Units=GPa)
#
#
# Indices 1 2 3 4 5 6 
#
# 1 117.0755 15.7100 38.7199 -8.5820 4.0796 -9.8981
# 2 15.7100 77.1773 7.8736 -3.7549 0.6709 -8.5234
# 3 38.7199 7.8736 99.5283 -26.2192 7.2411 0.0545
# 4 -8.5820 -3.7549 -26.2192 44.4187 -0.6733 3.4082
# 5 4.0796 0.6709 7.2411 -0.6733 39.5001 -2.4970
# 6 -9.8981 -8.5234 0.0545 3.4082 -2.4970 27.1809
#
#
#
# Elastic Compliance Matrix: (Units=1/GPa)
#
#
# Indices 1 2 3 4 5 6 
#
# 1 0.010317 -0.001339 -0.004119 -0.000816 -0.000084 0.003440
# 2 -0.001339 0.013713 -0.000500 0.000318 0.000242 0.003796
# 3 -0.004119 -0.000500 0.013825 0.007506 -0.002151 -0.002823
# 4 -0.000816 0.000318 0.007506 0.027081 -0.001070 -0.003707
# 5 -0.000084 0.000242 -0.002151 -0.001070 0.025859 0.002559
# 6 0.003440 0.003796 -0.002823 -0.003707 0.002559 0.039939
#
#
# Mechanical properties :
#
#
# Convention : Reuss Voigt Hill
#
# Bulk Modulus (GPa) = 38.55017 46.48756 42.51886
# Shear Modulus (GPa) = 33.04772 37.65177 35.34974
#
# Velocity S-wave (km/s) = 3.92809 4.19280 4.06260
# Velocity P-wave (km/s) = 6.21065 6.71895 6.46980
#
# Compressibility (1/GPa) = 0.02594023
#
# Stress axis : x y z
#
# Youngs Moduli (GPa) = 96.92506 72.92171 72.33439
#
# Poissons Ratio (x) = 0.09764 0.29792
# Poissons Ratio (y) = 0.12979 0.03616
# Poissons Ratio (z) = 0.39919 0.03645
#
# Static dielectric constant tensor:
#      x y z
#    x 1.444280 0.142770 0.015470 
#    y 0.142770 1.759710 0.030390 
#    z 0.015470 0.030390 1.825680 
# 
# From -- ./inp_files/403616.got.cif
#   From: 2010.05.17/outbox.cif.g08.bks.cpg/sg2_202_cif.got.tgz:403616.got - 2010.06.03 11:33:40.
