data_PCOD9079476
_publ_section_title
;
Structure prediction by ZEFSAII (Michael W. Deem and Ramdas Pophale) SiO2 
 PCOD9079476
Probable space group: P -1
;
_chemical_formula_sum "Si O2"
_cell_formula_units_Z 16
_cell_length_a 27.787591
_cell_length_b 22.327391
_cell_length_c 8.361362
_cell_angle_alpha 126.050489
_cell_angle_beta 52.957615
_cell_angle_gamma 170.771523
_cell_volume 663.292103
_symmetry_space_group_name_H-M "P -1"
_symmetry_group_IT_number 2
_symmetry_cell_setting 'triclinic'
loop_
_space_group_symop_operation_xyz
x,y,z
-x,-y,-z
loop_
_atom_site_type_symbol
_atom_site_label
_atom_site_fract_x
_atom_site_fract_y
_atom_site_fract_z
Si Si1 0.716753 0.680485 0.678697
Si Si2 0.283415 0.630666 0.185919
Si Si3 0.600902 0.429000 0.804526
Si Si4 0.222214 0.875185 0.483960
Si Si5 0.913174 0.766264 0.014264
Si Si6 0.674392 0.883774 0.628160
Si Si7 0.001541 0.301379 0.926750
Si Si8 0.957827 0.423287 0.146464
O O1 0.684596 0.586768 0.746102
O O2 0.430633 0.316822 0.568299
O O3 0.000000 0.000000 0.500000
O O4 0.801641 0.861438 0.869953
O O5 0.102635 0.340109 0.145182
O O6 0.088021 0.467819 0.354137
O O7 0.286900 0.626333 0.978517
O O8 0.601653 0.012354 0.237226
O O9 0.866132 0.743858 0.898511
O O10 0.495781 0.227323 0.606907
O O11 0.293918 0.075887 0.966829
O O12 0.167326 0.724563 0.314670
O O13 0.252470 0.963509 0.404806
O O14 0.613616 0.430800 0.188060
O O15 0.942021 0.192921 0.704780
O O16 0.003078 0.390794 0.028185
O O17 0.000000 0.500000 0.000000
#
# Coordination Sequence:
#
# PCOD9079476 Si02
#       8
#     2   2   2   2   2   2   2   2
#     4   9  18  31  63  91 118 157 205 243 290 363
#     4  11  23  38  59  91 122 155 202 249 297 356
#     4   9  18  35  58  85 120 160 192 246 297 345
#     4  10  21  37  58  88 119 154 202 250 297 349
#     4  10  18  37  59  88 122 160 203 241 298 360
#     4   9  17  39  58  84 123 159 194 251 296 344
#     4  10  21  39  63  84 124 161 198 246 302 351
#     4  12  22  42  65  85 119 164 201 244 302 357
#
# _framework density 24.122101000000001
#
# number of rings (size 3 to 8) (size 9 to 14) (size 15 to 20)
#    0.000    2.000    3.750    0.750    0.000    2.500 
#    2.250   10.000    0.000    0.000    0.000    0.000 
#    0.000    0.000    0.000    0.000    0.000    0.000 
#
# Total GULP energy -89426.372219 kJ/mol
# GULP energy per Si atom -5589.148264 kJ/mol
# Density = 2.406720 g / cm^3
# Si number density = 24.122101 Si / 1000 Ang^3
#
#
#
# Elastic Constant Matrix: (Units=GPa)
#
#
# Indices 1 2 3 4 5 6 
#
# 1 63.4395 9.5915 24.0185 -3.7707 18.5101 -16.8816
# 2 9.5915 68.5139 49.3588 11.3646 -7.0669 -12.5056
# 3 24.0185 49.3588 95.0473 32.8404 13.2403 -4.6857
# 4 -3.7707 11.3646 32.8404 43.8936 0.7668 -1.7303
# 5 18.5101 -7.0669 13.2403 0.7668 41.7740 4.2599
# 6 -16.8816 -12.5056 -4.6857 -1.7303 4.2599 31.3302
#
#
#
# Elastic Compliance Matrix: (Units=1/GPa)
#
#
# Indices 1 2 3 4 5 6 
#
# 1 0.026671 0.003615 -0.009680 0.009412 -0.009967 0.016241
# 2 0.003615 0.029701 -0.019630 0.007559 0.008472 0.010133
# 3 -0.009680 -0.019630 0.030170 -0.018530 -0.007381 -0.008559
# 4 0.009412 0.007559 -0.018530 0.035749 0.001604 0.007073
# 5 -0.009967 0.008472 -0.007381 0.001604 0.032860 -0.007472
# 6 0.016241 0.010133 -0.008559 0.007073 -0.007472 0.044841
#
#
# Mechanical properties :
#
#
# Convention : Reuss Voigt Hill
#
# Bulk Modulus (GPa) = 28.44761 43.65980 36.05371
# Shear Modulus (GPa) = 19.00444 33.00166 26.00305
#
# Velocity S-wave (km/s) = 2.80990 3.70281 3.28682
# Velocity P-wave (km/s) = 4.72717 6.03489 5.42061
#
# Compressibility (1/GPa) = 0.03515234
#
# Stress axis : x y z
#
# Youngs Moduli (GPa) = 37.49409 33.66936 33.14595
#
# Poissons Ratio (x) = -0.12171 0.32085
# Poissons Ratio (y) = -0.13554 0.65064
# Poissons Ratio (z) = 0.36294 0.66091
#
# Static dielectric constant tensor:
#      x y z
#    x 1.863510 0.004540 0.037850 
#    y 0.004540 1.980710 -0.023690 
#    z 0.037850 -0.023690 1.961570 
# 
# From -- ./inp_files/202886.got.cif
#   From: 2010.05.17/outbox.cif.g08.bks.cpg/sg2_102_cif.got.tgz:202886.got - 2010.06.03 11:33:40.
