data_PCOD9079628
_publ_section_title
;
Structure prediction by ZEFSAII (Michael W. Deem and Ramdas Pophale) SiO2 
 PCOD9079628
Probable space group: P -1
;
_chemical_formula_sum "Si O2"
_cell_formula_units_Z 14
_cell_length_a 11.495859
_cell_length_b 10.085703
_cell_length_c 8.617796
_cell_angle_alpha 76.945830
_cell_angle_beta 109.524413
_cell_angle_gamma 48.226525
_cell_volume 540.760664
_symmetry_space_group_name_H-M "P -1"
_symmetry_group_IT_number 2
_symmetry_cell_setting 'triclinic'
loop_
_space_group_symop_operation_xyz
x,y,z
-x,-y,-z
loop_
_atom_site_type_symbol
_atom_site_label
_atom_site_fract_x
_atom_site_fract_y
_atom_site_fract_z
Si Si1 0.329902 0.148914 0.748575
Si Si2 0.768422 0.135162 0.562878
Si Si3 0.939290 0.609586 0.148833
Si Si4 0.867340 0.370853 0.249619
Si Si5 0.622857 0.190755 0.162745
Si Si6 0.050618 0.756368 0.315997
Si Si7 0.576686 0.041070 0.648562
O O1 0.129527 0.327181 0.717785
O O2 0.385823 0.217129 0.639431
O O3 0.352194 0.986402 0.715244
O O4 0.500000 0.000000 0.000000
O O5 0.673520 0.239938 0.319307
O O6 0.801731 0.244372 0.640446
O O7 0.640797 0.130497 0.592716
O O8 0.999091 0.868154 0.702943
O O9 0.966005 0.422313 0.203315
O O10 0.073818 0.628460 0.217926
O O11 0.762617 0.804514 0.893509
O O12 0.618710 0.585006 0.052756
O O13 0.901661 0.330396 0.460740
O O14 0.802705 0.027254 0.152077
O O15 0.500000 0.000000 0.500000
#
# Coordination Sequence:
#
# PCOD9079628 Si02
#       7
#     2   2   2   2   2   2   2
#     4   9  16  33  60  91 113 151 207 252 296 347
#     4  11  24  38  58  95 130 165 196 251 321 375
#     4  10  21  39  64  94 119 160 214 260 299 359
#     4  11  20  38  68  93 119 161 215 261 296 356
#     4  10  18  37  62  88 122 156 212 251 299 355
#     4  10  24  38  58  94 129 162 203 250 314 372
#     4  11  20  38  65  91 125 166 204 255 310 370
#
# _framework density 25.889457
#
# number of rings (size 3 to 8) (size 9 to 14) (size 15 to 20)
#    0.000    1.714    4.286    2.143    0.000    3.429 
#    0.000    0.000    0.000    0.857    0.000    0.000 
#    0.000    0.000    0.000    0.000    0.000    0.000 
#
# Total GULP energy -78157.776206 kJ/mol
# GULP energy per Si atom -5582.698300 kJ/mol
# Density = 2.583053 g / cm^3
# Si number density = 25.889457 Si / 1000 Ang^3
#
#
#
# Elastic Constant Matrix: (Units=GPa)
#
#
# Indices 1 2 3 4 5 6 
#
# 1 132.8314 23.9539 39.2791 6.7943 -3.1761 31.7029
# 2 23.9539 60.6183 37.6406 4.7139 11.9981 31.8357
# 3 39.2791 37.6406 123.7197 1.1243 29.7953 15.8606
# 4 6.7943 4.7139 1.1243 23.6898 -2.7053 8.1226
# 5 -3.1761 11.9981 29.7953 -2.7053 50.4648 5.4926
# 6 31.7029 31.8357 15.8606 8.1226 5.4926 54.4827
#
#
#
# Elastic Compliance Matrix: (Units=1/GPa)
#
#
# Indices 1 2 3 4 5 6 
#
# 1 0.009758 0.000308 -0.003248 -0.000609 0.002984 -0.005123
# 2 0.000308 0.028460 -0.006553 -0.000554 -0.001309 -0.014687
# 3 -0.003248 -0.006553 0.012239 -0.000003 -0.006175 0.002780
# 4 -0.000609 -0.000554 -0.000003 0.045043 0.003202 -0.006359
# 5 0.002984 -0.001309 -0.006175 0.003202 0.024362 -0.002107
# 6 -0.005123 -0.014687 0.002780 -0.006359 -0.002107 0.030268
#
#
# Mechanical properties :
#
#
# Convention : Reuss Voigt Hill
#
# Bulk Modulus (GPa) = 31.77665 57.65739 44.71702
# Shear Modulus (GPa) = 27.83860 40.14717 33.99289
#
# Velocity S-wave (km/s) = 3.28271 3.94218 3.62747
# Velocity P-wave (km/s) = 5.16419 6.56049 5.90377
#
# Compressibility (1/GPa) = 0.03146965
#
# Stress axis : x y z
#
# Youngs Moduli (GPa) = 102.47557 35.13764 81.70863
#
# Poissons Ratio (x) = -0.01082 0.26540
# Poissons Ratio (y) = -0.03156 0.53546
# Poissons Ratio (z) = 0.33285 0.23027
#
# Static dielectric constant tensor:
#      x y z
#    x 2.197490 0.028400 0.023370 
#    y 0.028400 2.249640 -0.034860 
#    z 0.023370 -0.034860 2.011550 
# 
# From -- ./inp_files/168817.got.cif
#   From: 2010.05.17/outbox.cif.g08.bks.cpg/sg2_85_cif.got.tgz:168817.got - 2010.06.03 11:33:40.
