data_PCOD9079356
_publ_section_title
;
Structure prediction by ZEFSAII (Michael W. Deem and Ramdas Pophale) SiO2 
 PCOD9079356
Probable space group: P -1
;
_chemical_formula_sum "Si O2"
_cell_formula_units_Z 15
_cell_length_a 23.377351
_cell_length_b 13.771775
_cell_length_c 14.524474
_cell_angle_alpha 149.257438
_cell_angle_beta 159.298403
_cell_angle_gamma 21.844197
_cell_volume 613.682514
_symmetry_space_group_name_H-M "P -1"
_symmetry_group_IT_number 2
_symmetry_cell_setting 'triclinic'
loop_
_space_group_symop_operation_xyz
x,y,z
-x,-y,-z
loop_
_atom_site_type_symbol
_atom_site_label
_atom_site_fract_x
_atom_site_fract_y
_atom_site_fract_z
Si Si1 0.173735 0.620460 0.750851
Si Si2 0.645430 0.155491 0.730424
Si Si3 0.336327 0.974916 0.691601
Si Si4 0.310680 0.479595 0.639887
Si Si5 0.000000 0.000000 0.500000
Si Si6 0.086091 0.434330 0.970745
Si Si7 0.583830 0.933615 0.303740
Si Si8 0.274728 0.666432 0.464336
O O1 0.313421 0.513449 0.779278
O O2 0.297653 0.358267 0.781848
O O3 0.921808 0.765856 0.469718
O O4 0.173296 0.828089 0.965954
O O5 0.525248 0.220311 0.700473
O O6 0.461882 0.404742 0.591105
O O7 0.686223 0.931453 0.551650
O O8 0.372679 0.951413 0.617979
O O9 0.370001 0.746380 0.605006
O O10 0.500000 0.000000 0.000000
O O11 0.102119 0.511644 0.327742
O O12 0.233975 0.730556 0.675760
O O13 0.894814 0.103388 0.530899
O O14 0.140210 0.604148 0.162028
O O15 0.000000 0.500000 0.000000
O O16 0.316179 0.129385 0.067905
#
# Coordination Sequence:
#
# PCOD9079356 Si02
#       8
#     2   2   2   2   1   2   2   2
#     4  12  26  44  69 103 140 188 227 290 357 416
#     4  10  24  44  65 106 141 181 229 283 359 416
#     4  12  26  47  73 101 134 190 246 283 343 418
#     4  11  22  41  67 103 139 182 229 284 352 414
#     4  10  18  36  68  96 132 168 224 290 330 396
#     4  11  21  43  71 102 139 177 233 288 343 410
#     4  11  26  45  69 101 148 186 227 294 342 414
#     4  10  22  40  70 102 130 181 235 282 340 409
#
# _framework density 24.442606999999999
#
# number of rings (size 3 to 8) (size 9 to 14) (size 15 to 20)
#    0.000    1.067    5.333    2.400    3.733    4.267 
#    2.400    2.667    0.000    0.000    0.000    0.000 
#    0.000    0.000    0.000    0.000    0.000    0.000 
#
# Total GULP energy -83728.414989 kJ/mol
# GULP energy per Si atom -5581.894333 kJ/mol
# Density = 2.438697 g / cm^3
# Si number density = 24.442607 Si / 1000 Ang^3
#
#
#
# Elastic Constant Matrix: (Units=GPa)
#
#
# Indices 1 2 3 4 5 6 
#
# 1 68.4569 4.7633 3.3938 -0.5664 -1.1221 -8.5318
# 2 4.7633 57.7403 22.2720 1.1472 12.8297 6.5591
# 3 3.3938 22.2720 156.7780 15.9050 8.6848 -0.0806
# 4 -0.5664 1.1472 15.9050 32.5631 -4.8926 1.8201
# 5 -1.1221 12.8297 8.6848 -4.8926 28.7993 6.1135
# 6 -8.5318 6.5591 -0.0806 1.8201 6.1135 31.9933
#
#
#
# Elastic Compliance Matrix: (Units=1/GPa)
#
#
# Indices 1 2 3 4 5 6 
#
# 1 0.015293 -0.001838 -0.000123 0.000235 0.000572 0.004332
# 2 -0.001838 0.020519 -0.002376 -0.000610 -0.007931 -0.003153
# 3 -0.000123 -0.002376 0.007215 -0.003802 -0.001996 0.001070
# 4 0.000235 -0.000610 -0.003802 0.033960 0.007889 -0.003262
# 5 0.000572 -0.007931 -0.001996 0.007889 0.041628 -0.006630
# 6 0.004332 -0.003153 0.001070 -0.003262 -0.006630 0.034513
#
#
# Mechanical properties :
#
#
# Convention : Reuss Voigt Hill
#
# Bulk Modulus (GPa) = 29.10861 38.20371 33.65616
# Shear Modulus (GPa) = 28.85937 35.50753 32.18345
#
# Velocity S-wave (km/s) = 3.43986 3.81555 3.63257
# Velocity P-wave (km/s) = 5.26419 5.92243 5.60298
#
# Compressibility (1/GPa) = 0.03435410
#
# Stress axis : x y z
#
# Youngs Moduli (GPa) = 65.38961 48.73458 138.59177
#
# Poissons Ratio (x) = 0.08957 0.01708
# Poissons Ratio (y) = 0.12018 0.32924
# Poissons Ratio (z) = 0.00806 0.11578
#
# Static dielectric constant tensor:
#      x y z
#    x 1.952490 0.017670 0.029810 
#    y 0.017670 1.984150 0.068490 
#    z 0.029810 0.068490 2.016550 
# 
# From -- ./inp_files/543080.got.cif
#   From: 2010.05.17/outbox.cif.g08.bks.cpg/sg2_272_cif.got.tgz:543080.got - 2010.06.03 11:33:40.
