data_PCOD9079722
_publ_section_title
;
Structure prediction by ZEFSAII (Michael W. Deem and Ramdas Pophale) SiO2 
 PCOD9079722
Probable space group: P -1
;
_chemical_formula_sum "Si O2"
_cell_formula_units_Z 15
_cell_length_a 18.907418
_cell_length_b 8.775344
_cell_length_c 7.253939
_cell_angle_alpha 124.230079
_cell_angle_beta 38.039374
_cell_angle_gamma 122.217548
_cell_volume 603.512320
_symmetry_space_group_name_H-M "P -1"
_symmetry_group_IT_number 2
_symmetry_cell_setting 'triclinic'
loop_
_space_group_symop_operation_xyz
x,y,z
-x,-y,-z
loop_
_atom_site_type_symbol
_atom_site_label
_atom_site_fract_x
_atom_site_fract_y
_atom_site_fract_z
Si Si1 0.691724 0.755951 0.036500
Si Si2 0.375483 0.205012 0.232288
Si Si3 0.091778 0.624308 0.264224
Si Si4 0.500000 0.500000 0.500000
Si Si5 0.879924 0.965554 0.336513
Si Si6 0.346182 0.595626 0.659522
Si Si7 0.417446 0.905210 0.440628
Si Si8 0.942870 0.784798 0.427369
O O1 0.610984 0.593460 0.198617
O O2 0.675781 0.958054 0.288619
O O3 0.655662 0.757323 0.893438
O O4 0.826229 0.736354 0.754360
O O5 0.403785 0.405454 0.413984
O O6 0.254656 0.097022 0.492517
O O7 0.493846 0.124935 0.921770
O O8 0.122457 0.836205 0.424098
O O9 0.000000 0.500000 0.500000
O O10 0.031570 0.652182 0.211599
O O11 0.211901 0.551525 0.950492
O O12 0.429551 0.685208 0.711162
O O13 0.902014 0.797978 0.312226
O O14 0.000000 0.000000 0.000000
O O15 0.361539 0.705872 0.511774
O O16 0.500000 0.000000 0.500000
O O17 0.000000 0.000000 0.500000
#
# Coordination Sequence:
#
# PCOD9079722 Si02
#       8
#     2   2   2   1   2   2   2   2
#     4  10  21  39  65  90 125 163 201 256 315 378
#     4  10  21  39  63  87 122 167 206 250 313 377
#     4  11  22  39  65  92 123 169 215 254 316 376
#     4  12  24  36  62  90 132 152 208 262 322 366
#     4  10  21  39  65  90 129 163 205 267 315 369
#     4  12  23  39  64  87 122 165 211 258 314 374
#     4  10  18  37  64  83 114 162 203 236 313 375
#     4   9  19  39  64  90 122 164 212 250 311 377
#
# _framework density 24.854503999999999
#
# number of rings (size 3 to 8) (size 9 to 14) (size 15 to 20)
#    0.000    1.600    2.667    5.200    0.000    1.067 
#    0.000    8.000    5.867    0.000    0.000    0.000 
#    0.000    0.000    0.000    0.000    0.000    0.000 
#
# Total GULP energy -83634.622482 kJ/mol
# GULP energy per Si atom -5575.641499 kJ/mol
# Density = 2.479793 g / cm^3
# Si number density = 24.854504 Si / 1000 Ang^3
#
#
#
# Elastic Constant Matrix: (Units=GPa)
#
#
# Indices 1 2 3 4 5 6 
#
# 1 89.4128 26.6034 42.6962 -7.8581 -7.3977 -17.4822
# 2 26.6034 109.4663 51.6003 -26.0444 -0.1122 -0.9030
# 3 42.6962 51.6003 171.5676 -32.8395 -26.5516 1.6013
# 4 -7.8581 -26.0444 -32.8395 60.1088 8.4765 1.2942
# 5 -7.3977 -0.1122 -26.5516 8.4765 38.8815 0.2702
# 6 -17.4822 -0.9030 1.6013 1.2942 0.2702 43.9116
#
#
#
# Elastic Compliance Matrix: (Units=1/GPa)
#
#
# Indices 1 2 3 4 5 6 
#
# 1 0.014424 -0.002269 -0.003020 -0.000993 0.000852 0.005830
# 2 -0.002269 0.011881 -0.002756 0.003797 -0.003103 -0.000651
# 3 -0.003020 -0.002756 0.008643 0.002494 0.004788 -0.001677
# 4 -0.000993 0.003797 0.002494 0.019932 -0.002813 -0.000978
# 5 0.000852 -0.003103 0.004788 -0.002813 0.029755 0.000000
# 6 0.005830 -0.000651 -0.001677 -0.000978 0.000000 0.025171
#
#
# Mechanical properties :
#
#
# Convention : Reuss Voigt Hill
#
# Bulk Modulus (GPa) = 53.02756 68.02737 60.52746
# Shear Modulus (GPa) = 37.82675 45.21685 41.52180
#
# Velocity S-wave (km/s) = 3.90542 4.26991 4.09172
# Velocity P-wave (km/s) = 6.45894 7.19299 6.83583
#
# Compressibility (1/GPa) = 0.01885812
#
# Stress axis : x y z
#
# Youngs Moduli (GPa) = 69.32688 84.17096 115.70240
#
# Poissons Ratio (x) = 0.19101 0.34940
# Poissons Ratio (y) = 0.15733 0.31884
# Poissons Ratio (z) = 0.20935 0.23195
#
# Static dielectric constant tensor:
#      x y z
#    x 2.591170 0.152160 0.095740 
#    y 0.152160 2.060790 0.039160 
#    z 0.095740 0.039160 1.982660 
# 
# From -- ./inp_files/202343.got.cif
#   From: 2010.05.17/outbox.cif.g08.bks.cpg/sg2_102_cif.got.tgz:202343.got - 2010.06.03 11:33:40.
