data_PCOD9079166
_publ_section_title
;
Structure prediction by ZEFSAII (Michael W. Deem and Ramdas Pophale) SiO2 
 PCOD9079166
Probable space group: P -1
;
_chemical_formula_sum "Si O2"
_cell_formula_units_Z 16
_cell_length_a 14.251195
_cell_length_b 10.136889
_cell_length_c 9.136349
_cell_angle_alpha 69.210380
_cell_angle_beta 105.838697
_cell_angle_gamma 50.913866
_cell_volume 698.229276
_symmetry_space_group_name_H-M "P -1"
_symmetry_group_IT_number 2
_symmetry_cell_setting 'triclinic'
loop_
_space_group_symop_operation_xyz
x,y,z
-x,-y,-z
loop_
_atom_site_type_symbol
_atom_site_label
_atom_site_fract_x
_atom_site_fract_y
_atom_site_fract_z
Si Si1 0.705920 0.128038 0.926783
Si Si2 0.701833 0.699332 0.638290
Si Si3 0.690392 0.734348 0.142662
Si Si4 0.618666 0.493537 0.168194
Si Si5 0.355277 0.037760 0.241750
Si Si6 0.922194 0.070284 0.600897
Si Si7 0.056502 0.645352 0.367671
Si Si8 0.256828 0.621296 0.046532
O O1 0.550650 0.291582 0.902793
O O2 0.740425 0.255089 0.883034
O O3 0.668144 0.094316 0.771032
O O4 0.859601 0.875049 0.175612
O O5 0.706510 0.838928 0.675003
O O6 0.867536 0.475513 0.710104
O O7 0.670288 0.608501 0.773583
O O8 0.547896 0.861969 0.397828
O O9 0.689561 0.569761 0.172271
O O10 0.836865 0.575239 0.388086
O O11 0.729998 0.772396 0.997373
O O12 0.500000 0.000000 0.000000
O O13 0.734549 0.251788 0.407211
O O14 0.640297 0.439233 0.026037
O O15 0.910519 0.230848 0.620492
O O16 0.000000 0.000000 0.500000
O O17 0.064722 0.817867 0.843737
#
# Coordination Sequence:
#
# PCOD9079166 Si02
#       8
#     2   2   2   2   2   2   2   2
#     4  11  23  38  59  92 128 153 195 259 308 346
#     4  11  23  41  64  87 119 166 207 238 296 374
#     4  11  18  38  67  88 112 164 213 244 287 358
#     4  10  18  36  63  90 119 156 204 251 295 354
#     4  11  23  40  63  89 119 162 206 248 297 359
#     4   8  17  34  59  87 113 151 203 243 284 349
#     4  10  22  37  62  92 123 155 201 253 300 357
#     4  10  21  37  62  90 121 157 199 252 303 354
#
# _framework density 22.915106999999999
#
# number of rings (size 3 to 8) (size 9 to 14) (size 15 to 20)
#    0.000    1.750    3.750    1.125    0.000    3.500 
#    0.000    1.250    2.750    0.000    0.000    0.000 
#    0.000    0.000    0.000    0.000    0.000    0.000 
#
# Total GULP energy -89217.981828 kJ/mol
# GULP energy per Si atom -5576.123864 kJ/mol
# Density = 2.286295 g / cm^3
# Si number density = 22.915107 Si / 1000 Ang^3
#
#
#
# Elastic Constant Matrix: (Units=GPa)
#
#
# Indices 1 2 3 4 5 6 
#
# 1 15.1790 14.8841 10.1211 9.0446 2.3263 10.2072
# 2 14.8841 132.0325 41.4572 -0.5374 22.1085 10.2189
# 3 10.1211 41.4572 102.7502 -2.6877 7.4665 -10.4045
# 4 9.0446 -0.5374 -2.6877 38.8722 2.2854 18.6895
# 5 2.3263 22.1085 7.4665 2.2854 24.2911 -2.7900
# 6 10.2072 10.2189 -10.4045 18.6895 -2.7900 39.6298
#
#
#
# Elastic Compliance Matrix: (Units=1/GPa)
#
#
# Indices 1 2 3 4 5 6 
#
# 1 0.101235 -0.006616 -0.009602 -0.014519 -0.001671 -0.020160
# 2 -0.006616 0.011500 -0.003674 0.004413 -0.009693 -0.004990
# 3 -0.009602 -0.003674 0.012778 -0.000388 0.001181 0.007041
# 4 -0.014519 0.004413 -0.000388 0.037059 -0.007777 -0.015525
# 5 -0.001671 -0.009693 0.001181 -0.007777 0.051729 0.010549
# 6 -0.020160 -0.004990 0.007041 -0.015525 0.010549 0.041625
#
#
# Mechanical properties :
#
#
# Convention : Reuss Voigt Hill
#
# Bulk Modulus (GPa) = 11.66477 42.54293 27.10385
# Shear Modulus (GPa) = 15.41843 32.79191 24.10517
#
# Velocity S-wave (km/s) = 2.59675 3.78698 3.24687
# Velocity P-wave (km/s) = 3.75397 6.14226 5.09017
#
# Compressibility (1/GPa) = 0.08572822
#
# Stress axis : x y z
#
# Youngs Moduli (GPa) = 9.87804 86.95302 78.26243
#
# Poissons Ratio (x) = 0.57530 0.75148
# Poissons Ratio (y) = 0.06536 0.28753
# Poissons Ratio (z) = 0.09485 0.31946
#
# Static dielectric constant tensor:
#      x y z
#    x 1.870200 0.020210 0.037480 
#    y 0.020210 1.868550 0.013740 
#    z 0.037480 0.013740 1.913870 
# 
# From -- ./inp_files/331962.got.cif
#   From: 2010.05.17/outbox.cif.g08.bks.cpg/sg2_166_cif.got.tgz:331962.got - 2010.06.03 11:33:40.
