data_PCOD9079067
_publ_section_title
;
Structure prediction by ZEFSAII (Michael W. Deem and Ramdas Pophale) SiO2 
 PCOD9079067
Probable space group: P -1
;
_chemical_formula_sum "Si O2"
_cell_formula_units_Z 16
_cell_length_a 17.089838
_cell_length_b 9.156272
_cell_length_c 21.157573
_cell_angle_alpha 33.779925
_cell_angle_beta 154.135852
_cell_angle_gamma 130.012331
_cell_volume 723.924251
_symmetry_space_group_name_H-M "P -1"
_symmetry_group_IT_number 2
_symmetry_cell_setting 'triclinic'
loop_
_space_group_symop_operation_xyz
x,y,z
-x,-y,-z
loop_
_atom_site_type_symbol
_atom_site_label
_atom_site_fract_x
_atom_site_fract_y
_atom_site_fract_z
Si Si1 0.717184 0.244127 0.736168
Si Si2 0.796174 0.135339 0.965495
Si Si3 0.137952 0.243230 0.647385
Si Si4 0.352437 0.623033 0.634031
Si Si5 0.031196 0.558352 0.673987
Si Si6 0.036702 0.830452 0.799875
Si Si7 0.756092 0.595707 0.992657
Si Si8 0.666010 0.518556 0.469640
O O1 0.500000 0.500000 0.500000
O O2 0.837634 0.230744 0.892531
O O3 0.762790 0.312369 0.674439
O O4 0.718941 0.928493 0.851048
O O5 0.558468 0.254863 0.758588
O O6 0.871679 0.268001 0.029310
O O7 0.899508 0.782848 0.172682
O O8 0.310463 0.339746 0.719630
O O9 0.000000 0.500000 0.500000
O O10 0.009653 0.259965 0.485237
O O11 0.171369 0.965676 0.812910
O O12 0.556381 0.596683 0.820010
O O13 0.344525 0.645280 0.543794
O O14 0.178594 0.907417 0.437923
O O15 0.815233 0.660960 0.511857
O O16 0.183752 0.548082 0.842442
O O17 0.063271 0.575201 0.863139
#
# Coordination Sequence:
#
# PCOD9079067 Si02
#       8
#     2   2   2   2   2   2   2   2
#     4   9  22  40  63  86 119 158 201 243 301 357
#     4  10  18  36  62  86 113 158 198 241 288 358
#     4   9  18  38  65  83 119 165 196 237 290 362
#     4  10  21  39  60  91 122 158 195 249 294 349
#     4  10  21  39  60  89 120 155 202 244 290 359
#     4  11  21  39  61  89 124 154 202 247 291 350
#     4  11  24  38  60  91 127 148 198 256 299 337
#     4  10  19  39  64  84 113 161 204 239 293 359
#
# _framework density 22.101759999999999
#
# number of rings (size 3 to 8) (size 9 to 14) (size 15 to 20)
#    0.000    2.000    5.000    0.000    0.000    6.500 
#    0.000    4.375    0.000    0.000    0.000    0.000 
#    0.000    0.000    0.000    0.000    0.000    0.000 
#
# Total GULP energy -89259.656838 kJ/mol
# GULP energy per Si atom -5578.728552 kJ/mol
# Density = 2.205145 g / cm^3
# Si number density = 22.101760 Si / 1000 Ang^3
#
#
#
# Elastic Constant Matrix: (Units=GPa)
#
#
# Indices 1 2 3 4 5 6 
#
# 1 98.5793 44.2619 12.0904 22.0069 2.0391 -19.5390
# 2 44.2619 68.5423 41.0702 10.5484 -19.0321 -33.7381
# 3 12.0904 41.0702 53.6571 13.7539 29.5618 -5.6311
# 4 22.0069 10.5484 13.7539 43.6646 -24.7130 -8.1994
# 5 2.0391 -19.0321 29.5618 -24.7130 29.8788 1.1584
# 6 -19.5390 -33.7381 -5.6311 -8.1994 1.1584 30.6556
#
#
#
# Elastic Compliance Matrix: (Units=1/GPa)
#
#
# Indices 1 2 3 4 5 6 
#
# 1 0.011671 0.001110 -0.005805 0.000211 0.005540 0.007441
# 2 0.001110 0.006567 0.011709 -0.016938 -0.021735 0.006376
# 3 -0.005805 0.011709 0.000756 0.010931 0.015696 0.011656
# 4 0.000211 -0.016938 0.010931 0.017464 -0.006725 -0.011574
# 5 0.005540 -0.021735 0.015696 -0.006725 -0.001100 -0.019264
# 6 0.007441 0.006376 0.011656 -0.011574 -0.019264 0.044154
#
#
# Mechanical properties :
#
#
# Convention : Reuss Voigt Hill
#
# Bulk Modulus (GPa) = 30.28226 46.18042 38.23134
# Shear Modulus (GPa) = 65.36790 29.06354 47.21572
#
# Velocity S-wave (km/s) = 5.44427 3.63021 4.62701
# Velocity P-wave (km/s) = 7.29734 6.20573 6.77356
#
# Compressibility (1/GPa) = 0.03302263
#
# Stress axis : x y z
#
# Youngs Moduli (GPa) = 85.68391 152.28589 1323.08115
#
# Poissons Ratio (x) = -0.16907 7.68018
# Poissons Ratio (y) = -0.09513 -15.49231
# Poissons Ratio (z) = 0.49738 -1.78316
#
# Static dielectric constant tensor:
#      x y z
#    x 1.832930 -0.009660 -0.009230 
#    y -0.009660 1.856540 -0.017210 
#    z -0.009230 -0.017210 1.841480 
# 
# From -- ./inp_files/492963.got.cif
#   From: 2010.05.17/outbox.cif.g08.bks.cpg/sg2_247_cif.got.tgz:492963.got - 2010.06.03 11:33:40.
