data_PCOD9079699
_publ_section_title
;
Structure prediction by ZEFSAII (Michael W. Deem and Ramdas Pophale) SiO2 
 PCOD9079699
Probable space group: P -1
;
_chemical_formula_sum "Si O2"
_cell_formula_units_Z 16
_cell_length_a 21.980267
_cell_length_b 9.809033
_cell_length_c 11.727823
_cell_angle_alpha 34.440919
_cell_angle_beta 152.384762
_cell_angle_gamma 137.371797
_cell_volume 662.754324
_symmetry_space_group_name_H-M "P -1"
_symmetry_group_IT_number 2
_symmetry_cell_setting 'triclinic'
loop_
_space_group_symop_operation_xyz
x,y,z
-x,-y,-z
loop_
_atom_site_type_symbol
_atom_site_label
_atom_site_fract_x
_atom_site_fract_y
_atom_site_fract_z
Si Si1 0.429837 0.394965 0.791452
Si Si2 0.163120 0.149289 0.281819
Si Si3 0.371025 0.916937 0.906687
Si Si4 0.970074 0.970920 0.629171
Si Si5 0.299645 0.517142 0.713694
Si Si6 0.217505 0.010302 0.897655
Si Si7 0.980278 0.472175 0.623412
Si Si8 0.370044 0.579001 0.336970
O O1 0.355954 0.142312 0.813630
O O2 0.334820 0.538232 0.621357
O O3 0.460904 0.524287 0.633516
O O4 0.572862 0.351957 0.111329
O O5 0.247517 0.909964 0.619536
O O6 0.079116 0.161865 0.248594
O O7 0.280052 0.344281 0.332027
O O8 0.065832 0.239779 0.959985
O O9 0.500000 0.000000 0.000000
O O10 0.403298 0.686291 0.194885
O O11 0.886471 0.886710 0.439004
O O12 0.122663 0.923787 0.900371
O O13 0.962790 0.264918 0.421695
O O14 0.311646 0.225716 0.946532
O O15 0.161277 0.561464 0.520413
O O16 0.283368 0.787460 0.103859
O O17 0.000000 0.500000 0.500000
#
# Coordination Sequence:
#
# PCOD9079699 Si02
#       8
#     2   2   2   2   2   2   2   2
#     4  10  23  41  65  93 127 170 215 256 317 370
#     4  11  22  40  65  94 122 162 210 257 316 371
#     4  11  24  43  65  93 128 163 213 262 309 376
#     4  10  21  38  61  95 126 160 201 260 307 374
#     4  10  22  43  60  93 132 167 212 263 308 378
#     4  10  18  37  63  91 129 156 204 257 309 366
#     4  11  25  42  64  91 131 168 208 259 319 380
#     4  11  21  39  65  95 123 162 210 260 308 370
#
# _framework density 24.141674999999999
#
# number of rings (size 3 to 8) (size 9 to 14) (size 15 to 20)
#    0.000    1.500    3.750    0.750    1.750    6.500 
#    0.000    0.000    0.000    0.000    0.000    0.000 
#    0.000    0.000    0.000    0.000    0.000    0.000 
#
# Total GULP energy -89112.855661 kJ/mol
# GULP energy per Si atom -5569.553479 kJ/mol
# Density = 2.408673 g / cm^3
# Si number density = 24.141675 Si / 1000 Ang^3
#
#
#
# Elastic Constant Matrix: (Units=GPa)
#
#
# Indices 1 2 3 4 5 6 
#
# 1 151.8155 19.8267 43.8599 3.7660 -26.0336 26.6294
# 2 19.8267 69.0354 11.7459 1.0452 -11.3043 7.6682
# 3 43.8599 11.7459 129.6078 -5.9535 -25.6544 3.9125
# 4 3.7660 1.0452 -5.9535 18.6682 10.8311 -4.6431
# 5 -26.0336 -11.3043 -25.6544 10.8311 38.2278 -8.7438
# 6 26.6294 7.6682 3.9125 -4.6431 -8.7438 48.6596
#
#
#
# Elastic Compliance Matrix: (Units=1/GPa)
#
#
# Indices 1 2 3 4 5 6 
#
# 1 0.009187 -0.000784 -0.002125 -0.006779 0.005515 -0.004389
# 2 -0.000784 0.015766 -0.000381 -0.003919 0.004625 -0.001568
# 3 -0.002125 -0.000381 0.009423 0.001025 0.004800 0.001426
# 4 -0.006779 -0.003919 0.001025 0.070866 -0.023619 0.006763
# 5 0.005515 0.004625 0.004800 -0.023619 0.041438 0.001059
# 6 -0.004389 -0.001568 0.001426 0.006763 0.001059 0.023921
#
#
# Mechanical properties :
#
#
# Convention : Reuss Voigt Hill
#
# Bulk Modulus (GPa) = 35.97512 55.70262 45.83887
# Shear Modulus (GPa) = 26.81732 39.44622 33.13177
#
# Velocity S-wave (km/s) = 3.33653 4.04660 3.70860
# Velocity P-wave (km/s) = 5.45685 6.70497 6.11285
#
# Compressibility (1/GPa) = 0.02779699
#
# Stress axis : x y z
#
# Youngs Moduli (GPa) = 108.84897 63.42782 106.11932
#
# Poissons Ratio (x) = 0.04970 0.22551
# Poissons Ratio (y) = 0.08530 0.04042
# Poissons Ratio (z) = 0.23132 0.02416
#
# Static dielectric constant tensor:
#      x y z
#    x 2.033900 -0.016890 -0.000310 
#    y -0.016890 1.917070 -0.002980 
#    z -0.000310 -0.002980 2.021770 
# 
# From -- ./inp_files/474834.got.cif
#   From: 2010.05.17/outbox.cif.g08.bks.cpg/sg2_238_cif.got.tgz:474834.got - 2010.06.03 11:33:40.
