data_PCOD9079637
_publ_section_title
;
Structure prediction by ZEFSAII (Michael W. Deem and Ramdas Pophale) SiO2 
 PCOD9079637
Probable space group: P -1
;
_chemical_formula_sum "Si O2"
_cell_formula_units_Z 12
_cell_length_a 9.148524
_cell_length_b 12.947386
_cell_length_c 7.849886
_cell_angle_alpha 89.777544
_cell_angle_beta 111.402971
_cell_angle_gamma 38.314514
_cell_volume 463.942886
_symmetry_space_group_name_H-M "P -1"
_symmetry_group_IT_number 2
_symmetry_cell_setting 'triclinic'
loop_
_space_group_symop_operation_xyz
x,y,z
-x,-y,-z
loop_
_atom_site_type_symbol
_atom_site_label
_atom_site_fract_x
_atom_site_fract_y
_atom_site_fract_z
Si Si1 0.089060 0.067881 0.562727
Si Si2 0.332030 0.158012 0.073635
Si Si3 0.711360 0.247916 0.715200
Si Si4 0.746458 0.015230 0.823982
Si Si5 0.262799 0.576021 0.780737
Si Si6 0.838198 0.593233 0.246480
O O1 0.885889 0.207604 0.640552
O O2 0.984138 0.204163 0.371430
O O3 0.000000 0.000000 0.500000
O O4 0.428639 0.898139 0.745110
O O5 0.270626 0.099387 0.181563
O O6 0.089079 0.361204 0.866935
O O7 0.500000 0.000000 0.000000
O O8 0.681720 0.142015 0.658706
O O9 0.415655 0.456826 0.667362
O O10 0.933370 0.138280 0.968274
O O11 0.497953 0.191852 0.851947
O O12 0.153335 0.528866 0.813826
O O13 0.500000 0.500000 0.000000
O O14 0.000000 0.500000 0.500000
#
# Coordination Sequence:
#
# PCOD9079637 Si02
#       6
#     2   2   2   2   2   2
#     4  12  24  40  67  94 126 166 210 257 315 375
#     4  10  18  37  62  90 120 168 208 248 311 376
#     4  10  21  40  65  93 128 163 210 259 310 370
#     4   9  19  35  66  87 122 163 207 249 314 362
#     4  11  24  39  64  94 126 163 210 261 312 368
#     4  10  19  34  61  91 123 161 208 252 312 371
#
# _framework density 25.865252000000002
#
# number of rings (size 3 to 8) (size 9 to 14) (size 15 to 20)
#    0.000    1.667    3.333    3.500    4.667    0.000 
#    0.000    0.833    7.333    2.000    0.000    0.000 
#    0.000    0.000    0.000    0.000    0.000    0.000 
#
# Total GULP energy -66964.737628 kJ/mol
# GULP energy per Si atom -5580.394802 kJ/mol
# Density = 2.580638 g / cm^3
# Si number density = 25.865252 Si / 1000 Ang^3
#
#
#
# Elastic Constant Matrix: (Units=GPa)
#
#
# Indices 1 2 3 4 5 6 
#
# 1 158.3374 39.5678 47.4959 0.7361 -19.1916 47.3191
# 2 39.5678 125.4511 31.6206 -13.9722 -3.0067 38.2005
# 3 47.4959 31.6206 120.6881 -9.5369 -6.0325 39.2342
# 4 0.7361 -13.9722 -9.5369 37.7050 10.7136 -8.2874
# 5 -19.1916 -3.0067 -6.0325 10.7136 48.4235 4.7573
# 6 47.3191 38.2005 39.2342 -8.2874 4.7573 59.8318
#
#
#
# Elastic Compliance Matrix: (Units=1/GPa)
#
#
# Indices 1 2 3 4 5 6 
#
# 1 0.009740 -0.000841 -0.001296 -0.003914 0.005227 -0.007274
# 2 -0.000841 0.010227 -0.000434 0.002481 0.000215 -0.005253
# 3 -0.001296 -0.000434 0.010942 0.001020 0.001169 -0.005825
# 4 -0.003914 0.002481 0.001020 0.031589 -0.008841 0.005921
# 5 0.005227 0.000215 0.001169 -0.008841 0.025653 -0.008302
# 6 -0.007274 -0.005253 -0.005825 0.005921 -0.008302 0.031120
#
#
# Mechanical properties :
#
#
# Convention : Reuss Voigt Hill
#
# Bulk Modulus (GPa) = 38.80905 71.31612 55.06259
# Shear Modulus (GPa) = 37.59317 48.24490 42.91904
#
# Velocity S-wave (km/s) = 3.81652 4.32353 4.07791
# Velocity P-wave (km/s) = 5.87009 7.24954 6.59598
#
# Compressibility (1/GPa) = 0.02576719
#
# Stress axis : x y z
#
# Youngs Moduli (GPa) = 102.66742 97.78051 91.38922
#
# Poissons Ratio (x) = 0.08224 0.11845
# Poissons Ratio (y) = 0.08635 0.03966
# Poissons Ratio (z) = 0.13307 0.04243
#
# Static dielectric constant tensor:
#      x y z
#    x 1.996760 0.040250 -0.229850 
#    y 0.040250 2.065460 0.118470 
#    z -0.229850 0.118470 1.955370 
# 
# From -- ./inp_files/157694.got.cif
#   From: 2010.05.17/outbox.cif.g08.bks.cpg/sg2_79_cif.got.tgz:157694.got - 2010.06.03 11:33:40.
