data_PCOD9079012
_publ_section_title
;
Structure prediction by ZEFSAII (Michael W. Deem and Ramdas Pophale) SiO2 
 PCOD9079012
Probable space group: P -1
;
_chemical_formula_sum "Si O2"
_cell_formula_units_Z 14
_cell_length_a 15.469716
_cell_length_b 6.808554
_cell_length_c 17.560068
_cell_angle_alpha 44.926432
_cell_angle_beta 24.921169
_cell_angle_gamma 41.789039
_cell_volume 515.996949
_symmetry_space_group_name_H-M "P -1"
_symmetry_group_IT_number 2
_symmetry_cell_setting 'triclinic'
loop_
_space_group_symop_operation_xyz
x,y,z
-x,-y,-z
loop_
_atom_site_type_symbol
_atom_site_label
_atom_site_fract_x
_atom_site_fract_y
_atom_site_fract_z
Si Si1 0.918562 0.681723 0.339499
Si Si2 0.303690 0.986531 0.811678
Si Si3 0.433793 0.723548 0.563773
Si Si4 0.907968 0.087590 0.738509
Si Si5 0.408493 0.881669 0.325696
Si Si6 0.757670 0.208776 0.662057
Si Si7 0.910714 0.470199 0.921506
O O1 0.762435 0.530393 0.545931
O O2 0.983003 0.537599 0.245629
O O3 0.803860 0.033576 0.319655
O O4 0.107198 0.664813 0.254105
O O5 0.417892 0.075157 0.622558
O O6 0.437635 0.002484 0.775886
O O7 0.068033 0.251593 0.918389
O O8 0.266608 0.678823 0.916778
O O9 0.500000 0.500000 0.500000
O O10 0.487981 0.476707 0.651511
O O11 0.162244 0.995664 0.528536
O O12 0.869118 0.805950 0.884533
O O13 0.750984 0.190070 0.763033
O O14 0.386420 0.919160 0.242223
O O15 0.000000 0.000000 0.500000
#
# Coordination Sequence:
#
# PCOD9079012 Si02
#       7
#     2   2   2   2   2   2   2
#     4  12  21  38  68  92 115 164 203 249 306 353
#     4  10  20  39  59  88 131 159 186 255 314 350
#     4  10  18  36  61  89 119 150 195 248 294 353
#     4  11  20  41  62  87 124 157 208 253 289 356
#     4  10  18  39  62  85 122 160 195 251 294 352
#     4  10  21  36  62  94 116 155 216 250 287 354
#     4  11  23  38  60  92 125 162 195 246 312 364
#
# _framework density 27.131941999999999
#
# number of rings (size 3 to 8) (size 9 to 14) (size 15 to 20)
#    0.000    1.429    7.143    1.286    0.000    2.286 
#    0.000   13.571    0.000    1.714    0.000    0.000 
#    0.000    0.000    0.000    0.000    0.000    0.000 
#
# Total GULP energy -78321.269212 kJ/mol
# GULP energy per Si atom -5594.376372 kJ/mol
# Density = 2.707019 g / cm^3
# Si number density = 27.131942 Si / 1000 Ang^3
#
#
#
# Elastic Constant Matrix: (Units=GPa)
#
#
# Indices 1 2 3 4 5 6 
#
# 1 216.6127 17.2036 43.9664 1.2755 -43.2062 -17.1501
# 2 17.2036 67.4801 12.5543 -18.4695 -1.0084 7.3287
# 3 43.9664 12.5543 123.9547 -15.0635 -34.5170 -3.7367
# 4 1.2755 -18.4695 -15.0635 28.7754 3.4652 -3.8683
# 5 -43.2062 -1.0084 -34.5170 3.4652 50.8965 -0.0343
# 6 -17.1501 7.3287 -3.7367 -3.8683 -0.0343 25.6185
#
#
#
# Elastic Compliance Matrix: (Units=1/GPa)
#
#
# Indices 1 2 3 4 5 6 
#
# 1 0.006331 -0.002514 -0.000746 -0.002278 0.004977 0.004511
# 2 -0.002514 0.019372 -0.000631 0.011831 -0.002988 -0.005535
# 3 -0.000746 -0.000631 0.010809 0.004788 0.006360 0.001989
# 4 -0.002278 0.011831 0.004788 0.045496 -0.001548 0.002657
# 5 0.004977 -0.002988 0.006360 -0.001548 0.028235 0.004918
# 6 0.004511 -0.005535 0.001989 0.002657 0.004918 0.044336
#
#
# Mechanical properties :
#
#
# Convention : Reuss Voigt Hill
#
# Bulk Modulus (GPa) = 34.80821 61.72180 48.26501
# Shear Modulus (GPa) = 29.08021 43.34630 36.21325
#
# Velocity S-wave (km/s) = 3.27740 4.00135 3.65733
# Velocity P-wave (km/s) = 5.21334 6.64424 5.97180
#
# Compressibility (1/GPa) = 0.02872885
#
# Stress axis : x y z
#
# Youngs Moduli (GPa) = 157.95576 51.62038 92.51743
#
# Poissons Ratio (x) = 0.12979 0.06900
# Poissons Ratio (y) = 0.39714 0.05842
# Poissons Ratio (z) = 0.11781 0.03259
#
# Static dielectric constant tensor:
#      x y z
#    x 2.140910 -0.022740 0.012850 
#    y -0.022740 2.243720 0.072470 
#    z 0.012850 0.072470 2.178370 
# 
# From -- ./inp_files/612728.got.cif
#   From: 2010.05.17/outbox.cif.g08.bks.cpg/sg2_307_cif.got.tgz:612728.got - 2010.06.03 11:33:40.
