data_PCOD9079886
_publ_section_title
;
Structure prediction by ZEFSAII (Michael W. Deem and Ramdas Pophale) SiO2 
 PCOD9079886
Probable space group: P -1
;
_chemical_formula_sum "Si O2"
_cell_formula_units_Z 16
_cell_length_a 11.478869
_cell_length_b 7.892119
_cell_length_c 7.158875
_cell_angle_alpha 94.004700
_cell_angle_beta 80.763815
_cell_angle_gamma 86.105889
_cell_volume 636.504759
_symmetry_space_group_name_H-M "P -1"
_symmetry_group_IT_number 2
_symmetry_cell_setting 'triclinic'
loop_
_space_group_symop_operation_xyz
x,y,z
-x,-y,-z
loop_
_atom_site_type_symbol
_atom_site_label
_atom_site_fract_x
_atom_site_fract_y
_atom_site_fract_z
Si Si1 0.882066 0.174623 0.216783
Si Si2 0.971115 0.151497 0.756772
Si Si3 0.665259 0.666821 0.003164
Si Si4 0.893348 0.546781 0.172521
Si Si5 0.641838 0.069185 0.135465
Si Si6 0.508741 0.642273 0.355695
Si Si7 0.621785 0.804185 0.650418
Si Si8 0.285577 0.848146 0.281295
O O1 0.875615 0.375258 0.279091
O O2 0.751357 0.107710 0.241084
O O3 0.929291 0.160948 0.987529
O O4 0.970575 0.040974 0.295145
O O5 0.849109 0.195324 0.682172
O O6 0.067149 0.289139 0.714503
O O7 0.784052 0.594505 0.066934
O O8 0.562766 0.587266 0.139845
O O9 0.648015 0.871155 0.060051
O O10 0.660720 0.656882 0.779230
O O11 0.000000 0.500000 0.000000
O O12 0.511911 0.124207 0.250430
O O13 0.665971 0.169127 0.945521
O O14 0.500000 0.500000 0.500000
O O15 0.606359 0.752216 0.437522
O O16 0.383004 0.743043 0.369389
O O17 0.707534 0.953471 0.657963
#
# Coordination Sequence:
#
# PCOD9079886 Si02
#       8
#     2   2   2   2   2   2   2   2
#     4   9  18  31  58  96 125 168 220 264 329 386
#     4   9  18  35  59  91 132 165 218 277 315 392
#     4  11  22  43  66  97 132 170 221 272 333 389
#     4  10  21  35  62  98 132 167 221 275 321 394
#     4  10  18  37  68  95 127 168 219 273 322 398
#     4  12  27  42  61  97 140 171 216 276 328 393
#     4  11  23  40  70  93 127 175 219 265 332 399
#     4  10  20  40  64  94 129 168 218 270 329 394
#
# _framework density 25.137283
#
# number of rings (size 3 to 8) (size 9 to 14) (size 15 to 20)
#    0.000    1.750    3.750    1.125    7.000    3.500 
#    0.000    0.000    0.000    6.000    0.000    0.000 
#    0.000    0.000    0.000    0.000    0.000    0.000 
#
# Total GULP energy -89599.323545 kJ/mol
# GULP energy per Si atom -5599.957722 kJ/mol
# Density = 2.508007 g / cm^3
# Si number density = 25.137283 Si / 1000 Ang^3
#
#
#
# Elastic Constant Matrix: (Units=GPa)
#
#
# Indices 1 2 3 4 5 6 
#
# 1 124.4024 37.0502 39.8692 -13.5363 34.6316 -3.8697
# 2 37.0502 70.2692 36.9159 -23.1213 14.5912 0.7571
# 3 39.8692 36.9159 106.5502 -18.7342 14.1355 -11.9170
# 4 -13.5363 -23.1213 -18.7342 36.2217 -9.3074 6.7071
# 5 34.6316 14.5912 14.1355 -9.3074 37.5075 -2.3059
# 6 -3.8697 0.7571 -11.9170 6.7071 -2.3059 35.9065
#
#
#
# Elastic Compliance Matrix: (Units=1/GPa)
#
#
# Indices 1 2 3 4 5 6 
#
# 1 0.012394 -0.003885 -0.002267 -0.001507 -0.009431 0.000341
# 2 -0.003885 0.022759 -0.004861 0.011182 -0.000946 -0.004661
# 3 -0.002267 -0.004861 0.012678 0.001896 -0.000095 0.003706
# 4 -0.001507 0.011182 0.001896 0.037721 0.005290 -0.006475
# 5 -0.009431 -0.000946 -0.000095 0.005290 0.037108 0.000367
# 6 0.000341 -0.004661 0.003706 -0.006475 0.000367 0.030448
#
#
# Mechanical properties :
#
#
# Convention : Reuss Voigt Hill
#
# Bulk Modulus (GPa) = 38.75330 58.76583 48.75956
# Shear Modulus (GPa) = 27.21258 34.41956 30.81607
#
# Velocity S-wave (km/s) = 3.29379 3.70437 3.50510
# Velocity P-wave (km/s) = 5.46951 6.45950 5.98501
#
# Compressibility (1/GPa) = 0.02580426
#
# Stress axis : x y z
#
# Youngs Moduli (GPa) = 80.68271 43.93810 78.87406
#
# Poissons Ratio (x) = 0.17071 0.17883
# Poissons Ratio (y) = 0.31347 0.38343
# Poissons Ratio (z) = 0.18294 0.21360
#
# Static dielectric constant tensor:
#      x y z
#    x 1.943010 0.063740 -0.007080 
#    y 0.063740 2.051820 0.041580 
#    z -0.007080 0.041580 2.018660 
# 
# From -- ./inp_files/238462.got.cif
#   From: 2010.05.17/outbox.cif.g08.bks.cpg/sg2_120_cif.got.tgz:238462.got - 2010.06.03 11:33:40.
