data_PCOD9079014
_publ_section_title
;
Structure prediction by ZEFSAII (Michael W. Deem and Ramdas Pophale) SiO2 
 PCOD9079014
Probable space group: P -1
;
_chemical_formula_sum "Si O2"
_cell_formula_units_Z 16
_cell_length_a 18.255106
_cell_length_b 6.396912
_cell_length_c 7.965766
_cell_angle_alpha 65.858608
_cell_angle_beta 102.605302
_cell_angle_gamma 129.613826
_cell_volume 652.725170
_symmetry_space_group_name_H-M "P -1"
_symmetry_group_IT_number 2
_symmetry_cell_setting 'triclinic'
loop_
_space_group_symop_operation_xyz
x,y,z
-x,-y,-z
loop_
_atom_site_type_symbol
_atom_site_label
_atom_site_fract_x
_atom_site_fract_y
_atom_site_fract_z
Si Si1 0.141879 0.902493 0.960954
Si Si2 0.325377 0.664995 0.388649
Si Si3 0.580823 0.599323 0.372462
Si Si4 0.032379 0.249484 0.263912
Si Si5 0.852866 0.437044 0.478739
Si Si6 0.252518 0.805562 0.796185
Si Si7 0.824891 0.866427 0.742832
Si Si8 0.419482 0.024383 0.008353
O O1 0.218416 0.926322 0.874191
O O2 0.074124 0.923581 0.799720
O O3 0.081874 0.580610 0.117601
O O4 0.186495 0.113718 0.071654
O O5 0.388709 0.608666 0.548416
O O6 0.242079 0.641788 0.452299
O O7 0.265735 0.394832 0.317939
O O8 0.392384 0.952160 0.213590
O O9 0.500000 0.500000 0.500000
O O10 0.673619 0.918092 0.374575
O O11 0.558814 0.684425 0.156287
O O12 0.057903 0.298268 0.459174
O O13 0.091886 0.162424 0.233034
O O14 0.835430 0.451043 0.269353
O O15 0.856341 0.169490 0.583188
O O16 0.322690 0.772945 0.941754
O O17 0.500000 0.000000 0.000000
#
# Coordination Sequence:
#
# PCOD9079014 Si02
#       8
#     2   2   2   2   2   2   2   2
#     4  10  20  38  59  92 130 162 226 262 311 393
#     4  11  20  41  67  88 131 173 208 265 323 373
#     4  10  21  40  65  95 131 166 212 269 324 381
#     4   9  20  36  62  91 125 176 206 271 323 362
#     4  10  21  37  62  90 131 167 215 260 318 387
#     4  10  21  39  59  91 128 164 213 263 309 388
#     4  10  18  36  61  89 122 173 210 259 320 375
#     4  10  20  37  65  92 122 164 216 260 317 390
#
# _framework density 24.512615
#
# number of rings (size 3 to 8) (size 9 to 14) (size 15 to 20)
#    0.750    1.250    2.500    2.625    0.000    0.500 
#    4.500    3.125    0.000    3.750    0.000    0.000 
#    0.000    0.000    0.000    0.000    0.000    0.000 
#
# Total GULP energy -89426.270409 kJ/mol
# GULP energy per Si atom -5589.141901 kJ/mol
# Density = 2.445682 g / cm^3
# Si number density = 24.512615 Si / 1000 Ang^3
#
#
#
# Elastic Constant Matrix: (Units=GPa)
#
#
# Indices 1 2 3 4 5 6 
#
# 1 105.3374 15.2687 36.1316 12.8721 29.3674 -12.0740
# 2 15.2687 86.8441 25.0249 16.5751 4.3694 -7.4340
# 3 36.1316 25.0249 112.2568 -0.2876 25.4121 -13.5608
# 4 12.8721 16.5751 -0.2876 35.1058 -9.0697 -4.6265
# 5 29.3674 4.3694 25.4121 -9.0697 46.9316 -8.3080
# 6 -12.0740 -7.4340 -13.5608 -4.6265 -8.3080 23.7118
#
#
#
# Elastic Compliance Matrix: (Units=1/GPa)
#
#
# Indices 1 2 3 4 5 6 
#
# 1 0.013649 0.000181 -0.002391 -0.007109 -0.008406 0.001307
# 2 0.000181 0.013700 -0.002769 -0.006654 -0.000969 0.001166
# 3 -0.002391 -0.002769 0.011529 0.001860 -0.003483 0.003650
# 4 -0.007109 -0.006654 0.001860 0.038529 0.012810 0.007364
# 5 -0.008406 -0.000969 -0.003483 0.012810 0.032301 0.007241
# 6 0.001307 0.001166 0.003650 0.007364 0.007241 0.049266
#
#
# Mechanical properties :
#
#
# Convention : Reuss Voigt Hill
#
# Bulk Modulus (GPa) = 34.57874 50.80986 42.69430
# Shear Modulus (GPa) = 27.99989 36.35071 32.17530
#
# Velocity S-wave (km/s) = 3.38341 3.85507 3.62691
# Velocity P-wave (km/s) = 5.42221 6.37091 5.91561
#
# Compressibility (1/GPa) = 0.02891951
#
# Stress axis : x y z
#
# Youngs Moduli (GPa) = 73.26429 72.99526 86.73575
#
# Poissons Ratio (x) = -0.01320 0.20739
# Poissons Ratio (y) = -0.01325 0.24018
# Poissons Ratio (z) = 0.17518 0.20213
#
# Static dielectric constant tensor:
#      x y z
#    x 2.461500 0.203900 0.277740 
#    y 0.203900 2.021060 0.026960 
#    z 0.277740 0.026960 2.130280 
# 
# From -- ./inp_files/322346.got.cif
#   From: 2010.05.17/outbox.cif.g08.bks.cpg/sg2_162_cif.got.tgz:322346.got - 2010.06.03 11:33:40.
