data_PCOD9079521
_publ_section_title
;
Structure prediction by ZEFSAII (Michael W. Deem and Ramdas Pophale) SiO2 
 PCOD9079521
Probable space group: P -1
;
_chemical_formula_sum "Si O2"
_cell_formula_units_Z 16
_cell_length_a 13.574992
_cell_length_b 11.311915
_cell_length_c 7.939449
_cell_angle_alpha 53.656101
_cell_angle_beta 126.482005
_cell_angle_gamma 122.477292
_cell_volume 756.826186
_symmetry_space_group_name_H-M "P -1"
_symmetry_group_IT_number 2
_symmetry_cell_setting 'triclinic'
loop_
_space_group_symop_operation_xyz
x,y,z
-x,-y,-z
loop_
_atom_site_type_symbol
_atom_site_label
_atom_site_fract_x
_atom_site_fract_y
_atom_site_fract_z
Si Si1 0.877071 0.577019 0.984767
Si Si2 0.029637 0.877929 0.260510
Si Si3 0.243590 0.159668 0.372004
Si Si4 0.598544 0.042603 0.312752
Si Si5 0.829079 0.412158 0.732135
Si Si6 0.322727 0.913102 0.039446
Si Si7 0.131502 0.090628 0.652478
Si Si8 0.199822 0.665257 0.591344
O O1 0.829680 0.435312 0.184656
O O2 0.030603 0.617475 0.095534
O O3 0.816419 0.711357 0.870018
O O4 0.834248 0.530496 0.788314
O O5 0.084080 0.741239 0.376391
O O6 0.913246 0.819742 0.320126
O O7 0.147142 0.991927 0.383221
O O8 0.000000 0.000000 0.000000
O O9 0.371586 0.120102 0.478398
O O10 0.233357 0.181102 0.543912
O O11 0.446904 0.011488 0.181039
O O12 0.675666 0.188844 0.376723
O O13 0.645356 0.076390 0.136614
O O14 0.719828 0.260943 0.801327
O O15 0.799162 0.436541 0.486457
O O16 0.200251 0.972989 0.898950
O O17 0.000000 0.000000 0.500000
#
# Coordination Sequence:
#
# PCOD9079521 Si02
#       8
#     2   2   2   2   2   2   2   2
#     4  11  23  38  59  86 125 162 194 244 302 368
#     4  10  19  32  54  85 116 146 191 252 299 340
#     4   9  19  35  53  81 111 155 194 240 295 346
#     4   9  20  37  64  85 116 153 206 253 292 345
#     4  11  23  35  61  88 120 160 199 239 306 360
#     4  10  18  37  60  91 115 155 203 246 295 358
#     4   9  17  29  56  81 115 145 188 241 293 345
#     4  11  22  39  60  89 122 158 199 248 297 361
#
# _framework density 21.140917999999999
#
# number of rings (size 3 to 8) (size 9 to 14) (size 15 to 20)
#    0.000    2.000    1.250    4.125    3.500    0.500 
#    0.000    0.625    0.000    0.750    0.000    0.000 
#    0.000    0.000    0.000    0.000    0.000    0.000 
#
# Total GULP energy -89138.704004 kJ/mol
# GULP energy per Si atom -5571.169000 kJ/mol
# Density = 2.109280 g / cm^3
# Si number density = 21.140918 Si / 1000 Ang^3
#
#
#
# Elastic Constant Matrix: (Units=GPa)
#
#
# Indices 1 2 3 4 5 6 
#
# 1 49.1709 39.3930 28.8894 11.4731 6.2570 -4.3991
# 2 39.3930 80.0995 16.7267 5.7708 -2.1949 -10.5403
# 3 28.8894 16.7267 56.0354 -3.9872 2.3613 -9.8558
# 4 11.4731 5.7708 -3.9872 33.9917 -3.3352 1.4666
# 5 6.2570 -2.1949 2.3613 -3.3352 27.7931 7.4541
# 6 -4.3991 -10.5403 -9.8558 1.4666 7.4541 27.7878
#
#
#
# Elastic Compliance Matrix: (Units=1/GPa)
#
#
# Indices 1 2 3 4 5 6 
#
# 1 0.061455 -0.024164 -0.025938 -0.021018 -0.015132 -0.003468
# 2 -0.024164 0.023515 0.006543 0.005269 0.005882 0.005559
# 3 -0.025938 0.006543 0.031378 0.011253 0.002856 0.008145
# 4 -0.021018 0.005269 0.011253 0.037922 0.009229 -0.001815
# 5 -0.015132 0.005882 0.002856 0.009229 0.043768 -0.011379
# 6 -0.003468 0.005559 0.008145 -0.001815 -0.011379 0.043584
#
#
# Mechanical properties :
#
#
# Convention : Reuss Voigt Hill
#
# Bulk Modulus (GPa) = 34.21104 39.48045 36.84574
# Shear Modulus (GPa) = 14.77180 24.60097 19.68638
#
# Velocity S-wave (km/s) = 2.64622 3.41496 3.05486
# Velocity P-wave (km/s) = 5.05511 5.85360 5.46895
#
# Compressibility (1/GPa) = 0.02923033
#
# Stress axis : x y z
#
# Youngs Moduli (GPa) = 16.27216 42.52620 31.86912
#
# Poissons Ratio (x) = 1.02759 0.82663
# Poissons Ratio (y) = 0.39320 -0.20853
# Poissons Ratio (z) = 0.42207 -0.27826
#
# Static dielectric constant tensor:
#      x y z
#    x 1.920560 -0.054290 0.073430 
#    y -0.054290 1.794660 0.007350 
#    z 0.073430 0.007350 1.883270 
# 
# From -- ./inp_files/306586.got.cif
#   From: 2010.05.17/outbox.cif.g08.bks.cpg/sg2_154_cif.got.tgz:306586.got - 2010.06.03 11:33:40.
