data_PCOD9079743
_publ_section_title
;
Structure prediction by ZEFSAII (Michael W. Deem and Ramdas Pophale) SiO2 
 PCOD9079743
Probable space group: P -1
;
_chemical_formula_sum "Si O2"
_cell_formula_units_Z 16
_cell_length_a 8.167348
_cell_length_b 13.840653
_cell_length_c 7.688699
_cell_angle_alpha 123.980906
_cell_angle_beta 105.149218
_cell_angle_gamma 87.580785
_cell_volume 689.786370
_symmetry_space_group_name_H-M "P -1"
_symmetry_group_IT_number 2
_symmetry_cell_setting 'triclinic'
loop_
_space_group_symop_operation_xyz
x,y,z
-x,-y,-z
loop_
_atom_site_type_symbol
_atom_site_label
_atom_site_fract_x
_atom_site_fract_y
_atom_site_fract_z
Si Si1 0.204458 0.501468 0.562072
Si Si2 0.763933 0.714998 0.820020
Si Si3 0.326081 0.923715 0.436081
Si Si4 0.474046 0.246194 0.516503
Si Si5 0.229083 0.567622 0.173423
Si Si6 0.231205 0.165442 0.689576
Si Si7 0.833676 0.285746 0.043813
Si Si8 0.092204 0.360834 0.713276
O O1 0.280763 0.428130 0.356850
O O2 0.262768 0.636982 0.767736
O O3 0.208233 0.410174 0.633996
O O4 0.000000 0.500000 0.500000
O O5 0.655402 0.770511 0.696452
O O6 0.971498 0.729108 0.865041
O O7 0.732651 0.779377 0.055342
O O8 0.380302 0.842125 0.525139
O O9 0.500000 0.000000 0.500000
O O10 0.210608 0.025246 0.548495
O O11 0.255302 0.839130 0.173355
O O12 0.581222 0.375200 0.678732
O O13 0.377321 0.217546 0.644238
O O14 0.095730 0.601008 0.312698
O O15 0.168567 0.633063 0.047876
O O16 0.187102 0.433145 0.972756
O O17 0.075541 0.224894 0.622012
#
# Coordination Sequence:
#
# PCOD9079743 Si02
#       8
#     2   2   2   2   2   2   2   2
#     4   9  19  35  63  93 127 160 200 262 309 367
#     4  11  21  38  64  99 124 159 210 262 310 374
#     4   9  21  42  63  86 125 171 211 256 309 365
#     4  10  22  43  61  89 128 166 204 262 318 361
#     4   9  19  36  63  89 122 163 204 253 317 369
#     4  11  22  39  66  90 127 164 211 258 305 371
#     4   9  18  38  64  89 121 169 207 246 315 371
#     4  10  18  37  64  89 120 163 214 251 301 381
#
# _framework density 23.195585999999999
#
# number of rings (size 3 to 8) (size 9 to 14) (size 15 to 20)
#    0.000    2.250    2.500    0.000    1.750    1.500 
#    4.500   11.875    0.000    0.000    0.000    0.000 
#    0.000    0.000    0.000    0.000    0.000    0.000 
#
# Total GULP energy -89195.357270 kJ/mol
# GULP energy per Si atom -5574.709829 kJ/mol
# Density = 2.314279 g / cm^3
# Si number density = 23.195586 Si / 1000 Ang^3
#
#
#
# Elastic Constant Matrix: (Units=GPa)
#
#
# Indices 1 2 3 4 5 6 
#
# 1 39.4847 16.1279 30.7363 -3.5801 9.5135 -7.8677
# 2 16.1279 85.9747 58.1779 16.6080 -2.2776 -28.8097
# 3 30.7363 58.1779 156.4506 19.8723 -5.9474 -9.0169
# 4 -3.5801 16.6080 19.8723 48.0813 -5.4072 -3.9542
# 5 9.5135 -2.2776 -5.9474 -5.4072 44.0850 -2.1526
# 6 -7.8677 -28.8097 -9.0169 -3.9542 -2.1526 35.2427
#
#
#
# Elastic Compliance Matrix: (Units=1/GPa)
#
#
# Indices 1 2 3 4 5 6 
#
# 1 0.034648 -0.001350 -0.007004 0.005500 -0.007573 0.004994
# 2 -0.001350 0.022516 -0.006680 -0.003699 0.000883 0.016034
# 3 -0.007004 -0.006680 0.010405 -0.002660 0.002022 -0.004537
# 4 0.005500 -0.003699 -0.002660 0.023740 0.001188 0.000259
# 5 -0.007573 0.000883 0.002022 0.001188 0.024840 0.001199
# 6 0.004994 0.016034 -0.004537 0.000259 0.001199 0.041539
#
#
# Mechanical properties :
#
#
# Convention : Reuss Voigt Hill
#
# Bulk Modulus (GPa) = 26.66544 54.66601 40.66572
# Shear Modulus (GPa) = 24.96818 37.27300 31.12059
#
# Velocity S-wave (km/s) = 3.28444 4.01297 3.66684
# Velocity P-wave (km/s) = 5.08963 6.71494 5.95797
#
# Compressibility (1/GPa) = 0.03750173
#
# Stress axis : x y z
#
# Youngs Moduli (GPa) = 28.86171 44.41344 96.10724
#
# Poissons Ratio (x) = 0.05995 0.67310
# Poissons Ratio (y) = 0.03896 0.64200
# Poissons Ratio (z) = 0.20214 0.29668
#
# Static dielectric constant tensor:
#      x y z
#    x 1.966120 -0.068820 -0.082160 
#    y -0.068820 1.987310 -0.011140 
#    z -0.082160 -0.011140 1.949550 
# 
# From -- ./inp_files/209105.got.cif
#   From: 2010.05.17/outbox.cif.g08.bks.cpg/sg2_105_cif.got.tgz:209105.got - 2010.06.03 11:33:40.
