data_PCOD9079745
_publ_section_title
;
Structure prediction by ZEFSAII (Michael W. Deem and Ramdas Pophale) SiO2 
 PCOD9079745
Probable space group: P -1
;
_chemical_formula_sum "Si O2"
_cell_formula_units_Z 14
_cell_length_a 15.876551
_cell_length_b 11.612042
_cell_length_c 6.721714
_cell_angle_alpha 98.106211
_cell_angle_beta 82.654672
_cell_angle_gamma 155.793982
_cell_volume 503.021681
_symmetry_space_group_name_H-M "P -1"
_symmetry_group_IT_number 2
_symmetry_cell_setting 'triclinic'
loop_
_space_group_symop_operation_xyz
x,y,z
-x,-y,-z
loop_
_atom_site_type_symbol
_atom_site_label
_atom_site_fract_x
_atom_site_fract_y
_atom_site_fract_z
Si Si1 0.038194 0.816549 0.323384
Si Si2 0.697296 0.680199 0.901875
Si Si3 0.406393 0.258803 0.558812
Si Si4 0.268608 0.675155 0.246603
Si Si5 0.249676 0.879755 0.051513
Si Si6 0.300227 0.880052 0.610396
Si Si7 0.727017 0.517720 0.095622
O O1 0.153234 0.048202 0.191404
O O2 0.162566 0.985939 0.532695
O O3 0.089322 0.757742 0.190497
O O4 0.806597 0.568088 0.294010
O O5 0.580613 0.456026 0.721279
O O6 0.500000 0.500000 0.000000
O O7 0.790244 0.726162 0.068591
O O8 0.500000 0.500000 0.500000
O O9 0.367968 0.070017 0.491346
O O10 0.183313 0.633885 0.460251
O O11 0.268398 0.774442 0.105095
O O12 0.499934 0.930889 0.306237
O O13 0.194603 0.469351 0.101216
O O14 0.480069 0.217506 0.086058
O O15 0.194779 0.807777 0.816371
#
# Coordination Sequence:
#
# PCOD9079745 Si02
#       7
#     2   2   2   2   2   2   2
#     4  11  23  38  65  95 127 160 212 267 315 374
#     4  11  20  41  68  85 122 172 208 257 326 379
#     4  10  20  36  63  92 121 166 206 258 319 372
#     4  10  21  37  65  92 126 171 216 255 311 381
#     4  11  21  41  67  88 129 174 211 251 323 373
#     4  10  18  37  64  89 124 170 214 254 311 380
#     4  11  22  39  65  93 124 166 212 262 317 376
#
# _framework density 27.831803000000001
#
# number of rings (size 3 to 8) (size 9 to 14) (size 15 to 20)
#    0.000    1.429    5.714    2.143    0.000    0.571 
#    0.000    1.429   28.286    0.000    0.000    0.000 
#    0.000    0.000    0.000    0.000    0.000    0.000 
#
# Total GULP energy -78063.509420 kJ/mol
# GULP energy per Si atom -5575.964959 kJ/mol
# Density = 2.776846 g / cm^3
# Si number density = 27.831803 Si / 1000 Ang^3
#
#
#
# Elastic Constant Matrix: (Units=GPa)
#
#
# Indices 1 2 3 4 5 6 
#
# 1 138.5665 21.9386 20.2213 -6.4358 35.0812 -17.3647
# 2 21.9386 91.5560 10.3101 11.3386 6.0546 2.1634
# 3 20.2213 10.3101 101.3279 2.4382 13.5532 2.4505
# 4 -6.4358 11.3386 2.4382 52.1255 9.4235 3.6335
# 5 35.0812 6.0546 13.5532 9.4235 50.7580 7.9256
# 6 -17.3647 2.1634 2.4505 3.6335 7.9256 34.8051
#
#
#
# Elastic Compliance Matrix: (Units=1/GPa)
#
#
# Indices 1 2 3 4 5 6 
#
# 1 0.011063 -0.002504 -0.001029 0.003031 -0.008796 0.007434
# 2 -0.002504 0.011934 -0.000779 -0.002982 0.001371 -0.001937
# 3 -0.001029 -0.000779 0.010421 -0.000057 -0.001847 -0.000772
# 4 0.003031 -0.002982 -0.000057 0.021200 -0.005785 0.000806
# 5 -0.008796 0.001371 -0.001847 -0.005785 0.028792 -0.010296
# 6 0.007434 -0.001937 -0.000772 0.000806 -0.010296 0.034876
#
#
# Mechanical properties :
#
#
# Convention : Reuss Voigt Hill
#
# Bulk Modulus (GPa) = 40.33509 48.48784 44.41146
# Shear Modulus (GPa) = 36.98919 46.13639 41.56279
#
# Velocity S-wave (km/s) = 3.64954 4.07589 3.86859
# Velocity P-wave (km/s) = 5.68179 6.29365 5.99553
#
# Compressibility (1/GPa) = 0.02479231
#
# Stress axis : x y z
#
# Youngs Moduli (GPa) = 90.39423 83.79100 95.96250
#
# Poissons Ratio (x) = 0.20983 0.09875
# Poissons Ratio (y) = 0.22637 0.07479
# Poissons Ratio (z) = 0.09302 0.06531
#
# Static dielectric constant tensor:
#      x y z
#    x 2.137280 0.015660 0.021330 
#    y 0.015660 2.230120 -0.082870 
#    z 0.021330 -0.082870 2.241800 
# 
# From -- ./inp_files/273167.got.cif
#   From: 2010.05.17/outbox.cif.g08.bks.cpg/sg2_137_cif.got.tgz:273167.got - 2010.06.03 11:33:40.
