data_PCOD9079688
_publ_section_title
;
Structure prediction by ZEFSAII (Michael W. Deem and Ramdas Pophale) SiO2 
 PCOD9079688
Probable space group: P -1
;
_chemical_formula_sum "Si O2"
_cell_formula_units_Z 16
_cell_length_a 14.020776
_cell_length_b 12.649767
_cell_length_c 11.505172
_cell_angle_alpha 109.843048
_cell_angle_beta 151.982553
_cell_angle_gamma 54.243077
_cell_volume 689.532354
_symmetry_space_group_name_H-M "P -1"
_symmetry_group_IT_number 2
_symmetry_cell_setting 'triclinic'
loop_
_space_group_symop_operation_xyz
x,y,z
-x,-y,-z
loop_
_atom_site_type_symbol
_atom_site_label
_atom_site_fract_x
_atom_site_fract_y
_atom_site_fract_z
Si Si1 0.233100 0.969997 0.579255
Si Si2 0.175296 0.527076 0.425690
Si Si3 0.120554 0.798890 0.538042
Si Si4 0.664521 0.708283 0.824295
Si Si5 0.527371 0.624768 0.097534
Si Si6 0.756097 0.874335 0.805065
Si Si7 0.675019 0.290119 0.718750
Si Si8 0.839785 0.092551 0.025642
O O1 0.092316 0.910733 0.460807
O O2 0.532851 0.826049 0.831664
O O3 0.117708 0.107743 0.588583
O O4 0.130870 0.022359 0.357033
O O5 0.118809 0.679005 0.433723
O O6 0.210183 0.464776 0.571141
O O7 0.445273 0.423384 0.602062
O O8 0.935470 0.559109 0.107548
O O9 0.408889 0.711395 0.880054
O O10 0.715734 0.780297 0.805383
O O11 0.460058 0.691371 0.542748
O O12 0.335887 0.763604 0.028992
O O13 0.500000 0.500000 0.000000
O O14 0.500000 0.000000 0.500000
O O15 0.799617 0.975398 0.958937
O O16 0.040297 0.751861 0.001779
O O17 0.761387 0.148504 0.831134
#
# Coordination Sequence:
#
# PCOD9079688 Si02
#       8
#     2   2   2   2   2   2   2   2
#     4  10  20  37  65  93 122 159 206 268 316 366
#     4  10  22  39  61  91 126 170 207 253 311 382
#     4   9  19  40  65  90 119 163 210 263 324 364
#     4  12  24  39  61  96 128 167 214 254 311 376
#     4   8  17  36  64  88 116 160 205 253 314 368
#     4  12  23  38  63  95 126 166 213 255 313 372
#     4  11  23  42  61  89 137 169 203 259 310 373
#     4  10  18  37  63  89 126 160 201 258 312 365
#
# _framework density 23.204132000000001
#
# number of rings (size 3 to 8) (size 9 to 14) (size 15 to 20)
#    0.000    1.750    2.500    2.250    0.000    1.000 
#    2.250    0.625    0.000    0.000    0.000    0.000 
#    0.000    0.000    0.000    0.000    0.000    0.000 
#
# Total GULP energy -89094.337775 kJ/mol
# GULP energy per Si atom -5568.396111 kJ/mol
# Density = 2.315132 g / cm^3
# Si number density = 23.204132 Si / 1000 Ang^3
#
#
#
# Elastic Constant Matrix: (Units=GPa)
#
#
# Indices 1 2 3 4 5 6 
#
# 1 40.9097 2.6723 32.3963 4.1387 -7.0284 -8.1590
# 2 2.6723 91.8334 5.8458 -16.1026 8.5758 -32.1801
# 3 32.3963 5.8458 129.3507 -1.4624 -13.8719 -20.0088
# 4 4.1387 -16.1026 -1.4624 19.1186 -7.0173 1.9759
# 5 -7.0284 8.5758 -13.8719 -7.0173 35.5605 -4.5462
# 6 -8.1590 -32.1801 -20.0088 1.9759 -4.5462 21.7394
#
#
#
# Elastic Compliance Matrix: (Units=1/GPa)
#
#
# Indices 1 2 3 4 5 6 
#
# 1 0.032610 0.001626 -0.006344 -0.005857 0.003716 0.010116
# 2 0.001626 0.035070 0.008364 0.026608 0.007980 0.059471
# 3 -0.006344 0.008364 0.013291 0.009543 0.006708 0.022768
# 4 -0.005857 0.026608 0.009543 0.078600 0.017080 0.042400
# 5 0.003716 0.007980 0.006708 0.017080 0.036164 0.025392
# 6 0.010116 0.059471 0.022768 0.042400 0.025392 0.160241
#
#
# Mechanical properties :
#
#
# Convention : Reuss Voigt Hill
#
# Bulk Modulus (GPa) = 11.32979 38.21363 24.77171
# Shear Modulus (GPa) = 13.22385 30.02899 21.62642
#
# Velocity S-wave (km/s) = 2.38983 3.60129 3.05619
# Velocity P-wave (km/s) = 3.53671 5.81349 4.81170
#
# Compressibility (1/GPa) = 0.08826290
#
# Stress axis : x y z
#
# Youngs Moduli (GPa) = 30.66561 28.51465 75.23941
#
# Poissons Ratio (x) = -0.04636 0.47728
# Poissons Ratio (y) = -0.04986 -0.62930
# Poissons Ratio (z) = 0.19453 -0.23849
#
# Static dielectric constant tensor:
#      x y z
#    x 1.904260 -0.034590 0.020050 
#    y -0.034590 1.861600 -0.019260 
#    z 0.020050 -0.019260 2.037320 
# 
# From -- ./inp_files/93362.got.cif
#   From: 2010.05.17/outbox.cif.g08.bks.cpg/sg2_47_cif.got.tgz:93362.got - 2010.06.03 11:33:40.
