data_PCOD9079678
_publ_section_title
;
Structure prediction by ZEFSAII (Michael W. Deem and Ramdas Pophale) SiO2 
 PCOD9079678
Probable space group: P -1
;
_chemical_formula_sum "Si O2"
_cell_formula_units_Z 14
_cell_length_a 11.450702
_cell_length_b 7.904301
_cell_length_c 8.533422
_cell_angle_alpha 56.462695
_cell_angle_beta 60.791956
_cell_angle_gamma 56.804945
_cell_volume 519.321510
_symmetry_space_group_name_H-M "P -1"
_symmetry_group_IT_number 2
_symmetry_cell_setting 'triclinic'
loop_
_space_group_symop_operation_xyz
x,y,z
-x,-y,-z
loop_
_atom_site_type_symbol
_atom_site_label
_atom_site_fract_x
_atom_site_fract_y
_atom_site_fract_z
Si Si1 0.745885 0.864172 0.028240
Si Si2 0.823725 0.841965 0.658150
Si Si3 0.656341 0.452303 0.615003
Si Si4 0.944816 0.296243 0.635715
Si Si5 0.660799 0.454542 0.255976
Si Si6 0.666404 0.913022 0.391109
Si Si7 0.936153 0.330609 0.953307
O O1 0.661484 0.699204 0.144743
O O2 0.689333 0.996644 0.160043
O O3 0.917420 0.722431 0.017988
O O4 0.743195 0.964372 0.804758
O O5 0.740457 0.914918 0.509838
O O6 0.857994 0.585524 0.814855
O O7 0.981176 0.828026 0.506513
O O8 0.778266 0.326213 0.723415
O O9 0.663791 0.369087 0.474799
O O10 0.489214 0.527605 0.733696
O O11 0.708034 0.656381 0.459318
O O12 0.991048 0.194541 0.827385
O O13 0.000000 0.500000 0.500000
O O14 0.807067 0.306432 0.148285
O O15 0.500000 0.000000 0.500000
#
# Coordination Sequence:
#
# PCOD9079678 Si02
#       7
#     2   2   2   2   2   2   2
#     4  10  19  33  53  80 101 125 168 203 251 308
#     4  10  17  31  50  75  99 126 165 208 247 287
#     4  10  18  32  46  74 107 129 160 203 252 303
#     4  10  15  27  50  72 102 122 157 207 253 292
#     4   9  18  28  48  76 105 131 148 203 267 301
#     4  11  21  34  50  70 101 139 173 204 234 285
#     4  10  16  29  52  79 101 124 160 207 257 303
#
# _framework density 26.95825
#
# number of rings (size 3 to 8) (size 9 to 14) (size 15 to 20)
#    0.000    2.000    4.286    5.143    0.000    1.143 
#    0.000    0.000    0.000    0.857    0.000   19.000 
#    0.000    0.000    0.000    0.000    0.000    0.000 
#
# Total GULP energy -78093.064540 kJ/mol
# GULP energy per Si atom -5578.076039 kJ/mol
# Density = 2.689689 g / cm^3
# Si number density = 26.958250 Si / 1000 Ang^3
#
#
#
# Elastic Constant Matrix: (Units=GPa)
#
#
# Indices 1 2 3 4 5 6 
#
# 1 163.6134 36.8686 50.3675 1.8237 3.2384 -17.0587
# 2 36.8686 37.2660 50.6114 15.5986 3.4960 8.5181
# 3 50.3675 50.6114 196.2311 26.5756 21.2570 -2.5789
# 4 1.8237 15.5986 26.5756 52.2838 3.4618 -8.6025
# 5 3.2384 3.4960 21.2570 3.4618 43.1669 11.3141
# 6 -17.0587 8.5181 -2.5789 -8.6025 11.3141 47.1052
#
#
#
# Elastic Compliance Matrix: (Units=1/GPa)
#
#
# Indices 1 2 3 4 5 6 
#
# 1 0.009979 -0.014858 0.000959 0.005057 -0.002487 0.007874
# 2 -0.014858 0.073307 -0.013946 -0.019111 0.010220 -0.025345
# 3 0.000959 -0.013946 0.008915 0.000652 -0.004585 0.004577
# 4 0.005057 -0.019111 0.000652 0.026434 -0.004197 0.011159
# 5 -0.002487 0.010220 -0.004585 -0.004197 0.027860 -0.010458
# 6 0.007874 -0.025345 0.004577 0.011159 -0.010458 0.033464
#
#
# Mechanical properties :
#
#
# Convention : Reuss Voigt Hill
#
# Bulk Modulus (GPa) = 27.38862 74.75615 51.07238
# Shear Modulus (GPa) = 20.17613 45.79540 32.98576
#
# Velocity S-wave (km/s) = 2.73870 4.12606 3.50178
# Velocity P-wave (km/s) = 4.49247 7.10561 5.94441
#
# Compressibility (1/GPa) = 0.03651152
#
# Stress axis : x y z
#
# Youngs Moduli (GPa) = 100.21420 13.64134 112.16767
#
# Poissons Ratio (x) = 0.20268 -0.10753
# Poissons Ratio (y) = 1.48894 1.56424
# Poissons Ratio (z) = -0.09607 0.19024
#
# Static dielectric constant tensor:
#      x y z
#    x 2.291510 -0.061970 0.056270 
#    y -0.061970 2.492730 -0.148050 
#    z 0.056270 -0.148050 2.214100 
# 
# From -- ./inp_files/251814.got.cif
#   From: 2010.05.17/outbox.cif.g08.bks.cpg/sg2_126_cif.got.tgz:251814.got - 2010.06.03 11:33:40.
