data_PCOD9079252
_publ_section_title
;
Structure prediction by ZEFSAII (Michael W. Deem and Ramdas Pophale) SiO2 
 PCOD9079252
Probable space group: P -1
;
_chemical_formula_sum "Si O2"
_cell_formula_units_Z 16
_cell_length_a 18.597050
_cell_length_b 9.702704
_cell_length_c 9.383257
_cell_angle_alpha 101.525368
_cell_angle_beta 31.974584
_cell_angle_gamma 113.604386
_cell_volume 786.699985
_symmetry_space_group_name_H-M "P -1"
_symmetry_group_IT_number 2
_symmetry_cell_setting 'triclinic'
loop_
_space_group_symop_operation_xyz
x,y,z
-x,-y,-z
loop_
_atom_site_type_symbol
_atom_site_label
_atom_site_fract_x
_atom_site_fract_y
_atom_site_fract_z
Si Si1 0.101626 0.544885 0.634864
Si Si2 0.306852 0.930801 0.731316
Si Si3 0.360045 0.169913 0.261480
Si Si4 0.615660 0.007009 0.083958
Si Si5 0.808440 0.646441 0.331179
Si Si6 0.665349 0.322599 0.964614
Si Si7 0.123010 0.867787 0.764409
Si Si8 0.252628 0.587211 0.846503
O O1 0.112343 0.433183 0.717247
O O2 0.211406 0.556429 0.323692
O O3 0.059067 0.207975 0.945729
O O4 0.930986 0.489299 0.855092
O O5 0.315255 0.011149 0.885777
O O6 0.172791 0.917547 0.853445
O O7 0.297302 0.761191 0.749712
O O8 0.459279 0.008659 0.397776
O O9 0.290554 0.293121 0.398017
O O10 0.227206 0.011233 0.519123
O O11 0.505591 0.244028 0.135195
O O12 0.405594 0.121357 0.024785
O O13 0.709073 0.179341 0.894791
O O14 0.712645 0.516623 0.348571
O O15 0.157740 0.720354 0.639114
O O16 0.672872 0.398949 0.121850
#
# Coordination Sequence:
#
# PCOD9079252 Si02
#       8
#     2   2   2   2   2   2   2   2
#     4  11  20  39  64  87 115 155 202 241 282 350
#     4  10  18  36  65  85 112 145 208 246 276 338
#     4  12  24  39  58  90 125 152 190 243 302 345
#     4  10  21  36  59  92 113 151 196 248 290 335
#     4  11  24  39  59  87 124 158 188 238 299 355
#     4  11  22  36  63  87 116 152 201 248 281 346
#     4  11  19  40  63  86 112 157 206 238 280 346
#     4  10  21  39  61  89 112 155 203 241 286 339
#
# _framework density 20.338121000000001
#
# number of rings (size 3 to 8) (size 9 to 14) (size 15 to 20)
#    0.000    1.250    5.000    2.625    0.000    1.000 
#    0.000    1.875    0.000    0.000    0.000    0.000 
#    0.000    0.000    0.000    0.000    0.000    0.000 
#
# Total GULP energy -89314.468951 kJ/mol
# GULP energy per Si atom -5582.154309 kJ/mol
# Density = 2.029183 g / cm^3
# Si number density = 20.338121 Si / 1000 Ang^3
#
#
#
# Elastic Constant Matrix: (Units=GPa)
#
#
# Indices 1 2 3 4 5 6 
#
# 1 91.6064 38.2900 20.6657 18.0988 18.7152 32.1029
# 2 38.2900 66.8245 25.7210 6.2128 3.3373 17.1743
# 3 20.6657 25.7210 49.2805 -1.1935 16.6822 2.2766
# 4 18.0988 6.2128 -1.1935 32.4039 -0.5343 5.5765
# 5 18.7152 3.3373 16.6822 -0.5343 21.9526 2.1677
# 6 32.1029 17.1743 2.2766 5.5765 2.1677 30.5421
#
#
#
# Elastic Compliance Matrix: (Units=1/GPa)
#
#
# Indices 1 2 3 4 5 6 
#
# 1 0.028736 -0.009146 0.000871 -0.010912 -0.021904 -0.021579
# 2 -0.009146 0.026571 -0.015113 0.000654 0.015796 -0.005442
# 3 0.000871 -0.015113 0.036678 0.002226 -0.026890 0.006351
# 4 -0.010912 0.000654 0.002226 0.036404 0.008031 0.003719
# 5 -0.021904 0.015796 -0.026890 0.008031 0.081577 0.008890
# 6 -0.021579 -0.005442 0.006351 0.003719 0.008890 0.056700
#
#
# Mechanical properties :
#
#
# Convention : Reuss Voigt Hill
#
# Bulk Modulus (GPa) = 22.11955 41.89608 32.00781
# Shear Modulus (GPa) = 15.22011 25.18204 20.20108
#
# Velocity S-wave (km/s) = 2.73857 3.52258 3.15502
# Velocity P-wave (km/s) = 4.57157 6.09830 5.38927
#
# Compressibility (1/GPa) = 0.04520888
#
# Stress axis : x y z
#
# Youngs Moduli (GPa) = 34.79940 37.63483 27.26443
#
# Poissons Ratio (x) = 0.34422 -0.02375
# Poissons Ratio (y) = 0.31829 0.41204
# Poissons Ratio (z) = -0.03031 0.56876
#
# Static dielectric constant tensor:
#      x y z
#    x 1.734590 0.022700 0.001890 
#    y 0.022700 1.750230 -0.030670 
#    z 0.001890 -0.030670 1.746320 
# 
# From -- ./inp_files/333317.got.cif
#   From: 2010.05.17/outbox.cif.g08.bks.cpg/sg2_167_cif.got.tgz:333317.got - 2010.06.03 11:33:40.
