data_PCOD9079348
_publ_section_title
;
Structure prediction by ZEFSAII (Michael W. Deem and Ramdas Pophale) SiO2 
 PCOD9079348
Probable space group: P -1
;
_chemical_formula_sum "Si O2"
_cell_formula_units_Z 16
_cell_length_a 23.609112
_cell_length_b 7.364808
_cell_length_c 20.282421
_cell_angle_alpha 128.719336
_cell_angle_beta 14.918278
_cell_angle_gamma 132.439435
_cell_volume 663.443931
_symmetry_space_group_name_H-M "P -1"
_symmetry_group_IT_number 2
_symmetry_cell_setting 'triclinic'
loop_
_space_group_symop_operation_xyz
x,y,z
-x,-y,-z
loop_
_atom_site_type_symbol
_atom_site_label
_atom_site_fract_x
_atom_site_fract_y
_atom_site_fract_z
Si Si1 0.657959 0.655969 0.799568
Si Si2 0.678584 0.365137 0.217406
Si Si3 0.587167 0.322777 0.690516
Si Si4 0.558926 0.913175 0.327187
Si Si5 0.151800 0.829783 0.235085
Si Si6 0.911965 0.174094 0.092957
Si Si7 0.455444 0.190881 0.304501
Si Si8 0.049589 0.243567 0.684901
O O1 0.533973 0.522569 0.842056
O O2 0.924877 0.653583 0.489905
O O3 0.706179 0.942803 0.826213
O O4 0.500000 0.500000 0.000000
O O5 0.519430 0.159905 0.399112
O O6 0.520957 0.385561 0.336752
O O7 0.860988 0.577399 0.104271
O O8 0.844326 0.248919 0.964339
O O9 0.836141 0.480449 0.412748
O O10 0.426918 0.240163 0.787760
O O11 0.585488 0.083301 0.680025
O O12 0.802849 0.018227 0.115173
O O13 0.321023 0.783939 0.606486
O O14 0.037414 0.923009 0.320724
O O15 0.332311 0.738309 0.971051
O O16 0.000000 0.000000 0.000000
O O17 0.234213 0.182642 0.508738
#
# Coordination Sequence:
#
# PCOD9079348 Si02
#       8
#     2   2   2   2   2   2   2   2
#     4  10  18  36  68  84 133 170 199 270 315 352
#     4  10  22  41  62  91 127 162 205 256 314 371
#     4  10  20  39  64  89 124 168 203 258 311 362
#     4  10  23  41  61  90 130 156 208 262 300 379
#     4   9  20  38  59  93 124 169 210 258 317 367
#     4  11  24  40  65  94 122 161 206 253 315 380
#     4  10  21  38  65  93 125 165 216 257 309 379
#     4  10  21  40  65  90 129 164 208 266 309 367
#
# _framework density 24.116582999999999
#
# number of rings (size 3 to 8) (size 9 to 14) (size 15 to 20)
#    0.000    2.000    2.500    0.375    1.750    2.500 
#    0.000   13.750    0.000    0.000    0.000    0.000 
#    0.000    0.000    0.000    0.000    0.000    0.000 
#
# Total GULP energy -89221.456656 kJ/mol
# GULP energy per Si atom -5576.341041 kJ/mol
# Density = 2.406169 g / cm^3
# Si number density = 24.116583 Si / 1000 Ang^3
#
#
#
# Elastic Constant Matrix: (Units=GPa)
#
#
# Indices 1 2 3 4 5 6 
#
# 1 135.8809 55.7353 48.5443 5.8244 -20.5205 40.4187
# 2 55.7353 85.2515 29.3252 -21.3677 -7.3419 28.7518
# 3 48.5443 29.3252 80.8950 -6.2047 13.4060 -5.3958
# 4 5.8244 -21.3677 -6.2047 26.6615 -2.3924 -6.4753
# 5 -20.5205 -7.3419 13.4060 -2.3924 41.6276 -8.5859
# 6 40.4187 28.7518 -5.3958 -6.4753 -8.5859 55.3740
#
#
#
# Elastic Compliance Matrix: (Units=1/GPa)
#
#
# Indices 1 2 3 4 5 6 
#
# 1 0.022346 -0.008587 -0.014252 -0.017485 0.010261 -0.013694
# 2 -0.008587 0.025042 -0.002888 0.020321 0.001369 -0.004428
# 3 -0.014252 -0.002888 0.025615 0.008919 -0.012486 0.013505
# 4 -0.017485 0.020321 0.008919 0.061903 -0.002295 0.009964
# 5 0.010261 0.001369 -0.012486 -0.002295 0.032245 -0.004686
# 6 -0.013694 -0.004428 0.013505 0.009964 -0.004686 0.032108
#
#
# Mechanical properties :
#
#
# Convention : Reuss Voigt Hill
#
# Bulk Modulus (GPa) = 46.40671 63.24858 54.82765
# Shear Modulus (GPa) = 19.38768 35.96080 27.67424
#
# Velocity S-wave (km/s) = 2.83842 3.86570 3.39118
# Velocity P-wave (km/s) = 5.47965 6.79764 6.17392
#
# Compressibility (1/GPa) = 0.02154861
#
# Stress axis : x y z
#
# Youngs Moduli (GPa) = 44.75142 39.93283 39.03945
#
# Poissons Ratio (x) = 0.34291 0.55637
# Poissons Ratio (y) = 0.38429 0.11276
# Poissons Ratio (z) = 0.63778 0.11534
#
# Static dielectric constant tensor:
#      x y z
#    x 2.000200 0.038820 -0.018270 
#    y 0.038820 2.026480 -0.040950 
#    z -0.018270 -0.040950 1.925980 
# 
# From -- ./inp_files/339613.got.cif
#   From: 2010.05.17/outbox.cif.g08.bks.cpg/sg2_170_cif.got.tgz:339613.got - 2010.06.03 11:33:40.
