data_PCOD9079266
_publ_section_title
;
Structure prediction by ZEFSAII (Michael W. Deem and Ramdas Pophale) SiO2 
 PCOD9079266
Probable space group: P -1
;
_chemical_formula_sum "Si O2"
_cell_formula_units_Z 16
_cell_length_a 10.228846
_cell_length_b 21.736841
_cell_length_c 16.081435
_cell_angle_alpha 22.834764
_cell_angle_beta 35.254858
_cell_angle_gamma 44.537751
_cell_volume 788.193315
_symmetry_space_group_name_H-M "P -1"
_symmetry_group_IT_number 2
_symmetry_cell_setting 'triclinic'
loop_
_space_group_symop_operation_xyz
x,y,z
-x,-y,-z
loop_
_atom_site_type_symbol
_atom_site_label
_atom_site_fract_x
_atom_site_fract_y
_atom_site_fract_z
Si Si1 0.854787 0.794690 0.492604
Si Si2 0.778605 0.709911 0.079183
Si Si3 0.753606 0.395003 0.738251
Si Si4 0.029755 0.000805 0.657918
Si Si5 0.695274 0.534813 0.035442
Si Si6 0.964336 0.259263 0.261746
Si Si7 0.738166 0.354204 0.601730
Si Si8 0.546901 0.030301 0.339647
O O1 0.060683 0.746480 0.392892
O O2 0.954740 0.918682 0.360106
O O3 0.675429 0.886359 0.423933
O O4 0.732504 0.636340 0.804126
O O5 0.792555 0.522617 0.314453
O O6 0.513384 0.728265 0.195688
O O7 0.893878 0.766432 0.861497
O O8 0.922492 0.814416 0.945602
O O9 0.560360 0.471160 0.791787
O O10 0.717159 0.395282 0.658001
O O11 0.000000 0.500000 0.500000
O O12 0.700843 0.205101 0.027318
O O13 0.878644 0.094556 0.560175
O O14 0.284834 0.025767 0.452486
O O15 0.773891 0.363382 0.205204
O O16 0.863381 0.637380 0.889201
O O17 0.500000 0.000000 0.500000
#
# Coordination Sequence:
#
# PCOD9079266 Si02
#       8
#     2   2   2   2   2   2   2   2
#     4  10  21  41  67  90 128 174 214 259 315 385
#     4  11  22  38  63  98 132 168 203 271 330 381
#     4  12  25  43  65  95 131 174 214 263 329 380
#     4  10  21  37  68  94 122 171 222 256 318 382
#     4  10  19  39  66  91 122 173 213 254 316 383
#     4  10  18  36  65  89 127 158 219 263 305 373
#     4  11  25  41  60  95 142 161 206 273 332 374
#     4  10  20  42  68  86 123 173 215 262 303 386
#
# _framework density 20.299586999999999
#
# number of rings (size 3 to 8) (size 9 to 14) (size 15 to 20)
#    0.000    1.500    6.250    0.375    3.500    1.000 
#    4.500    1.250    0.000    0.000    0.000    0.000 
#    0.000    0.000    0.000    0.000    0.000    0.000 
#
# Total GULP energy -89302.557147 kJ/mol
# GULP energy per Si atom -5581.409822 kJ/mol
# Density = 2.025338 g / cm^3
# Si number density = 20.299587 Si / 1000 Ang^3
#
#
#
# Elastic Constant Matrix: (Units=GPa)
#
#
# Indices 1 2 3 4 5 6 
#
# 1 30.5977 -0.8477 22.8523 -3.4620 1.8088 -12.6171
# 2 -0.8477 105.0345 17.1481 6.7692 -13.1464 -34.2772
# 3 22.8523 17.1481 61.8573 4.5898 -20.0566 -11.7050
# 4 -3.4620 6.7692 4.5898 22.6528 -0.5239 5.2750
# 5 1.8088 -13.1464 -20.0566 -0.5239 23.9551 4.4786
# 6 -12.6171 -34.2772 -11.7050 5.2750 4.4786 33.6919
#
#
#
# Elastic Compliance Matrix: (Units=1/GPa)
#
#
# Indices 1 2 3 4 5 6 
#
# 1 0.078811 0.012276 -0.039350 0.007988 -0.037992 0.032132
# 2 0.012276 0.018511 -0.004345 -0.008115 0.001108 0.023044
# 3 -0.039350 -0.004345 0.043778 -0.010992 0.038370 -0.007327
# 4 0.007988 -0.008115 -0.010992 0.053540 -0.010074 -0.016127
# 5 -0.037992 0.001108 0.038370 -0.010074 0.078745 -0.008660
# 6 0.032132 0.023044 -0.007327 -0.016127 -0.008660 0.066288
#
#
# Mechanical properties :
#
#
# Convention : Reuss Voigt Hill
#
# Bulk Modulus (GPa) = 12.77749 30.64389 21.71069
# Shear Modulus (GPa) = 11.66595 26.61576 19.14086
#
# Velocity S-wave (km/s) = 2.39987 3.62491 3.07403
# Velocity P-wave (km/s) = 3.73996 5.71389 4.82886
#
# Compressibility (1/GPa) = 0.07826263
#
# Stress axis : x y z
#
# Youngs Moduli (GPa) = 12.68865 54.02210 22.84246
#
# Poissons Ratio (x) = -0.66319 0.89885
# Poissons Ratio (y) = -0.15577 0.09925
# Poissons Ratio (z) = 0.49930 0.23473
#
# Static dielectric constant tensor:
#      x y z
#    x 1.757530 -0.028310 -0.004540 
#    y -0.028310 1.716030 -0.019300 
#    z -0.004540 -0.019300 1.730360 
# 
# From -- ./inp_files/270238.got.cif
#   From: 2010.05.17/outbox.cif.g08.bks.cpg/sg2_136_cif.got.tgz:270238.got - 2010.06.03 11:33:40.
