data_PCOD9079328
_publ_section_title
;
Structure prediction by ZEFSAII (Michael W. Deem and Ramdas Pophale) SiO2 
 PCOD9079328
Probable space group: P -1
;
_chemical_formula_sum "Si O2"
_cell_formula_units_Z 16
_cell_length_a 15.979691
_cell_length_b 11.131932
_cell_length_c 8.745046
_cell_angle_alpha 55.318859
_cell_angle_beta 56.140871
_cell_angle_gamma 35.406622
_cell_volume 726.779435
_symmetry_space_group_name_H-M "P -1"
_symmetry_group_IT_number 2
_symmetry_cell_setting 'triclinic'
loop_
_space_group_symop_operation_xyz
x,y,z
-x,-y,-z
loop_
_atom_site_type_symbol
_atom_site_label
_atom_site_fract_x
_atom_site_fract_y
_atom_site_fract_z
Si Si1 0.352301 0.747039 0.005445
Si Si2 0.904303 0.310788 0.358021
Si Si3 0.453746 0.935666 0.722524
Si Si4 0.244036 0.968163 0.271640
Si Si5 0.097101 0.778586 0.232747
Si Si6 0.262681 0.273264 0.938300
Si Si7 0.227708 0.782368 0.672490
Si Si8 0.302323 0.455551 0.032089
O O1 0.353045 0.901852 0.802836
O O2 0.500000 0.500000 0.000000
O O3 0.342847 0.807979 0.148223
O O4 0.208827 0.797568 0.095025
O O5 0.870960 0.334194 0.555268
O O6 0.867950 0.504891 0.178396
O O7 0.811657 0.292380 0.367507
O O8 0.076387 0.092070 0.324779
O O9 0.592504 0.706801 0.822328
O O10 0.500000 0.000000 0.500000
O O11 0.376772 0.109619 0.808634
O O12 0.294792 0.849191 0.467619
O O13 0.231101 0.155389 0.141027
O O14 0.141116 0.634257 0.146352
O O15 0.927771 0.005940 0.247842
O O16 0.317629 0.325565 0.973699
O O17 0.322886 0.592426 0.834141
#
# Coordination Sequence:
#
# PCOD9079328 Si02
#       8
#     2   2   2   2   2   2   2   2
#     4  11  21  36  64  91 115 149 207 254 278 346
#     4  10  18  36  67  87 118 159 199 250 284 353
#     4  11  24  43  63  83 119 161 204 243 293 358
#     4  10  19  38  60  93 119 153 205 240 293 350
#     4  11  19  38  64  91 118 151 208 243 297 345
#     4  10  23  37  59  89 124 162 192 242 300 355
#     4  10  20  37  65  89 119 157 193 256 297 344
#     4  11  23  39  58  86 125 160 192 242 307 356
#
# _framework density 22.014934
#
# number of rings (size 3 to 8) (size 9 to 14) (size 15 to 20)
#    0.000    1.500    3.750    2.625    0.000    0.000 
#    2.250    5.000    0.000    0.000    0.000    0.000 
#    0.000    0.000    0.000    0.000    0.000    0.000 
#
# Total GULP energy -89356.820611 kJ/mol
# GULP energy per Si atom -5584.801288 kJ/mol
# Density = 2.196483 g / cm^3
# Si number density = 22.014934 Si / 1000 Ang^3
#
#
#
# Elastic Constant Matrix: (Units=GPa)
#
#
# Indices 1 2 3 4 5 6 
#
# 1 29.1723 11.5233 30.3893 -11.2165 -7.2238 9.6478
# 2 11.5233 99.1365 49.3058 -11.4089 0.4027 17.6937
# 3 30.3893 49.3058 183.0815 -33.1894 -13.5052 2.9793
# 4 -11.2165 -11.4089 -33.1894 45.5419 -3.3563 5.5698
# 5 -7.2238 0.4027 -13.5052 -3.3563 27.0895 -4.5871
# 6 9.6478 17.6937 2.9793 5.5698 -4.5871 30.9123
#
#
#
# Elastic Compliance Matrix: (Units=1/GPa)
#
#
# Indices 1 2 3 4 5 6 
#
# 1 0.052566 0.001233 -0.005943 0.011737 0.009572 -0.017233
# 2 0.001233 0.013464 -0.003554 0.001918 -0.002848 -0.008517
# 3 -0.005943 -0.003554 0.008264 0.003565 0.003534 0.002975
# 4 0.011737 0.001918 0.003565 0.029590 0.006952 -0.009405
# 5 0.009572 -0.002848 0.003534 0.006952 0.042706 0.003386
# 6 -0.017233 -0.008517 0.002975 -0.009405 0.003386 0.044514
#
#
# Mechanical properties :
#
#
# Convention : Reuss Voigt Hill
#
# Bulk Modulus (GPa) = 17.31135 54.86968 36.09052
# Shear Modulus (GPa) = 22.03741 35.38686 28.71214
#
# Velocity S-wave (km/s) = 3.16732 4.01359 3.61531
# Velocity P-wave (km/s) = 4.61047 6.81590 5.81863
#
# Compressibility (1/GPa) = 0.05776556
#
# Stress axis : x y z
#
# Youngs Moduli (GPa) = 19.02387 74.27217 121.00166
#
# Poissons Ratio (x) = -0.09161 0.71913
# Poissons Ratio (y) = -0.02346 0.43010
# Poissons Ratio (z) = 0.11306 0.26400
#
# Static dielectric constant tensor:
#      x y z
#    x 1.868490 0.002460 -0.010780 
#    y 0.002460 1.815470 -0.006460 
#    z -0.010780 -0.006460 1.840690 
# 
# From -- ./inp_files/180204.got.cif
#   From: 2010.05.17/outbox.cif.g08.bks.cpg/sg2_91_cif.got.tgz:180204.got - 2010.06.03 11:33:40.
