data_PCOD9079473
_publ_section_title
;
Structure prediction by ZEFSAII (Michael W. Deem and Ramdas Pophale) SiO2 
 PCOD9079473
Probable space group: P -1
;
_chemical_formula_sum "Si O2"
_cell_formula_units_Z 16
_cell_length_a 9.730456
_cell_length_b 9.699414
_cell_length_c 24.861225
_cell_angle_alpha 27.493337
_cell_angle_beta 49.459913
_cell_angle_gamma 48.035481
_cell_volume 794.311742
_symmetry_space_group_name_H-M "P -1"
_symmetry_group_IT_number 2
_symmetry_cell_setting 'triclinic'
loop_
_space_group_symop_operation_xyz
x,y,z
-x,-y,-z
loop_
_atom_site_type_symbol
_atom_site_label
_atom_site_fract_x
_atom_site_fract_y
_atom_site_fract_z
Si Si1 0.006273 0.140990 0.845978
Si Si2 0.668275 0.811804 0.058911
Si Si3 0.959604 0.699572 0.587590
Si Si4 0.397095 0.887273 0.515411
Si Si5 0.096703 0.744801 0.865248
Si Si6 0.207837 0.423348 0.782916
Si Si7 0.766485 0.554768 0.492335
Si Si8 0.030299 0.979395 0.304503
O O1 0.936580 0.467013 0.720513
O O2 0.113459 0.197332 0.852189
O O3 0.141194 0.936177 0.837443
O O4 0.838878 0.978273 0.954373
O O5 0.730935 0.463834 0.139224
O O6 0.648066 0.758712 0.145776
O O7 0.500000 0.000000 0.000000
O O8 0.124768 0.550064 0.554868
O O9 0.766293 0.823298 0.562262
O O10 0.000000 0.000000 0.500000
O O11 0.305070 0.617950 0.651613
O O12 0.550044 0.738345 0.482785
O O13 0.500000 0.000000 0.500000
O O14 0.955275 0.954960 0.785328
O O15 0.000000 0.500000 0.000000
O O16 0.045856 0.689236 0.762100
O O17 0.869480 0.794560 0.410480
O O18 0.801303 0.251607 0.626702
#
# Coordination Sequence:
#
# PCOD9079473 Si02
#       8
#     2   2   2   2   2   2   2   2
#     4  11  22  42  65  89 130 171 207 270 330 382
#     4  10  24  42  67  95 120 165 221 268 320 388
#     4  12  24  43  62  97 139 171 215 265 339 386
#     4  12  24  37  64  97 129 174 220 269 313 388
#     4   9  20  36  62  88 118 168 214 254 322 387
#     4  11  22  42  62  93 129 168 217 264 332 386
#     4  11  21  36  62  91 129 175 218 261 319 382
#     4  10  18  37  59  86 129 168 214 260 319 388
#
# _framework density 20.143225999999999
#
# number of rings (size 3 to 8) (size 9 to 14) (size 15 to 20)
#    0.000    1.250    5.000    1.125    1.750    1.500 
#    0.000    1.875    0.000    0.000    0.000    0.000 
#    0.000    0.000    0.000    0.000    0.000    0.000 
#
# Total GULP energy -89284.961641 kJ/mol
# GULP energy per Si atom -5580.310103 kJ/mol
# Density = 2.009738 g / cm^3
# Si number density = 20.143226 Si / 1000 Ang^3
#
#
#
# Elastic Constant Matrix: (Units=GPa)
#
#
# Indices 1 2 3 4 5 6 
#
# 1 82.8292 25.7259 6.2473 -7.9230 4.9292 14.0579
# 2 25.7259 88.0251 -1.9030 -2.6108 -5.6779 13.6699
# 3 6.2473 -1.9030 64.9337 -8.1160 17.1203 -0.6358
# 4 -7.9230 -2.6108 -8.1160 26.0007 8.6891 -8.6343
# 5 4.9292 -5.6779 17.1203 8.6891 38.6762 -7.1146
# 6 14.0579 13.6699 -0.6358 -8.6343 -7.1146 31.4193
#
#
#
# Elastic Compliance Matrix: (Units=1/GPa)
#
#
# Indices 1 2 3 4 5 6 
#
# 1 0.014658 -0.003688 0.000025 0.003899 -0.004185 -0.004830
# 2 -0.003688 0.013156 -0.000096 -0.001908 0.002114 -0.004121
# 3 0.000025 -0.000096 0.019467 0.009897 -0.010726 0.000715
# 4 0.003899 -0.001908 0.009897 0.050759 -0.014741 0.009897
# 5 -0.004185 0.002114 -0.010726 -0.014741 0.035634 0.004754
# 6 -0.004830 -0.004121 0.000715 0.009897 0.004754 0.039592
#
#
# Mechanical properties :
#
#
# Convention : Reuss Voigt Hill
#
# Bulk Modulus (GPa) = 25.14813 32.88094 29.01453
# Shear Modulus (GPa) = 25.76813 32.93377 29.35095
#
# Velocity S-wave (km/s) = 3.58053 4.04788 3.82136
# Velocity P-wave (km/s) = 5.44108 6.18111 5.82286
#
# Compressibility (1/GPa) = 0.03976439
#
# Stress axis : x y z
#
# Youngs Moduli (GPa) = 68.22106 76.01167 51.36842
#
# Poissons Ratio (x) = 0.28031 -0.00129
# Poissons Ratio (y) = 0.25158 0.00493
# Poissons Ratio (z) = -0.00171 0.00729
#
# Static dielectric constant tensor:
#      x y z
#    x 1.729180 0.012100 0.029220 
#    y 0.012100 1.763610 0.004880 
#    z 0.029220 0.004880 1.728580 
# 
# From -- ./inp_files/218549.got.cif
#   From: 2010.05.17/outbox.cif.g08.bks.cpg/sg2_110_cif.got.tgz:218549.got - 2010.06.03 11:33:40.
