data_PCOD9079643
_publ_section_title
;
Structure prediction by ZEFSAII (Michael W. Deem and Ramdas Pophale) SiO2 
 PCOD9079643
Probable space group: P -1
;
_chemical_formula_sum "Si O2"
_cell_formula_units_Z 16
_cell_length_a 14.714798
_cell_length_b 18.669007
_cell_length_c 7.615208
_cell_angle_alpha 90.548830
_cell_angle_beta 106.474874
_cell_angle_gamma 24.293692
_cell_volume 640.349132
_symmetry_space_group_name_H-M "P -1"
_symmetry_group_IT_number 2
_symmetry_cell_setting 'triclinic'
loop_
_space_group_symop_operation_xyz
x,y,z
-x,-y,-z
loop_
_atom_site_type_symbol
_atom_site_label
_atom_site_fract_x
_atom_site_fract_y
_atom_site_fract_z
Si Si1 0.549874 0.283821 0.223918
Si Si2 0.818302 0.235318 0.312036
Si Si3 0.397360 0.269446 0.559825
Si Si4 0.985886 0.656983 0.161777
Si Si5 0.668077 0.816336 0.687061
Si Si6 0.985239 0.924707 0.963589
Si Si7 0.337348 0.321635 0.907999
Si Si8 0.956072 0.839078 0.281225
O O1 0.282177 0.447351 0.198879
O O2 0.577539 0.348995 0.239430
O O3 0.865358 0.028132 0.459902
O O4 0.449877 0.324418 0.979236
O O5 0.826227 0.299600 0.440608
O O6 0.816381 0.241112 0.100155
O O7 0.088275 0.530822 0.366290
O O8 0.479482 0.151588 0.458088
O O9 0.658804 0.139022 0.718980
O O10 0.370733 0.258305 0.740428
O O11 0.959856 0.756391 0.210555
O O12 0.724093 0.807139 0.912193
O O13 0.004526 0.559097 0.797840
O O14 0.500000 0.000000 0.500000
O O15 0.024264 0.848136 0.160557
O O16 0.000000 0.000000 0.000000
O O17 0.612744 0.092933 0.161925
#
# Coordination Sequence:
#
# PCOD9079643 Si02
#       8
#     2   2   2   2   2   2   2   2
#     4   9  18  36  61  86 125 167 210 265 314 373
#     4  10  18  37  62  91 123 176 218 257 320 370
#     4  11  22  40  64  95 125 169 214 261 325 387
#     4  11  23  42  59  95 131 165 214 268 320 381
#     4  11  23  43  69  90 124 165 213 270 328 383
#     4  11  21  39  68  93 126 175 222 262 321 379
#     4   9  20  40  64  90 125 163 208 266 326 379
#     4  10  23  40  63  94 135 170 213 267 319 383
#
# _framework density 24.986367000000001
#
# number of rings (size 3 to 8) (size 9 to 14) (size 15 to 20)
#    0.000    1.750    1.250    5.250    0.000    0.500 
#    6.750    1.875    0.000    0.000    0.000    0.000 
#    0.000    0.000    0.000    0.000    0.000    0.000 
#
# Total GULP energy -89288.316919 kJ/mol
# GULP energy per Si atom -5580.519807 kJ/mol
# Density = 2.492950 g / cm^3
# Si number density = 24.986367 Si / 1000 Ang^3
#
#
#
# Elastic Constant Matrix: (Units=GPa)
#
#
# Indices 1 2 3 4 5 6 
#
# 1 107.7331 36.4918 53.9799 22.8661 25.0023 24.1325
# 2 36.4918 50.8926 18.2521 27.2999 9.3292 23.5071
# 3 53.9799 18.2521 126.7723 35.8718 20.1185 16.5075
# 4 22.8661 27.2999 35.8718 46.5787 6.6424 6.9598
# 5 25.0023 9.3292 20.1185 6.6424 42.5543 11.8852
# 6 24.1325 23.5071 16.5075 6.9598 11.8852 48.1613
#
#
#
# Elastic Compliance Matrix: (Units=1/GPa)
#
#
# Indices 1 2 3 4 5 6 
#
# 1 0.015983 -0.009934 -0.005326 0.002868 -0.004998 -0.000515
# 2 -0.009934 0.044308 0.006470 -0.023897 0.001180 -0.015704
# 3 -0.005326 0.006470 0.012841 -0.010356 -0.001928 -0.002918
# 4 0.002868 -0.023897 -0.010356 0.040881 -0.000139 0.007903
# 5 -0.004998 0.001180 -0.001928 -0.000139 0.028335 -0.004383
# 6 -0.000515 -0.015704 -0.002918 0.007903 -0.004383 0.029627
#
#
# Mechanical properties :
#
#
# Convention : Reuss Voigt Hill
#
# Bulk Modulus (GPa) = 18.00149 55.87172 36.93660
# Shear Modulus (GPa) = 24.03013 39.23713 31.63363
#
# Velocity S-wave (km/s) = 3.10454 3.96705 3.56200
# Velocity P-wave (km/s) = 4.48007 6.58732 5.63311
#
# Compressibility (1/GPa) = 0.05555096
#
# Stress axis : x y z
#
# Youngs Moduli (GPa) = 62.56830 22.56913 77.87636
#
# Poissons Ratio (x) = 0.22421 0.41481
# Poissons Ratio (y) = 0.62157 -0.50389
# Poissons Ratio (z) = 0.33327 -0.14603
#
# Static dielectric constant tensor:
#      x y z
#    x 2.049820 -0.029500 -0.022250 
#    y -0.029500 2.073670 0.068700 
#    z -0.022250 0.068700 2.041960 
# 
# From -- ./inp_files/224194.got.cif
#   From: 2010.05.17/outbox.cif.g08.bks.cpg/sg2_113_cif.got.tgz:224194.got - 2010.06.03 11:33:40.
