data_PCOD9079610
_publ_section_title
;
Structure prediction by ZEFSAII (Michael W. Deem and Ramdas Pophale) SiO2 
 PCOD9079610
Probable space group: P -1
;
_chemical_formula_sum "Si O2"
_cell_formula_units_Z 16
_cell_length_a 11.655629
_cell_length_b 12.196300
_cell_length_c 8.000826
_cell_angle_alpha 123.934327
_cell_angle_beta 135.214104
_cell_angle_gamma 50.088645
_cell_volume 603.330555
_symmetry_space_group_name_H-M "P -1"
_symmetry_group_IT_number 2
_symmetry_cell_setting 'triclinic'
loop_
_space_group_symop_operation_xyz
x,y,z
-x,-y,-z
loop_
_atom_site_type_symbol
_atom_site_label
_atom_site_fract_x
_atom_site_fract_y
_atom_site_fract_z
Si Si1 0.194142 0.391817 0.052073
Si Si2 0.244500 0.277017 0.518910
Si Si3 0.378351 0.565158 0.263746
Si Si4 0.021244 0.800452 0.590956
Si Si5 0.334254 0.117371 0.117363
Si Si6 0.727965 0.494034 0.452585
Si Si7 0.722829 0.096614 0.552849
Si Si8 0.663192 0.134877 0.907679
O O1 0.256006 0.476037 0.050740
O O2 0.230810 0.223551 0.947388
O O3 0.304372 0.391208 0.333309
O O4 0.000000 0.500000 0.000000
O O5 0.260833 0.190500 0.286912
O O6 0.190388 0.444373 0.554911
O O7 0.448001 0.222138 0.750581
O O8 0.110615 0.247722 0.478069
O O9 0.500000 0.500000 0.500000
O O10 0.527281 0.514095 0.229510
O O11 0.285073 0.740514 0.329323
O O12 0.134831 0.662927 0.474194
O O13 0.195173 0.795103 0.867890
O O14 0.902553 0.967012 0.560710
O O15 0.542750 0.088564 0.289954
O O16 0.310204 0.969750 0.994205
O O17 0.711908 0.067048 0.714586
#
# Coordination Sequence:
#
# PCOD9079610 Si02
#       8
#     2   2   2   2   2   2   2   2
#     4  10  22  39  66  89 109 156 217 253 282 358
#     4  10  19  39  58  84 127 162 190 245 296 361
#     4  10  19  40  64  79 112 160 207 241 294 350
#     4  12  24  34  60  94 128 156 194 249 304 362
#     4  10  18  37  62  85 119 154 205 251 292 345
#     4  10  22  42  57  89 121 156 197 249 312 349
#     4  11  19  37  62  87 118 165 200 243 295 358
#     4  11  21  36  59  92 123 159 206 232 303 367
#
# _framework density 26.519459000000001
#
# number of rings (size 3 to 8) (size 9 to 14) (size 15 to 20)
#    0.000    1.500    7.500    1.500    1.750    1.500 
#    2.250    2.500    0.000    1.500    0.000    0.000 
#    0.000    0.000    0.000    0.000    0.000    0.000 
#
# Total GULP energy -89287.320323 kJ/mol
# GULP energy per Si atom -5580.457520 kJ/mol
# Density = 2.645910 g / cm^3
# Si number density = 26.519459 Si / 1000 Ang^3
#
#
#
# Elastic Constant Matrix: (Units=GPa)
#
#
# Indices 1 2 3 4 5 6 
#
# 1 97.3214 38.3521 29.9346 13.6386 26.4829 21.3538
# 2 38.3521 184.0816 13.2691 -8.9760 14.7216 7.0676
# 3 29.9346 13.2691 79.9203 0.1316 24.6312 3.6327
# 4 13.6386 -8.9760 0.1316 11.1388 -5.0873 8.1217
# 5 26.4829 14.7216 24.6312 -5.0873 40.0787 7.0097
# 6 21.3538 7.0676 3.6327 8.1217 7.0097 53.7224
#
#
#
# Elastic Compliance Matrix: (Units=1/GPa)
#
#
# Indices 1 2 3 4 5 6 
#
# 1 0.023661 -0.005364 -0.002571 -0.041125 -0.017295 -0.000051
# 2 -0.005364 0.007081 -0.000087 0.014741 0.003118 -0.001429
# 3 -0.002571 -0.000087 0.016104 -0.002088 -0.008674 0.001392
# 4 -0.041125 0.014741 -0.002088 0.190503 0.050878 -0.020890
# 5 -0.017295 0.003118 -0.008674 0.050878 0.048236 -0.006935
# 6 -0.000051 -0.001429 0.001392 -0.020890 -0.006935 0.022791
#
#
# Mechanical properties :
#
#
# Convention : Reuss Voigt Hill
#
# Bulk Modulus (GPa) = 32.46744 58.27055 45.36900
# Shear Modulus (GPa) = 14.93936 39.63913 27.28924
#
# Velocity S-wave (km/s) = 2.37604 3.87035 3.21133
# Velocity P-wave (km/s) = 4.44937 6.48022 5.55834
#
# Compressibility (1/GPa) = 0.03080009
#
# Stress axis : x y z
#
# Youngs Moduli (GPa) = 42.26389 141.23219 62.09805
#
# Poissons Ratio (x) = 0.75763 0.15968
# Poissons Ratio (y) = 0.22672 0.00538
# Poissons Ratio (z) = 0.10868 0.01223
#
# Static dielectric constant tensor:
#      x y z
#    x 2.115110 0.076750 -0.007030 
#    y 0.076750 2.193090 0.136320 
#    z -0.007030 0.136320 2.368390 
# 
# From -- ./inp_files/426557.got.cif
#   From: 2010.05.17/outbox.cif.g08.bks.cpg/sg2_214_cif.got.tgz:426557.got - 2010.06.03 11:33:40.
