data_PCOD9079644
_publ_section_title
;
Structure prediction by ZEFSAII (Michael W. Deem and Ramdas Pophale) SiO2 
 PCOD9079644
Probable space group: P -1
;
_chemical_formula_sum "Si O2"
_cell_formula_units_Z 16
_cell_length_a 5.983506
_cell_length_b 8.207275
_cell_length_c 16.169174
_cell_angle_alpha 69.172674
_cell_angle_beta 104.073511
_cell_angle_gamma 117.767983
_cell_volume 653.798241
_symmetry_space_group_name_H-M "P -1"
_symmetry_group_IT_number 2
_symmetry_cell_setting 'triclinic'
loop_
_space_group_symop_operation_xyz
x,y,z
-x,-y,-z
loop_
_atom_site_type_symbol
_atom_site_label
_atom_site_fract_x
_atom_site_fract_y
_atom_site_fract_z
Si Si1 0.585838 0.832820 0.013181
Si Si2 0.339773 0.486357 0.687700
Si Si3 0.763764 0.857431 0.581032
Si Si4 0.679164 0.068753 0.679433
Si Si5 0.144749 0.720501 0.732413
Si Si6 0.618178 0.699854 0.426711
Si Si7 0.756131 0.433632 0.851851
Si Si8 0.106008 0.910448 0.137247
O O1 0.362295 0.630134 0.055943
O O2 0.829459 0.863008 0.085634
O O3 0.500000 0.000000 0.000000
O O4 0.697724 0.887770 0.921418
O O5 0.500521 0.680860 0.616427
O O6 0.152661 0.539843 0.716710
O O7 0.238959 0.329247 0.634956
O O8 0.537147 0.448702 0.771743
O O9 0.971513 0.800009 0.652357
O O10 0.742590 0.027803 0.599914
O O11 0.230333 0.146849 0.516907
O O12 0.601930 0.245282 0.636969
O O13 0.881958 0.083703 0.764361
O O14 0.425310 0.889297 0.723648
O O15 0.004825 0.630969 0.822413
O O16 0.500000 0.500000 0.500000
O O17 0.812679 0.255812 0.856947
#
# Coordination Sequence:
#
# PCOD9079644 Si02
#       8
#     2   2   2   2   2   2   2   2
#     4   9  20  36  62  96 132 157 209 270 315 376
#     4   9  18  36  60  87 122 168 221 265 302 375
#     4   9  21  37  58  85 133 172 208 262 322 375
#     4  11  22  40  63  94 132 169 210 265 323 390
#     4  10  22  38  59  91 129 176 213 256 324 378
#     4  10  20  39  63  92 129 166 224 271 312 372
#     4  10  18  37  62  91 124 168 213 259 315 377
#     4  10  20  37  65  98 124 166 213 263 322 375
#
# _framework density 24.472380000000001
#
# number of rings (size 3 to 8) (size 9 to 14) (size 15 to 20)
#    0.000    2.250    1.250    1.125    0.000    3.000 
#    2.250    1.875    0.000   19.500    0.000    0.000 
#    0.000    0.000    0.000    0.000    0.000    0.000 
#
# Total GULP energy -89443.254051 kJ/mol
# GULP energy per Si atom -5590.203378 kJ/mol
# Density = 2.441668 g / cm^3
# Si number density = 24.472380 Si / 1000 Ang^3
#
#
#
# Elastic Constant Matrix: (Units=GPa)
#
#
# Indices 1 2 3 4 5 6 
#
# 1 79.2622 26.0138 31.4298 -19.4997 -10.8555 -2.3096
# 2 26.0138 52.1176 30.6015 -17.3403 -1.6160 2.9996
# 3 31.4298 30.6015 116.4015 -21.1438 -15.2937 2.2437
# 4 -19.4997 -17.3403 -21.1438 34.9571 8.7109 -1.6367
# 5 -10.8555 -1.6160 -15.2937 8.7109 40.1562 -9.2693
# 6 -2.3096 2.9996 2.2437 -1.6367 -9.2693 28.1856
#
#
#
# Elastic Compliance Matrix: (Units=1/GPa)
#
#
# Indices 1 2 3 4 5 6 
#
# 1 0.017035 -0.005974 -0.001775 0.004766 0.003485 0.003596
# 2 -0.005974 0.027954 -0.004744 0.008756 -0.005185 -0.004284
# 3 -0.001775 -0.004744 0.011207 0.002676 0.003171 0.000665
# 4 0.004766 0.008756 0.002676 0.038658 -0.005824 -0.000425
# 5 0.003485 -0.005185 0.003171 -0.005824 0.030478 0.010270
# 6 0.003596 -0.004284 0.000665 -0.000425 0.010270 0.039529
#
#
# Mechanical properties :
#
#
# Convention : Reuss Voigt Hill
#
# Bulk Modulus (GPa) = 32.04077 47.09682 39.56879
# Shear Modulus (GPa) = 24.96859 31.30887 28.13873
#
# Velocity S-wave (km/s) = 3.19764 3.58069 3.39457
# Velocity P-wave (km/s) = 5.17245 6.03173 5.61854
#
# Compressibility (1/GPa) = 0.03121024
#
# Stress axis : x y z
#
# Youngs Moduli (GPa) = 58.70148 35.77332 89.22733
#
# Poissons Ratio (x) = 0.21371 0.15838
# Poissons Ratio (y) = 0.35069 0.42330
# Poissons Ratio (z) = 0.10419 0.16971
#
# Static dielectric constant tensor:
#      x y z
#    x 1.939290 0.061030 -0.055790 
#    y 0.061030 2.008790 -0.011530 
#    z -0.055790 -0.011530 1.897600 
# 
# From -- ./inp_files/48891.got.cif
#   From: 2010.05.17/outbox.cif.g08.bks.cpg/sg2_25_cif.got.tgz:48891.got - 2010.06.03 11:33:40.
