data_PCOD9079408
_publ_section_title
;
Structure prediction by ZEFSAII (Michael W. Deem and Ramdas Pophale) SiO2 
 PCOD9079408
Probable space group: P -1
;
_chemical_formula_sum "Si O2"
_cell_formula_units_Z 15
_cell_length_a 5.152347
_cell_length_b 10.171609
_cell_length_c 20.096152
_cell_angle_alpha 124.360186
_cell_angle_beta 115.335128
_cell_angle_gamma 60.794591
_cell_volume 741.697398
_symmetry_space_group_name_H-M "P -1"
_symmetry_group_IT_number 2
_symmetry_cell_setting 'triclinic'
loop_
_space_group_symop_operation_xyz
x,y,z
-x,-y,-z
loop_
_atom_site_type_symbol
_atom_site_label
_atom_site_fract_x
_atom_site_fract_y
_atom_site_fract_z
Si Si1 0.677131 0.911324 0.208731
Si Si2 0.194737 0.356399 0.390373
Si Si3 0.298050 0.885399 0.962159
Si Si4 0.025564 0.874202 0.790927
Si Si5 0.500000 0.000000 0.500000
Si Si6 0.914788 0.717749 0.493579
Si Si7 0.691701 0.615958 0.031949
Si Si8 0.244408 0.958300 0.607633
O O1 0.752730 0.730681 0.130699
O O2 0.793431 0.919115 0.298998
O O3 0.311730 0.995289 0.195214
O O4 0.807415 0.030574 0.211643
O O5 0.022671 0.284124 0.296435
O O6 0.134944 0.555537 0.434224
O O7 0.067193 0.329091 0.440802
O O8 0.538186 0.226754 0.394791
O O9 0.199852 0.824619 0.864851
O O10 0.492373 0.741477 0.990772
O O11 0.500000 0.000000 0.000000
O O12 0.000000 0.000000 0.000000
O O13 0.396901 0.007865 0.574773
O O14 0.428576 0.213989 0.550448
O O15 0.939215 0.910268 0.543534
O O16 0.500000 0.500000 0.000000
O O17 0.000000 0.500000 0.000000
#
# Coordination Sequence:
#
# PCOD9079408 Si02
#       8
#     2   2   2   2   1   2   2   2
#     4  11  22  40  68  91 126 167 217 267 318 395
#     4   9  20  33  60  87 116 151 205 268 311 357
#     4  12  22  41  70  93 125 173 219 271 322 388
#     4  11  20  40  64  97 119 163 223 268 316 375
#     4  10  22  36  56  84 120 170 206 246 310 396
#     4  10  18  37  56  85 119 157 204 252 320 367
#     4  12  25  43  65  98 135 172 212 269 339 395
#     4  10  20  37  62  84 118 166 214 253 315 371
#
# _framework density 20.223880999999999
#
# number of rings (size 3 to 8) (size 9 to 14) (size 15 to 20)
#    0.000    1.333    4.000    2.400    0.000    0.000 
#    2.400    0.000    0.000    0.000    0.000    0.000 
#    0.000    0.000    0.000    0.000    0.000    0.000 
#
# Total GULP energy -83549.165648 kJ/mol
# GULP energy per Si atom -5569.944377 kJ/mol
# Density = 2.017785 g / cm^3
# Si number density = 20.223881 Si / 1000 Ang^3
#
#
#
# Elastic Constant Matrix: (Units=GPa)
#
#
# Indices 1 2 3 4 5 6 
#
# 1 123.1380 44.7979 41.0889 -1.0714 -12.5091 12.3721
# 2 44.7979 123.6499 73.8752 -5.0908 -6.7126 -2.5749
# 3 41.0889 73.8752 176.4299 5.1640 -7.7038 -0.8736
# 4 -1.0714 -5.0908 5.1640 26.7435 -3.0967 -3.6109
# 5 -12.5091 -6.7126 -7.7038 -3.0967 31.1572 3.7313
# 6 12.3721 -2.5749 -0.8736 -3.6109 3.7313 35.6622
#
#
#
# Elastic Compliance Matrix: (Units=1/GPa)
#
#
# Indices 1 2 3 4 5 6 
#
# 1 0.010370 -0.003055 -0.000990 -0.000113 0.003758 -0.004247
# 2 -0.003055 0.012020 -0.004393 0.003342 0.000355 0.002121
# 3 -0.000990 -0.004393 0.007822 -0.002352 0.000364 -0.000058
# 4 -0.000113 0.003342 -0.002352 0.039408 0.003549 0.003842
# 5 0.003758 0.000355 0.000364 0.003549 0.034667 -0.004537
# 6 -0.004247 0.002121 -0.000058 0.003842 -0.004537 0.030530
#
#
# Mechanical properties :
#
#
# Convention : Reuss Voigt Hill
#
# Bulk Modulus (GPa) = 74.98044 82.52687 78.75366
# Shear Modulus (GPa) = 32.02297 36.27629 34.14963
#
# Velocity S-wave (km/s) = 3.98354 4.23985 4.11369
# Velocity P-wave (km/s) = 7.63635 8.05380 7.84785
#
# Compressibility (1/GPa) = 0.01333681
#
# Stress axis : x y z
#
# Youngs Moduli (GPa) = 96.43157 83.19463 127.83674
#
# Poissons Ratio (x) = 0.25415 0.12650
# Poissons Ratio (y) = 0.29459 0.56164
# Poissons Ratio (z) = 0.09542 0.36551
#
# Static dielectric constant tensor:
#      x y z
#    x 2.060740 -0.194000 0.099950 
#    y -0.194000 1.798970 -0.036560 
#    z 0.099950 -0.036560 1.751650 
# 
# From -- ./inp_files/104007.got.cif
#   From: 2010.05.17/outbox.cif.g08.bks.cpg/sg2_53_cif.got.tgz:104007.got - 2010.06.03 11:33:40.
