data_PCOD9079357
_publ_section_title
;
Structure prediction by ZEFSAII (Michael W. Deem and Ramdas Pophale) SiO2 
 PCOD9079357
Probable space group: P -1
;
_chemical_formula_sum "Si O2"
_cell_formula_units_Z 14
_cell_length_a 7.158590
_cell_length_b 7.813667
_cell_length_c 10.993839
_cell_angle_alpha 121.664073
_cell_angle_beta 104.372001
_cell_angle_gamma 81.458680
_cell_volume 506.895247
_symmetry_space_group_name_H-M "P -1"
_symmetry_group_IT_number 2
_symmetry_cell_setting 'triclinic'
loop_
_space_group_symop_operation_xyz
x,y,z
-x,-y,-z
loop_
_atom_site_type_symbol
_atom_site_label
_atom_site_fract_x
_atom_site_fract_y
_atom_site_fract_z
Si Si1 0.800383 0.675506 0.988496
Si Si2 0.360985 0.500057 0.338650
Si Si3 0.259640 0.921371 0.471518
Si Si4 0.158009 0.193543 0.333304
Si Si5 0.752031 0.310610 0.265046
Si Si6 0.000000 0.000000 0.000000
Si Si7 0.856845 0.706558 0.284189
Si Si8 0.500000 0.000000 0.000000
O O1 0.972718 0.806857 0.015433
O O2 0.847295 0.626546 0.116205
O O3 0.605268 0.814629 0.014351
O O4 0.745613 0.519019 0.816350
O O5 0.405747 0.733874 0.442002
O O6 0.245430 0.411876 0.401498
O O7 0.543323 0.345608 0.301924
O O8 0.250976 0.043615 0.389149
O O9 0.278833 0.095463 0.640274
O O10 0.058812 0.800685 0.392366
O O11 0.931934 0.230621 0.341932
O O12 0.151637 0.105717 0.163788
O O13 0.805097 0.520055 0.290782
O O14 0.714850 0.130554 0.094865
#
# Coordination Sequence:
#
# PCOD9079357 Si02
#       8
#     2   2   2   2   2   1   2   1
#     4  10  21  41  67 106 135 184 239 301 356 428
#     4  10  25  45  71 112 138 188 254 295 361 436
#     4  11  24  47  71 105 148 195 243 290 366 441
#     4  11  22  45  72 104 147 195 239 305 356 436
#     4  11  23  45  71 104 149 186 240 305 368 420
#     4  10  18  36  68  96 138 174 240 290 354 404
#     4  11  24  44  71 103 146 195 235 298 369 432
#     4  10  20  40  66 102 138 180 236 288 364 422
#
# _framework density 27.619119999999999
#
# number of rings (size 3 to 8) (size 9 to 14) (size 15 to 20)
#    0.000    1.429    4.286    0.000    0.000    5.143 
#   12.857    0.714    0.000    0.000    0.000    0.000 
#    0.000    0.000    0.000    0.000    0.000    0.000 
#
# Total GULP energy -77993.532587 kJ/mol
# GULP energy per Si atom -5570.966613 kJ/mol
# Density = 2.755626 g / cm^3
# Si number density = 27.619120 Si / 1000 Ang^3
#
#
#
# Elastic Constant Matrix: (Units=GPa)
#
#
# Indices 1 2 3 4 5 6 
#
# 1 64.0812 24.9469 11.7263 -10.0299 6.7422 -8.2116
# 2 24.9469 155.5302 51.5561 -7.4284 -7.4033 0.7485
# 3 11.7263 51.5561 135.7893 -8.1121 -9.3003 10.0193
# 4 -10.0299 -7.4284 -8.1121 51.9828 4.0161 -1.9012
# 5 6.7422 -7.4033 -9.3003 4.0161 45.7551 16.7140
# 6 -8.2116 0.7485 10.0193 -1.9012 16.7140 51.6988
#
#
#
# Elastic Compliance Matrix: (Units=1/GPa)
#
#
# Indices 1 2 3 4 5 6 
#
# 1 0.018714 -0.002748 -0.001124 0.003669 -0.005649 0.005191
# 2 -0.002748 0.007798 -0.002596 0.000061 0.001304 -0.000465
# 3 -0.001124 -0.002596 0.008840 0.000506 0.002459 -0.002630
# 4 0.003669 0.000061 0.000506 0.020347 -0.003021 0.002209
# 5 -0.005649 0.001304 0.002459 -0.003021 0.027455 -0.010380
# 6 0.005191 -0.000465 -0.002630 0.002209 -0.010380 0.024121
#
#
# Mechanical properties :
#
#
# Convention : Reuss Voigt Hill
#
# Bulk Modulus (GPa) = 44.60895 59.09549 51.85222
# Shear Modulus (GPa) = 39.15932 47.69876 43.42904
#
# Velocity S-wave (km/s) = 3.76950 4.16025 3.96969
# Velocity P-wave (km/s) = 5.92723 6.67233 6.31078
#
# Compressibility (1/GPa) = 0.02241703
#
# Stress axis : x y z
#
# Youngs Moduli (GPa) = 53.43457 128.23431 113.12496
#
# Poissons Ratio (x) = 0.35239 0.12710
# Poissons Ratio (y) = 0.14684 0.29370
# Poissons Ratio (z) = 0.06004 0.33292
#
# Static dielectric constant tensor:
#      x y z
#    x 2.517190 0.027820 0.012750 
#    y 0.027820 2.052880 0.086880 
#    z 0.012750 0.086880 2.277080 
# 
# From -- ./inp_files/166245.got.cif
#   From: 2010.05.17/outbox.cif.g08.bks.cpg/sg2_84_cif.got.tgz:166245.got - 2010.06.03 11:33:40.
