data_PCOD9079712
_publ_section_title
;
Structure prediction by ZEFSAII (Michael W. Deem and Ramdas Pophale) SiO2 
 PCOD9079712
Probable space group: P -1
;
_chemical_formula_sum "Si O2"
_cell_formula_units_Z 14
_cell_length_a 7.904862
_cell_length_b 16.546753
_cell_length_c 7.297118
_cell_angle_alpha 111.527446
_cell_angle_beta 38.440393
_cell_angle_gamma 101.582882
_cell_volume 545.767552
_symmetry_space_group_name_H-M "P -1"
_symmetry_group_IT_number 2
_symmetry_cell_setting 'triclinic'
loop_
_space_group_symop_operation_xyz
x,y,z
-x,-y,-z
loop_
_atom_site_type_symbol
_atom_site_label
_atom_site_fract_x
_atom_site_fract_y
_atom_site_fract_z
Si Si1 0.808533 0.593770 0.220122
Si Si2 0.575256 0.990662 0.645730
Si Si3 0.267207 0.436759 0.157723
Si Si4 0.968789 0.903041 0.713382
Si Si5 0.113738 0.167644 0.904026
Si Si6 0.260404 0.701681 0.914920
Si Si7 0.337641 0.248762 0.112809
O O1 0.501975 0.622077 0.583103
O O2 0.768604 0.601681 0.043704
O O3 0.000000 0.500000 0.000000
O O4 0.007314 0.660014 0.178385
O O5 0.784270 0.059628 0.558244
O O6 0.500000 0.000000 0.500000
O O7 0.737039 0.892120 0.434100
O O8 0.301409 0.023953 0.016764
O O9 0.297356 0.353118 0.196058
O O10 0.000000 0.500000 0.500000
O O11 0.500000 0.500000 0.000000
O O12 0.885154 0.807801 0.661851
O O13 0.018044 0.891370 0.883178
O O14 0.340191 0.207514 0.870221
O O15 0.877779 0.241285 0.089728
O O16 0.406315 0.760973 0.977060
#
# Coordination Sequence:
#
# PCOD9079712 Si02
#       7
#     2   2   2   2   2   2   2
#     4  12  25  45  68  96 134 171 219 277 330 390
#     4  10  18  37  63  96 123 178 211 275 322 392
#     4  12  25  44  68  99 129 171 219 269 327 391
#     4   9  21  36  65  91 131 169 224 259 336 385
#     4   9  21  41  67  92 134 170 224 260 339 381
#     4  12  25  45  64 100 132 173 220 272 329 392
#     4  10  24  44  66  99 133 176 221 275 327 395
#
# _framework density 25.651945999999999
#
# number of rings (size 3 to 8) (size 9 to 14) (size 15 to 20)
#    0.857    0.571    1.429    4.714    0.000    6.857 
#    0.000    1.429    0.000    0.000    0.000    0.000 
#    0.000    0.000    0.000    0.000    0.000    0.000 
#
# Total GULP energy -78240.277310 kJ/mol
# GULP energy per Si atom -5588.591236 kJ/mol
# Density = 2.559356 g / cm^3
# Si number density = 25.651946 Si / 1000 Ang^3
#
#
#
# Elastic Constant Matrix: (Units=GPa)
#
#
# Indices 1 2 3 4 5 6 
#
# 1 115.8111 41.4973 21.6497 -1.9994 -5.2446 11.2233
# 2 41.4973 124.0054 39.0408 5.8730 -7.1443 26.5316
# 3 21.6497 39.0408 124.2616 8.1306 -21.3984 11.2642
# 4 -1.9994 5.8730 8.1306 47.4964 7.3216 -9.2991
# 5 -5.2446 -7.1443 -21.3984 7.3216 30.3073 2.2917
# 6 11.2233 26.5316 11.2642 -9.2991 2.2917 55.2634
#
#
#
# Elastic Compliance Matrix: (Units=1/GPa)
#
#
# Indices 1 2 3 4 5 6 
#
# 1 0.009921 -0.003048 -0.000750 0.000825 0.000290 -0.000272
# 2 -0.003048 0.010924 -0.002078 -0.002260 0.001478 -0.004644
# 3 -0.000750 -0.002078 0.010530 -0.003126 0.007710 -0.001842
# 4 0.000825 -0.002260 -0.003126 0.024469 -0.008966 0.006044
# 5 0.000290 0.001478 0.007710 -0.008966 0.041424 -0.005566
# 6 -0.000272 -0.004644 -0.001842 0.006044 -0.005566 0.022003
#
#
# Mechanical properties :
#
#
# Convention : Reuss Voigt Hill
#
# Bulk Modulus (GPa) = 50.96029 63.16152 57.06091
# Shear Modulus (GPa) = 36.34653 44.07277 40.20965
#
# Velocity S-wave (km/s) = 3.76827 4.14950 3.96347
# Velocity P-wave (km/s) = 6.23236 6.90172 6.57557
#
# Compressibility (1/GPa) = 0.01962312
#
# Stress axis : x y z
#
# Youngs Moduli (GPa) = 100.79781 91.54147 94.96394
#
# Poissons Ratio (x) = 0.27901 0.07125
# Poissons Ratio (y) = 0.30723 0.19731
# Poissons Ratio (z) = 0.07563 0.19020
#
# Static dielectric constant tensor:
#      x y z
#    x 2.017120 0.126970 -0.061170 
#    y 0.126970 1.329040 0.436430 
#    z -0.061170 0.436430 1.812240 
# 
# From -- ./inp_files/222267.got.cif
#   From: 2010.05.17/outbox.cif.g08.bks.cpg/sg2_112_cif.got.tgz:222267.got - 2010.06.03 11:33:40.
