data_PCOD9079889
_publ_section_title
;
Structure prediction by ZEFSAII (Michael W. Deem and Ramdas Pophale) SiO2 
 PCOD9079889
Probable space group: P -1
;
_chemical_formula_sum "Si O2"
_cell_formula_units_Z 16
_cell_length_a 12.490026
_cell_length_b 17.570792
_cell_length_c 11.370489
_cell_angle_alpha 146.130438
_cell_angle_beta 60.927786
_cell_angle_gamma 142.333262
_cell_volume 734.401704
_symmetry_space_group_name_H-M "P -1"
_symmetry_group_IT_number 2
_symmetry_cell_setting 'triclinic'
loop_
_space_group_symop_operation_xyz
x,y,z
-x,-y,-z
loop_
_atom_site_type_symbol
_atom_site_label
_atom_site_fract_x
_atom_site_fract_y
_atom_site_fract_z
Si Si1 0.770244 0.785929 0.899479
Si Si2 0.101740 0.432062 0.740236
Si Si3 0.766451 0.980614 0.587196
Si Si4 0.960879 0.015325 0.316570
Si Si5 0.893992 0.532325 0.936428
Si Si6 0.563041 0.862269 0.997452
Si Si7 0.473832 0.913833 0.533912
Si Si8 0.398133 0.259039 0.404733
O O1 0.663167 0.833531 0.986234
O O2 0.603792 0.527025 0.612950
O O3 0.813768 0.804136 0.037430
O O4 0.000000 0.000000 0.000000
O O5 0.322554 0.627827 0.819346
O O6 0.983060 0.187084 0.469671
O O7 0.985484 0.461199 0.793418
O O8 0.141660 0.474906 0.914802
O O9 0.678503 0.024992 0.611156
O O10 0.600554 0.788542 0.522551
O O11 0.857977 0.947189 0.410533
O O12 0.949917 0.213533 0.859243
O O13 0.191099 0.164897 0.388378
O O14 0.692480 0.350464 0.735228
O O15 0.632187 0.890613 0.864189
O O16 0.592275 0.032194 0.265908
O O17 0.500000 0.000000 0.500000
#
# Coordination Sequence:
#
# PCOD9079889 Si02
#       8
#     2   2   2   2   2   2   2   2
#     4  12  24  43  70  99 127 170 225 272 322 381
#     4  10  18  37  68  97 126 163 211 280 319 373
#     4  11  26  43  64  98 135 177 215 263 330 393
#     4  11  23  42  68  95 131 172 223 267 321 382
#     4  10  20  39  64  97 131 160 215 272 329 378
#     4  12  22  41  68  95 131 167 217 276 327 375
#     4  12  22  41  70 101 125 166 226 277 320 382
#     4  12  27  44  62  94 142 177 213 264 329 396
#
# _framework density 21.786441
#
# number of rings (size 3 to 8) (size 9 to 14) (size 15 to 20)
#    0.000    0.750    5.000    4.500    0.000    2.000 
#    0.000    0.625    0.000    0.000    0.000    0.000 
#    0.000    0.000    0.000    0.000    0.000    0.000 
#
# Total GULP energy -89375.024288 kJ/mol
# GULP energy per Si atom -5585.939018 kJ/mol
# Density = 2.173685 g / cm^3
# Si number density = 21.786441 Si / 1000 Ang^3
#
#
#
# Elastic Constant Matrix: (Units=GPa)
#
#
# Indices 1 2 3 4 5 6 
#
# 1 32.3003 14.0730 13.3558 -15.0352 7.9139 3.3200
# 2 14.0730 100.8337 33.1622 -16.8672 -0.2551 4.9089
# 3 13.3558 33.1622 118.4319 -8.1749 17.8313 7.4968
# 4 -15.0352 -16.8672 -8.1749 31.2535 5.0553 -3.9702
# 5 7.9139 -0.2551 17.8313 5.0553 24.6670 -3.1672
# 6 3.3200 4.9089 7.4968 -3.9702 -3.1672 24.4590
#
#
#
# Elastic Compliance Matrix: (Units=1/GPa)
#
#
# Indices 1 2 3 4 5 6 
#
# 1 0.049819 -0.002663 0.000588 0.025646 -0.022352 -0.005140
# 2 -0.002663 0.011998 -0.003142 0.003965 0.002421 -0.000126
# 3 0.000588 -0.003142 0.011041 0.002501 -0.009179 -0.003616
# 4 0.025646 0.003965 0.002501 0.050473 -0.020271 0.000525
# 5 -0.022352 0.002421 -0.009179 -0.020271 0.059786 0.009813
# 6 -0.005140 -0.000126 -0.003616 0.000525 0.009813 0.044072
#
#
# Mechanical properties :
#
#
# Convention : Reuss Voigt Hill
#
# Bulk Modulus (GPa) = 16.01941 41.41643 28.71792
# Shear Modulus (GPa) = 19.34761 28.80756 24.07759
#
# Velocity S-wave (km/s) = 2.98326 3.64025 3.32801
# Velocity P-wave (km/s) = 4.38581 6.05970 5.28939
#
# Compressibility (1/GPa) = 0.06242429
#
# Stress axis : x y z
#
# Youngs Moduli (GPa) = 20.07271 83.34876 90.57443
#
# Poissons Ratio (x) = 0.22195 -0.05330
# Poissons Ratio (y) = 0.05345 0.28459
# Poissons Ratio (z) = -0.01181 0.26189
#
# Static dielectric constant tensor:
#      x y z
#    x 1.784150 -0.021970 -0.003150 
#    y -0.021970 1.851230 -0.006810 
#    z -0.003150 -0.006810 1.814480 
# 
# From -- ./inp_files/457550.got.cif
#   From: 2010.05.17/outbox.cif.g08.bks.cpg/sg2_229_cif.got.tgz:457550.got - 2010.06.03 11:33:40.
