data_PCOD9079774
_publ_section_title
;
Structure prediction by ZEFSAII (Michael W. Deem and Ramdas Pophale) SiO2 
 PCOD9079774
Probable space group: P -1
;
_chemical_formula_sum "Si O2"
_cell_formula_units_Z 14
_cell_length_a 8.083541
_cell_length_b 11.286383
_cell_length_c 14.133786
_cell_angle_alpha 102.522701
_cell_angle_beta 61.613050
_cell_angle_gamma 145.612601
_cell_volume 599.406898
_symmetry_space_group_name_H-M "P -1"
_symmetry_group_IT_number 2
_symmetry_cell_setting 'triclinic'
loop_
_space_group_symop_operation_xyz
x,y,z
-x,-y,-z
loop_
_atom_site_type_symbol
_atom_site_label
_atom_site_fract_x
_atom_site_fract_y
_atom_site_fract_z
Si Si1 0.824751 0.694321 0.014823
Si Si2 0.768480 0.931717 0.339551
Si Si3 0.391575 0.631222 0.231673
Si Si4 0.141904 0.938714 0.462772
Si Si5 0.248755 0.764949 0.797491
Si Si6 0.422721 0.621632 0.818452
Si Si7 0.537097 0.485387 0.631683
O O1 0.739639 0.771717 0.107507
O O2 0.785702 0.567090 0.080871
O O3 0.500000 0.500000 0.000000
O O4 0.155448 0.841454 0.886778
O O5 0.502366 0.798858 0.301544
O O6 0.718669 0.764462 0.359587
O O7 0.704140 0.976125 0.457247
O O8 0.163343 0.157695 0.237450
O O9 0.293722 0.474258 0.308924
O O10 0.080830 0.463452 0.213298
O O11 0.823169 0.671326 0.508726
O O12 0.425154 0.058988 0.329973
O O13 0.000000 0.000000 0.500000
O O14 0.318576 0.702799 0.847707
O O15 0.371595 0.522188 0.715620
#
# Coordination Sequence:
#
# PCOD9079774 Si02
#       7
#     2   2   2   2   2   2   2
#     4   9  19  38  63  82 116 157 185 234 295 342
#     4   9  19  38  62  82 115 155 190 235 286 342
#     4   8  19  38  60  80 117 149 193 236 287 327
#     4  11  20  35  59  87 118 153 189 233 295 330
#     4  11  20  34  59  91 114 150 196 235 284 344
#     4  10  18  37  65  83 112 154 189 238 292 333
#     4   8  18  37  58  79 116 155 184 233 282 339
#
# _framework density 23.356421000000001
#
# number of rings (size 3 to 8) (size 9 to 14) (size 15 to 20)
#    0.857    1.714    2.857    0.429    0.000    1.714 
#    0.000    3.571   15.714    0.000    0.000    0.000 
#    0.000    0.000    0.000    0.000    0.000    0.000 
#
# Total GULP energy -78048.926004 kJ/mol
# GULP energy per Si atom -5574.923286 kJ/mol
# Density = 2.330326 g / cm^3
# Si number density = 23.356421 Si / 1000 Ang^3
#
#
#
# Elastic Constant Matrix: (Units=GPa)
#
#
# Indices 1 2 3 4 5 6 
#
# 1 49.1065 -4.3585 20.6755 -5.4346 -2.5476 2.5095
# 2 -4.3585 77.1050 20.5553 -3.9791 -1.0188 2.7794
# 3 20.6755 20.5553 150.2761 -16.9584 -18.1030 7.9269
# 4 -5.4346 -3.9791 -16.9584 26.5059 7.1413 7.8048
# 5 -2.5476 -1.0188 -18.1030 7.1413 27.4911 3.8597
# 6 2.5095 2.7794 7.9269 7.8048 3.8597 21.5753
#
#
#
# Elastic Compliance Matrix: (Units=1/GPa)
#
#
# Indices 1 2 3 4 5 6 
#
# 1 0.022366 0.002340 -0.002779 0.004228 -0.000297 -0.003358
# 2 0.002340 0.013794 -0.001974 0.002082 -0.000842 -0.001927
# 3 -0.002779 -0.001974 0.008734 0.004970 0.004874 -0.005301
# 4 0.004228 0.002082 0.004970 0.049510 -0.006402 -0.019351
# 5 -0.000297 -0.000842 0.004874 -0.006402 0.042154 -0.006873
# 6 -0.003358 -0.001927 -0.005301 -0.019351 -0.006873 0.057165
#
#
# Mechanical properties :
#
#
# Convention : Reuss Voigt Hill
#
# Bulk Modulus (GPa) = 24.95659 38.91471 31.93565
# Shear Modulus (GPa) = 23.59565 31.08881 27.34223
#
# Velocity S-wave (km/s) = 3.18188 3.65233 3.42519
# Velocity P-wave (km/s) = 4.92011 5.87226 5.41714
#
# Compressibility (1/GPa) = 0.04006958
#
# Stress axis : x y z
#
# Youngs Moduli (GPa) = 44.71133 72.49782 114.49025
#
# Poissons Ratio (x) = -0.16967 0.31815
# Poissons Ratio (y) = -0.10464 0.22595
# Poissons Ratio (z) = 0.12424 0.14308
#
# Static dielectric constant tensor:
#      x y z
#    x 1.920340 0.011120 0.017910 
#    y 0.011120 1.877560 0.017010 
#    z 0.017910 0.017010 1.908340 
# 
# From -- ./inp_files/498039.got.cif
#   From: 2010.05.17/outbox.cif.g08.bks.cpg/sg2_250_cif.got.tgz:498039.got - 2010.06.03 11:33:40.
