data_PCOD9079580
_publ_section_title
;
Structure prediction by ZEFSAII (Michael W. Deem and Ramdas Pophale) SiO2 
 PCOD9079580
Probable space group: P -1
;
_chemical_formula_sum "Si O2"
_cell_formula_units_Z 14
_cell_length_a 26.487621
_cell_length_b 10.855105
_cell_length_c 15.600678
_cell_angle_alpha 148.561551
_cell_angle_beta 17.668211
_cell_angle_gamma 154.047084
_cell_volume 595.580811
_symmetry_space_group_name_H-M "P -1"
_symmetry_group_IT_number 2
_symmetry_cell_setting 'triclinic'
loop_
_space_group_symop_operation_xyz
x,y,z
-x,-y,-z
loop_
_atom_site_type_symbol
_atom_site_label
_atom_site_fract_x
_atom_site_fract_y
_atom_site_fract_z
Si Si1 0.000232 0.365755 0.301876
Si Si2 0.252934 0.355184 0.160285
Si Si3 0.716642 0.107239 0.744850
Si Si4 0.598309 0.330719 0.514133
Si Si5 0.373137 0.139683 0.072616
Si Si6 0.077419 0.280354 0.637419
Si Si7 0.815820 0.436579 0.051027
O O1 0.847213 0.104849 0.454165
O O2 0.179446 0.574428 0.198675
O O3 0.085623 0.351208 0.063325
O O4 0.883588 0.525464 0.570648
O O5 0.416536 0.373205 0.841790
O O6 0.408017 0.589169 0.116878
O O7 0.107978 0.020244 0.209577
O O8 0.700700 0.942446 0.758500
O O9 0.500000 0.000000 0.000000
O O10 0.776689 0.502752 0.396882
O O11 0.500000 0.000000 0.500000
O O12 0.698519 0.442485 0.325870
O O13 0.216658 0.194411 0.315855
O O14 0.342128 0.865032 0.916294
O O15 0.992170 0.417045 0.796031
#
# Coordination Sequence:
#
# PCOD9079580 Si02
#       7
#     2   2   2   2   2   2   2
#     4  10  22  36  63  92 116 160 197 256 298 349
#     4  11  21  39  59  88 122 162 196 239 312 355
#     4  10  18  37  61  92 120 147 204 253 305 347
#     4  11  25  40  58  85 125 173 199 237 299 370
#     4  10  22  36  63  97 115 157 204 256 293 353
#     4  11  22  40  60  87 127 162 198 241 305 366
#     4  11  22  40  59  92 127 154 207 250 294 355
#
# _framework density 23.506466
#
# number of rings (size 3 to 8) (size 9 to 14) (size 15 to 20)
#    0.000    1.429    5.714    0.857    0.000    1.714 
#    0.000    0.000    0.000   11.143    0.000    0.000 
#    0.000    0.000    0.000    0.000    0.000    0.000 
#
# Total GULP energy -78119.655807 kJ/mol
# GULP energy per Si atom -5579.975415 kJ/mol
# Density = 2.345296 g / cm^3
# Si number density = 23.506466 Si / 1000 Ang^3
#
#
#
# Elastic Constant Matrix: (Units=GPa)
#
#
# Indices 1 2 3 4 5 6 
#
# 1 102.0762 30.9470 67.6883 -25.7718 24.6300 10.9648
# 2 30.9470 91.2333 41.7080 -32.3325 14.8656 10.7623
# 3 67.6883 41.7080 78.9459 -33.6849 0.0144 8.0231
# 4 -25.7718 -32.3325 -33.6849 40.8106 -0.4203 -2.1347
# 5 24.6300 14.8656 0.0144 -0.4203 53.8586 -14.3211
# 6 10.9648 10.7623 8.0231 -2.1347 -14.3211 34.6942
#
#
#
# Elastic Compliance Matrix: (Units=1/GPa)
#
#
# Indices 1 2 3 4 5 6 
#
# 1 0.039705 0.010233 -0.037046 0.001415 -0.025656 -0.017659
# 2 0.010233 0.021465 -0.014269 0.010947 -0.013579 -0.011524
# 3 -0.037046 -0.014269 0.055788 0.012346 0.024738 0.014204
# 4 0.001415 0.010947 0.012346 0.043894 -0.004934 -0.006034
# 5 -0.025656 -0.013579 0.024738 -0.004934 0.040076 0.022839
# 6 -0.017659 -0.011524 0.014204 -0.006034 0.022839 0.043751
#
#
# Mechanical properties :
#
#
# Convention : Reuss Voigt Hill
#
# Bulk Modulus (GPa) = 28.74072 61.43800 45.08936
# Shear Modulus (GPa) = 14.77363 34.66682 24.72023
#
# Velocity S-wave (km/s) = 2.50969 3.84445 3.24641
# Velocity P-wave (km/s) = 4.54438 6.77494 5.76850
#
# Compressibility (1/GPa) = 0.03479384
#
# Stress axis : x y z
#
# Youngs Moduli (GPa) = 25.18589 46.58782 17.92487
#
# Poissons Ratio (x) = -0.47672 0.66404
# Poissons Ratio (y) = -0.25772 0.25577
# Poissons Ratio (z) = 0.93303 0.66476
#
# Static dielectric constant tensor:
#      x y z
#    x 1.954250 -0.009600 0.057460 
#    y -0.009600 1.958880 0.012890 
#    z 0.057460 0.012890 1.898770 
# 
# From -- ./inp_files/543963.got.cif
#   From: 2010.05.17/outbox.cif.g08.bks.cpg/sg2_272_cif.got.tgz:543963.got - 2010.06.03 11:33:40.
