data_PCOD9079895
_publ_section_title
;
Structure prediction by ZEFSAII (Michael W. Deem and Ramdas Pophale) SiO2 
 PCOD9079895
Probable space group: P -1
;
_chemical_formula_sum "Si O2"
_cell_formula_units_Z 14
_cell_length_a 12.396755
_cell_length_b 16.155227
_cell_length_c 9.417787
_cell_angle_alpha 135.056682
_cell_angle_beta 133.276312
_cell_angle_gamma 23.994585
_cell_volume 536.823790
_symmetry_space_group_name_H-M "P -1"
_symmetry_group_IT_number 2
_symmetry_cell_setting 'triclinic'
loop_
_space_group_symop_operation_xyz
x,y,z
-x,-y,-z
loop_
_atom_site_type_symbol
_atom_site_label
_atom_site_fract_x
_atom_site_fract_y
_atom_site_fract_z
Si Si1 0.228267 0.100610 0.657496
Si Si2 0.590979 0.482792 0.214489
Si Si3 0.075102 0.542782 0.417644
Si Si4 0.695985 0.711098 0.934254
Si Si5 0.240886 0.731068 0.467380
Si Si6 0.505413 0.855820 0.350071
Si Si7 0.699634 0.174331 0.104425
O O1 0.032675 0.293063 0.598574
O O2 0.021326 0.177523 0.671636
O O3 0.404246 0.902662 0.474558
O O4 0.390435 0.102050 0.873334
O O5 0.366674 0.673519 0.357367
O O6 0.698060 0.293728 0.156891
O O7 0.802346 0.448835 0.348645
O O8 0.500000 0.500000 0.000000
O O9 0.823921 0.626687 0.335697
O O10 0.298622 0.321763 0.266158
O O11 0.556457 0.704939 0.894189
O O12 0.000000 0.500000 0.000000
O O13 0.500000 0.500000 0.500000
O O14 0.142245 0.893564 0.691071
O O15 0.500000 0.000000 0.500000
O O16 0.307718 0.921206 0.140767
#
# Coordination Sequence:
#
# PCOD9079895 Si02
#       7
#     2   2   2   2   2   2   2
#     4  10  18  32  53  86 110 134 170 223 273 323
#     4  11  22  35  53  79 109 144 182 220 261 309
#     4  10  17  32  51  77 112 135 169 226 264 308
#     4  10  15  27  55  79 105 135 167 220 274 301
#     4  10  18  32  55  80 106 137 178 227 267 304
#     4  10  20  31  52  87 112 134 169 223 276 317
#     4  11  18  31  55  81 109 138 172 225 269 309
#
# _framework density 26.079319999999999
#
# number of rings (size 3 to 8) (size 9 to 14) (size 15 to 20)
#    0.000    1.714    8.571    2.571    0.000    0.571 
#    0.000    0.714    0.000    1.714    0.000    0.000 
#    0.000    0.000    0.000    0.000    0.000    0.000 
#
# Total GULP energy -78050.494157 kJ/mol
# GULP energy per Si atom -5575.035297 kJ/mol
# Density = 2.601996 g / cm^3
# Si number density = 26.079320 Si / 1000 Ang^3
#
#
#
# Elastic Constant Matrix: (Units=GPa)
#
#
# Indices 1 2 3 4 5 6 
#
# 1 107.9263 40.7504 25.3968 1.8983 -0.4232 -26.6619
# 2 40.7504 43.5065 18.8862 10.9254 -5.5165 -1.1786
# 3 25.3968 18.8862 219.6559 10.5210 -6.2311 -3.5016
# 4 1.8983 10.9254 10.5210 25.5237 -3.7923 -3.0580
# 5 -0.4232 -5.5165 -6.2311 -3.7923 55.3552 0.6314
# 6 -26.6619 -1.1786 -3.5016 -3.0580 0.6314 41.7282
#
#
#
# Elastic Compliance Matrix: (Units=1/GPa)
#
#
# Indices 1 2 3 4 5 6 
#
# 1 0.020409 -0.020881 -0.000836 0.009101 -0.001545 0.013071
# 2 -0.020881 0.047936 -0.000884 -0.019732 0.003321 -0.013558
# 3 -0.000836 -0.000884 0.004804 -0.001521 0.000345 -0.000273
# 4 0.009101 -0.019732 -0.001521 0.048791 0.001175 0.008688
# 5 -0.001545 0.003321 0.000345 0.001175 0.018516 -0.001058
# 6 0.013071 -0.013558 -0.000273 0.008688 -0.001058 0.032563
#
#
# Mechanical properties :
#
#
# Convention : Reuss Voigt Hill
#
# Bulk Modulus (GPa) = 35.78155 60.12840 47.95498
# Shear Modulus (GPa) = 21.97466 43.59178 32.78322
#
# Velocity S-wave (km/s) = 2.90592 4.09284 3.54935
# Velocity P-wave (km/s) = 5.00092 6.74101 5.93508
#
# Compressibility (1/GPa) = 0.02794736
#
# Stress axis : x y z
#
# Youngs Moduli (GPa) = 48.99787 20.86128 208.18103
#
# Poissons Ratio (x) = 0.43560 0.17399
# Poissons Ratio (y) = 1.02310 0.18406
# Poissons Ratio (z) = 0.04095 0.01844
#
# Static dielectric constant tensor:
#      x y z
#    x 2.048270 0.041620 0.038860 
#    y 0.041620 2.277480 0.061960 
#    z 0.038860 0.061960 2.263910 
# 
# From -- ./inp_files/278440.got.cif
#   From: 2010.05.17/outbox.cif.g08.bks.cpg/sg2_140_cif.got.tgz:278440.got - 2010.06.03 11:33:40.
