data_PCOD9079849
_publ_section_title
;
Structure prediction by ZEFSAII (Michael W. Deem and Ramdas Pophale) SiO2 
 PCOD9079849
Probable space group: P -1
;
_chemical_formula_sum "Si O2"
_cell_formula_units_Z 16
_cell_length_a 8.598631
_cell_length_b 14.091984
_cell_length_c 14.212569
_cell_angle_alpha 40.014537
_cell_angle_beta 131.771219
_cell_angle_gamma 101.787653
_cell_volume 635.985600
_symmetry_space_group_name_H-M "P -1"
_symmetry_group_IT_number 2
_symmetry_cell_setting 'triclinic'
loop_
_space_group_symop_operation_xyz
x,y,z
-x,-y,-z
loop_
_atom_site_type_symbol
_atom_site_label
_atom_site_fract_x
_atom_site_fract_y
_atom_site_fract_z
Si Si1 0.796121 0.895837 0.244486
Si Si2 0.553318 0.220029 0.628359
Si Si3 0.316089 0.751382 0.135607
Si Si4 0.039994 0.363954 0.202631
Si Si5 0.817756 0.396702 0.522524
Si Si6 0.919637 0.171214 0.409110
Si Si7 0.594756 0.062093 0.406914
Si Si8 0.871234 0.777397 0.039650
O O1 0.011824 0.692289 0.435852
O O2 0.835420 0.885706 0.380130
O O3 0.500000 0.000000 0.000000
O O4 0.858703 0.034261 0.132501
O O5 0.537809 0.262351 0.699897
O O6 0.256816 0.342393 0.373729
O O7 0.713720 0.281084 0.598115
O O8 0.727630 0.994288 0.851588
O O9 0.541584 0.613257 0.253875
O O10 0.120208 0.710370 0.122843
O O11 0.818384 0.368869 0.168702
O O12 0.191332 0.150544 0.387129
O O13 0.000000 0.500000 0.000000
O O14 0.017100 0.349244 0.725272
O O15 0.714492 0.169516 0.393337
O O16 0.000000 0.000000 0.500000
O O17 0.352736 0.199049 0.131683
O O18 0.500000 0.000000 0.500000
#
# Coordination Sequence:
#
# PCOD9079849 Si02
#       8
#     2   2   2   2   2   2   2   2
#     4  12  25  43  72  96 146 188 233 299 370 430
#     4  10  18  37  67  98 141 184 236 298 367 421
#     4  11  21  39  68 104 138 184 236 297 357 432
#     4  10  23  42  70  99 135 187 245 299 358 429
#     4  11  23  37  67 105 136 181 244 295 356 436
#     4  10  24  45  72 105 143 191 241 292 366 441
#     4  10  22  39  72  99 141 192 240 283 363 441
#     4  10  18  37  67 100 136 188 235 290 358 428
#
# _framework density 25.157800999999999
#
# number of rings (size 3 to 8) (size 9 to 14) (size 15 to 20)
#    0.000    1.500    2.500    3.750    5.250    4.500 
#    0.000    0.625    8.250    0.000    0.000    0.000 
#    0.000    0.000    0.000    0.000    0.000    0.000 
#
# Total GULP energy -89379.787653 kJ/mol
# GULP energy per Si atom -5586.236728 kJ/mol
# Density = 2.510054 g / cm^3
# Si number density = 25.157801 Si / 1000 Ang^3
#
#
#
# Elastic Constant Matrix: (Units=GPa)
#
#
# Indices 1 2 3 4 5 6 
#
# 1 103.7485 58.9077 39.0555 -1.2306 -13.9037 8.8430
# 2 58.9077 92.5140 63.3404 -0.1058 0.8981 9.4802
# 3 39.0555 63.3404 90.1516 1.2519 -6.6994 14.3859
# 4 -1.2306 -0.1058 1.2519 38.0176 -6.1633 9.7942
# 5 -13.9037 0.8981 -6.6994 -6.1633 41.2662 -13.0398
# 6 8.8430 9.4802 14.3859 9.7942 -13.0398 34.9458
#
#
#
# Elastic Compliance Matrix: (Units=1/GPa)
#
#
# Indices 1 2 3 4 5 6 
#
# 1 0.016522 -0.011538 0.001342 0.001392 0.006364 0.000381
# 2 -0.011538 0.029244 -0.015928 -0.000716 -0.007557 -0.001076
# 3 0.001342 -0.015928 0.022629 0.000906 0.003222 -0.004386
# 4 0.001392 -0.000716 0.000906 0.028690 0.002503 -0.007638
# 5 0.006364 -0.007557 0.003222 0.002503 0.030537 0.009806
# 6 0.000381 -0.001076 -0.004386 -0.007638 0.009806 0.036416
#
#
# Mechanical properties :
#
#
# Convention : Reuss Voigt Hill
#
# Bulk Modulus (GPa) = 61.93580 67.66904 64.80242
# Shear Modulus (GPa) = 22.55605 31.18663 26.87134
#
# Velocity S-wave (km/s) = 2.99755 3.52467 3.27174
# Velocity P-wave (km/s) = 6.05415 6.59702 6.33141
#
# Compressibility (1/GPa) = 0.01614575
#
# Stress axis : x y z
#
# Youngs Moduli (GPa) = 60.52670 34.19481 44.19090
#
# Poissons Ratio (x) = 0.39454 -0.05930
# Poissons Ratio (y) = 0.69836 0.70389
# Poissons Ratio (z) = -0.08122 0.54467
#
# Static dielectric constant tensor:
#      x y z
#    x 2.302970 -0.005670 -0.020610 
#    y -0.005670 1.965610 0.023080 
#    z -0.020610 0.023080 1.955320 
# 
# From -- ./inp_files/505313.got.cif
#   From: 2010.05.17/outbox.cif.g08.bks.cpg/sg2_253_cif.got.tgz:505313.got - 2010.06.03 11:33:40.
