data_PCOD9079691
_publ_section_title
;
Structure prediction by ZEFSAII (Michael W. Deem and Ramdas Pophale) SiO2 
 PCOD9079691
Probable space group: P -1
;
_chemical_formula_sum "Si O2"
_cell_formula_units_Z 16
_cell_length_a 18.627667
_cell_length_b 12.538477
_cell_length_c 10.960095
_cell_angle_alpha 120.265409
_cell_angle_beta 55.001149
_cell_angle_gamma 161.257757
_cell_volume 666.282614
_symmetry_space_group_name_H-M "P -1"
_symmetry_group_IT_number 2
_symmetry_cell_setting 'triclinic'
loop_
_space_group_symop_operation_xyz
x,y,z
-x,-y,-z
loop_
_atom_site_type_symbol
_atom_site_label
_atom_site_fract_x
_atom_site_fract_y
_atom_site_fract_z
Si Si1 0.789525 0.633494 0.542203
Si Si2 0.274757 0.266584 0.022169
Si Si3 0.859284 0.547534 0.000814
Si Si4 0.571587 0.643297 0.316566
Si Si5 0.335371 0.741230 0.734375
Si Si6 0.822268 0.028445 0.535905
Si Si7 0.398264 0.696246 0.122988
Si Si8 0.124441 0.712814 0.162451
O O1 0.573151 0.443664 0.669818
O O2 0.673401 0.391504 0.413907
O O3 0.934967 0.730519 0.542623
O O4 0.000000 0.000000 0.500000
O O5 0.296496 0.271288 0.858551
O O6 0.500000 0.500000 0.000000
O O7 0.282450 0.420872 0.127772
O O8 0.043135 0.888501 0.069756
O O9 0.772174 0.472122 0.910567
O O10 0.955030 0.533512 0.892867
O O11 0.646762 0.267247 0.144658
O O12 0.742850 0.926988 0.414719
O O13 0.379960 0.311650 0.387290
O O14 0.079993 0.472167 0.806162
O O15 0.526220 0.099705 0.736724
O O16 0.837882 0.178172 0.678405
O O17 0.640581 0.975887 0.972820
#
# Coordination Sequence:
#
# PCOD9079691 Si02
#       8
#     2   2   2   2   2   2   2   2
#     4   9  20  34  61  96 117 153 205 258 306 355
#     4  12  25  43  60  85 130 168 203 244 316 383
#     4  11  24  35  60  93 123 166 199 260 309 370
#     4  10  21  38  61  90 120 165 198 254 312 356
#     4  10  20  37  66  92 122 156 209 262 303 361
#     4   9  19  36  63  90 122 150 209 263 293 369
#     4  11  22  38  59  91 122 159 212 257 302 364
#     4  10  18  37  63  90 121 157 208 254 312 352
#
# _framework density 24.013833000000002
#
# number of rings (size 3 to 8) (size 9 to 14) (size 15 to 20)
#    0.000    1.750    1.250    4.875    7.000    1.000 
#    2.250    0.625    0.000    2.250    0.000    0.000 
#    0.000    0.000    0.000    0.000    0.000    0.000 
#
# Total GULP energy -89512.023285 kJ/mol
# GULP energy per Si atom -5594.501455 kJ/mol
# Density = 2.395918 g / cm^3
# Si number density = 24.013833 Si / 1000 Ang^3
#
#
#
# Elastic Constant Matrix: (Units=GPa)
#
#
# Indices 1 2 3 4 5 6 
#
# 1 76.5882 19.9948 20.4019 11.1219 -6.9241 -9.8787
# 2 19.9948 102.7384 35.8018 34.0484 -10.1333 -25.2272
# 3 20.4019 35.8018 116.3852 31.4285 -6.7610 -14.1839
# 4 11.1219 34.0484 31.4285 43.6972 -3.2716 -6.1934
# 5 -6.9241 -10.1333 -6.7610 -3.2716 34.4263 17.9025
# 6 -9.8787 -25.2272 -14.1839 -6.1934 17.9025 34.4178
#
#
#
# Elastic Compliance Matrix: (Units=1/GPa)
#
#
# Indices 1 2 3 4 5 6 
#
# 1 0.014303 -0.001338 -0.001501 -0.001192 0.001211 0.001662
# 2 -0.001338 0.015967 -0.000786 -0.010241 -0.001996 0.010191
# 3 -0.001501 -0.000786 0.011208 -0.006727 -0.000302 0.002559
# 4 -0.001192 -0.010241 -0.006727 0.035405 0.001370 -0.004962
# 5 0.001211 -0.001996 -0.000302 0.001370 0.040152 -0.021879
# 6 0.001662 0.010191 0.002559 -0.004962 -0.021879 0.048543
#
#
# Mechanical properties :
#
#
# Convention : Reuss Voigt Hill
#
# Bulk Modulus (GPa) = 29.21555 49.78986 39.50270
# Shear Modulus (GPa) = 27.13905 37.14250 32.14077
#
# Velocity S-wave (km/s) = 3.36541 3.93709 3.66242
# Velocity P-wave (km/s) = 5.22435 6.43789 5.86260
#
# Compressibility (1/GPa) = 0.03422835
#
# Stress axis : x y z
#
# Youngs Moduli (GPa) = 69.91601 62.62904 89.22428
#
# Poissons Ratio (x) = 0.08380 0.13391
# Poissons Ratio (y) = 0.09355 0.07011
# Poissons Ratio (z) = 0.10493 0.04921
#
# Static dielectric constant tensor:
#      x y z
#    x 1.917040 -0.018260 0.046610 
#    y -0.018260 1.933400 0.007990 
#    z 0.046610 0.007990 1.981240 
# 
# From -- ./inp_files/437168.got.cif
#   From: 2010.05.17/outbox.cif.g08.bks.cpg/sg2_219_cif.got.tgz:437168.got - 2010.06.03 11:33:40.
