data_PCOD9079729
_publ_section_title
;
Structure prediction by ZEFSAII (Michael W. Deem and Ramdas Pophale) SiO2 
 PCOD9079729
Probable space group: P -1
;
_chemical_formula_sum "Si O2"
_cell_formula_units_Z 16
_cell_length_a 16.031503
_cell_length_b 23.034010
_cell_length_c 8.718381
_cell_angle_alpha 132.265095
_cell_angle_beta 46.016121
_cell_angle_gamma 161.518547
_cell_volume 732.955004
_symmetry_space_group_name_H-M "P -1"
_symmetry_group_IT_number 2
_symmetry_cell_setting 'triclinic'
loop_
_space_group_symop_operation_xyz
x,y,z
-x,-y,-z
loop_
_atom_site_type_symbol
_atom_site_label
_atom_site_fract_x
_atom_site_fract_y
_atom_site_fract_z
Si Si1 0.117181 0.169511 0.298570
Si Si2 0.217188 0.933681 0.874645
Si Si3 0.324298 0.621850 0.688262
Si Si4 0.663166 0.132136 0.881409
Si Si5 0.084428 0.962757 0.358969
Si Si6 0.911255 0.479636 0.864495
Si Si7 0.606677 0.819155 0.135469
Si Si8 0.894453 0.675946 0.558077
O O1 0.205294 0.298435 0.316094
O O2 0.306402 0.209702 0.104893
O O3 0.081139 0.169163 0.519927
O O4 0.815566 0.957260 0.253067
O O5 0.031231 0.764356 0.707808
O O6 0.451282 0.034035 0.850630
O O7 0.333645 0.067760 0.842833
O O8 0.051382 0.884739 0.120250
O O9 0.593050 0.828680 0.654115
O O10 0.058341 0.486101 0.692946
O O11 0.323663 0.527453 0.526976
O O12 0.269778 0.619687 0.926609
O O13 0.871394 0.202920 0.650296
O O14 0.850893 0.313767 0.039281
O O15 0.500000 0.000000 0.000000
O O16 0.000000 0.000000 0.500000
O O17 0.717748 0.378202 0.788088
#
# Coordination Sequence:
#
# PCOD9079729 Si02
#       8
#     2   2   2   2   2   2   2   2
#     4  10  22  38  63  92 124 156 210 258 302 366
#     4  11  20  39  64  86 122 167 208 241 313 372
#     4  10  20  38  63  92 122 160 209 249 308 372
#     4  11  22  38  61  94 129 158 207 262 308 360
#     4  12  21  39  67  90 118 166 211 254 306 366
#     4  10  18  37  64  86 120 166 205 249 305 379
#     4  10  19  39  65  87 118 167 208 247 310 375
#     4  10  23  38  62  93 126 164 201 256 311 368
#
# _framework density 21.829443000000001
#
# number of rings (size 3 to 8) (size 9 to 14) (size 15 to 20)
#    0.000    1.500    3.750    2.625    0.000    1.000 
#    2.250    8.125    0.000    0.000    0.000    0.000 
#    0.000    0.000    0.000    0.000    0.000    0.000 
#
# Total GULP energy -89342.267875 kJ/mol
# GULP energy per Si atom -5583.891742 kJ/mol
# Density = 2.177976 g / cm^3
# Si number density = 21.829443 Si / 1000 Ang^3
#
#
#
# Elastic Constant Matrix: (Units=GPa)
#
#
# Indices 1 2 3 4 5 6 
#
# 1 79.6201 13.9116 0.0055 -3.3181 -11.0773 14.5646
# 2 13.9116 36.6349 9.1343 11.5142 3.1535 3.4727
# 3 0.0055 9.1343 61.8610 9.2572 -1.4661 -3.7574
# 4 -3.3181 11.5142 9.2572 21.2504 -1.0146 -3.0707
# 5 -11.0773 3.1535 -1.4661 -1.0146 28.9433 -3.4714
# 6 14.5646 3.4727 -3.7574 -3.0707 -3.4714 30.3317
#
#
#
# Elastic Compliance Matrix: (Units=1/GPa)
#
#
# Indices 1 2 3 4 5 6 
#
# 1 0.016196 -0.008284 0.000076 0.006524 0.006687 -0.005393
# 2 -0.008284 0.039366 -0.002928 -0.022376 -0.008893 -0.004175
# 3 0.000076 -0.002928 0.017608 -0.005715 0.001285 0.002048
# 4 0.006524 -0.022376 -0.005715 0.063930 0.007614 0.006065
# 5 0.006687 -0.008893 0.001285 0.007614 0.038792 0.003177
# 6 -0.005393 -0.004175 0.002048 0.006065 0.003177 0.037268
#
#
# Mechanical properties :
#
#
# Convention : Reuss Voigt Hill
#
# Bulk Modulus (GPa) = 19.64702 24.91320 22.28011
# Shear Modulus (GPa) = 19.81013 26.44273 23.12643
#
# Velocity S-wave (km/s) = 3.01574 3.48420 3.25840
# Velocity P-wave (km/s) = 4.59848 5.25582 4.93810
#
# Compressibility (1/GPa) = 0.05089831
#
# Stress axis : x y z
#
# Youngs Moduli (GPa) = 61.74427 25.40256 56.79355
#
# Poissons Ratio (x) = 0.21044 -0.00434
# Poissons Ratio (y) = 0.51150 0.16628
# Poissons Ratio (z) = -0.00471 0.07438
#
# Static dielectric constant tensor:
#      x y z
#    x 1.863860 0.042780 -0.022550 
#    y 0.042780 1.832860 -0.000080 
#    z -0.022550 -0.000080 1.800340 
# 
# From -- ./inp_files/295987.got.cif
#   From: 2010.05.17/outbox.cif.g08.bks.cpg/sg2_148_cif.got.tgz:295987.got - 2010.06.03 11:33:40.
