data_PCOD9079984
_publ_section_title
;
Structure prediction by ZEFSAII (Michael W. Deem and Ramdas Pophale) SiO2 
 PCOD9079984
Probable space group: P -1
;
_chemical_formula_sum "Si O2"
_cell_formula_units_Z 15
_cell_length_a 11.815621
_cell_length_b 15.788375
_cell_length_c 10.260651
_cell_angle_alpha 145.870232
_cell_angle_beta 110.093753
_cell_angle_gamma 45.866781
_cell_volume 628.884558
_symmetry_space_group_name_H-M "P -1"
_symmetry_group_IT_number 2
_symmetry_cell_setting 'triclinic'
loop_
_space_group_symop_operation_xyz
x,y,z
-x,-y,-z
loop_
_atom_site_type_symbol
_atom_site_label
_atom_site_fract_x
_atom_site_fract_y
_atom_site_fract_z
Si Si1 0.022011 0.623995 0.080662
Si Si2 0.245252 0.803195 0.576216
Si Si3 0.181387 0.195468 0.049828
Si Si4 0.370518 0.636623 0.750711
Si Si5 0.212771 0.874387 0.357365
Si Si6 0.000000 0.000000 0.000000
Si Si7 0.633438 0.594168 0.212514
Si Si8 0.229477 0.447501 0.522415
O O1 0.932211 0.858716 0.413071
O O2 0.898755 0.722802 0.024768
O O3 0.000000 0.500000 0.000000
O O4 0.240487 0.446139 0.897681
O O5 0.453104 0.516012 0.275059
O O6 0.157140 0.893309 0.510934
O O7 0.110291 0.888450 0.751751
O O8 0.301365 0.925343 0.776736
O O9 0.272517 0.265564 0.214287
O O10 0.990956 0.354687 0.265833
O O11 0.500000 0.500000 0.500000
O O12 0.248352 0.597267 0.659680
O O13 0.185569 0.922227 0.029404
O O14 0.419854 0.756363 0.296910
O O15 0.252483 0.674596 0.052858
O O16 0.646158 0.677469 0.455653
#
# Coordination Sequence:
#
# PCOD9079984 Si02
#       8
#     2   2   2   2   2   1   2   2
#     4  10  22  42  61  90 124 160 208 254 309 363
#     4  10  19  36  59  90 117 155 203 244 304 362
#     4   9  20  36  63  85 116 161 200 243 302 360
#     4  10  20  34  55  84 121 156 191 245 304 356
#     4  10  21  39  66  94 113 166 213 250 303 362
#     4  10  20  36  56  84 132 152 188 256 302 362
#     4  10  21  40  65  88 121 160 209 258 293 362
#     4  10  18  38  60  85 119 155 196 245 300 356
#
# _framework density 23.851756000000002
#
# number of rings (size 3 to 8) (size 9 to 14) (size 15 to 20)
#    0.000    2.133    2.667    0.400    0.000    1.067 
#    4.800    0.000    2.933    0.000    0.000    0.000 
#    0.000    0.000    0.000    0.000    0.000    0.000 
#
# Total GULP energy -83525.656392 kJ/mol
# GULP energy per Si atom -5568.377093 kJ/mol
# Density = 2.379747 g / cm^3
# Si number density = 23.851756 Si / 1000 Ang^3
#
#
#
# Elastic Constant Matrix: (Units=GPa)
#
#
# Indices 1 2 3 4 5 6 
#
# 1 152.1227 26.4279 40.9156 -5.8281 -18.0302 13.1741
# 2 26.4279 56.3604 22.6879 -5.7012 -7.3552 6.5560
# 3 40.9156 22.6879 74.4393 -15.1669 -13.4831 -0.9392
# 4 -5.8281 -5.7012 -15.1669 31.2833 -15.2601 -2.1816
# 5 -18.0302 -7.3552 -13.4831 -15.2601 51.9646 1.4339
# 6 13.1741 6.5560 -0.9392 -2.1816 1.4339 40.5105
#
#
#
# Elastic Compliance Matrix: (Units=1/GPa)
#
#
# Indices 1 2 3 4 5 6 
#
# 1 0.008328 -0.001880 -0.003697 0.000099 0.001764 -0.002547
# 2 -0.001880 0.021313 -0.004807 0.001849 0.001740 -0.002911
# 3 -0.003697 -0.004807 0.020644 0.011976 0.006831 0.002862
# 4 0.000099 0.001849 0.011976 0.046562 0.017026 0.001851
# 5 0.001764 0.001740 0.006831 0.017026 0.026895 -0.000732
# 6 -0.002547 -0.002911 0.002862 0.001851 -0.000732 0.026176
#
#
# Mechanical properties :
#
#
# Convention : Reuss Voigt Hill
#
# Bulk Modulus (GPa) = 33.87927 51.44280 42.66103
# Shear Modulus (GPa) = 27.69696 37.61109 32.65402
#
# Velocity S-wave (km/s) = 3.41135 3.97529 3.70407
# Velocity P-wave (km/s) = 5.45448 6.53338 6.01816
#
# Compressibility (1/GPa) = 0.02951658
#
# Stress axis : x y z
#
# Youngs Moduli (GPa) = 120.07626 46.92080 48.43931
#
# Poissons Ratio (x) = 0.08823 0.17907
# Poissons Ratio (y) = 0.22580 0.23284
# Poissons Ratio (z) = 0.44391 0.22554
#
# Static dielectric constant tensor:
#      x y z
#    x 1.925650 -0.089330 -0.084400 
#    y -0.089330 1.873670 -0.225840 
#    z -0.084400 -0.225840 1.726540 
# 
# From -- ./inp_files/436211.got.cif
#   From: 2010.05.17/outbox.cif.g08.bks.cpg/sg2_219_cif.got.tgz:436211.got - 2010.06.03 11:33:40.
