data_PCOD9079469
_publ_section_title
;
Structure prediction by ZEFSAII (Michael W. Deem and Ramdas Pophale) SiO2 
 PCOD9079469
Probable space group: P -1
;
_chemical_formula_sum "Si O2"
_cell_formula_units_Z 16
_cell_length_a 21.019543
_cell_length_b 13.158259
_cell_length_c 8.280050
_cell_angle_alpha 97.556588
_cell_angle_beta 118.957215
_cell_angle_gamma 27.940422
_cell_volume 649.097976
_symmetry_space_group_name_H-M "P -1"
_symmetry_group_IT_number 2
_symmetry_cell_setting 'triclinic'
loop_
_space_group_symop_operation_xyz
x,y,z
-x,-y,-z
loop_
_atom_site_type_symbol
_atom_site_label
_atom_site_fract_x
_atom_site_fract_y
_atom_site_fract_z
Si Si1 0.675585 0.957038 0.128772
Si Si2 0.166388 0.621926 0.659145
Si Si3 0.177932 0.052341 0.500632
Si Si4 0.173832 0.879502 0.252871
Si Si5 0.680062 0.626970 0.762796
Si Si6 0.772747 0.808648 0.548524
Si Si7 0.070995 0.950672 0.813599
Si Si8 0.304786 0.154764 0.194529
O O1 0.796384 0.735802 0.379382
O O2 0.694092 0.050600 0.229050
O O3 0.422743 0.255395 0.867060
O O4 0.780856 0.799191 0.049189
O O5 0.163618 0.736450 0.770213
O O6 0.035212 0.714857 0.626820
O O7 0.018532 0.838876 0.363287
O O8 0.291408 0.807672 0.492198
O O9 0.136688 0.196006 0.346007
O O10 0.135950 0.829850 0.304191
O O11 0.925397 0.258094 0.000426
O O12 0.231979 0.770851 0.119718
O O13 0.499884 0.816374 0.699467
O O14 0.553049 0.785279 0.469519
O O15 0.677571 0.751704 0.816254
O O16 0.812026 0.697593 0.741334
#
# Coordination Sequence:
#
# PCOD9079469 Si02
#       8
#     2   2   2   2   2   2   2   2
#     4  10  20  37  65  82 123 157 185 248 295 337
#     4  10  19  39  58  86 120 152 196 246 290 351
#     4   9  21  35  59  87 119 154 194 241 291 354
#     4  10  18  37  59  83 117 158 187 248 301 334
#     4   9  18  36  63  83 119 155 196 240 295 345
#     4   8  18  35  54  86 120 144 190 242 274 351
#     4   9  20  33  61  85 112 153 203 238 289 356
#     4   9  19  36  60  95 110 155 205 233 287 363
#
# _framework density 24.64959
#
# number of rings (size 3 to 8) (size 9 to 14) (size 15 to 20)
#    1.500    1.250    0.000    2.250    0.000    1.500 
#    0.000    7.500    5.500    0.000    0.000    0.000 
#    0.000    0.000    0.000    0.000    0.000    0.000 
#
# Total GULP energy -89174.166518 kJ/mol
# GULP energy per Si atom -5573.385407 kJ/mol
# Density = 2.459349 g / cm^3
# Si number density = 24.649590 Si / 1000 Ang^3
#
#
#
# Elastic Constant Matrix: (Units=GPa)
#
#
# Indices 1 2 3 4 5 6 
#
# 1 136.4905 36.0546 37.1193 5.3018 3.8621 -13.4315
# 2 36.0546 63.1400 33.3143 20.6407 3.6926 -16.8750
# 3 37.1193 33.3143 88.9386 28.5985 -2.8245 -20.2420
# 4 5.3018 20.6407 28.5985 61.0391 -6.2954 -0.5502
# 5 3.8621 3.6926 -2.8245 -6.2954 39.9750 3.0821
# 6 -13.4315 -16.8750 -20.2420 -0.5502 3.0821 31.5966
#
#
#
# Elastic Compliance Matrix: (Units=1/GPa)
#
#
# Indices 1 2 3 4 5 6 
#
# 1 0.009190 -0.004424 -0.002892 0.002015 -0.000348 -0.000240
# 2 -0.004424 0.025190 -0.003272 -0.006923 -0.003972 0.009744
# 3 -0.002892 -0.003272 0.017779 -0.006886 0.000115 0.008282
# 4 0.002015 -0.006923 -0.006886 0.022122 0.004002 -0.007257
# 5 -0.000348 -0.003972 0.000115 0.004002 0.026417 -0.004703
# 6 -0.000240 0.009744 0.008282 -0.007257 -0.004703 0.042389
#
#
# Mechanical properties :
#
#
# Convention : Reuss Voigt Hill
#
# Bulk Modulus (GPa) = 32.27516 55.72728 44.00122
# Shear Modulus (GPa) = 28.63865 38.66086 33.64976
#
# Velocity S-wave (km/s) = 3.41226 3.96462 3.69877
# Velocity P-wave (km/s) = 5.35226 6.60413 6.01087
#
# Compressibility (1/GPa) = 0.03098358
#
# Stress axis : x y z
#
# Youngs Moduli (GPa) = 108.81938 39.69864 56.24673
#
# Poissons Ratio (x) = 0.17563 0.16264
# Poissons Ratio (y) = 0.48143 0.18401
# Poissons Ratio (z) = 0.31466 0.12988
#
# Static dielectric constant tensor:
#      x y z
#    x 1.925110 -0.030030 -0.032420 
#    y -0.030030 2.027310 0.012220 
#    z -0.032420 0.012220 2.080870 
# 
# From -- ./inp_files/347301.got.cif
#   From: 2010.05.17/outbox.cif.g08.bks.cpg/sg2_174_cif.got.tgz:347301.got - 2010.06.03 11:33:40.
