data_PCOD9079718
_publ_section_title
;
Structure prediction by ZEFSAII (Michael W. Deem and Ramdas Pophale) SiO2 
 PCOD9079718
Probable space group: P -1
;
_chemical_formula_sum "Si O2"
_cell_formula_units_Z 16
_cell_length_a 11.530433
_cell_length_b 9.232721
_cell_length_c 9.412049
_cell_angle_alpha 77.629679
_cell_angle_beta 47.318097
_cell_angle_gamma 74.503595
_cell_volume 709.032819
_symmetry_space_group_name_H-M "P -1"
_symmetry_group_IT_number 2
_symmetry_cell_setting 'triclinic'
loop_
_space_group_symop_operation_xyz
x,y,z
-x,-y,-z
loop_
_atom_site_type_symbol
_atom_site_label
_atom_site_fract_x
_atom_site_fract_y
_atom_site_fract_z
Si Si1 0.394258 0.938206 0.430961
Si Si2 0.834590 0.119808 0.610435
Si Si3 0.395311 0.370799 0.587536
Si Si4 0.306035 0.953259 0.967562
Si Si5 0.209559 0.238155 0.554941
Si Si6 0.071647 0.823862 0.009651
Si Si7 0.950218 0.646613 0.603336
Si Si8 0.119533 0.295211 0.032023
O O1 0.258630 0.895054 0.452079
O O2 0.485513 0.787736 0.456640
O O3 0.519734 0.017227 0.221927
O O4 0.302508 0.076840 0.568525
O O5 0.894859 0.275840 0.535485
O O6 0.721860 0.102395 0.840250
O O7 0.000000 0.000000 0.500000
O O8 0.500000 0.500000 0.500000
O O9 0.305945 0.361249 0.512899
O O10 0.247253 0.369911 0.820276
O O11 0.241578 0.840327 0.933203
O O12 0.198715 0.119767 0.018747
O O13 0.185905 0.252007 0.402514
O O14 0.034920 0.239656 0.767395
O O15 0.040825 0.721542 0.921313
O O16 0.000000 0.000000 0.000000
O O17 0.902726 0.632979 0.809138
O O18 0.000000 0.500000 0.500000
#
# Coordination Sequence:
#
# PCOD9079718 Si02
#       8
#     2   2   2   2   2   2   2   2
#     4  11  23  38  68 101 132 168 218 274 329 383
#     4  12  21  40  70  96 130 173 221 272 328 387
#     4  10  24  45  67  95 137 177 213 266 339 393
#     4  10  18  37  64 105 128 163 216 277 324 386
#     4  11  22  45  66  98 132 173 222 272 319 399
#     4   9  18  35  66  96 131 165 217 273 321 380
#     4  12  26  43  66  97 134 172 226 273 330 384
#     4   9  20  41  66  94 132 174 218 270 323 393
#
# _framework density 22.565953
#
# number of rings (size 3 to 8) (size 9 to 14) (size 15 to 20)
#    0.000    1.500    3.750    1.500    3.500    1.000 
#    2.250    4.375    0.000    0.000    0.000    0.000 
#    0.000    0.000    0.000    0.000    0.000    0.000 
#
# Total GULP energy -89397.622549 kJ/mol
# GULP energy per Si atom -5587.351409 kJ/mol
# Density = 2.251459 g / cm^3
# Si number density = 22.565953 Si / 1000 Ang^3
#
#
#
# Elastic Constant Matrix: (Units=GPa)
#
#
# Indices 1 2 3 4 5 6 
#
# 1 129.8407 54.4356 18.1701 2.7066 5.4970 43.9157
# 2 54.4356 95.0191 23.8213 1.4728 -5.9123 32.9522
# 3 18.1701 23.8213 74.9795 3.2520 8.7778 17.7250
# 4 2.7066 1.4728 3.2520 26.7027 9.3568 -4.6651
# 5 5.4970 -5.9123 8.7778 9.3568 35.5178 -1.1050
# 6 43.9157 32.9522 17.7250 -4.6651 -1.1050 50.2011
#
#
#
# Elastic Compliance Matrix: (Units=1/GPa)
#
#
# Indices 1 2 3 4 5 6 
#
# 1 0.012516 -0.004595 0.000811 -0.001628 -0.002736 -0.008431
# 2 -0.004595 0.016252 -0.003142 -0.002698 0.004727 -0.005686
# 3 0.000811 -0.003142 0.015739 -0.001053 -0.004398 -0.004398
# 4 -0.001628 -0.002698 -0.001053 0.043042 -0.011048 0.007323
# 5 -0.002736 0.004727 -0.004398 -0.011048 0.033379 0.000551
# 6 -0.008431 -0.005686 -0.004398 0.007323 0.000551 0.033273
#
#
# Mechanical properties :
#
#
# Convention : Reuss Voigt Hill
#
# Bulk Modulus (GPa) = 32.62195 54.74371 43.68283
# Shear Modulus (GPa) = 28.04710 36.04515 32.04613
#
# Velocity S-wave (km/s) = 3.52930 4.00099 3.77252
# Velocity P-wave (km/s) = 5.57634 6.75692 6.19482
#
# Compressibility (1/GPa) = 0.03065421
#
# Stress axis : x y z
#
# Youngs Moduli (GPa) = 79.89885 61.53149 63.53607
#
# Poissons Ratio (x) = 0.28272 -0.05150
# Poissons Ratio (y) = 0.36711 0.19964
# Poissons Ratio (z) = -0.06476 0.19334
#
# Static dielectric constant tensor:
#      x y z
#    x 1.863900 -0.059460 0.020170 
#    y -0.059460 1.932260 0.031880 
#    z 0.020170 0.031880 1.849840 
# 
# From -- ./inp_files/243327.got.cif
#   From: 2010.05.17/outbox.cif.g08.bks.cpg/sg2_122_cif.got.tgz:243327.got - 2010.06.03 11:33:40.
