data_PCOD9079831
_publ_section_title
;
Structure prediction by ZEFSAII (Michael W. Deem and Ramdas Pophale) SiO2 
 PCOD9079831
Probable space group: P -1
;
_chemical_formula_sum "Si O2"
_cell_formula_units_Z 16
_cell_length_a 12.402809
_cell_length_b 11.820053
_cell_length_c 15.658430
_cell_angle_alpha 146.090582
_cell_angle_beta 35.901531
_cell_angle_gamma 121.770024
_cell_volume 672.317770
_symmetry_space_group_name_H-M "P -1"
_symmetry_group_IT_number 2
_symmetry_cell_setting 'triclinic'
loop_
_space_group_symop_operation_xyz
x,y,z
-x,-y,-z
loop_
_atom_site_type_symbol
_atom_site_label
_atom_site_fract_x
_atom_site_fract_y
_atom_site_fract_z
Si Si1 0.950142 0.883742 0.731442
Si Si2 0.558693 0.128164 0.409070
Si Si3 0.111312 0.363496 0.055127
Si Si4 0.901724 0.249747 0.266606
Si Si5 0.693487 0.932023 0.773712
Si Si6 0.890452 0.799239 0.219849
Si Si7 0.534640 0.243568 0.304622
Si Si8 0.135745 0.770950 0.217130
O O1 0.886823 0.813494 0.639067
O O2 0.129536 0.955223 0.639816
O O3 0.742044 0.107970 0.031973
O O4 0.008755 0.744033 0.693752
O O5 0.667845 0.291789 0.458769
O O6 0.323643 0.211259 0.637353
O O7 0.568926 0.116456 0.293021
O O8 0.693779 0.882328 0.209842
O O9 0.178226 0.561003 0.119583
O O10 0.965198 0.383606 0.240709
O O11 0.008424 0.346173 0.020685
O O12 0.000000 0.000000 0.000000
O O13 0.687903 0.164415 0.887386
O O14 0.653549 0.788054 0.635763
O O15 0.500000 0.000000 0.000000
O O16 0.020914 0.746236 0.189853
O O17 0.500000 0.500000 0.500000
O O18 0.000000 0.000000 0.500000
#
# Coordination Sequence:
#
# PCOD9079831 Si02
#       8
#     2   2   2   2   2   2   2   2
#     4  10  19  40  65  91 131 177 211 278 327 387
#     4  11  22  37  64 104 134 167 225 281 327 386
#     4  11  22  41  67  93 131 179 223 273 335 386
#     4  10  18  37  66  92 130 171 223 267 329 385
#     4   9  22  41  65  90 129 166 217 269 327 391
#     4  11  22  38  65  98 132 172 223 279 323 389
#     4  11  22  40  68 100 127 170 223 274 326 402
#     4  11  25  44  64  92 133 178 222 273 337 395
#
# _framework density 23.798269999999999
#
# number of rings (size 3 to 8) (size 9 to 14) (size 15 to 20)
#    0.000    1.500    5.000    1.500    0.000    7.000 
#    0.000    2.500    2.750    2.250    0.000    0.000 
#    0.000    0.000    0.000    0.000    0.000    0.000 
#
# Total GULP energy -89331.040395 kJ/mol
# GULP energy per Si atom -5583.190025 kJ/mol
# Density = 2.374410 g / cm^3
# Si number density = 23.798270 Si / 1000 Ang^3
#
#
#
# Elastic Constant Matrix: (Units=GPa)
#
#
# Indices 1 2 3 4 5 6 
#
# 1 161.0322 72.5631 22.4042 7.1413 19.4750 6.7089
# 2 72.5631 211.3572 50.4929 -18.4860 2.4039 1.8297
# 3 22.4042 50.4929 44.6053 2.0492 4.5797 6.7309
# 4 7.1413 -18.4860 2.0492 36.8243 8.0010 -5.6025
# 5 19.4750 2.4039 4.5797 8.0010 28.5405 -7.9209
# 6 6.7089 1.8297 6.7309 -5.6025 -7.9209 46.1861
#
#
#
# Elastic Compliance Matrix: (Units=1/GPa)
#
#
# Indices 1 2 3 4 5 6 
#
# 1 0.008435 -0.003090 0.000299 -0.002362 -0.005543 -0.002384
# 2 -0.003090 0.008248 -0.008579 0.005139 0.001999 0.002339
# 3 0.000299 -0.008579 0.033699 -0.006119 -0.004893 -0.006196
# 4 -0.002362 0.005139 -0.006119 0.032402 -0.005823 0.003963
# 5 -0.005543 0.001999 -0.004893 -0.005823 0.043335 0.008165
# 6 -0.002384 0.002339 -0.006196 0.003963 0.008165 0.024689
#
#
# Mechanical properties :
#
#
# Convention : Reuss Voigt Hill
#
# Bulk Modulus (GPa) = 36.17832 78.65725 57.41778
# Shear Modulus (GPa) = 27.35770 40.41250 33.88510
#
# Velocity S-wave (km/s) = 3.39420 4.12530 3.77748
# Velocity P-wave (km/s) = 5.53136 7.47089 6.57306
#
# Compressibility (1/GPa) = 0.02764086
#
# Stress axis : x y z
#
# Youngs Moduli (GPa) = 118.54944 121.23772 29.67474
#
# Poissons Ratio (x) = 0.37465 -0.00886
# Poissons Ratio (y) = 0.36635 0.25458
# Poissons Ratio (z) = -0.03539 1.04010
#
# Static dielectric constant tensor:
#      x y z
#    x 1.952380 0.009160 -0.030050 
#    y 0.009160 1.964040 -0.005460 
#    z -0.030050 -0.005460 1.974980 
# 
# From -- ./inp_files/519899.got.cif
#   From: 2010.05.17/outbox.cif.g08.bks.cpg/sg2_260_cif.got.tgz:519899.got - 2010.06.03 11:33:40.
