data_PCOD9079435
_publ_section_title
;
Structure prediction by ZEFSAII (Michael W. Deem and Ramdas Pophale) SiO2 
 PCOD9079435
Probable space group: P -1
;
_chemical_formula_sum "Si O2"
_cell_formula_units_Z 14
_cell_length_a 11.522944
_cell_length_b 8.129700
_cell_length_c 9.780427
_cell_angle_alpha 63.425189
_cell_angle_beta 58.526268
_cell_angle_gamma 45.718030
_cell_volume 554.254970
_symmetry_space_group_name_H-M "P -1"
_symmetry_group_IT_number 2
_symmetry_cell_setting 'triclinic'
loop_
_space_group_symop_operation_xyz
x,y,z
-x,-y,-z
loop_
_atom_site_type_symbol
_atom_site_label
_atom_site_fract_x
_atom_site_fract_y
_atom_site_fract_z
Si Si1 0.395164 0.265689 0.921718
Si Si2 0.227395 0.183298 0.836798
Si Si3 0.629791 0.265154 0.584781
Si Si4 0.810942 0.908290 0.406424
Si Si5 0.437649 0.350909 0.137586
Si Si6 0.993993 0.085694 0.122571
Si Si7 0.835846 0.310838 0.626957
O O1 0.278318 0.320554 0.841703
O O2 0.537795 0.289002 0.773519
O O3 0.317385 0.392783 0.066312
O O4 0.500000 0.000000 0.000000
O O5 0.200775 0.203864 0.681068
O O6 0.393143 0.912467 0.851738
O O7 0.062192 0.233442 0.997442
O O8 0.500000 0.500000 0.500000
O O9 0.664635 0.050566 0.556915
O O10 0.174144 0.884953 0.728480
O O11 0.796354 0.246814 0.531955
O O12 0.986078 0.728884 0.448975
O O13 0.324460 0.442728 0.309739
O O14 0.500000 0.500000 0.000000
O O15 0.134316 0.878439 0.212246
O O16 0.000000 0.000000 0.000000
#
# Coordination Sequence:
#
# PCOD9079435 Si02
#       7
#     2   2   2   2   2   2   2
#     4  10  23  38  62  92 123 157 203 254 313 350
#     4  10  18  37  57  91 120 156 202 252 306 358
#     4  12  23  38  62  94 121 159 209 254 293 363
#     4   9  21  35  60  85 122 162 206 241 303 366
#     4  11  17  32  62  87 117 151 209 254 286 353
#     4   8  16  31  58  87 112 152 205 241 289 353
#     4  10  19  34  57  88 117 155 205 251 291 350
#
# _framework density 25.259131
#
# number of rings (size 3 to 8) (size 9 to 14) (size 15 to 20)
#    0.857    1.143    2.857    2.143    0.000    0.571 
#    0.000    0.714    0.000    4.286    0.000    0.000 
#    0.000    0.000    0.000    0.000    0.000    0.000 
#
# Total GULP energy -78058.648180 kJ/mol
# GULP energy per Si atom -5575.617727 kJ/mol
# Density = 2.520164 g / cm^3
# Si number density = 25.259131 Si / 1000 Ang^3
#
#
#
# Elastic Constant Matrix: (Units=GPa)
#
#
# Indices 1 2 3 4 5 6 
#
# 1 127.5128 10.6247 11.9892 -4.4742 45.0865 -4.8049
# 2 10.6247 63.1841 16.7988 4.2504 4.2180 -14.5332
# 3 11.9892 16.7988 73.4090 1.3336 23.9719 -0.2877
# 4 -4.4742 4.2504 1.3336 31.3518 -2.5870 6.9135
# 5 45.0865 4.2180 23.9719 -2.5870 51.9978 0.1996
# 6 -4.8049 -14.5332 -0.2877 6.9135 0.1996 26.0866
#
#
#
# Elastic Compliance Matrix: (Units=1/GPa)
#
#
# Indices 1 2 3 4 5 6 
#
# 1 0.011715 -0.001525 0.001999 0.000616 -0.010929 0.001250
# 2 -0.001525 0.020499 -0.004802 -0.005423 0.001556 0.012512
# 3 0.001999 -0.004802 0.017456 -0.000139 -0.009390 -0.002006
# 4 0.000616 -0.005423 -0.000139 0.035598 0.001788 -0.012357
# 5 -0.010929 0.001556 -0.009390 0.001788 0.033008 -0.001976
# 6 0.001250 0.012512 -0.002006 -0.012357 -0.001976 0.048802
#
#
# Mechanical properties :
#
#
# Convention : Reuss Voigt Hill
#
# Bulk Modulus (GPa) = 24.38369 38.10346 31.24358
# Shear Modulus (GPa) = 26.39833 36.86680 31.63256
#
# Velocity S-wave (km/s) = 3.23631 3.82454 3.54266
# Velocity P-wave (km/s) = 4.86203 5.88393 5.39722
#
# Compressibility (1/GPa) = 0.04101101
#
# Stress axis : x y z
#
# Youngs Moduli (GPa) = 85.36243 48.78326 57.28729
#
# Poissons Ratio (x) = 0.07442 -0.11449
# Poissons Ratio (y) = 0.13022 0.27511
# Poissons Ratio (z) = -0.17061 0.23427
#
# Static dielectric constant tensor:
#      x y z
#    x 2.121660 0.072030 -0.050240 
#    y 0.072030 2.096590 0.020210 
#    z -0.050240 0.020210 1.995480 
# 
# From -- ./inp_files/352861.got.cif
#   From: 2010.05.17/outbox.cif.g08.bks.cpg/sg2_177_cif.got.tgz:352861.got - 2010.06.03 11:33:40.
