data_PCOD9079888
_publ_section_title
;
Structure prediction by ZEFSAII (Michael W. Deem and Ramdas Pophale) SiO2 
 PCOD9079888
Probable space group: P -1
;
_chemical_formula_sum "Si O2"
_cell_formula_units_Z 16
_cell_length_a 16.552705
_cell_length_b 9.504010
_cell_length_c 11.851807
_cell_angle_alpha 143.881625
_cell_angle_beta 50.360329
_cell_angle_gamma 146.883274
_cell_volume 596.119748
_symmetry_space_group_name_H-M "P -1"
_symmetry_group_IT_number 2
_symmetry_cell_setting 'triclinic'
loop_
_space_group_symop_operation_xyz
x,y,z
-x,-y,-z
loop_
_atom_site_type_symbol
_atom_site_label
_atom_site_fract_x
_atom_site_fract_y
_atom_site_fract_z
Si Si1 0.558474 0.292218 0.370121
Si Si2 0.218956 0.284775 0.252474
Si Si3 0.144556 0.804353 0.802280
Si Si4 0.300488 0.683765 0.070102
Si Si5 0.893668 0.542851 0.697003
Si Si6 0.300925 0.220989 0.621265
Si Si7 0.457849 0.186818 0.769812
Si Si8 0.086951 0.739275 0.187524
O O1 0.304350 0.348494 0.576088
O O2 0.301206 0.434223 0.846889
O O3 0.461699 0.051628 0.191103
O O4 0.579498 0.086506 0.287565
O O5 0.116051 0.332500 0.329912
O O6 0.394039 0.631005 0.314998
O O7 0.174408 0.105662 0.296185
O O8 0.189396 0.037757 0.021714
O O9 0.041412 0.782137 0.793957
O O10 0.036201 0.432518 0.715745
O O11 0.298420 0.976204 0.718908
O O12 0.231093 0.543005 0.165531
O O13 0.199740 0.714145 0.113604
O O14 0.450984 0.301500 0.538501
O O15 0.835823 0.179582 0.502886
O O16 0.500000 0.500000 0.000000
O O17 0.000000 0.500000 0.000000
#
# Coordination Sequence:
#
# PCOD9079888 Si02
#       8
#     2   2   2   2   2   2   2   2
#     4  10  21  40  63  98 132 178 225 279 335 405
#     4  10  18  37  68  96 133 176 225 279 338 394
#     4   9  20  36  65  98 132 177 226 268 346 406
#     4  10  20  38  68  95 128 177 234 269 334 409
#     4  10  20  41  67  99 128 179 228 275 335 412
#     4  10  21  36  64  96 135 171 228 283 326 402
#     4  10  20  36  67 102 130 176 227 279 344 398
#     4   9  20  36  63  99 131 172 225 281 331 402
#
# _framework density 26.840243000000001
#
# number of rings (size 3 to 8) (size 9 to 14) (size 15 to 20)
#    0.000    2.250    2.500    0.750    5.250    0.000 
#    0.000    0.625    8.250   24.000    0.000    0.000 
#    0.000    0.000    0.000    0.000    0.000    0.000 
#
# Total GULP energy -89716.419444 kJ/mol
# GULP energy per Si atom -5607.276215 kJ/mol
# Density = 2.677915 g / cm^3
# Si number density = 26.840243 Si / 1000 Ang^3
#
#
#
# Elastic Constant Matrix: (Units=GPa)
#
#
# Indices 1 2 3 4 5 6 
#
# 1 140.9242 47.9266 36.2546 19.9970 -12.2385 -9.2344
# 2 47.9266 128.4809 37.8094 20.8906 -16.0770 -6.7505
# 3 36.2546 37.8094 143.1528 -10.8221 -15.4173 -6.6519
# 4 19.9970 20.8906 -10.8221 51.7357 -13.3408 -2.4556
# 5 -12.2385 -16.0770 -15.4173 -13.3408 46.7561 8.9799
# 6 -9.2344 -6.7505 -6.6519 -2.4556 8.9799 46.0538
#
#
#
# Elastic Compliance Matrix: (Units=1/GPa)
#
#
# Indices 1 2 3 4 5 6 
#
# 1 0.008787 -0.002239 -0.001809 -0.002841 -0.000076 0.001036
# 2 -0.002239 0.009952 -0.002177 -0.003307 0.001117 0.000301
# 3 -0.001809 -0.002177 0.008637 0.004106 0.002750 0.000248
# 4 -0.002841 -0.003307 0.004106 0.024272 0.006482 -0.000431
# 5 -0.000076 0.001117 0.002750 0.006482 0.025283 -0.004039
# 6 0.001036 0.000301 0.000248 -0.000431 -0.004039 0.022766
#
#
# Mechanical properties :
#
#
# Convention : Reuss Voigt Hill
#
# Bulk Modulus (GPa) = 66.99514 72.94880 69.97197
# Shear Modulus (GPa) = 42.69009 48.28026 45.48517
#
# Velocity S-wave (km/s) = 3.99247 4.24583 4.12109
# Velocity P-wave (km/s) = 6.80205 7.16058 6.98362
#
# Compressibility (1/GPa) = 0.01492646
#
# Stress axis : x y z
#
# Youngs Moduli (GPa) = 113.80215 100.47960 115.78331
#
# Poissons Ratio (x) = 0.22493 0.20945
# Poissons Ratio (y) = 0.25475 0.25210
# Poissons Ratio (z) = 0.20587 0.21878
#
# Static dielectric constant tensor:
#      x y z
#    x 2.059620 -0.002220 -0.007840 
#    y -0.002220 2.121250 0.033090 
#    z -0.007840 0.033090 2.167630 
# 
# From -- ./inp_files/469023.got.cif
#   From: 2010.05.17/outbox.cif.g08.bks.cpg/sg2_235_cif.got.tgz:469023.got - 2010.06.03 11:33:40.
