data_PCOD9079102
_publ_section_title
;
Structure prediction by ZEFSAII (Michael W. Deem and Ramdas Pophale) SiO2 
 PCOD9079102
Probable space group: P -1
;
_chemical_formula_sum "Si O2"
_cell_formula_units_Z 15
_cell_length_a 7.430372
_cell_length_b 10.450365
_cell_length_c 17.481219
_cell_angle_alpha 28.545227
_cell_angle_beta 105.677431
_cell_angle_gamma 113.388524
_cell_volume 585.738389
_symmetry_space_group_name_H-M "P -1"
_symmetry_group_IT_number 2
_symmetry_cell_setting 'triclinic'
loop_
_space_group_symop_operation_xyz
x,y,z
-x,-y,-z
loop_
_atom_site_type_symbol
_atom_site_label
_atom_site_fract_x
_atom_site_fract_y
_atom_site_fract_z
Si Si1 0.301977 0.582453 0.176766
Si Si2 0.032498 0.203261 0.645287
Si Si3 0.896466 0.223476 0.346194
Si Si4 0.297314 0.170159 0.083108
Si Si5 0.574794 0.150809 0.241911
Si Si6 0.329948 0.171577 0.812517
Si Si7 0.000000 0.000000 0.000000
Si Si8 0.743784 0.021172 0.581240
O O1 0.456252 0.617136 0.244908
O O2 0.294948 0.307127 0.272426
O O3 0.072471 0.528389 0.206060
O O4 0.354507 0.862541 0.985047
O O5 0.000000 0.500000 0.500000
O O6 0.244513 0.226670 0.692686
O O7 0.873336 0.944222 0.810906
O O8 0.959536 0.143300 0.581500
O O9 0.785740 0.142155 0.296344
O O10 0.743853 0.194316 0.413047
O O11 0.000000 0.000000 0.500000
O O12 0.475482 0.077846 0.186302
O O13 0.382518 0.513246 0.913292
O O14 0.191944 0.059282 0.049887
O O15 0.414175 0.964705 0.381962
O O16 0.159605 0.154720 0.865148
#
# Coordination Sequence:
#
# PCOD9079102 Si02
#       8
#     2   2   2   2   2   2   1   2
#     4  10  22  40  60  87 123 160 203 247 303 365
#     4  10  22  38  58  90 125 153 199 256 304 358
#     4  10  21  36  57  88 125 161 198 247 303 359
#     4   9  20  34  59  92 115 149 198 256 302 343
#     4  10  19  38  62  88 118 151 209 256 289 357
#     4  10  22  40  62  91 122 157 200 255 303 355
#     4  10  18  36  62  90 116 150 196 238 302 356
#     4  10  22  39  62  89 116 164 206 245 306 360
#
# _framework density 25.608703999999999
#
# number of rings (size 3 to 8) (size 9 to 14) (size 15 to 20)
#    0.000    2.133    0.000    2.800    0.000   10.133 
#    0.000    8.667    0.000    0.000    0.000    0.000 
#    0.000    0.000    0.000    0.000    0.000    0.000 
#
# Total GULP energy -83644.834070 kJ/mol
# GULP energy per Si atom -5576.322271 kJ/mol
# Density = 2.555042 g / cm^3
# Si number density = 25.608704 Si / 1000 Ang^3
#
#
#
# Elastic Constant Matrix: (Units=GPa)
#
#
# Indices 1 2 3 4 5 6 
#
# 1 79.5314 30.8104 14.2224 3.2189 -1.3289 31.3282
# 2 30.8104 211.4900 28.6565 35.3494 32.0406 60.9206
# 3 14.2224 28.6565 52.0051 7.4533 15.6802 10.3465
# 4 3.2189 35.3494 7.4533 49.7083 8.1703 19.7637
# 5 -1.3289 32.0406 15.6802 8.1703 43.5959 15.9611
# 6 31.3282 60.9206 10.3465 19.7637 15.9611 48.3827
#
#
#
# Elastic Compliance Matrix: (Units=1/GPa)
#
#
# Indices 1 2 3 4 5 6 
#
# 1 0.019847 0.000902 -0.005365 0.004466 0.007283 -0.017067
# 2 0.000902 0.007980 -0.002183 -0.001572 -0.001446 -0.009047
# 3 -0.005365 -0.002183 0.023810 -0.002195 -0.008478 0.004825
# 4 0.004466 -0.001572 -0.002195 0.025553 0.001451 -0.011360
# 5 0.007283 -0.001446 -0.008478 0.001451 0.031407 -0.012036
# 6 -0.017067 -0.009047 0.004825 -0.011360 -0.012036 0.050690
#
#
# Mechanical properties :
#
#
# Convention : Reuss Voigt Hill
#
# Bulk Modulus (GPa) = 26.07946 54.48945 40.28445
# Shear Modulus (GPa) = 26.97417 46.29319 36.63368
#
# Velocity S-wave (km/s) = 3.24901 4.25633 3.78632
# Velocity P-wave (km/s) = 4.92754 6.74382 5.90592
#
# Compressibility (1/GPa) = 0.03834435
#
# Stress axis : x y z
#
# Youngs Moduli (GPa) = 50.38429 125.30641 41.99906
#
# Poissons Ratio (x) = -0.11299 0.22535
# Poissons Ratio (y) = -0.04543 0.09169
# Poissons Ratio (z) = 0.27034 0.27355
#
# Static dielectric constant tensor:
#      x y z
#    x 2.289510 -0.085940 0.048810 
#    y -0.085940 2.115070 -0.094590 
#    z 0.048810 -0.094590 2.026630 
# 
# From -- ./inp_files/423958.got.cif
#   From: 2010.05.17/outbox.cif.g08.bks.cpg/sg2_212_cif.got.tgz:423958.got - 2010.06.03 11:33:40.
