data_PCOD9079796
_publ_section_title
;
Structure prediction by ZEFSAII (Michael W. Deem and Ramdas Pophale) SiO2 
 PCOD9079796
Probable space group: P -1
;
_chemical_formula_sum "Si O2"
_cell_formula_units_Z 14
_cell_length_a 7.259937
_cell_length_b 13.871196
_cell_length_c 9.178921
_cell_angle_alpha 64.540722
_cell_angle_beta 75.488927
_cell_angle_gamma 40.824884
_cell_volume 541.224137
_symmetry_space_group_name_H-M "P -1"
_symmetry_group_IT_number 2
_symmetry_cell_setting 'triclinic'
loop_
_space_group_symop_operation_xyz
x,y,z
-x,-y,-z
loop_
_atom_site_type_symbol
_atom_site_label
_atom_site_fract_x
_atom_site_fract_y
_atom_site_fract_z
Si Si1 0.196149 0.182473 0.178680
Si Si2 0.985697 0.440327 0.826561
Si Si3 0.509585 0.206100 0.319024
Si Si4 0.845989 0.215006 0.831294
Si Si5 0.263120 0.546950 0.713875
Si Si6 0.911662 0.989670 0.791573
Si Si7 0.109270 0.291225 0.594759
O O1 0.918386 0.291628 0.266829
O O2 0.273634 0.031795 0.211980
O O3 0.414371 0.161892 0.241704
O O4 0.091272 0.295158 0.989208
O O5 0.658016 0.612920 0.793150
O O6 0.062917 0.388131 0.677152
O O7 0.148446 0.477477 0.828568
O O8 0.844239 0.079357 0.325200
O O9 0.366498 0.220513 0.485369
O O10 0.592174 0.404842 0.774328
O O11 0.104314 0.174488 0.739129
O O12 0.922965 0.127127 0.024123
O O13 0.757587 0.158959 0.771899
O O14 0.160999 0.597554 0.534936
#
# Coordination Sequence:
#
# PCOD9079796 Si02
#       7
#     2   2   2   2   2   2   2
#     4  10  20  39  66  93 120 161 207 254 302 355
#     4  10  18  37  65  94 120 158 207 255 305 357
#     4  10  22  40  61  92 126 158 205 254 303 366
#     4  11  23  41  60  94 124 161 207 250 301 369
#     4  10  21  38  63  94 122 153 206 263 299 360
#     4  11  24  41  63  90 129 164 204 247 304 371
#     4  10  21  40  64  90 125 158 202 256 313 350
#
# _framework density 25.867286
#
# number of rings (size 3 to 8) (size 9 to 14) (size 15 to 20)
#    0.000    2.000    1.429    5.571    2.000    1.714 
#    7.714    5.000    0.000    0.000    0.000    0.000 
#    0.000    0.000    0.000    0.000    0.000    0.000 
#
# Total GULP energy -78415.896923 kJ/mol
# GULP energy per Si atom -5601.135494 kJ/mol
# Density = 2.580841 g / cm^3
# Si number density = 25.867286 Si / 1000 Ang^3
#
#
#
# Elastic Constant Matrix: (Units=GPa)
#
#
# Indices 1 2 3 4 5 6 
#
# 1 85.5816 23.1664 22.2494 3.6776 0.7464 19.3863
# 2 23.1664 64.2102 18.6002 1.1017 6.5569 14.5730
# 3 22.2494 18.6002 95.6613 9.5008 18.4003 -8.2900
# 4 3.6776 1.1017 9.5008 12.3723 5.7945 8.8439
# 5 0.7464 6.5569 18.4003 5.7945 29.7733 4.5288
# 6 19.3863 14.5730 -8.2900 8.8439 4.5288 52.1490
#
#
#
# Elastic Compliance Matrix: (Units=1/GPa)
#
#
# Indices 1 2 3 4 5 6 
#
# 1 0.014869 -0.003205 -0.004179 0.001642 0.003490 -0.005878
# 2 -0.003205 0.019272 -0.003791 0.007446 -0.002380 -0.005853
# 3 -0.004179 -0.003791 0.015504 -0.012455 -0.007409 0.007833
# 4 0.001642 0.007446 -0.012455 0.110974 -0.012169 -0.022434
# 5 0.003490 -0.002380 -0.007409 -0.012169 0.041481 -0.003349
# 6 -0.005878 -0.005853 0.007833 -0.022434 -0.003349 0.028337
#
#
# Mechanical properties :
#
#
# Convention : Reuss Voigt Hill
#
# Bulk Modulus (GPa) = 36.63575 41.49831 39.06703
# Shear Modulus (GPa) = 19.09241 30.95472 25.02357
#
# Velocity S-wave (km/s) = 2.71973 3.46305 3.11365
# Velocity P-wave (km/s) = 4.90472 5.66285 5.29737
#
# Compressibility (1/GPa) = 0.02729574
#
# Stress axis : x y z
#
# Youngs Moduli (GPa) = 67.25315 51.88940 64.50135
#
# Poissons Ratio (x) = 0.16629 0.26955
# Poissons Ratio (y) = 0.21552 0.24451
# Poissons Ratio (z) = 0.28105 0.19670
#
# Static dielectric constant tensor:
#      x y z
#    x 2.042820 -0.022630 -0.012370 
#    y -0.022630 2.027280 -0.006440 
#    z -0.012370 -0.006440 2.012530 
# 
# From -- ./inp_files/206231.got.cif
#   From: 2010.05.17/outbox.cif.g08.bks.cpg/sg2_104_cif.got.tgz:206231.got - 2010.06.03 11:33:40.
