data_PCOD9079380
_publ_section_title
;
Structure prediction by ZEFSAII (Michael W. Deem and Ramdas Pophale) SiO2 
 PCOD9079380
Probable space group: P -1
;
_chemical_formula_sum "Si O2"
_cell_formula_units_Z 16
_cell_length_a 10.014598
_cell_length_b 14.271903
_cell_length_c 17.258004
_cell_angle_alpha 29.672994
_cell_angle_beta 36.676224
_cell_angle_gamma 54.789874
_cell_volume 666.296107
_symmetry_space_group_name_H-M "P -1"
_symmetry_group_IT_number 2
_symmetry_cell_setting 'triclinic'
loop_
_space_group_symop_operation_xyz
x,y,z
-x,-y,-z
loop_
_atom_site_type_symbol
_atom_site_label
_atom_site_fract_x
_atom_site_fract_y
_atom_site_fract_z
Si Si1 0.186383 0.392529 0.495755
Si Si2 0.965148 0.060449 0.160409
Si Si3 0.337738 0.505206 0.893768
Si Si4 0.644405 0.247746 0.079599
Si Si5 0.432144 0.490052 0.627972
Si Si6 0.127167 0.823838 0.725218
Si Si7 0.700415 0.115607 0.574630
Si Si8 0.183860 0.318569 0.271695
O O1 0.394994 0.460598 0.282923
O O2 0.341079 0.456340 0.457635
O O3 0.000000 0.500000 0.500000
O O4 0.045075 0.144449 0.729330
O O5 0.781682 0.136670 0.144871
O O6 0.882082 0.018966 0.318484
O O7 0.222285 0.259419 0.900758
O O8 0.299566 0.716896 0.755051
O O9 0.246875 0.400527 0.094238
O O10 0.144589 0.356538 0.028206
O O11 0.417637 0.269575 0.215387
O O12 0.532860 0.103952 0.159507
O O13 0.819017 0.490150 0.814778
O O14 0.500000 0.500000 0.500000
O O15 0.344268 0.676791 0.546893
O O16 0.210875 0.881516 0.557042
O O17 0.915077 0.136459 0.519448
#
# Coordination Sequence:
#
# PCOD9079380 Si02
#       8
#     2   2   2   2   2   2   2   2
#     4  12  28  48  68 100 137 181 241 286 326 410
#     4  12  23  44  74  98 131 178 230 283 352 401
#     4  10  18  39  65  95 135 165 214 279 343 387
#     4  11  21  36  64  98 138 169 213 266 350 412
#     4  12  26  48  69  94 137 188 234 276 332 412
#     4  10  18  36  75  99 124 168 215 283 349 398
#     4  11  21  42  65  97 137 172 222 274 347 406
#     4  10  22  36  61 102 141 166 208 284 336 423
#
# _framework density 24.013347
#
# number of rings (size 3 to 8) (size 9 to 14) (size 15 to 20)
#    0.000    1.000    6.250    1.125    1.750    3.000 
#    2.250    1.250    0.000    0.000    0.000    0.000 
#    0.000    0.000    0.000    0.000    0.000    0.000 
#
# Total GULP energy -89490.914543 kJ/mol
# GULP energy per Si atom -5593.182159 kJ/mol
# Density = 2.395869 g / cm^3
# Si number density = 24.013347 Si / 1000 Ang^3
#
#
#
# Elastic Constant Matrix: (Units=GPa)
#
#
# Indices 1 2 3 4 5 6 
#
# 1 125.1589 68.9865 38.5109 -12.1535 -35.0692 0.7673
# 2 68.9865 147.7463 69.3807 -35.7189 -27.2427 -18.0955
# 3 38.5109 69.3807 93.0553 -29.4596 -24.9474 17.5345
# 4 -12.1535 -35.7189 -29.4596 41.8975 12.0393 -2.7111
# 5 -35.0692 -27.2427 -24.9474 12.0393 40.9665 -1.4709
# 6 0.7673 -18.0955 17.5345 -2.7111 -1.4709 47.1795
#
#
#
# Elastic Compliance Matrix: (Units=1/GPa)
#
#
# Indices 1 2 3 4 5 6 
#
# 1 0.013241 -0.006200 0.000906 -0.003489 0.008686 -0.002860
# 2 -0.006200 0.017417 -0.010944 0.006635 -0.001939 0.011169
# 3 0.000906 -0.010944 0.024325 0.005412 0.006263 -0.012747
# 4 -0.003489 0.006635 0.005412 0.033958 -0.005173 0.002380
# 5 0.008686 -0.001939 0.006263 -0.005173 0.035805 -0.002393
# 6 -0.002860 0.011169 -0.012747 0.002380 -0.002393 0.030326
#
#
# Mechanical properties :
#
#
# Convention : Reuss Voigt Hill
#
# Bulk Modulus (GPa) = 44.42979 79.96852 62.19916
# Shear Modulus (GPa) = 25.63428 38.61420 32.12424
#
# Velocity S-wave (km/s) = 3.27081 4.01438 3.66152
# Velocity P-wave (km/s) = 5.72770 7.40682 6.62071
#
# Compressibility (1/GPa) = 0.02250742
#
# Stress axis : x y z
#
# Youngs Moduli (GPa) = 75.52200 57.41467 41.10934
#
# Poissons Ratio (x) = 0.35598 -0.03724
# Poissons Ratio (y) = 0.46825 0.44990
# Poissons Ratio (z) = -0.06842 0.62834
#
# Static dielectric constant tensor:
#      x y z
#    x 1.947090 -0.024500 0.004620 
#    y -0.024500 1.908310 -0.086420 
#    z 0.004620 -0.086420 2.143970 
# 
# From -- ./inp_files/595458.got.cif
#   From: 2010.05.17/outbox.cif.g08.bks.cpg/sg2_298_cif.got.tgz:595458.got - 2010.06.03 11:33:40.
