data_PCOD9079197
_publ_section_title
;
Structure prediction by ZEFSAII (Michael W. Deem and Ramdas Pophale) SiO2 
 PCOD9079197
Probable space group: P -1
;
_chemical_formula_sum "Si O2"
_cell_formula_units_Z 11
_cell_length_a 7.138206
_cell_length_b 8.646144
_cell_length_c 11.468518
_cell_angle_alpha 48.252618
_cell_angle_beta 73.107880
_cell_angle_gamma 101.666011
_cell_volume 420.589114
_symmetry_space_group_name_H-M "P -1"
_symmetry_group_IT_number 2
_symmetry_cell_setting 'triclinic'
loop_
_space_group_symop_operation_xyz
x,y,z
-x,-y,-z
loop_
_atom_site_type_symbol
_atom_site_label
_atom_site_fract_x
_atom_site_fract_y
_atom_site_fract_z
Si Si1 0.211386 0.463633 0.002956
Si Si2 0.943239 0.669074 0.647963
Si Si3 0.500000 0.500000 0.500000
Si Si4 0.636469 0.223781 0.774136
Si Si5 0.557295 0.016972 0.641650
Si Si6 0.883168 0.922484 0.319548
O O1 0.214943 0.430993 0.158076
O O2 0.107159 0.189514 0.108326
O O3 0.000000 0.500000 0.000000
O O4 0.440867 0.724989 0.793310
O O5 0.861118 0.436268 0.696325
O O6 0.920432 0.856581 0.475413
O O7 0.216095 0.806842 0.565711
O O8 0.499960 0.350842 0.692832
O O9 0.789571 0.691931 0.366326
O O10 0.657643 0.106777 0.709282
O O11 0.500000 0.000000 0.000000
O O12 0.360439 0.081955 0.634051
#
# Coordination Sequence:
#
# PCOD9079197 Si02
#       6
#     2   2   1   2   2   2
#     4  10  21  37  58  85 117 154 194 240 292 350
#     4  11  21  37  62  84 115 159 193 237 299 346
#     4   8  18  34  60  84 112 154 192 242 294 346
#     4  10  18  36  64  85 119 159 193 244 301 348
#     4  10  21  38  60  87 116 152 195 241 293 350
#     4   9  20  37  58  83 118 149 191 243 290 344
#
# _framework density 26.153791999999999
#
# number of rings (size 3 to 8) (size 9 to 14) (size 15 to 20)
#    0.000    2.182    1.818    1.091    0.000    3.636 
#    0.000    3.636    0.000    6.545    0.000    0.000 
#    0.000    0.000    0.000    0.000    0.000    0.000 
#
# Total GULP energy -61259.835519 kJ/mol
# GULP energy per Si atom -5569.075956 kJ/mol
# Density = 2.609426 g / cm^3
# Si number density = 26.153792 Si / 1000 Ang^3
#
#
#
# Elastic Constant Matrix: (Units=GPa)
#
#
# Indices 1 2 3 4 5 6 
#
# 1 110.4701 8.0051 33.9420 5.5564 13.1347 3.1767
# 2 8.0051 89.5920 16.4073 -14.3151 -15.2279 29.3150
# 3 33.9420 16.4073 141.2977 -20.7735 13.2250 15.2262
# 4 5.5564 -14.3151 -20.7735 48.1827 13.9061 -5.8084
# 5 13.1347 -15.2279 13.2250 13.9061 34.4536 -5.3859
# 6 3.1767 29.3150 15.2262 -5.8084 -5.3859 25.9333
#
#
#
# Elastic Compliance Matrix: (Units=1/GPa)
#
#
# Indices 1 2 3 4 5 6 
#
# 1 0.010296 -0.001539 -0.002380 -0.001741 -0.002849 0.000894
# 2 -0.001539 0.018922 0.000138 0.002035 0.004981 -0.019791
# 3 -0.002380 0.000138 0.009558 0.005438 -0.005747 -0.005452
# 4 -0.001741 0.002035 0.005438 0.027087 -0.011714 -0.001646
# 5 -0.002849 0.004981 -0.005747 -0.011714 0.039832 0.003741
# 6 0.000894 -0.019791 -0.005452 -0.001646 0.003741 0.064432
#
#
# Mechanical properties :
#
#
# Convention : Reuss Voigt Hill
#
# Bulk Modulus (GPa) = 32.03777 50.89653 41.46715
# Shear Modulus (GPa) = 26.58277 40.58094 33.58185
#
# Velocity S-wave (km/s) = 3.19156 3.94334 3.58720
# Velocity P-wave (km/s) = 5.08506 6.34319 5.74864
#
# Compressibility (1/GPa) = 0.03121316
#
# Stress axis : x y z
#
# Youngs Moduli (GPa) = 97.12858 52.84967 104.62593
#
# Poissons Ratio (x) = 0.08134 0.24901
# Poissons Ratio (y) = 0.14949 -0.01446
# Poissons Ratio (z) = 0.23117 -0.00730
#
# Static dielectric constant tensor:
#      x y z
#    x 6.832960 -10.327230 2.543510 
#    y -10.327230 24.415270 -5.540490 
#    z 2.543510 -5.540490 3.381660 
# 
# From -- ./inp_files/19540.got.cif
#   From: 2010.05.17/outbox.cif.g08.bks.cpg/sg2_10_cif.got.tgz:19540.got - 2010.06.03 11:33:40.
