data_PCOD9079530
_publ_section_title
;
Structure prediction by ZEFSAII (Michael W. Deem and Ramdas Pophale) SiO2 
 PCOD9079530
Probable space group: P -1
;
_chemical_formula_sum "Si O2"
_cell_formula_units_Z 14
_cell_length_a 14.597316
_cell_length_b 7.264429
_cell_length_c 7.551166
_cell_angle_alpha 118.883136
_cell_angle_beta 55.778159
_cell_angle_gamma 110.950766
_cell_volume 575.643369
_symmetry_space_group_name_H-M "P -1"
_symmetry_group_IT_number 2
_symmetry_cell_setting 'triclinic'
loop_
_space_group_symop_operation_xyz
x,y,z
-x,-y,-z
loop_
_atom_site_type_symbol
_atom_site_label
_atom_site_fract_x
_atom_site_fract_y
_atom_site_fract_z
Si Si1 0.808204 0.531673 0.025727
Si Si2 0.886996 0.130629 0.914958
Si Si3 0.394095 0.684364 0.999849
Si Si4 0.612647 0.747147 0.335802
Si Si5 0.946372 0.286230 0.282912
Si Si6 0.932764 0.745355 0.509245
Si Si7 0.555765 0.969308 0.172154
O O1 0.821154 0.330159 0.040331
O O2 0.927996 0.634199 0.884316
O O3 0.731728 0.429142 0.897721
O O4 0.730313 0.698363 0.266922
O O5 0.007097 0.200152 0.718187
O O6 0.853379 0.910572 0.746190
O O7 0.897888 0.120243 0.110277
O O8 0.443632 0.490771 0.757267
O O9 0.388534 0.897572 0.989964
O O10 0.474299 0.762744 0.106828
O O11 0.528236 0.872185 0.590775
O O12 0.633368 0.890678 0.202766
O O13 0.887065 0.499763 0.438999
O O14 0.967787 0.231490 0.437681
#
# Coordination Sequence:
#
# PCOD9079530 Si02
#       7
#     2   2   2   2   2   2   2
#     4   9  20  34  51  80 114 132 182 238 259 319
#     4  10  19  37  56  77 113 152 179 232 277 326
#     4   9  20  35  57  81 109 139 185 228 272 336
#     4   9  20  35  57  80 111 137 186 230 265 346
#     4  10  19  37  56  77 113 151 181 230 279 324
#     4   9  19  33  58  77  99 154 192 217 275 343
#     4  10  18  37  61  76 105 156 173 217 301 323
#
# _framework density 24.320613999999999
#
# number of rings (size 3 to 8) (size 9 to 14) (size 15 to 20)
#    0.857    1.714    0.000    3.000    0.000    1.143 
#   10.286    0.000   25.143    0.000    0.000    0.000 
#    0.000    0.000    0.000    0.000    0.000    0.000 
#
# Total GULP energy -77998.744872 kJ/mol
# GULP energy per Si atom -5571.338919 kJ/mol
# Density = 2.426526 g / cm^3
# Si number density = 24.320614 Si / 1000 Ang^3
#
#
#
# Elastic Constant Matrix: (Units=GPa)
#
#
# Indices 1 2 3 4 5 6 
#
# 1 136.1093 17.0567 1.3178 58.1144 3.7753 -68.5414
# 2 17.0567 62.1631 13.6288 23.9595 -5.3150 -21.9149
# 3 1.3178 13.6288 113.1151 8.9347 -3.1302 15.9057
# 4 58.1144 23.9595 8.9347 65.2809 2.9022 -42.7086
# 5 3.7753 -5.3150 -3.1302 2.9022 38.8345 -5.9723
# 6 -68.5414 -21.9149 15.9057 -42.7086 -5.9723 94.6479
#
#
#
# Elastic Compliance Matrix: (Units=1/GPa)
#
#
# Indices 1 2 3 4 5 6 
#
# 1 0.014464 0.002195 -0.000704 -0.008974 0.000598 0.007089
# 2 0.002195 0.020245 -0.002389 -0.006667 0.003461 0.003888
# 3 -0.000704 -0.002389 0.009849 -0.002303 0.000131 -0.003749
# 4 -0.008974 -0.006667 -0.002303 0.029890 -0.001578 0.005733
# 5 0.000598 0.003461 0.000131 -0.001578 0.026630 0.002181
# 6 0.007089 0.003888 -0.003749 0.005733 0.002181 0.019954
#
#
# Mechanical properties :
#
#
# Convention : Reuss Voigt Hill
#
# Bulk Modulus (GPa) = 23.38613 41.71044 32.54829
# Shear Modulus (GPa) = 36.47451 58.37828 47.42639
#
# Velocity S-wave (km/s) = 3.87684 4.90466 4.42073
# Velocity P-wave (km/s) = 5.44762 7.01867 6.28245
#
# Compressibility (1/GPa) = 0.04276038
#
# Stress axis : x y z
#
# Youngs Moduli (GPa) = 69.13886 49.39556 101.52949
#
# Poissons Ratio (x) = -0.10842 0.07152
# Poissons Ratio (y) = -0.15176 0.24257
# Poissons Ratio (z) = 0.04871 0.11801
#
# Static dielectric constant tensor:
#      x y z
#    x 1.988620 -0.038790 -0.008990 
#    y -0.038790 1.975250 0.008970 
#    z -0.008990 0.008970 1.997770 
# 
# From -- ./inp_files/296706.got.cif
#   From: 2010.05.17/outbox.cif.g08.bks.cpg/sg2_149_cif.got.tgz:296706.got - 2010.06.03 11:33:40.
