data_PCOD9079231
_publ_section_title
;
Structure prediction by ZEFSAII (Michael W. Deem and Ramdas Pophale) SiO2 
 PCOD9079231
Probable space group: P -1
;
_chemical_formula_sum "Si O2"
_cell_formula_units_Z 14
_cell_length_a 32.697302
_cell_length_b 32.354354
_cell_length_c 13.622079
_cell_angle_alpha 162.135738
_cell_angle_beta 17.785844
_cell_angle_gamma 171.185487
_cell_volume 656.240780
_symmetry_space_group_name_H-M "P -1"
_symmetry_group_IT_number 2
_symmetry_cell_setting 'triclinic'
loop_
_space_group_symop_operation_xyz
x,y,z
-x,-y,-z
loop_
_atom_site_type_symbol
_atom_site_label
_atom_site_fract_x
_atom_site_fract_y
_atom_site_fract_z
Si Si1 0.199910 0.299380 0.745676
Si Si2 0.891660 0.774540 0.791455
Si Si3 0.078411 0.494601 0.410705
Si Si4 0.389440 0.747054 0.592676
Si Si5 0.487356 0.969968 0.237261
Si Si6 0.477804 0.192170 0.362443
Si Si7 0.013228 0.824322 0.830638
O O1 0.500000 0.500000 0.500000
O O2 0.176392 0.423311 0.021993
O O3 0.115964 0.257889 0.955568
O O4 0.000000 0.000000 0.500000
O O5 0.620003 0.462731 0.668293
O O6 0.884010 0.797045 0.975892
O O7 0.150811 0.902162 0.471567
O O8 0.000000 0.000000 0.000000
O O9 0.000000 0.500000 0.500000
O O10 0.807816 0.250446 0.544911
O O11 0.298049 0.783862 0.617871
O O12 0.395272 0.776035 0.761459
O O13 0.100416 0.423398 0.496835
O O14 0.434255 0.895258 0.741410
O O15 0.655589 0.883087 0.271220
O O16 0.471228 0.803678 0.857679
#
# Coordination Sequence:
#
# PCOD9079231 Si02
#       7
#     2   2   2   2   2   2   2
#     4  12  24  44  70  97 125 167 235 281 322 394
#     4  10  21  40  59  87 136 169 210 257 320 399
#     4  12  27  47  68  95 135 179 218 280 349 380
#     4  10  18  36  64  93 124 157 201 254 323 390
#     4  12  21  42  68  91 135 164 213 272 325 404
#     4  10  22  35  63  99 120 165 213 255 322 394
#     4  10  20  38  62  89 124 169 205 262 328 373
#
# _framework density 21.333632000000001
#
# number of rings (size 3 to 8) (size 9 to 14) (size 15 to 20)
#    0.000    1.143    2.857    3.857    0.000    0.000 
#    7.714    5.714    0.000    0.000    0.000    0.000 
#    0.000    0.000    0.000    0.000    0.000    0.000 
#
# Total GULP energy -78036.828564 kJ/mol
# GULP energy per Si atom -5574.059183 kJ/mol
# Density = 2.128508 g / cm^3
# Si number density = 21.333632 Si / 1000 Ang^3
#
#
#
# Elastic Constant Matrix: (Units=GPa)
#
#
# Indices 1 2 3 4 5 6 
#
# 1 101.9586 18.1695 66.2603 8.5364 -4.0500 -2.5320
# 2 18.1695 123.0539 33.4763 -1.0212 1.4900 11.4005
# 3 66.2603 33.4763 87.7592 -0.4922 7.7135 14.6067
# 4 8.5364 -1.0212 -0.4922 32.6132 -3.6747 2.2968
# 5 -4.0500 1.4900 7.7135 -3.6747 23.7020 12.7733
# 6 -2.5320 11.4005 14.6067 2.2968 12.7733 34.7743
#
#
#
# Elastic Compliance Matrix: (Units=1/GPa)
#
#
# Indices 1 2 3 4 5 6 
#
# 1 0.023672 0.001096 -0.020169 -0.006498 0.004987 0.008433
# 2 0.001096 0.009273 -0.004218 0.000315 0.002091 -0.001978
# 3 -0.020169 -0.004218 0.030653 0.005670 -0.006347 -0.011005
# 4 -0.006498 0.000315 0.005670 0.033695 0.006287 -0.007493
# 5 0.004987 0.002091 -0.006347 0.006287 0.055997 -0.018640
# 6 0.008433 -0.001978 -0.011005 -0.007493 -0.018640 0.041983
#
#
# Mechanical properties :
#
#
# Convention : Reuss Voigt Hill
#
# Bulk Modulus (GPa) = 58.76837 60.95378 59.86107
# Shear Modulus (GPa) = 20.19986 31.20893 25.70439
#
# Velocity S-wave (km/s) = 3.08044 3.82893 3.47490
# Velocity P-wave (km/s) = 6.34502 6.94128 6.64983
#
# Compressibility (1/GPa) = 0.01701596
#
# Stress axis : x y z
#
# Youngs Moduli (GPa) = 42.24452 107.84518 32.62294
#
# Poissons Ratio (x) = -0.11821 0.65798
# Poissons Ratio (y) = -0.04630 0.13759
# Poissons Ratio (z) = 0.85204 0.45484
#
# Static dielectric constant tensor:
#      x y z
#    x 1.820620 0.027320 -0.055680 
#    y 0.027320 1.769280 0.092220 
#    z -0.055680 0.092220 1.985570 
# 
# From -- ./inp_files/367567.got.cif
#   From: 2010.05.17/outbox.cif.g08.bks.cpg/sg2_184_cif.got.tgz:367567.got - 2010.06.03 11:33:40.
