data_PCOD9079278
_publ_section_title
;
Structure prediction by ZEFSAII (Michael W. Deem and Ramdas Pophale) SiO2 
 PCOD9079278
Probable space group: P -1
;
_chemical_formula_sum "Si O2"
_cell_formula_units_Z 14
_cell_length_a 13.337115
_cell_length_b 22.687525
_cell_length_c 15.250090
_cell_angle_alpha 161.215388
_cell_angle_beta 142.658036
_cell_angle_gamma 27.923868
_cell_volume 669.007747
_symmetry_space_group_name_H-M "P -1"
_symmetry_group_IT_number 2
_symmetry_cell_setting 'triclinic'
loop_
_space_group_symop_operation_xyz
x,y,z
-x,-y,-z
loop_
_atom_site_type_symbol
_atom_site_label
_atom_site_fract_x
_atom_site_fract_y
_atom_site_fract_z
Si Si1 0.021953 0.117059 0.854108
Si Si2 0.731336 0.832852 0.757468
Si Si3 0.499907 0.788621 0.669305
Si Si4 0.054954 0.431033 0.803721
Si Si5 0.710977 0.647473 0.318699
Si Si6 0.611940 0.587810 0.652001
Si Si7 0.805416 0.899818 0.401906
O O1 0.239579 0.935407 0.687249
O O2 0.104145 0.180244 0.082028
O O3 0.943554 0.977170 0.631413
O O4 0.823086 0.369809 0.024436
O O5 0.641970 0.712711 0.573597
O O6 0.821638 0.706149 0.547929
O O7 0.530231 0.126051 0.017828
O O8 0.593047 0.599585 0.548811
O O9 0.500000 0.000000 0.000000
O O10 0.225295 0.344193 0.722712
O O11 0.177960 0.255484 0.725617
O O12 0.863008 0.436296 0.643413
O O13 0.925215 0.710207 0.137178
O O14 0.448703 0.855380 0.445370
O O15 0.500000 0.500000 0.500000
#
# Coordination Sequence:
#
# PCOD9079278 Si02
#       7
#     2   2   2   2   2   2   2
#     4  10  21  39  64  94 123 159 207 259 307 363
#     4  10  20  39  63  92 127 156 204 260 312 368
#     4   8  17  35  60  88 120 155 199 249 307 361
#     4  11  23  43  66  85 127 174 200 252 317 363
#     4  12  23  41  66  91 126 164 209 251 313 372
#     4  10  18  36  65  93 119 158 212 253 299 369
#     4  11  25  43  62  89 128 166 212 252 302 374
#
# _framework density 20.926515999999999
#
# number of rings (size 3 to 8) (size 9 to 14) (size 15 to 20)
#    0.000    2.000    1.429    5.571    0.000    0.571 
#    2.571    4.286    0.000    0.000    0.000    0.000 
#    0.000    0.000    0.000    0.000    0.000    0.000 
#
# Total GULP energy -78150.816857 kJ/mol
# GULP energy per Si atom -5582.201204 kJ/mol
# Density = 2.087889 g / cm^3
# Si number density = 20.926516 Si / 1000 Ang^3
#
#
#
# Elastic Constant Matrix: (Units=GPa)
#
#
# Indices 1 2 3 4 5 6 
#
# 1 98.6668 8.9428 35.0220 -20.9030 -3.8264 8.7951
# 2 8.9428 75.1059 20.1761 6.2574 0.7083 -9.7723
# 3 35.0220 20.1761 41.6958 -5.2479 -0.2893 -3.6527
# 4 -20.9030 6.2574 -5.2479 11.0371 4.6975 1.6235
# 5 -3.8264 0.7083 -0.2893 4.6975 25.4455 3.0719
# 6 8.7951 -9.7723 -3.6527 1.6235 3.0719 27.1253
#
#
#
# Elastic Compliance Matrix: (Units=1/GPa)
#
#
# Indices 1 2 3 4 5 6 
#
# 1 0.029808 -0.005919 -0.016633 0.056027 -0.003838 -0.016955
# 2 -0.005919 0.019479 -0.007154 -0.028116 0.002546 0.009368
# 3 -0.016633 -0.007154 0.041106 -0.008663 -0.001324 0.009019
# 4 0.056027 -0.028116 -0.008663 0.226246 -0.027848 -0.039849
# 5 -0.003838 0.002546 -0.001324 -0.027848 0.043938 -0.001326
# 6 -0.016955 0.009368 0.009019 -0.039849 -0.001326 0.049488
#
#
# Mechanical properties :
#
#
# Convention : Reuss Voigt Hill
#
# Bulk Modulus (GPa) = 32.27859 38.19447 35.23653
# Shear Modulus (GPa) = 10.42093 22.81010 16.61552
#
# Velocity S-wave (km/s) = 2.23396 3.30511 2.82085
# Velocity P-wave (km/s) = 4.70238 5.73205 5.24255
#
# Compressibility (1/GPa) = 0.03098029
#
# Stress axis : x y z
#
# Youngs Moduli (GPa) = 33.54857 51.33864 24.32707
#
# Poissons Ratio (x) = 0.30386 0.40463
# Poissons Ratio (y) = 0.19857 0.17405
# Poissons Ratio (z) = 0.55801 0.36730
#
# Static dielectric constant tensor:
#      x y z
#    x 1.782540 0.010090 -0.033980 
#    y 0.010090 1.792360 0.010370 
#    z -0.033980 0.010370 1.737070 
# 
# From -- ./inp_files/524152.got.cif
#   From: 2010.05.17/outbox.cif.g08.bks.cpg/sg2_263_cif.got.tgz:524152.got - 2010.06.03 11:33:40.
