data_PCOD9079695
_publ_section_title
;
Structure prediction by ZEFSAII (Michael W. Deem and Ramdas Pophale) SiO2 
 PCOD9079695
Probable space group: P -1
;
_chemical_formula_sum "Si O2"
_cell_formula_units_Z 16
_cell_length_a 7.345504
_cell_length_b 12.681957
_cell_length_c 11.762201
_cell_angle_alpha 134.957577
_cell_angle_beta 119.571343
_cell_angle_gamma 82.272349
_cell_volume 632.186137
_symmetry_space_group_name_H-M "P -1"
_symmetry_group_IT_number 2
_symmetry_cell_setting 'triclinic'
loop_
_space_group_symop_operation_xyz
x,y,z
-x,-y,-z
loop_
_atom_site_type_symbol
_atom_site_label
_atom_site_fract_x
_atom_site_fract_y
_atom_site_fract_z
Si Si1 0.076049 0.426225 0.211063
Si Si2 0.408981 0.456599 0.143696
Si Si3 0.627951 0.927760 0.852964
Si Si4 0.938535 0.764942 0.731449
Si Si5 0.376441 0.136729 0.934964
Si Si6 0.980325 0.701659 0.270283
Si Si7 0.771917 0.793922 0.474285
Si Si8 0.868544 0.133285 0.768449
O O1 0.306578 0.445121 0.229939
O O2 0.077168 0.386361 0.313309
O O3 0.036967 0.585492 0.286114
O O4 0.899112 0.269315 0.975278
O O5 0.503654 0.311513 0.055932
O O6 0.570902 0.628700 0.294036
O O7 0.205004 0.412090 0.958739
O O8 0.715088 0.804626 0.721760
O O9 0.569779 0.863673 0.914563
O O10 0.439871 0.991201 0.795021
O O11 0.846736 0.088154 0.050860
O O12 0.943205 0.769005 0.601046
O O13 0.116688 0.116336 0.828843
O O14 0.872833 0.807605 0.389941
O O15 0.166119 0.802476 0.316222
O O16 0.719075 0.952629 0.607072
#
# Coordination Sequence:
#
# PCOD9079695 Si02
#       8
#     2   2   2   2   2   2   2   2
#     4  10  21  44  66  90 120 177 202 246 316 378
#     4  10  22  43  63  89 126 164 210 256 313 364
#     4  10  18  37  63  91 121 170 204 245 304 385
#     4  11  21  37  62  94 134 154 201 255 314 370
#     4   9  18  37  65  88 118 168 211 240 305 375
#     4  10  23  43  69  83 123 173 213 246 310 372
#     4  12  24  39  61  98 128 161 201 269 308 357
#     4  10  19  43  69  89 122 160 216 260 303 359
#
# _framework density 25.309004000000002
#
# number of rings (size 3 to 8) (size 9 to 14) (size 15 to 20)
#    0.000    2.000    3.750    3.000    1.750    1.000 
#    2.250    2.500    2.750    0.000    0.000    0.000 
#    0.000    0.000    0.000    0.000    0.000    0.000 
#
# Total GULP energy -89462.676296 kJ/mol
# GULP energy per Si atom -5591.417268 kJ/mol
# Density = 2.525140 g / cm^3
# Si number density = 25.309004 Si / 1000 Ang^3
#
#
#
# Elastic Constant Matrix: (Units=GPa)
#
#
# Indices 1 2 3 4 5 6 
#
# 1 49.0529 16.6482 9.8716 5.6658 -6.0921 -5.9440
# 2 16.6482 168.3444 25.9924 20.2635 -4.6074 10.9097
# 3 9.8716 25.9924 43.9131 8.1151 -1.4780 10.5733
# 4 5.6658 20.2635 8.1151 32.6033 4.6777 -9.0236
# 5 -6.0921 -4.6074 -1.4780 4.6777 17.0770 -2.0954
# 6 -5.9440 10.9097 10.5733 -9.0236 -2.0954 44.3610
#
#
#
# Elastic Compliance Matrix: (Units=1/GPa)
#
#
# Indices 1 2 3 4 5 6 
#
# 1 0.023760 -0.001410 -0.004989 -0.001960 0.008782 0.004736
# 2 -0.001410 0.007215 -0.002517 -0.004532 0.002200 -0.002182
# 3 -0.004989 -0.002517 0.028741 -0.007162 0.000971 -0.008311
# 4 -0.001960 -0.004532 -0.007162 0.040187 -0.012304 0.010152
# 5 0.008782 0.002200 0.000971 -0.012304 0.065863 0.001013
# 6 0.004736 -0.002182 -0.008311 0.010152 0.001013 0.027807
#
#
# Mechanical properties :
#
#
# Convention : Reuss Voigt Hill
#
# Bulk Modulus (GPa) = 23.87549 40.70387 32.28968
# Shear Modulus (GPa) = 22.18608 32.72812 27.45710
#
# Velocity S-wave (km/s) = 2.96397 3.59993 3.29732
# Velocity P-wave (km/s) = 4.60082 5.77901 5.22324
#
# Compressibility (1/GPa) = 0.04188395
#
# Stress axis : x y z
#
# Youngs Moduli (GPa) = 42.08823 138.59242 34.79377
#
# Poissons Ratio (x) = 0.19541 0.17358
# Poissons Ratio (y) = 0.05934 0.08758
# Poissons Ratio (z) = 0.20998 0.34884
#
# Static dielectric constant tensor:
#      x y z
#    x 2.074970 -0.025350 0.012440 
#    y -0.025350 1.992790 0.031070 
#    z 0.012440 0.031070 2.014770 
# 
# From -- ./inp_files/189412.got.cif
#   From: 2010.05.17/outbox.cif.g08.bks.cpg/sg2_95_cif.got.tgz:189412.got - 2010.06.03 11:33:40.
