data_PCOD9079972
_publ_section_title
;
Structure prediction by ZEFSAII (Michael W. Deem and Ramdas Pophale) SiO2 
 PCOD9079972
Probable space group: P -1
;
_chemical_formula_sum "Si O2"
_cell_formula_units_Z 14
_cell_length_a 15.806774
_cell_length_b 5.411178
_cell_length_c 23.623553
_cell_angle_alpha 48.302802
_cell_angle_beta 22.751825
_cell_angle_gamma 46.071612
_cell_volume 560.456015
_symmetry_space_group_name_H-M "P -1"
_symmetry_group_IT_number 2
_symmetry_cell_setting 'triclinic'
loop_
_space_group_symop_operation_xyz
x,y,z
-x,-y,-z
loop_
_atom_site_type_symbol
_atom_site_label
_atom_site_fract_x
_atom_site_fract_y
_atom_site_fract_z
Si Si1 0.550407 0.708601 0.102161
Si Si2 0.789980 0.613966 0.569999
Si Si3 0.101410 0.394200 0.820437
Si Si4 0.759260 0.753666 0.125378
Si Si5 0.148238 0.128625 0.707156
Si Si6 0.365875 0.701652 0.984290
Si Si7 0.312373 0.603040 0.451580
O O1 0.407930 0.521847 0.257909
O O2 0.500698 0.638531 0.078621
O O3 0.499126 0.110681 0.087055
O O4 0.825003 0.550290 0.966417
O O5 0.831710 0.443690 0.508009
O O6 0.000000 0.500000 0.500000
O O7 0.740363 0.028883 0.539758
O O8 0.199070 0.148270 0.850681
O O9 0.179075 0.206597 0.742126
O O10 0.187155 0.732758 0.726124
O O11 0.561153 0.569125 0.278433
O O12 0.695380 0.033923 0.072655
O O13 0.000000 0.500000 0.000000
O O14 0.290128 0.315172 0.552690
O O15 0.875395 0.302744 0.840500
#
# Coordination Sequence:
#
# PCOD9079972 Si02
#       7
#     2   2   2   2   2   2   2
#     4  10  18  38  59  91 113 160 203 256 302 350
#     4  12  24  44  69  94 120 157 213 271 323 367
#     4  10  22  36  63  88 130 172 207 248 291 376
#     4  12  21  39  63  98 125 172 222 245 297 360
#     4  10  22  40  57  89 132 172 198 247 316 362
#     4  10  20  36  61  85 124 165 206 252 288 358
#     4  12  26  42  65  95 130 162 205 263 316 378
#
# _framework density 24.979659999999999
#
# number of rings (size 3 to 8) (size 9 to 14) (size 15 to 20)
#    0.000    1.143    5.714    1.286    0.000    5.714 
#    0.000    0.000    0.000   20.571    0.000    0.000 
#    0.000    0.000    0.000    0.000    0.000    0.000 
#
# Total GULP energy -78365.390656 kJ/mol
# GULP energy per Si atom -5597.527904 kJ/mol
# Density = 2.492281 g / cm^3
# Si number density = 24.979660 Si / 1000 Ang^3
#
#
#
# Elastic Constant Matrix: (Units=GPa)
#
#
# Indices 1 2 3 4 5 6 
#
# 1 133.0255 30.8144 30.0977 -13.4329 -2.5215 30.4937
# 2 30.8144 90.4294 21.9324 -27.8283 -5.0374 40.0525
# 3 30.0977 21.9324 122.5116 -35.6123 0.8872 -5.1963
# 4 -13.4329 -27.8283 -35.6123 30.4581 4.8596 -8.8725
# 5 -2.5215 -5.0374 0.8872 4.8596 26.7400 -5.3198
# 6 30.4937 40.0525 -5.1963 -8.8725 -5.3198 54.4890
#
#
#
# Elastic Compliance Matrix: (Units=1/GPa)
#
#
# Indices 1 2 3 4 5 6 
#
# 1 0.009364 -0.000514 -0.002757 -0.001112 0.000025 -0.005305
# 2 -0.000514 0.022158 0.000564 0.017058 -0.001645 -0.013329
# 3 -0.002757 0.000564 0.014141 0.017770 -0.002839 0.005093
# 4 -0.001112 0.017058 0.017770 0.070407 -0.010228 0.000245
# 5 0.000025 -0.001645 -0.002839 -0.010228 0.039666 0.003132
# 6 -0.005305 -0.013329 0.005093 0.000245 0.003132 0.031950
#
#
# Mechanical properties :
#
#
# Convention : Reuss Voigt Hill
#
# Bulk Modulus (GPa) = 24.84456 56.85062 40.84759
# Shear Modulus (GPa) = 24.21143 39.87888 32.04516
#
# Velocity S-wave (km/s) = 3.11665 3.99990 3.58558
# Velocity P-wave (km/s) = 4.78736 6.64383 5.79048
#
# Compressibility (1/GPa) = 0.04025027
#
# Stress axis : x y z
#
# Youngs Moduli (GPa) = 106.78891 45.13107 70.71711
#
# Poissons Ratio (x) = 0.02318 0.19497
# Poissons Ratio (y) = 0.05485 -0.03991
# Poissons Ratio (z) = 0.29442 -0.02547
#
# Static dielectric constant tensor:
#      x y z
#    x 2.039410 0.053500 -0.020230 
#    y 0.053500 2.073810 0.010400 
#    z -0.020230 0.010400 1.942940 
# 
# From -- ./inp_files/620126.got.cif
#   From: 2010.05.17/outbox.cif.g08.bks.cpg/sg2_311_cif.got.tgz:620126.got - 2010.06.03 11:33:40.
