data_PCOD9079791
_publ_section_title
;
Structure prediction by ZEFSAII (Michael W. Deem and Ramdas Pophale) SiO2 
 PCOD9079791
Probable space group: P -1
;
_chemical_formula_sum "Si O2"
_cell_formula_units_Z 14
_cell_length_a 21.831596
_cell_length_b 13.409737
_cell_length_c 15.111161
_cell_angle_alpha 38.446378
_cell_angle_beta 18.442661
_cell_angle_gamma 27.488096
_cell_volume 592.140324
_symmetry_space_group_name_H-M "P -1"
_symmetry_group_IT_number 2
_symmetry_cell_setting 'triclinic'
loop_
_space_group_symop_operation_xyz
x,y,z
-x,-y,-z
loop_
_atom_site_type_symbol
_atom_site_label
_atom_site_fract_x
_atom_site_fract_y
_atom_site_fract_z
Si Si1 0.558802 0.263848 0.340959
Si Si2 0.811611 0.737470 0.533241
Si Si3 0.277261 0.660953 0.591988
Si Si4 0.513313 0.867067 0.151553
Si Si5 0.263505 0.124496 0.918790
Si Si6 0.015190 0.238824 0.905287
Si Si7 0.113981 0.490928 0.676392
O O1 0.481300 0.428380 0.412303
O O2 0.418362 0.177243 0.620485
O O3 0.406641 0.404686 0.359420
O O4 0.876025 0.010596 0.069590
O O5 0.992208 0.699262 0.229911
O O6 0.000000 0.500000 0.500000
O O7 0.682048 0.952029 0.625847
O O8 0.509797 0.869815 0.806827
O O9 0.388048 0.773566 0.359087
O O10 0.961941 0.835921 0.858249
O O11 0.235034 0.614359 0.780628
O O12 0.852051 0.668168 0.844872
O O13 0.500000 0.000000 0.000000
O O14 0.065847 0.344924 0.104913
O O15 0.206236 0.257977 0.680259
#
# Coordination Sequence:
#
# PCOD9079791 Si02
#       7
#     2   2   2   2   2   2   2
#     4  10  19  38  64 104 136 162 214 269 338 395
#     4  10  23  43  65  95 135 180 218 258 331 405
#     4  11  22  42  68 102 132 168 222 279 330 382
#     4  11  26  47  64  86 135 188 221 269 337 388
#     4   9  18  38  66  99 133 170 215 266 326 399
#     4  11  21  37  70 103 136 164 214 277 328 388
#     4  10  18  37  65  92 131 177 205 264 329 391
#
# _framework density 23.643044
#
# number of rings (size 3 to 8) (size 9 to 14) (size 15 to 20)
#    0.000    1.714    2.857    2.143    2.000    1.143 
#    5.143    7.143    0.000    0.000    0.000    0.000 
#    0.000    0.000    0.000    0.000    0.000    0.000 
#
# Total GULP energy -77938.447233 kJ/mol
# GULP energy per Si atom -5567.031945 kJ/mol
# Density = 2.358923 g / cm^3
# Si number density = 23.643044 Si / 1000 Ang^3
#
#
#
# Elastic Constant Matrix: (Units=GPa)
#
#
# Indices 1 2 3 4 5 6 
#
# 1 154.9162 80.7548 60.3340 -5.2663 -2.1390 2.9933
# 2 80.7548 131.4465 40.7807 18.3834 -10.7861 -0.3016
# 3 60.3340 40.7807 66.7101 6.6380 -1.3997 -4.9614
# 4 -5.2663 18.3834 6.6380 41.7335 -2.3456 0.3547
# 5 -2.1390 -10.7861 -1.3997 -2.3456 25.4130 14.5843
# 6 2.9933 -0.3016 -4.9614 0.3547 14.5843 49.7246
#
#
#
# Elastic Compliance Matrix: (Units=1/GPa)
#
#
# Indices 1 2 3 4 5 6 
#
# 1 0.013544 -0.006391 -0.009067 0.005947 -0.000589 -0.001629
# 2 -0.006391 0.013352 -0.001753 -0.006110 0.005142 -0.001174
# 3 -0.009067 -0.001753 0.024943 -0.004528 -0.002772 0.003869
# 4 0.005947 -0.006110 -0.004528 0.028193 0.001036 -0.001352
# 5 -0.000589 0.005142 -0.002772 0.001036 0.049960 -0.014871
# 6 -0.001629 -0.001174 0.003869 -0.001352 -0.014871 0.024959
#
#
# Mechanical properties :
#
#
# Convention : Reuss Voigt Hill
#
# Bulk Modulus (GPa) = 57.42262 79.64574 68.53418
# Shear Modulus (GPa) = 25.61746 34.78778 30.20262
#
# Velocity S-wave (km/s) = 3.29524 3.84001 3.57801
# Velocity P-wave (km/s) = 6.23043 7.30895 6.79113
#
# Compressibility (1/GPa) = 0.01741474
#
# Stress axis : x y z
#
# Youngs Moduli (GPa) = 73.83509 74.89579 40.09168
#
# Poissons Ratio (x) = 0.47868 0.36353
# Poissons Ratio (y) = 0.47190 0.07029
# Poissons Ratio (z) = 0.66949 0.13130
#
# Static dielectric constant tensor:
#      x y z
#    x 1.903970 -0.235950 -0.098190 
#    y -0.235950 1.709580 0.086200 
#    z -0.098190 0.086200 2.038870 
# 
# From -- ./inp_files/541086.got.cif
#   From: 2010.05.17/outbox.cif.g08.bks.cpg/sg2_271_cif.got.tgz:541086.got - 2010.06.03 11:33:40.
