data_PCOD9079566
_publ_section_title
;
Structure prediction by ZEFSAII (Michael W. Deem and Ramdas Pophale) SiO2 
 PCOD9079566
Probable space group: P -1
;
_chemical_formula_sum "Si O2"
_cell_formula_units_Z 16
_cell_length_a 11.533835
_cell_length_b 11.593958
_cell_length_c 9.341900
_cell_angle_alpha 53.700757
_cell_angle_beta 114.619456
_cell_angle_gamma 131.524588
_cell_volume 753.156106
_symmetry_space_group_name_H-M "P -1"
_symmetry_group_IT_number 2
_symmetry_cell_setting 'triclinic'
loop_
_space_group_symop_operation_xyz
x,y,z
-x,-y,-z
loop_
_atom_site_type_symbol
_atom_site_label
_atom_site_fract_x
_atom_site_fract_y
_atom_site_fract_z
Si Si1 0.865444 0.578442 0.232001
Si Si2 0.696939 0.119684 0.869578
Si Si3 0.639966 0.237496 0.019038
Si Si4 0.544688 0.365947 0.109935
Si Si5 0.049900 0.608479 0.798270
Si Si6 0.024710 0.924971 0.921368
Si Si7 0.344780 0.975105 0.381033
Si Si8 0.003653 0.802328 0.430643
O O1 0.684529 0.426669 0.247893
O O2 0.952186 0.501122 0.257858
O O3 0.927501 0.674770 0.345460
O O4 0.890474 0.721718 0.021839
O O5 0.701828 0.257646 0.875711
O O6 0.715693 0.159268 0.683630
O O7 0.821290 0.075414 0.004078
O O8 0.523839 0.946549 0.921320
O O9 0.609210 0.368186 0.983252
O O10 0.769296 0.246294 0.178360
O O11 0.404113 0.168031 0.214388
O O12 0.500000 0.500000 0.000000
O O13 0.962801 0.694204 0.635817
O O14 0.000000 0.500000 0.000000
O O15 0.028928 0.049471 0.711619
O O16 0.000000 0.000000 0.000000
O O17 0.500000 0.000000 0.500000
O O18 0.189816 0.903310 0.441986
#
# Coordination Sequence:
#
# PCOD9079566 Si02
#       8
#     2   2   2   2   2   2   2   2
#     4  10  20  37  59  93 123 162 205 255 319 372
#     4  10  18  37  61  88 127 166 209 256 315 380
#     4   9  21  36  59  86 121 173 206 249 320 382
#     4  10  21  36  61  94 130 162 205 265 320 371
#     4  11  23  40  59  87 128 164 208 263 325 377
#     4  10  19  34  62  94 121 163 211 265 308 371
#     4  11  21  36  62  94 126 163 218 268 304 371
#     4  11  22  37  62  95 120 160 227 258 308 384
#
# _framework density 21.243935
#
# number of rings (size 3 to 8) (size 9 to 14) (size 15 to 20)
#    0.000    1.750    2.500    4.125    5.250    0.000 
#    0.000    2.500    0.000    7.500    0.000    0.000 
#    0.000    0.000    0.000    0.000    0.000    0.000 
#
# Total GULP energy -89147.253911 kJ/mol
# GULP energy per Si atom -5571.703369 kJ/mol
# Density = 2.119558 g / cm^3
# Si number density = 21.243935 Si / 1000 Ang^3
#
#
#
# Elastic Constant Matrix: (Units=GPa)
#
#
# Indices 1 2 3 4 5 6 
#
# 1 74.8885 21.3528 31.2949 7.4149 7.2661 -5.6261
# 2 21.3528 86.5913 21.1368 7.3628 -0.8251 -0.3633
# 3 31.2949 21.1368 113.5707 -7.0416 10.8373 -11.2691
# 4 7.4149 7.3628 -7.0416 22.4545 2.4901 4.8743
# 5 7.2661 -0.8251 10.8373 2.4901 18.0636 -3.7039
# 6 -5.6261 -0.3633 -11.2691 4.8743 -3.7039 39.6909
#
#
#
# Elastic Compliance Matrix: (Units=1/GPa)
#
#
# Indices 1 2 3 4 5 6 
#
# 1 0.016835 -0.002690 -0.004026 -0.005926 -0.003327 0.001636
# 2 -0.002690 0.013214 -0.002361 -0.004595 0.003732 -0.000018
# 3 -0.004026 -0.002361 0.011426 0.006046 -0.005898 0.001359
# 4 -0.005926 -0.004595 0.006046 0.052425 -0.010021 -0.006539
# 5 -0.003327 0.003732 -0.005898 -0.010021 0.062810 0.004980
# 6 0.001636 -0.000018 0.001359 -0.006539 0.004980 0.027080
#
#
# Mechanical properties :
#
#
# Convention : Reuss Voigt Hill
#
# Bulk Modulus (GPa) = 42.87708 46.95771 44.91739
# Shear Modulus (GPa) = 23.84158 29.45953 26.65056
#
# Velocity S-wave (km/s) = 3.35367 3.72792 3.54574
# Velocity P-wave (km/s) = 5.93491 6.37823 6.16056
#
# Compressibility (1/GPa) = 0.02332248
#
# Stress axis : x y z
#
# Youngs Moduli (GPa) = 59.40033 75.67589 87.51634
#
# Poissons Ratio (x) = 0.20354 0.35234
# Poissons Ratio (y) = 0.15976 0.20662
# Poissons Ratio (z) = 0.23915 0.17867
#
# Static dielectric constant tensor:
#      x y z
#    x 1.831380 -0.003800 -0.034710 
#    y -0.003800 1.810920 -0.006140 
#    z -0.034710 -0.006140 1.841060 
# 
# From -- ./inp_files/257139.got.cif
#   From: 2010.05.17/outbox.cif.g08.bks.cpg/sg2_129_cif.got.tgz:257139.got - 2010.06.03 11:33:40.
