data_PCOD9079229
_publ_section_title
;
Structure prediction by ZEFSAII (Michael W. Deem and Ramdas Pophale) SiO2 
 PCOD9079229
Probable space group: P -1
;
_chemical_formula_sum "Si O2"
_cell_formula_units_Z 16
_cell_length_a 7.223940
_cell_length_b 29.859489
_cell_length_c 4.921517
_cell_angle_alpha 102.014347
_cell_angle_beta 72.192810
_cell_angle_gamma 135.393498
_cell_volume 709.694198
_symmetry_space_group_name_H-M "P -1"
_symmetry_group_IT_number 2
_symmetry_cell_setting 'triclinic'
loop_
_space_group_symop_operation_xyz
x,y,z
-x,-y,-z
loop_
_atom_site_type_symbol
_atom_site_label
_atom_site_fract_x
_atom_site_fract_y
_atom_site_fract_z
Si Si1 0.180899 0.655477 0.903283
Si Si2 0.567632 0.043012 0.773584
Si Si3 0.267920 0.242122 0.460846
Si Si4 0.812762 0.865544 0.430642
Si Si5 0.025127 0.773823 0.896854
Si Si6 0.617804 0.886128 0.013844
Si Si7 0.334957 0.453505 0.765307
Si Si8 0.975574 0.670686 0.481169
O O1 0.479339 0.692583 0.719465
O O2 0.031720 0.646599 0.682411
O O3 0.192198 0.698490 0.175490
O O4 0.982383 0.588096 0.068291
O O5 0.403450 0.063346 0.864359
O O6 0.889074 0.105486 0.721040
O O7 0.500000 0.000000 0.500000
O O8 0.500000 0.000000 0.000000
O O9 0.352082 0.205249 0.473213
O O10 0.024904 0.280303 0.321961
O O11 0.041724 0.199853 0.273537
O O12 0.683658 0.868739 0.233082
O O13 0.828464 0.905352 0.713438
O O14 0.835842 0.748731 0.214187
O O15 0.327340 0.825636 0.938054
O O16 0.500000 0.500000 0.500000
O O17 0.291660 0.392345 0.634379
O O18 0.500000 0.500000 0.000000
#
# Coordination Sequence:
#
# PCOD9079229 Si02
#       8
#     2   2   2   2   2   2   2   2
#     4  10  21  38  62  98 129 174 240 285 352 424
#     4  12  28  50  76 106 150 188 250 296 350 436
#     4  12  25  42  69 101 148 184 231 301 375 434
#     4  12  27  48  76 107 145 192 242 297 371 429
#     4  12  25  42  69 101 148 184 231 301 375 434
#     4  12  27  48  76 107 145 192 242 297 371 429
#     4  10  18  36  64  92 130 178 240 296 342 424
#     4  10  21  38  62  98 129 174 240 285 352 424
#
# _framework density 22.544920999999999
#
# number of rings (size 3 to 8) (size 9 to 14) (size 15 to 20)
#    0.750    0.000    2.500    5.250    1.750    5.000 
#    0.000    0.000    0.000    4.500    0.000    0.000 
#    0.000    0.000    0.000    0.000    0.000    0.000 
#
# Total GULP energy -89330.265925 kJ/mol
# GULP energy per Si atom -5583.141620 kJ/mol
# Density = 2.249361 g / cm^3
# Si number density = 22.544921 Si / 1000 Ang^3
#
#
#
# Elastic Constant Matrix: (Units=GPa)
#
#
# Indices 1 2 3 4 5 6 
#
# 1 63.3291 0.2481 27.9986 0.4262 13.2863 5.3430
# 2 0.2481 69.8629 23.6120 15.9937 -0.2949 8.4772
# 3 27.9986 23.6120 184.4949 14.6600 11.4035 5.5367
# 4 0.4262 15.9937 14.6600 50.8427 0.5741 -3.5983
# 5 13.2863 -0.2949 11.4035 0.5741 50.2593 1.4955
# 6 5.3430 8.4772 5.5367 -3.5983 1.4955 15.3042
#
#
#
# Elastic Compliance Matrix: (Units=1/GPa)
#
#
# Indices 1 2 3 4 5 6 
#
# 1 0.018258 0.001565 -0.002516 -0.000299 -0.004064 -0.006004
# 2 0.001565 0.017571 -0.001720 -0.005834 0.000476 -0.011075
# 3 -0.002516 -0.001720 0.006185 -0.001258 -0.000715 -0.000633
# 4 -0.000299 -0.005834 -0.001258 0.022515 -0.000198 0.009104
# 5 -0.004064 0.000476 -0.000715 -0.000198 0.021159 -0.000700
# 6 -0.006004 -0.011075 -0.000633 0.009104 -0.000700 0.076010
#
#
# Mechanical properties :
#
#
# Convention : Reuss Voigt Hill
#
# Bulk Modulus (GPa) = 27.26776 46.82268 37.04522
# Shear Modulus (GPa) = 27.89176 41.00312 34.44744
#
# Velocity S-wave (km/s) = 3.52115 4.26928 3.91314
# Velocity P-wave (km/s) = 5.35280 6.71685 6.07324
#
# Compressibility (1/GPa) = 0.03667334
#
# Stress axis : x y z
#
# Youngs Moduli (GPa) = 54.77035 56.91261 161.67411
#
# Poissons Ratio (x) = -0.08909 0.40677
# Poissons Ratio (y) = -0.08574 0.27805
# Poissons Ratio (z) = 0.13780 0.09788
#
# Static dielectric constant tensor:
#      x y z
#    x 1.931270 0.015430 -0.012310 
#    y 0.015430 1.904390 -0.012390 
#    z -0.012310 -0.012390 1.835760 
# 
# From -- ./inp_files/14553.got.cif
#   From: 2010.05.17/outbox.cif.g08.bks.cpg/sg2_8_cif.got.tgz:14553.got - 2010.06.03 11:33:40.
