data_PCOD9079501
_publ_section_title
;
Structure prediction by ZEFSAII (Michael W. Deem and Ramdas Pophale) SiO2 
 PCOD9079501
Probable space group: P -1
;
_chemical_formula_sum "Si O2"
_cell_formula_units_Z 16
_cell_length_a 8.557269
_cell_length_b 16.097611
_cell_length_c 8.292403
_cell_angle_alpha 45.989021
_cell_angle_beta 73.179718
_cell_angle_gamma 67.527752
_cell_volume 758.672965
_symmetry_space_group_name_H-M "P -1"
_symmetry_group_IT_number 2
_symmetry_cell_setting 'triclinic'
loop_
_space_group_symop_operation_xyz
x,y,z
-x,-y,-z
loop_
_atom_site_type_symbol
_atom_site_label
_atom_site_fract_x
_atom_site_fract_y
_atom_site_fract_z
Si Si1 0.208627 0.377065 0.430238
Si Si2 0.422743 0.364940 0.063467
Si Si3 0.355535 0.545451 0.347791
Si Si4 0.784939 0.256494 0.633369
Si Si5 0.604214 0.870043 0.697110
Si Si6 0.119360 0.520902 0.794452
Si Si7 0.833586 0.866698 0.345863
Si Si8 0.437227 0.913833 0.013296
O O1 0.327426 0.392964 0.222584
O O2 0.268583 0.439842 0.478774
O O3 0.215880 0.236412 0.609578
O O4 0.014164 0.445535 0.355577
O O5 0.490023 0.223660 0.219901
O O6 0.564454 0.425354 0.882094
O O7 0.276745 0.405882 0.914124
O O8 0.500000 0.500000 0.500000
O O9 0.244682 0.670149 0.287644
O O10 0.801941 0.364609 0.363104
O O11 0.965391 0.159883 0.695996
O O12 0.633680 0.192419 0.746399
O O13 0.778714 0.844655 0.576731
O O14 0.583861 0.866000 0.900880
O O15 0.500000 0.000000 0.500000
O O16 0.000000 0.500000 0.000000
O O17 0.724472 0.996810 0.148851
O O18 0.500000 0.000000 0.000000
#
# Coordination Sequence:
#
# PCOD9079501 Si02
#       8
#     2   2   2   2   2   2   2   2
#     4   9  21  37  59  89 118 162 205 240 312 371
#     4  10  18  37  60  84 121 159 198 250 301 368
#     4  12  23  35  57  92 128 156 199 258 306 364
#     4  11  22  40  60  90 126 159 202 254 314 351
#     4   9  19  39  61  85 115 162 205 242 301 362
#     4   9  19  37  60  87 122 159 194 249 310 368
#     4   9  21  40  65  80 120 167 201 246 302 376
#     4  11  23  39  64  92 120 157 206 260 303 356
#
# _framework density 21.089456999999999
#
# number of rings (size 3 to 8) (size 9 to 14) (size 15 to 20)
#    0.000    2.000    2.500    1.500    1.750    2.000 
#    2.250    0.625    0.000    0.000    0.000    0.000 
#    0.000    0.000    0.000    0.000    0.000    0.000 
#
# Total GULP energy -89100.873989 kJ/mol
# GULP energy per Si atom -5568.804624 kJ/mol
# Density = 2.104146 g / cm^3
# Si number density = 21.089457 Si / 1000 Ang^3
#
#
#
# Elastic Constant Matrix: (Units=GPa)
#
#
# Indices 1 2 3 4 5 6 
#
# 1 46.6565 42.4691 24.5892 -3.1764 -19.9571 8.8522
# 2 42.4691 108.6669 20.2658 0.4999 -16.5632 5.6848
# 3 24.5892 20.2658 95.6349 -4.4686 -33.2098 5.1972
# 4 -3.1764 0.4999 -4.4686 37.0771 -10.0370 -5.8985
# 5 -19.9571 -16.5632 -33.2098 -10.0370 37.1075 -6.1141
# 6 8.8522 5.6848 5.1972 -5.8985 -6.1141 38.8406
#
#
#
# Elastic Compliance Matrix: (Units=1/GPa)
#
#
# Indices 1 2 3 4 5 6 
#
# 1 0.043636 -0.013952 -0.001734 0.007760 0.017163 -0.003791
# 2 -0.013952 0.014419 -0.000117 -0.001730 -0.001544 0.000579
# 3 -0.001734 -0.000117 0.016682 0.006452 0.015965 0.001673
# 4 0.007760 -0.001730 0.006452 0.034674 0.019537 0.005962
# 5 0.017163 -0.001544 0.015965 0.019537 0.056046 0.005968
# 6 -0.003791 0.000579 0.001673 0.005962 0.005968 0.028146
#
#
# Mechanical properties :
#
#
# Convention : Reuss Voigt Hill
#
# Bulk Modulus (GPa) = 23.18547 47.28963 35.23755
# Shear Modulus (GPa) = 20.86942 33.51400 27.19171
#
# Velocity S-wave (km/s) = 3.14915 3.99072 3.59465
# Velocity P-wave (km/s) = 4.92347 6.61109 5.82868
#
# Compressibility (1/GPa) = 0.04313045
#
# Stress axis : x y z
#
# Youngs Moduli (GPa) = 22.91703 69.35269 59.94589
#
# Poissons Ratio (x) = 0.96758 0.10397
# Poissons Ratio (y) = 0.31973 0.00701
# Poissons Ratio (z) = 0.03975 0.00811
#
# Static dielectric constant tensor:
#      x y z
#    x 1.767960 -0.024490 -0.010380 
#    y -0.024490 1.778170 0.013040 
#    z -0.010380 0.013040 1.838190 
# 
# From -- ./inp_files/199415.got.cif
#   From: 2010.05.17/outbox.cif.g08.bks.cpg/sg2_100_cif.got.tgz:199415.got - 2010.06.03 11:33:40.
