data_PCOD9079955
_publ_section_title
;
Structure prediction by ZEFSAII (Michael W. Deem and Ramdas Pophale) SiO2 
 PCOD9079955
Probable space group: P -1
;
_chemical_formula_sum "Si O2"
_cell_formula_units_Z 11
_cell_length_a 9.151917
_cell_length_b 9.116004
_cell_length_c 6.876008
_cell_angle_alpha 51.924845
_cell_angle_beta 89.961514
_cell_angle_gamma 79.142755
_cell_volume 438.524918
_symmetry_space_group_name_H-M "P -1"
_symmetry_group_IT_number 2
_symmetry_cell_setting 'triclinic'
loop_
_space_group_symop_operation_xyz
x,y,z
-x,-y,-z
loop_
_atom_site_type_symbol
_atom_site_label
_atom_site_fract_x
_atom_site_fract_y
_atom_site_fract_z
Si Si1 0.211514 0.692221 0.072845
Si Si2 0.796048 0.198706 0.441437
Si Si3 0.541101 0.567843 0.156261
Si Si4 0.024430 0.274111 0.644695
Si Si5 0.241645 0.172649 0.034229
Si Si6 0.000000 0.500000 0.000000
O O1 0.378730 0.614203 0.218380
O O2 0.096958 0.787313 0.162270
O O3 0.148380 0.523075 0.112946
O O4 0.212490 0.822088 0.774348
O O5 0.678388 0.390824 0.354419
O O6 0.961425 0.239208 0.459190
O O7 0.759748 0.020902 0.695856
O O8 0.500000 0.500000 0.000000
O O9 0.606672 0.755586 0.007378
O O10 0.000000 0.500000 0.500000
O O11 0.187819 0.174304 0.807429
O O12 0.109794 0.332236 0.005462
#
# Coordination Sequence:
#
# PCOD9079955 Si02
#       6
#     2   2   2   2   2   1
#     4  10  22  40  67  93 127 169 217 253 327 379
#     4  11  22  41  68  94 131 168 212 271 309 381
#     4  10  20  41  63  94 131 168 211 262 321 378
#     4  11  22  42  68  93 130 173 211 265 320 376
#     4  11  22  39  67  94 131 166 220 261 320 379
#     4  10  18  38  58  90 120 164 204 256 306 370
#
# _framework density 25.084094
#
# number of rings (size 3 to 8) (size 9 to 14) (size 15 to 20)
#    0.000    1.455    5.455    1.636    0.000    6.545 
#    0.000    2.727    0.000    0.000    0.000    0.000 
#    0.000    0.000    0.000    0.000    0.000    0.000 
#
# Total GULP energy -61319.034373 kJ/mol
# GULP energy per Si atom -5574.457670 kJ/mol
# Density = 2.502700 g / cm^3
# Si number density = 25.084094 Si / 1000 Ang^3
#
#
#
# Elastic Constant Matrix: (Units=GPa)
#
#
# Indices 1 2 3 4 5 6 
#
# 1 154.5864 27.3421 17.5822 -6.3060 6.1043 31.3382
# 2 27.3421 70.9341 26.9957 5.1755 -8.4826 18.4290
# 3 17.5822 26.9957 100.4276 -6.1841 -0.2375 13.9544
# 4 -6.3060 5.1755 -6.1841 52.2082 7.3694 -11.5088
# 5 6.1043 -8.4826 -0.2375 7.3694 18.6632 2.4830
# 6 31.3382 18.4290 13.9544 -11.5088 2.4830 37.4025
#
#
#
# Elastic Compliance Matrix: (Units=1/GPa)
#
#
# Indices 1 2 3 4 5 6 
#
# 1 0.008073 -0.002071 -0.000091 0.000411 -0.003029 -0.005382
# 2 -0.002071 0.021583 -0.004397 -0.007297 0.014707 -0.010480
# 3 -0.000091 -0.004397 0.011444 0.001827 -0.002371 -0.001307
# 4 0.000411 -0.007297 0.001827 0.024665 -0.014648 0.011131
# 5 -0.003029 0.014707 -0.002371 -0.014648 0.068726 -0.012894
# 6 -0.005382 -0.010480 -0.001307 0.011131 -0.012894 0.041178
#
#
# Mechanical properties :
#
#
# Convention : Reuss Voigt Hill
#
# Bulk Modulus (GPa) = 35.73756 52.19866 43.96811
# Shear Modulus (GPa) = 25.23782 38.58997 31.91389
#
# Velocity S-wave (km/s) = 3.17539 3.92653 3.57077
# Velocity P-wave (km/s) = 5.26519 6.43518 5.87936
#
# Compressibility (1/GPa) = 0.02798176
#
# Stress axis : x y z
#
# Youngs Moduli (GPa) = 123.86969 46.33178 87.38269
#
# Poissons Ratio (x) = 0.09596 0.00792
# Poissons Ratio (y) = 0.25656 0.38427
# Poissons Ratio (z) = 0.01123 0.20374
#
# Static dielectric constant tensor:
#      x y z
#    x 2.007690 -0.072830 0.021330 
#    y -0.072830 2.103350 0.471570 
#    z 0.021330 0.471570 2.462940 
# 
# From -- ./inp_files/160593.got.cif
#   From: 2010.05.17/outbox.cif.g08.bks.cpg/sg2_81_cif.got.tgz:160593.got - 2010.06.03 11:33:40.
