data_PCOD9079627
_publ_section_title
;
Structure prediction by ZEFSAII (Michael W. Deem and Ramdas Pophale) SiO2 
 PCOD9079627
Probable space group: P -1
;
_chemical_formula_sum "Si O2"
_cell_formula_units_Z 16
_cell_length_a 8.726233
_cell_length_b 20.750481
_cell_length_c 9.147725
_cell_angle_alpha 45.969049
_cell_angle_beta 60.809528
_cell_angle_gamma 36.774500
_cell_volume 703.727946
_symmetry_space_group_name_H-M "P -1"
_symmetry_group_IT_number 2
_symmetry_cell_setting 'triclinic'
loop_
_space_group_symop_operation_xyz
x,y,z
-x,-y,-z
loop_
_atom_site_type_symbol
_atom_site_label
_atom_site_fract_x
_atom_site_fract_y
_atom_site_fract_z
Si Si1 0.495187 0.557582 0.559503
Si Si2 0.319606 0.359911 0.228949
Si Si3 0.708840 0.646085 0.411891
Si Si4 0.731801 0.880793 0.727526
Si Si5 0.016581 0.276904 0.860079
Si Si6 0.037911 0.632285 0.788332
Si Si7 0.720918 0.078117 0.446675
Si Si8 0.366366 0.083942 0.782807
O O1 0.500000 0.500000 0.500000
O O2 0.545337 0.644553 0.383672
O O3 0.228769 0.636907 0.637897
O O4 0.735012 0.426699 0.748684
O O5 0.382427 0.337990 0.405516
O O6 0.565625 0.225871 0.238512
O O7 0.086383 0.378554 0.268140
O O8 0.207524 0.497716 0.014156
O O9 0.759613 0.730288 0.220461
O O10 0.000000 0.500000 0.500000
O O11 0.811926 0.768381 0.766728
O O12 0.752972 0.973467 0.505333
O O13 0.447177 0.986584 0.769052
O O14 0.932714 0.801926 0.896673
O O15 0.079620 0.209515 0.778209
O O16 0.523662 0.112004 0.608930
O O17 0.000000 0.000000 0.500000
O O18 0.500000 0.000000 0.000000
#
# Coordination Sequence:
#
# PCOD9079627 Si02
#       8
#     2   2   2   2   2   2   2   2
#     4  11  25  36  58  88 124 163 206 258 313 377
#     4  11  24  40  61  89 125 168 197 260 314 368
#     4  10  19  34  59  83 118 157 203 248 301 369
#     4   9  21  36  62  94 117 169 205 255 309 368
#     4  10  18  37  62  88 121 165 212 248 307 373
#     4  11  24  40  60  93 131 157 208 262 318 367
#     4  10  22  37  62  89 126 159 217 252 307 369
#     4   8  17  34  60  85 117 155 204 248 297 365
#
# _framework density 22.736059000000001
#
# number of rings (size 3 to 8) (size 9 to 14) (size 15 to 20)
#    0.750    1.250    1.250    3.000    3.500    2.500 
#    0.000    0.000    0.000    0.000    0.000    8.750 
#    0.000    0.000    0.000    0.000    0.000    0.000 
#
# Total GULP energy -89121.027192 kJ/mol
# GULP energy per Si atom -5570.064199 kJ/mol
# Density = 2.268431 g / cm^3
# Si number density = 22.736059 Si / 1000 Ang^3
#
#
#
# Elastic Constant Matrix: (Units=GPa)
#
#
# Indices 1 2 3 4 5 6 
#
# 1 76.5924 16.3857 21.7929 3.4103 -1.2554 20.4711
# 2 16.3857 104.9771 16.4814 -15.7207 -4.9940 22.2895
# 3 21.7929 16.4814 57.3804 -17.6142 3.1590 9.6210
# 4 3.4103 -15.7207 -17.6142 36.0934 2.7506 -2.6557
# 5 -1.2554 -4.9940 3.1590 2.7506 22.2156 -3.4790
# 6 20.4711 22.2895 9.6210 -2.6557 -3.4790 38.1893
#
#
#
# Elastic Compliance Matrix: (Units=1/GPa)
#
#
# Indices 1 2 3 4 5 6 
#
# 1 0.017557 -0.000912 -0.007148 -0.006195 0.001415 -0.007380
# 2 -0.000912 0.011713 -0.000816 0.004271 0.001272 -0.005729
# 3 -0.007148 -0.000816 0.024910 0.012812 -0.005970 -0.001620
# 4 -0.006195 0.004271 0.012812 0.036821 -0.005829 -0.000370
# 5 0.001415 0.001272 -0.005970 -0.005829 0.047565 0.003931
# 6 -0.007380 -0.005729 -0.001620 -0.000370 0.003931 0.034226
#
#
# Mechanical properties :
#
#
# Convention : Reuss Voigt Hill
#
# Bulk Modulus (GPa) = 27.45215 38.69666 33.07441
# Shear Modulus (GPa) = 24.66856 31.58564 28.12710
#
# Velocity S-wave (km/s) = 3.29750 3.73128 3.52108
# Velocity P-wave (km/s) = 5.15738 5.96827 5.57758
#
# Compressibility (1/GPa) = 0.03642702
#
# Stress axis : x y z
#
# Youngs Moduli (GPa) = 56.95864 85.37611 40.14404
#
# Poissons Ratio (x) = 0.07783 0.28696
# Poissons Ratio (y) = 0.05192 0.03278
# Poissons Ratio (z) = 0.40716 0.06971
#
# Static dielectric constant tensor:
#      x y z
#    x 1.877420 0.043800 -0.041320 
#    y 0.043800 1.904240 -0.092850 
#    z -0.041320 -0.092850 1.824110 
# 
# From -- ./inp_files/221795.got.cif
#   From: 2010.05.17/outbox.cif.g08.bks.cpg/sg2_111_cif.got.tgz:221795.got - 2010.06.03 11:33:40.
