data_PCOD9079934
_publ_section_title
;
Structure prediction by ZEFSAII (Michael W. Deem and Ramdas Pophale) SiO2 
 PCOD9079934
Probable space group: P -1
;
_chemical_formula_sum "Si O2"
_cell_formula_units_Z 16
_cell_length_a 15.414689
_cell_length_b 8.650052
_cell_length_c 14.750139
_cell_angle_alpha 52.078508
_cell_angle_beta 44.797041
_cell_angle_gamma 87.509358
_cell_volume 773.718278
_symmetry_space_group_name_H-M "P -1"
_symmetry_group_IT_number 2
_symmetry_cell_setting 'triclinic'
loop_
_space_group_symop_operation_xyz
x,y,z
-x,-y,-z
loop_
_atom_site_type_symbol
_atom_site_label
_atom_site_fract_x
_atom_site_fract_y
_atom_site_fract_z
Si Si1 0.675578 0.376298 0.040825
Si Si2 0.654452 0.684061 0.244675
Si Si3 0.355557 0.092786 0.515452
Si Si4 0.349676 0.246910 0.137114
Si Si5 0.455825 0.615443 0.240908
Si Si6 0.191804 0.853477 0.901368
Si Si7 0.370144 0.871885 0.325799
Si Si8 0.822731 0.477355 0.231669
O O1 0.809326 0.368519 0.981510
O O2 0.535244 0.261353 0.266644
O O3 0.557098 0.142678 0.133665
O O4 0.751173 0.669268 0.846419
O O5 0.500000 0.500000 0.500000
O O6 0.580069 0.688778 0.205602
O O7 0.745979 0.578077 0.201128
O O8 0.787438 0.979906 0.089403
O O9 0.353521 0.055394 0.638318
O O10 0.226777 0.783845 0.683508
O O11 0.317630 0.280201 0.459501
O O12 0.274399 0.970220 0.341059
O O13 0.500000 0.500000 0.000000
O O14 0.441567 0.269110 0.970530
O O15 0.386027 0.748500 0.272658
O O16 0.024961 0.720566 0.014566
O O17 0.272579 0.638858 0.558624
#
# Coordination Sequence:
#
# PCOD9079934 Si02
#       8
#     2   2   2   2   2   2   2   2
#     4   9  19  34  58  83 109 147 194 236 278 327
#     4  12  21  37  58  85 117 150 188 230 282 341
#     4  10  21  34  54  82 115 152 187 228 275 337
#     4   9  20  35  59  88 109 138 192 251 282 321
#     4  11  20  34  63  87 108 145 193 236 287 328
#     4  12  21  36  54  84 121 153 186 227 283 343
#     4  10  18  38  57  83 110 146 192 238 280 331
#     4  11  24  35  54  84 120 156 184 228 284 341
#
# _framework density 20.679361
#
# number of rings (size 3 to 8) (size 9 to 14) (size 15 to 20)
#    0.000    1.500    3.750    3.000    3.500    0.000 
#    0.000    0.625    0.000    0.750    0.000    0.000 
#    0.000    0.000    0.000    0.000    0.000    0.000 
#
# Total GULP energy -89279.514576 kJ/mol
# GULP energy per Si atom -5579.969661 kJ/mol
# Density = 2.063229 g / cm^3
# Si number density = 20.679361 Si / 1000 Ang^3
#
#
#
# Elastic Constant Matrix: (Units=GPa)
#
#
# Indices 1 2 3 4 5 6 
#
# 1 70.6814 11.1536 17.1379 -10.1998 2.2863 -15.0233
# 2 11.1536 113.3765 12.3458 -14.4825 -6.4997 3.4003
# 3 17.1379 12.3458 12.2218 -8.3176 -0.6774 -5.9915
# 4 -10.1998 -14.4825 -8.3176 19.7558 1.4350 15.5897
# 5 2.2863 -6.4997 -0.6774 1.4350 26.4049 -3.5740
# 6 -15.0233 3.4003 -5.9915 15.5897 -3.5740 45.7937
#
#
#
# Elastic Compliance Matrix: (Units=1/GPa)
#
#
# Indices 1 2 3 4 5 6 
#
# 1 0.022487 0.000464 -0.033783 -0.005946 -0.001725 0.004812
# 2 0.000464 0.010924 -0.008210 0.008164 0.001398 -0.004403
# 3 -0.033783 -0.008210 0.170735 0.053118 0.001572 -0.006095
# 4 -0.005946 0.008164 0.053118 0.100068 -0.005627 -0.030113
# 5 -0.001725 0.001398 0.001572 -0.005627 0.039323 0.004521
# 6 0.004812 -0.004403 -0.006095 -0.030113 0.004521 0.033549
#
#
# Mechanical properties :
#
#
# Convention : Reuss Voigt Hill
#
# Bulk Modulus (GPa) = 8.25855 30.83937 19.54896
# Shear Modulus (GPa) = 9.98987 28.76702 19.37845
#
# Velocity S-wave (km/s) = 2.20030 3.73379 3.06452
# Velocity P-wave (km/s) = 3.23379 5.79083 4.68994
#
# Compressibility (1/GPa) = 0.12108657
#
# Stress axis : x y z
#
# Youngs Moduli (GPa) = 44.47072 91.54488 5.85704
#
# Poissons Ratio (x) = -0.04246 0.19787
# Poissons Ratio (y) = -0.02063 0.04809
# Poissons Ratio (z) = 1.50236 0.75158
#
# Static dielectric constant tensor:
#      x y z
#    x 1.746790 -0.012050 0.017740 
#    y -0.012050 1.789180 -0.011550 
#    z 0.017740 -0.011550 1.767980 
# 
# From -- ./inp_files/170553.got.cif
#   From: 2010.05.17/outbox.cif.g08.bks.cpg/sg2_86_cif.got.tgz:170553.got - 2010.06.03 11:33:40.
