data_PCOD9079944
_publ_section_title
;
Structure prediction by ZEFSAII (Michael W. Deem and Ramdas Pophale) SiO2 
 PCOD9079944
Probable space group: P -1
;
_chemical_formula_sum "Si O2"
_cell_formula_units_Z 12
_cell_length_a 8.263432
_cell_length_b 14.109813
_cell_length_c 7.743817
_cell_angle_alpha 138.903717
_cell_angle_beta 60.162152
_cell_angle_gamma 101.123247
_cell_volume 487.879702
_symmetry_space_group_name_H-M "P -1"
_symmetry_group_IT_number 2
_symmetry_cell_setting 'triclinic'
loop_
_space_group_symop_operation_xyz
x,y,z
-x,-y,-z
loop_
_atom_site_type_symbol
_atom_site_label
_atom_site_fract_x
_atom_site_fract_y
_atom_site_fract_z
Si Si1 0.010070 0.175292 0.030539
Si Si2 0.555522 0.653300 0.646278
Si Si3 0.145812 0.796499 0.205903
Si Si4 0.261718 0.889134 0.624723
Si Si5 0.600824 0.623251 0.175461
Si Si6 0.049798 0.534303 0.733810
O O1 0.000204 0.124757 0.765858
O O2 0.209743 0.068474 0.864312
O O3 0.839579 0.143652 0.191593
O O4 0.957586 0.356360 0.278591
O O5 0.500000 0.500000 0.500000
O O6 0.572971 0.665499 0.449412
O O7 0.769195 0.620352 0.573148
O O8 0.366090 0.780348 0.998777
O O9 0.142536 0.841628 0.467122
O O10 0.111112 0.632042 0.989077
O O11 0.485185 0.780475 0.355264
O O12 0.500000 0.500000 0.000000
O O13 0.828268 0.550151 0.912706
#
# Coordination Sequence:
#
# PCOD9079944 Si02
#       6
#     2   2   2   2   2   2
#     4   9  21  39  64  87 124 155 200 243 291 362
#     4  10  18  38  58  84 124 154 194 248 298 354
#     4   9  19  39  61  89 120 158 191 243 301 351
#     4  11  20  38  66  90 116 164 197 238 304 354
#     4  12  23  37  60  91 118 161 205 249 299 347
#     4   9  21  39  59  87 127 155 197 250 293 356
#
# _framework density 24.596226999999999
#
# number of rings (size 3 to 8) (size 9 to 14) (size 15 to 20)
#    1.000    1.000    1.667    3.000    0.000    0.667 
#    0.000   16.667    0.000    3.000    0.000    0.000 
#    0.000    0.000    0.000    0.000    0.000    0.000 
#
# Total GULP energy -66965.474428 kJ/mol
# GULP energy per Si atom -5580.456202 kJ/mol
# Density = 2.454024 g / cm^3
# Si number density = 24.596227 Si / 1000 Ang^3
#
#
#
# Elastic Constant Matrix: (Units=GPa)
#
#
# Indices 1 2 3 4 5 6 
#
# 1 120.8202 36.8833 36.5054 7.3294 -33.4245 -8.9941
# 2 36.8833 95.7342 28.6834 7.5683 -12.7634 -25.8032
# 3 36.5054 28.6834 70.0149 -2.8566 -10.7393 3.0739
# 4 7.3294 7.5683 -2.8566 35.8253 -16.5539 -10.0100
# 5 -33.4245 -12.7634 -10.7393 -16.5539 54.1397 -1.0555
# 6 -8.9941 -25.8032 3.0739 -10.0100 -1.0555 40.4909
#
#
#
# Elastic Compliance Matrix: (Units=1/GPa)
#
#
# Indices 1 2 3 4 5 6 
#
# 1 0.012165 -0.001905 -0.004606 0.001227 0.006568 0.002313
# 2 -0.001905 0.015837 -0.005673 0.000228 0.001701 0.010201
# 3 -0.004606 -0.005673 0.019381 0.002248 0.000242 -0.005547
# 4 0.001227 0.000228 0.002248 0.036245 0.012526 0.009534
# 5 0.006568 0.001701 0.000242 0.012526 0.026928 0.006323
# 6 0.002313 0.010201 -0.005547 0.009534 0.006323 0.034654
#
#
# Mechanical properties :
#
#
# Convention : Reuss Voigt Hill
#
# Bulk Modulus (GPa) = 43.44930 54.52372 48.98651
# Shear Modulus (GPa) = 28.20901 38.39100 33.30001
#
# Velocity S-wave (km/s) = 3.39024 3.95504 3.68348
# Velocity P-wave (km/s) = 5.74703 6.56294 6.16849
#
# Compressibility (1/GPa) = 0.02301533
#
# Stress axis : x y z
#
# Youngs Moduli (GPa) = 82.20545 63.14284 51.59731
#
# Poissons Ratio (x) = 0.12026 0.23768
# Poissons Ratio (y) = 0.15657 0.29270
# Poissons Ratio (z) = 0.37867 0.35819
#
# Static dielectric constant tensor:
#      x y z
#    x 1.986380 0.012360 -0.016070 
#    y 0.012360 1.984140 0.138120 
#    z -0.016070 0.138120 2.026310 
# 
# From -- ./inp_files/194297.got.cif
#   From: 2010.05.17/outbox.cif.g08.bks.cpg/sg2_98_cif.got.tgz:194297.got - 2010.06.03 11:33:40.
