data_PCOD9079333
_publ_section_title
;
Structure prediction by ZEFSAII (Michael W. Deem and Ramdas Pophale) SiO2 
 PCOD9079333
Probable space group: P -1
;
_chemical_formula_sum "Si O2"
_cell_formula_units_Z 16
_cell_length_a 8.916760
_cell_length_b 8.432148
_cell_length_c 14.750097
_cell_angle_alpha 44.310703
_cell_angle_beta 81.182771
_cell_angle_gamma 74.867563
_cell_volume 746.918995
_symmetry_space_group_name_H-M "P -1"
_symmetry_group_IT_number 2
_symmetry_cell_setting 'triclinic'
loop_
_space_group_symop_operation_xyz
x,y,z
-x,-y,-z
loop_
_atom_site_type_symbol
_atom_site_label
_atom_site_fract_x
_atom_site_fract_y
_atom_site_fract_z
Si Si1 0.872167 0.099517 0.897476
Si Si2 0.126719 0.783984 0.353808
Si Si3 0.119513 0.075057 0.527477
Si Si4 0.352342 0.394400 0.583457
Si Si5 0.633531 0.399439 0.309691
Si Si6 0.692111 0.603083 0.715689
Si Si7 0.591504 0.938366 0.757138
Si Si8 0.377257 0.191141 0.989932
O O1 0.920328 0.176769 0.762441
O O2 0.759260 0.336759 0.845899
O O3 0.780505 0.898543 0.968958
O O4 0.000000 0.000000 0.000000
O O5 0.209294 0.521462 0.483176
O O6 0.977432 0.870759 0.394092
O O7 0.264542 0.926216 0.303065
O O8 0.180222 0.287058 0.391221
O O9 0.264403 0.856224 0.608805
O O10 0.000000 0.000000 0.500000
O O11 0.500000 0.500000 0.500000
O O12 0.314472 0.476414 0.657309
O O13 0.427602 0.121488 0.681764
O O14 0.453170 0.390719 0.340142
O O15 0.638746 0.561472 0.156468
O O16 0.631273 0.761463 0.743142
O O17 0.581238 0.819809 0.903751
O O18 0.500000 0.000000 0.000000
#
# Coordination Sequence:
#
# PCOD9079333 Si02
#       8
#     2   2   2   2   2   2   2   2
#     4  11  27  47  71  98 138 175 226 289 334 399
#     4  10  22  44  66  97 136 183 225 266 351 409
#     4  12  24  42  68 103 139 176 222 283 343 395
#     4  10  18  36  67  94 128 182 221 264 339 402
#     4  12  24  42  70  98 138 180 225 281 331 400
#     4  12  25  44  66 104 140 171 230 286 334 395
#     4  10  21  39  70  98 137 178 225 278 334 400
#     4  11  22  46  69  95 132 186 229 263 338 413
#
# _framework density 21.421333000000001
#
# number of rings (size 3 to 8) (size 9 to 14) (size 15 to 20)
#    0.000    1.000    5.000    2.625    1.750    3.000 
#    2.250    3.750    0.000    0.000    0.000    0.000 
#    0.000    0.000    0.000    0.000    0.000    0.000 
#
# Total GULP energy -89514.091919 kJ/mol
# GULP energy per Si atom -5594.630745 kJ/mol
# Density = 2.137258 g / cm^3
# Si number density = 21.421333 Si / 1000 Ang^3
#
#
#
# Elastic Constant Matrix: (Units=GPa)
#
#
# Indices 1 2 3 4 5 6 
#
# 1 78.0071 18.0205 40.2212 -0.2275 19.0198 -2.4998
# 2 18.0205 107.7301 20.6319 20.9277 15.7786 -1.6937
# 3 40.2212 20.6319 95.5602 12.1726 12.4646 4.5868
# 4 -0.2275 20.9277 12.1726 43.3819 -1.4796 1.8220
# 5 19.0198 15.7786 12.4646 -1.4796 42.3655 -3.0486
# 6 -2.4998 -1.6937 4.5868 1.8220 -3.0486 32.0834
#
#
#
# Elastic Compliance Matrix: (Units=1/GPa)
#
#
# Indices 1 2 3 4 5 6 
#
# 1 0.018126 -0.001353 -0.007034 0.002468 -0.005356 0.001698
# 2 -0.001353 0.011211 -0.000740 -0.005351 -0.003496 0.000564
# 3 -0.007034 -0.000740 0.014310 -0.003626 -0.001085 -0.002530
# 4 0.002468 -0.005351 -0.003626 0.026794 0.002828 -0.000825
# 5 -0.005356 -0.003496 -0.001085 0.002828 0.027876 0.002041
# 6 0.001698 0.000564 -0.002530 -0.000825 0.002041 0.031933
#
#
# Mechanical properties :
#
#
# Convention : Reuss Voigt Hill
#
# Bulk Modulus (GPa) = 39.38332 48.78275 44.08303
# Shear Modulus (GPa) = 31.85320 37.06107 34.45713
#
# Velocity S-wave (km/s) = 3.86033 4.16396 4.01502
# Velocity P-wave (km/s) = 6.18826 6.77794 6.48980
#
# Compressibility (1/GPa) = 0.02539146
#
# Stress axis : x y z
#
# Youngs Moduli (GPa) = 55.16801 89.19846 69.88067
#
# Poissons Ratio (x) = 0.12070 0.49157
# Poissons Ratio (y) = 0.07465 0.05174
# Poissons Ratio (z) = 0.38808 0.06604
#
# Static dielectric constant tensor:
#      x y z
#    x 1.795450 0.005360 -0.014870 
#    y 0.005360 1.804040 0.009270 
#    z -0.014870 0.009270 1.757850 
# 
# From -- ./inp_files/494249.got.cif
#   From: 2010.05.17/outbox.cif.g08.bks.cpg/sg2_248_cif.got.tgz:494249.got - 2010.06.03 11:33:40.
