data_PCOD9079815
_publ_section_title
;
Structure prediction by ZEFSAII (Michael W. Deem and Ramdas Pophale) SiO2 
 PCOD9079815
Probable space group: P -1
;
_chemical_formula_sum "Si O2"
_cell_formula_units_Z 16
_cell_length_a 15.696803
_cell_length_b 8.773240
_cell_length_c 5.851177
_cell_angle_alpha 66.266056
_cell_angle_beta 109.427082
_cell_angle_gamma 78.155626
_cell_volume 639.712189
_symmetry_space_group_name_H-M "P -1"
_symmetry_group_IT_number 2
_symmetry_cell_setting 'triclinic'
loop_
_space_group_symop_operation_xyz
x,y,z
-x,-y,-z
loop_
_atom_site_type_symbol
_atom_site_label
_atom_site_fract_x
_atom_site_fract_y
_atom_site_fract_z
Si Si1 0.478211 0.145245 0.700137
Si Si2 0.167311 0.059563 0.894723
Si Si3 0.909848 0.187904 0.245511
Si Si4 0.726722 0.452073 0.168596
Si Si5 0.665187 0.882816 0.780642
Si Si6 0.841500 0.647822 0.626636
Si Si7 0.984003 0.663323 0.122265
Si Si8 0.671872 0.489576 0.590746
O O1 0.387415 0.134054 0.485792
O O2 0.436224 0.349382 0.624944
O O3 0.579048 0.059155 0.705909
O O4 0.500000 0.000000 0.000000
O O5 0.243077 0.062111 0.152624
O O6 0.060761 0.183000 0.824637
O O7 0.192303 0.156156 0.638380
O O8 0.164695 0.872419 0.931651
O O9 0.841454 0.321912 0.297571
O O10 0.960795 0.276776 0.064975
O O11 0.000000 0.000000 0.500000
O O12 0.692836 0.396288 0.413546
O O13 0.700449 0.672419 0.034182
O O14 0.673962 0.431834 0.896190
O O15 0.894875 0.640359 0.920471
O O16 0.759616 0.566499 0.624820
O O17 0.929523 0.522369 0.614199
#
# Coordination Sequence:
#
# PCOD9079815 Si02
#       8
#     2   2   2   2   2   2   2   2
#     4  10  18  37  66 104 127 159 215 289 342 403
#     4  12  24  40  63  96 133 174 225 289 333 397
#     4  12  27  43  60  92 139 189 232 271 336 398
#     4  11  23  42  64  96 131 180 228 271 334 404
#     4  10  22  37  67 100 130 168 222 281 341 403
#     4  11  22  37  63  99 125 170 229 292 323 394
#     4  11  24  40  62  90 129 183 232 279 335 400
#     4  11  22  38  71  97 133 168 223 284 341 401
#
# _framework density 25.01125
#
# number of rings (size 3 to 8) (size 9 to 14) (size 15 to 20)
#    0.000    1.000    5.000    2.250    3.500    1.000 
#    0.000    0.000    0.000    7.500    0.000    0.000 
#    0.000    0.000    0.000    0.000    0.000    0.000 
#
# Total GULP energy -89249.293223 kJ/mol
# GULP energy per Si atom -5578.080826 kJ/mol
# Density = 2.495432 g / cm^3
# Si number density = 25.011250 Si / 1000 Ang^3
#
#
#
# Elastic Constant Matrix: (Units=GPa)
#
#
# Indices 1 2 3 4 5 6 
#
# 1 -383.3761 -13.2233 486.8371 346.5085 66.5904 238.2665
# 2 -13.2233 110.9317 83.8646 49.2944 11.7649 -0.5971
# 3 486.8371 83.8646 -410.4247 -371.7160 -50.2941 -295.0441
# 4 346.5085 49.2944 -371.7160 -241.0766 -52.7386 -205.1575
# 5 66.5904 11.7649 -50.2941 -52.7386 28.8850 -34.0490
# 6 238.2665 -0.5971 -295.0441 -205.1575 -34.0490 -102.6877
#
#
#
# Elastic Compliance Matrix: (Units=1/GPa)
#
#
# Indices 1 2 3 4 5 6 
#
# 1 0.018121 -0.005395 0.004608 0.009751 -0.001957 0.010006
# 2 -0.005395 0.012389 -0.002569 -0.004475 -0.000613 0.003936
# 3 0.004608 -0.002569 0.008632 -0.006322 -0.005619 0.000399
# 4 0.009751 -0.004475 -0.006322 0.022607 0.003223 -0.005420
# 5 -0.001957 -0.000613 -0.005619 0.003223 0.029891 -0.004743
# 6 0.010006 0.003936 0.000399 -0.005420 -0.004743 0.024712
#
#
# Mechanical properties :
#
#
# Convention : Reuss Voigt Hill
#
# Bulk Modulus (GPa) = 30.83661 48.00974 39.42318
# Shear Modulus (GPa) = 37.34857 -145.66568 -54.15855
#
# Velocity S-wave (km/s) = 3.86848 -7.63980 -4.65840
# Velocity P-wave (km/s) = 5.68413 7.65409 3.62462
#
# Compressibility (1/GPa) = 0.03242899
#
# Stress axis : x y z
#
# Youngs Moduli (GPa) = 55.18499 80.71940 115.84676
#
# Poissons Ratio (x) = 0.43548 -0.53381
# Poissons Ratio (y) = 0.29772 0.29763
# Poissons Ratio (z) = -0.25429 0.20738
#
# Static dielectric constant tensor:
#      x y z
#    x 1.889760 0.001960 0.027740 
#    y 0.001960 2.045600 -0.078240 
#    z 0.027740 -0.078240 2.097860 
# 
# From -- ./inp_files/106546.got.cif
#   From: 2010.05.17/outbox.cif.g08.bks.cpg/sg2_54_cif.got.tgz:106546.got - 2010.06.03 11:33:40.
