data_PCOD9079998
_publ_section_title
;
Structure prediction by ZEFSAII (Michael W. Deem and Ramdas Pophale) SiO2 
 PCOD9079998
Probable space group: P -1
;
_chemical_formula_sum "Si O2"
_cell_formula_units_Z 15
_cell_length_a 7.561322
_cell_length_b 16.607557
_cell_length_c 12.667649
_cell_angle_alpha 132.219409
_cell_angle_beta 148.125283
_cell_angle_gamma 51.839200
_cell_volume 617.540697
_symmetry_space_group_name_H-M "P -1"
_symmetry_group_IT_number 2
_symmetry_cell_setting 'triclinic'
loop_
_space_group_symop_operation_xyz
x,y,z
-x,-y,-z
loop_
_atom_site_type_symbol
_atom_site_label
_atom_site_fract_x
_atom_site_fract_y
_atom_site_fract_z
Si Si1 0.507380 0.098293 0.852874
Si Si2 0.835665 0.504765 0.304856
Si Si3 0.186633 0.978529 0.749021
Si Si4 0.187604 0.082908 0.311910
Si Si5 0.635312 0.274074 0.718613
Si Si6 0.415378 0.743789 0.559471
Si Si7 0.818123 0.265451 0.028955
Si Si8 0.500000 0.500000 0.500000
O O1 0.198642 0.066389 0.738678
O O2 0.617439 0.991113 0.744069
O O3 0.536807 0.195862 0.871705
O O4 0.810477 0.113945 0.101546
O O5 0.545405 0.604479 0.245297
O O6 0.703673 0.390397 0.111196
O O7 0.000000 0.500000 0.500000
O O8 0.132074 0.518135 0.385388
O O9 0.243701 0.854067 0.625180
O O10 0.869087 0.985734 0.671544
O O11 0.500000 0.000000 0.000000
O O12 0.363505 0.189083 0.516915
O O13 0.747372 0.271627 0.651571
O O14 0.879473 0.250223 0.921125
O O15 0.439347 0.630182 0.535716
O O16 0.808882 0.763734 0.758596
#
# Coordination Sequence:
#
# PCOD9079998 Si02
#       8
#     2   2   2   2   2   2   2   1
#     4  10  18  38  60  92 123 163 210 249 307 365
#     4  11  21  43  68  91 122 165 203 255 311 365
#     4  10  20  35  68  90 121 167 210 252 306 365
#     4  10  19  36  66  89 120 167 205 254 307 363
#     4  12  22  40  67  91 126 166 202 255 313 367
#     4  11  21  43  62  93 123 165 206 255 312 362
#     4  11  23  37  66  94 123 165 208 249 308 372
#     4  10  22  38  74  90 116 164 206 250 312 364
#
# _framework density 24.289895999999999
#
# number of rings (size 3 to 8) (size 9 to 14) (size 15 to 20)
#    0.000    1.333    5.333    2.800    0.000    1.600 
#    0.000    3.333   20.533    0.000    0.000    0.000 
#    0.000    0.000    0.000    0.000    0.000    0.000 
#
# Total GULP energy -83697.656366 kJ/mol
# GULP energy per Si atom -5579.843758 kJ/mol
# Density = 2.423461 g / cm^3
# Si number density = 24.289896 Si / 1000 Ang^3
#
#
#
# Elastic Constant Matrix: (Units=GPa)
#
#
# Indices 1 2 3 4 5 6 
#
# 1 92.1386 43.2270 3.9170 11.1631 -0.6449 24.5183
# 2 43.2270 129.5537 41.7005 19.5721 -11.4160 17.8334
# 3 3.9170 41.7005 100.8067 6.1788 -20.4488 11.5091
# 4 11.1631 19.5721 6.1788 34.1015 -1.1638 -0.9625
# 5 -0.6449 -11.4160 -20.4488 -1.1638 32.0716 9.4012
# 6 24.5183 17.8334 11.5091 -0.9625 9.4012 45.8746
#
#
#
# Elastic Compliance Matrix: (Units=1/GPa)
#
#
# Indices 1 2 3 4 5 6 
#
# 1 0.015175 -0.004150 0.002783 -0.003216 0.002782 -0.007833
# 2 -0.004150 0.011384 -0.003663 -0.004494 0.001995 -0.001792
# 3 0.002783 -0.003663 0.013877 -0.001164 0.009154 -0.005445
# 4 -0.003216 -0.004494 -0.001164 0.033217 -0.002667 0.005002
# 5 0.002782 0.001995 0.009154 -0.002667 0.041534 -0.013126
# 6 -0.007833 -0.001792 -0.005445 0.005002 -0.013126 0.030843
#
#
# Mechanical properties :
#
#
# Convention : Reuss Voigt Hill
#
# Bulk Modulus (GPa) = 32.92109 55.57643 44.24876
# Shear Modulus (GPa) = 30.08132 37.98650 34.03391
#
# Velocity S-wave (km/s) = 3.52295 3.95888 3.74726
# Velocity P-wave (km/s) = 5.48918 6.62021 6.08105
#
# Compressibility (1/GPa) = 0.03037567
#
# Stress axis : x y z
#
# Youngs Moduli (GPa) = 65.89622 87.84334 72.06125
#
# Poissons Ratio (x) = 0.36454 -0.20053
# Poissons Ratio (y) = 0.27346 0.26397
# Poissons Ratio (z) = -0.18337 0.32179
#
# Static dielectric constant tensor:
#      x y z
#    x 1.924800 0.031750 -0.022090 
#    y 0.031750 1.985790 -0.059770 
#    z -0.022090 -0.059770 1.935470 
# 
# From -- ./inp_files/396477.got.cif
#   From: 2010.05.17/outbox.cif.g08.bks.cpg/sg2_199_cif.got.tgz:396477.got - 2010.06.03 11:33:40.
