data_PCOD9079813
_publ_section_title
;
Structure prediction by ZEFSAII (Michael W. Deem and Ramdas Pophale) SiO2 
 PCOD9079813
Probable space group: P -1
;
_chemical_formula_sum "Si O2"
_cell_formula_units_Z 14
_cell_length_a 6.754595
_cell_length_b 16.040400
_cell_length_c 14.260980
_cell_angle_alpha 154.226212
_cell_angle_beta 52.750955
_cell_angle_gamma 130.530678
_cell_volume 509.702412
_symmetry_space_group_name_H-M "P -1"
_symmetry_group_IT_number 2
_symmetry_cell_setting 'triclinic'
loop_
_space_group_symop_operation_xyz
x,y,z
-x,-y,-z
loop_
_atom_site_type_symbol
_atom_site_label
_atom_site_fract_x
_atom_site_fract_y
_atom_site_fract_z
Si Si1 0.905830 0.715851 0.379270
Si Si2 0.689005 0.353186 0.472684
Si Si3 0.690409 0.785100 0.323987
Si Si4 0.353618 0.666809 0.737975
Si Si5 0.778622 0.807520 0.906277
Si Si6 0.163827 0.427753 0.089704
Si Si7 0.268807 0.939635 0.665031
O O1 0.601755 0.633683 0.408098
O O2 0.889683 0.804579 0.371688
O O3 0.056614 0.550642 0.165661
O O4 0.039341 0.848670 0.565204
O O5 0.655769 0.241186 0.268237
O O6 0.752147 0.220983 0.405201
O O7 0.163574 0.405907 0.335925
O O8 0.446805 0.574081 0.187049
O O9 0.537468 0.948597 0.545637
O O10 0.808577 0.764338 0.168053
O O11 0.500000 0.500000 0.500000
O O12 0.529949 0.790495 0.895111
O O13 0.062436 0.602058 0.798283
O O14 0.729576 0.857284 0.077863
O O15 0.000000 0.000000 0.000000
#
# Coordination Sequence:
#
# PCOD9079813 Si02
#       7
#     2   2   2   2   2   2   2
#     4  10  18  40  64  92 135 172 220 271 325 391
#     4  10  22  42  66  98 131 175 220 270 343 382
#     4   9  21  35  65 102 126 177 223 269 333 389
#     4  10  20  39  66  95 131 176 218 276 336 390
#     4  11  23  39  64 100 135 173 223 273 328 400
#     4  10  18  37  65  99 130 169 229 272 326 401
#     4  10  23  41  66  97 137 173 220 274 323 403
#
# _framework density 27.467006999999999
#
# number of rings (size 3 to 8) (size 9 to 14) (size 15 to 20)
#    0.000    2.000    2.857    1.286    6.000    1.143 
#    2.571    5.000    0.000    0.857    0.000    0.000 
#    0.000    0.000    0.000    0.000    0.000    0.000 
#
# Total GULP energy -78392.604647 kJ/mol
# GULP energy per Si atom -5599.471761 kJ/mol
# Density = 2.740449 g / cm^3
# Si number density = 27.467007 Si / 1000 Ang^3
#
#
#
# Elastic Constant Matrix: (Units=GPa)
#
#
# Indices 1 2 3 4 5 6 
#
# 1 161.8482 39.6366 39.0001 1.7441 23.4099 -19.0698
# 2 39.6366 126.7480 40.0932 -9.9165 -4.0262 -9.3206
# 3 39.0001 40.0932 159.9123 -32.4255 -10.9879 -11.8043
# 4 1.7441 -9.9165 -32.4255 58.1404 -10.0358 2.0374
# 5 23.4099 -4.0262 -10.9879 -10.0358 50.6334 -8.8146
# 6 -19.0698 -9.3206 -11.8043 2.0374 -8.8146 36.7399
#
#
#
# Elastic Compliance Matrix: (Units=1/GPa)
#
#
# Indices 1 2 3 4 5 6 
#
# 1 0.008138 -0.002061 -0.002171 -0.002667 -0.004568 0.002056
# 2 -0.002061 0.009200 -0.001357 0.001147 0.001827 0.001203
# 3 -0.002171 -0.001357 0.008632 0.005297 0.004169 0.002009
# 4 -0.002667 0.001147 0.005297 0.021590 0.006940 0.001076
# 5 -0.004568 0.001827 0.004169 0.006940 0.025173 0.005086
# 6 0.002056 0.001203 0.002009 0.001076 0.005086 0.030396
#
#
# Mechanical properties :
#
#
# Convention : Reuss Voigt Hill
#
# Bulk Modulus (GPa) = 67.60425 76.21871 71.91148
# Shear Modulus (GPa) = 41.93319 51.08798 46.51059
#
# Velocity S-wave (km/s) = 3.91151 4.31742 4.11947
# Velocity P-wave (km/s) = 6.71313 7.25692 6.99032
#
# Compressibility (1/GPa) = 0.01479197
#
# Stress axis : x y z
#
# Youngs Moduli (GPa) = 122.87726 108.70018 115.84929
#
# Poissons Ratio (x) = 0.22401 0.25151
# Poissons Ratio (y) = 0.25323 0.15721
# Poissons Ratio (z) = 0.26677 0.14750
#
# Static dielectric constant tensor:
#      x y z
#    x 2.120460 0.002740 -0.021090 
#    y 0.002740 2.280670 0.041810 
#    z -0.021090 0.041810 2.170530 
# 
# From -- ./inp_files/484449.got.cif
#   From: 2010.05.17/outbox.cif.g08.bks.cpg/sg2_243_cif.got.tgz:484449.got - 2010.06.03 11:33:40.
