data_PCOD9079877
_publ_section_title
;
Structure prediction by ZEFSAII (Michael W. Deem and Ramdas Pophale) SiO2 
 PCOD9079877
Probable space group: P -1
;
_chemical_formula_sum "Si O2"
_cell_formula_units_Z 14
_cell_length_a 12.655213
_cell_length_b 8.834392
_cell_length_c 14.622876
_cell_angle_alpha 85.525108
_cell_angle_beta 41.732937
_cell_angle_gamma 51.051743
_cell_volume 554.541046
_symmetry_space_group_name_H-M "P -1"
_symmetry_group_IT_number 2
_symmetry_cell_setting 'triclinic'
loop_
_space_group_symop_operation_xyz
x,y,z
-x,-y,-z
loop_
_atom_site_type_symbol
_atom_site_label
_atom_site_fract_x
_atom_site_fract_y
_atom_site_fract_z
Si Si1 0.303036 0.114420 0.747826
Si Si2 0.488480 0.857115 0.958248
Si Si3 0.685602 0.549408 0.246793
Si Si4 0.529571 0.474451 0.189093
Si Si5 0.967722 0.098338 0.219430
Si Si6 0.058385 0.697475 0.200406
Si Si7 0.715290 0.636984 0.640405
O O1 0.415293 0.194343 0.685189
O O2 0.161694 0.207126 0.733748
O O3 0.585086 0.777137 0.616981
O O4 0.010018 0.312201 0.992077
O O5 0.467435 0.905392 0.861580
O O6 0.804636 0.508455 0.794850
O O7 0.500000 0.000000 0.000000
O O8 0.191219 0.994697 0.153241
O O9 0.507533 0.583589 0.291231
O O10 0.741929 0.409350 0.310210
O O11 0.270031 0.557288 0.345912
O O12 0.614478 0.526222 0.053117
O O13 0.842083 0.115278 0.985621
O O14 0.898758 0.989746 0.310544
O O15 0.000000 0.500000 0.500000
#
# Coordination Sequence:
#
# PCOD9079877 Si02
#       7
#     2   2   2   2   2   2   2
#     4  10  18  30  53  81 108 139 178 227 273 309
#     4  11  21  33  54  84 112 137 180 232 273 304
#     4  10  15  27  53  83 107 127 181 242 265 297
#     4   8  17  29  52  76 109 133 183 216 274 304
#     4   9  16  27  47  78 109 128 171 221 281 303
#     4   9  18  31  55  84 105 136 180 237 270 306
#     4  11  23  38  53  77 116 153 177 208 269 344
#
# _framework density 25.246103999999999
#
# number of rings (size 3 to 8) (size 9 to 14) (size 15 to 20)
#    0.857    1.429    2.857    2.571    4.000    0.000 
#    0.000    1.429    0.000    0.000    0.000    4.000 
#    0.000    0.000    0.000    0.000    0.000    0.000 
#
# Total GULP energy -78028.721525 kJ/mol
# GULP energy per Si atom -5573.480109 kJ/mol
# Density = 2.518864 g / cm^3
# Si number density = 25.246104 Si / 1000 Ang^3
#
#
#
# Elastic Constant Matrix: (Units=GPa)
#
#
# Indices 1 2 3 4 5 6 
#
# 1 171.6417 57.6862 32.9991 -8.4345 -40.6125 16.3676
# 2 57.6862 103.2527 22.0496 -0.1150 -12.4377 -3.4362
# 3 32.9991 22.0496 61.0745 -16.6976 -22.8585 6.7291
# 4 -8.4345 -0.1150 -16.6976 33.3146 14.3336 -13.6301
# 5 -40.6125 -12.4377 -22.8585 14.3336 36.2296 -9.7009
# 6 16.3676 -3.4362 6.7291 -13.6301 -9.7009 44.3170
#
#
#
# Elastic Compliance Matrix: (Units=1/GPa)
#
#
# Indices 1 2 3 4 5 6 
#
# 1 0.009746 -0.004236 -0.000726 -0.003108 0.009523 -0.002689
# 2 -0.004236 0.012683 -0.003408 -0.001129 -0.001455 0.002400
# 3 -0.000726 -0.003408 0.023846 0.007755 0.010265 0.001015
# 4 -0.003108 -0.001129 0.007755 0.042991 -0.013255 0.010204
# 5 0.009523 -0.001455 0.010265 -0.013255 0.049944 0.001667
# 6 -0.002689 0.002400 0.001015 0.010204 0.001667 0.027093
#
#
# Mechanical properties :
#
#
# Convention : Reuss Voigt Hill
#
# Bulk Modulus (GPa) = 33.85748 62.38207 48.11977
# Shear Modulus (GPa) = 25.92183 37.65451 31.78817
#
# Velocity S-wave (km/s) = 3.20779 3.86618 3.55227
# Velocity P-wave (km/s) = 5.21153 6.68529 5.99387
#
# Compressibility (1/GPa) = 0.02953557
#
# Stress axis : x y z
#
# Youngs Moduli (GPa) = 102.60441 78.84862 41.93494
#
# Poissons Ratio (x) = 0.33399 0.03045
# Poissons Ratio (y) = 0.43462 0.14290
# Poissons Ratio (z) = 0.07451 0.26870
#
# Static dielectric constant tensor:
#      x y z
#    x 1.921900 0.017360 0.026280 
#    y 0.017360 1.986130 -0.118730 
#    z 0.026280 -0.118730 2.309100 
# 
# From -- ./inp_files/414521.got.cif
#   From: 2010.05.17/outbox.cif.g08.bks.cpg/sg2_208_cif.got.tgz:414521.got - 2010.06.03 11:33:40.
