data_PCOD9079524
_publ_section_title
;
Structure prediction by ZEFSAII (Michael W. Deem and Ramdas Pophale) SiO2 
 PCOD9079524
Probable space group: P -1
;
_chemical_formula_sum "Si O2"
_cell_formula_units_Z 16
_cell_length_a 9.413863
_cell_length_b 11.867762
_cell_length_c 12.728410
_cell_angle_alpha 135.684257
_cell_angle_beta 55.585302
_cell_angle_gamma 103.531037
_cell_volume 782.919722
_symmetry_space_group_name_H-M "P -1"
_symmetry_group_IT_number 2
_symmetry_cell_setting 'triclinic'
loop_
_space_group_symop_operation_xyz
x,y,z
-x,-y,-z
loop_
_atom_site_type_symbol
_atom_site_label
_atom_site_fract_x
_atom_site_fract_y
_atom_site_fract_z
Si Si1 0.718168 0.631074 0.473215
Si Si2 0.364726 0.617440 0.492391
Si Si3 0.305809 0.137842 0.695449
Si Si4 0.077762 0.977123 0.832932
Si Si5 0.869826 0.779361 0.679546
Si Si6 0.972297 0.650468 0.195624
Si Si7 0.219919 0.456675 0.276388
Si Si8 0.320677 0.469716 0.013429
O O1 0.542187 0.643632 0.486186
O O2 0.724354 0.480675 0.451687
O O3 0.731619 0.784421 0.645343
O O4 0.876599 0.601931 0.304602
O O5 0.229410 0.798533 0.651469
O O6 0.377899 0.510114 0.308153
O O7 0.165955 0.182797 0.685367
O O8 0.500000 0.000000 0.500000
O O9 0.183657 0.095613 0.812625
O O10 0.350547 0.311034 0.818741
O O11 0.924658 0.944924 0.797751
O O12 0.000000 0.000000 0.000000
O O13 0.802701 0.704728 0.761232
O O14 0.046823 0.622913 0.471680
O O15 0.175568 0.634879 0.135704
O O16 0.000000 0.500000 0.000000
O O17 0.243003 0.420730 0.121504
O O18 0.500000 0.500000 0.000000
#
# Coordination Sequence:
#
# PCOD9079524 Si02
#       8
#     2   2   2   2   2   2   2   2
#     4  10  18  37  60  92 118 154 210 272 311 363
#     4   9  21  33  64  92 121 158 205 267 324 373
#     4  11  26  44  63  94 137 175 209 261 336 396
#     4  11  23  39  63  87 126 169 210 252 328 391
#     4   9  18  33  61  87 116 157 208 262 310 370
#     4  10  23  38  63  87 128 167 217 258 309 381
#     4   9  17  34  59  91 117 151 212 264 307 364
#     4  11  24  40  66  93 124 167 225 270 306 381
#
# _framework density 20.436319999999998
#
# number of rings (size 3 to 8) (size 9 to 14) (size 15 to 20)
#    0.000    2.000    1.250    2.250   10.500    0.000 
#    0.000    4.375    0.000    0.000    0.000    0.000 
#    0.000    0.000    0.000    0.000    0.000    0.000 
#
# Total GULP energy -89119.629585 kJ/mol
# GULP energy per Si atom -5569.976849 kJ/mol
# Density = 2.038981 g / cm^3
# Si number density = 20.436320 Si / 1000 Ang^3
#
#
#
# Elastic Constant Matrix: (Units=GPa)
#
#
# Indices 1 2 3 4 5 6 
#
# 1 150.4142 40.7364 19.2991 7.6557 -3.1995 -1.2866
# 2 40.7364 43.8097 30.7071 -7.0130 -6.8101 8.1610
# 3 19.2991 30.7071 42.2903 -8.2299 -0.9995 -4.6116
# 4 7.6557 -7.0130 -8.2299 25.6661 -2.1480 2.4112
# 5 -3.1995 -6.8101 -0.9995 -2.1480 25.5207 0.6112
# 6 -1.2866 8.1610 -4.6116 2.4112 0.6112 33.7072
#
#
#
# Elastic Compliance Matrix: (Units=1/GPa)
#
#
# Indices 1 2 3 4 5 6 
#
# 1 0.011021 -0.018677 0.007823 -0.006837 -0.004029 0.006575
# 2 -0.018677 0.094967 -0.060189 0.017293 0.022903 -0.033593
# 3 0.007823 -0.060189 0.065909 -0.001021 -0.013165 0.024200
# 4 -0.006837 0.017293 -0.001021 0.046815 0.007851 -0.008079
# 5 -0.004029 0.022903 -0.013165 0.007851 0.045148 -0.008880
# 6 0.006575 -0.033593 0.024200 -0.008079 -0.008880 0.042101
#
#
# Mechanical properties :
#
#
# Convention : Reuss Voigt Hill
#
# Bulk Modulus (GPa) = 33.54505 46.44440 39.99473
# Shear Modulus (GPa) = 10.91736 26.69689 18.80713
#
# Velocity S-wave (km/s) = 2.31381 3.61826 3.03690
# Velocity P-wave (km/s) = 4.85679 6.34283 5.64889
#
# Compressibility (1/GPa) = 0.02981065
#
# Stress axis : x y z
#
# Youngs Moduli (GPa) = 90.73221 10.52993 15.17249
#
# Poissons Ratio (x) = 0.19667 -0.11870
# Poissons Ratio (y) = 1.69465 0.91322
# Poissons Ratio (z) = -0.70984 0.63379
#
# Static dielectric constant tensor:
#      x y z
#    x 1.838690 0.031690 -0.005250 
#    y 0.031690 1.771350 -0.054200 
#    z -0.005250 -0.054200 1.748070 
# 
# From -- ./inp_files/393002.got.cif
#   From: 2010.05.17/outbox.cif.g08.bks.cpg/sg2_197_cif.got.tgz:393002.got - 2010.06.03 11:33:40.
