data_PCOD9079752
_publ_section_title
;
Structure prediction by ZEFSAII (Michael W. Deem and Ramdas Pophale) SiO2 
 PCOD9079752
Probable space group: P -1
;
_chemical_formula_sum "Si O2"
_cell_formula_units_Z 14
_cell_length_a 10.385150
_cell_length_b 13.981554
_cell_length_c 8.860605
_cell_angle_alpha 122.488500
_cell_angle_beta 121.893084
_cell_angle_gamma 29.309741
_cell_volume 525.614852
_symmetry_space_group_name_H-M "P -1"
_symmetry_group_IT_number 2
_symmetry_cell_setting 'triclinic'
loop_
_space_group_symop_operation_xyz
x,y,z
-x,-y,-z
loop_
_atom_site_type_symbol
_atom_site_label
_atom_site_fract_x
_atom_site_fract_y
_atom_site_fract_z
Si Si1 0.867726 0.084771 0.652203
Si Si2 0.470435 0.526793 0.687078
Si Si3 0.005606 0.663752 0.505816
Si Si4 0.191861 0.523278 0.945107
Si Si5 0.227718 0.212585 0.861229
Si Si6 0.214901 0.043073 0.959564
Si Si7 0.377583 0.263231 0.558307
O O1 0.650263 0.318235 0.697854
O O2 0.690236 0.085041 0.579408
O O3 0.929251 0.708982 0.322272
O O4 0.000000 0.000000 0.500000
O O5 0.500000 0.500000 0.500000
O O6 0.168045 0.676731 0.655671
O O7 0.590943 0.561674 0.875090
O O8 0.213483 0.432355 0.472448
O O9 0.028982 0.728171 0.942792
O O10 0.747126 0.784326 0.542495
O O11 0.955470 0.617321 0.979779
O O12 0.306963 0.373787 0.761829
O O13 0.905600 0.007789 0.174499
O O14 0.503815 0.107638 0.917175
O O15 0.272869 0.062106 0.843458
#
# Coordination Sequence:
#
# PCOD9079752 Si02
#       7
#     2   2   2   2   2   2   2
#     4  10  21  38  61  78 118 159 194 240 305 353
#     4  10  18  37  64  91 111 154 204 239 284 355
#     4  10  20  36  57  84 126 149 192 237 292 351
#     4   9  18  36  62  86 117 147 200 243 282 343
#     4   9  17  36  60  83 114 154 192 237 285 352
#     4   8  18  35  60  85 111 152 201 237 285 349
#     4  10  23  37  56  89 119 153 196 246 298 340
#
# _framework density 26.635470999999999
#
# number of rings (size 3 to 8) (size 9 to 14) (size 15 to 20)
#    0.857    1.714    1.429    0.000    0.000    9.143 
#    2.571    1.429    6.286    0.000    0.000    0.000 
#    0.000    0.000    0.000    0.000    0.000    0.000 
#
# Total GULP energy -78311.570355 kJ/mol
# GULP energy per Si atom -5593.683597 kJ/mol
# Density = 2.657485 g / cm^3
# Si number density = 26.635471 Si / 1000 Ang^3
#
#
#
# Elastic Constant Matrix: (Units=GPa)
#
#
# Indices 1 2 3 4 5 6 
#
# 1 128.4016 51.5882 37.2541 -3.9221 18.2085 -53.3738
# 2 51.5882 145.0776 60.3317 -27.6524 2.3765 -35.1669
# 3 37.2541 60.3317 143.3616 -20.4972 12.2092 -20.5457
# 4 -3.9221 -27.6524 -20.4972 43.5825 -1.7586 0.7447
# 5 18.2085 2.3765 12.2092 -1.7586 32.0588 -17.3954
# 6 -53.3738 -35.1669 -20.5457 0.7447 -17.3954 60.9203
#
#
#
# Elastic Compliance Matrix: (Units=1/GPa)
#
#
# Indices 1 2 3 4 5 6 
#
# 1 0.013070 -0.002024 -0.001175 -0.000893 -0.001780 0.009389
# 2 -0.002024 0.010978 -0.003006 0.005464 0.004343 0.004723
# 3 -0.001175 -0.003006 0.009004 0.002122 -0.002709 -0.000527
# 4 -0.000893 0.005464 0.002122 0.027378 0.002709 0.003526
# 5 -0.001780 0.004343 -0.002709 0.002709 0.039124 0.011172
# 6 0.009389 0.004723 -0.000527 0.003526 0.011172 0.030337
#
#
# Mechanical properties :
#
#
# Convention : Reuss Voigt Hill
#
# Bulk Modulus (GPa) = 48.44389 79.46542 63.95465
# Shear Modulus (GPa) = 33.51612 45.15677 39.33644
#
# Velocity S-wave (km/s) = 3.55114 4.12194 3.84714
# Velocity P-wave (km/s) = 5.91957 7.24935 6.61795
#
# Compressibility (1/GPa) = 0.02064244
#
# Stress axis : x y z
#
# Youngs Moduli (GPa) = 76.50977 91.09296 111.06118
#
# Poissons Ratio (x) = 0.18438 0.13051
# Poissons Ratio (y) = 0.15487 0.33380
# Poissons Ratio (z) = 0.08991 0.27379
#
# Static dielectric constant tensor:
#      x y z
#    x 2.235490 -0.056000 0.069250 
#    y -0.056000 2.216510 -0.030230 
#    z 0.069250 -0.030230 2.070670 
# 
# From -- ./inp_files/278289.got.cif
#   From: 2010.05.17/outbox.cif.g08.bks.cpg/sg2_140_cif.got.tgz:278289.got - 2010.06.03 11:33:40.
