data_PCOD9079135
_publ_section_title
;
Structure prediction by ZEFSAII (Michael W. Deem and Ramdas Pophale) SiO2 
 PCOD9079135
Probable space group: P -1
;
_chemical_formula_sum "Si O2"
_cell_formula_units_Z 16
_cell_length_a 16.486438
_cell_length_b 13.177113
_cell_length_c 9.066167
_cell_angle_alpha 136.564073
_cell_angle_beta 44.917550
_cell_angle_gamma 149.440308
_cell_volume 668.892128
_symmetry_space_group_name_H-M "P -1"
_symmetry_group_IT_number 2
_symmetry_cell_setting 'triclinic'
loop_
_space_group_symop_operation_xyz
x,y,z
-x,-y,-z
loop_
_atom_site_type_symbol
_atom_site_label
_atom_site_fract_x
_atom_site_fract_y
_atom_site_fract_z
Si Si1 0.092377 0.975666 0.091326
Si Si2 0.728102 0.668601 0.244253
Si Si3 0.885400 0.542409 0.808258
Si Si4 0.334333 0.665842 0.386407
Si Si5 0.547427 0.998137 0.196449
Si Si6 0.756205 0.939155 0.714013
Si Si7 0.372700 0.258129 0.811012
Si Si8 0.757672 0.123109 0.626826
O O1 0.057316 0.774927 0.872316
O O2 0.248331 0.179528 0.020349
O O3 0.118894 0.997184 0.254214
O O4 0.917488 0.890060 0.191807
O O5 0.615662 0.607452 0.187417
O O6 0.685100 0.727786 0.502653
O O7 0.758111 0.520866 0.053664
O O8 0.829469 0.524799 0.693808
O O9 0.870314 0.358390 0.671541
O O10 0.433715 0.840826 0.312808
O O11 0.452221 0.640434 0.255288
O O12 0.327192 0.769390 0.644683
O O13 0.422544 0.967629 0.216662
O O14 0.630225 0.930536 0.950978
O O15 0.820669 0.102605 0.671492
O O16 0.285175 0.041565 0.610062
#
# Coordination Sequence:
#
# PCOD9079135 Si02
#       8
#     2   2   2   2   2   2   2   2
#     4  10  21  35  58  80 108 145 187 219 262 320
#     4   9  22  37  54  79 115 142 181 225 263 317
#     4   9  21  36  53  79 125 133 165 242 277 295
#     4   9  17  34  56  85 108 133 178 234 267 313
#     4   9  17  32  58  82 107 138 185 220 266 321
#     4  11  19  35  60  79 102 156 185 207 265 340
#     4  10  18  36  63  80  98 151 191 212 261 331
#     4   9  20  35  55  84 112 135 179 233 268 315
#
# _framework density 23.920151000000001
#
# number of rings (size 3 to 8) (size 9 to 14) (size 15 to 20)
#    0.750    1.750    1.250    1.875    0.000    1.500 
#    0.000    2.500    2.750    0.000    0.000    0.000 
#    0.000    0.000    0.000    0.000    0.000    0.000 
#
# Total GULP energy -89300.809029 kJ/mol
# GULP energy per Si atom -5581.300564 kJ/mol
# Density = 2.386571 g / cm^3
# Si number density = 23.920151 Si / 1000 Ang^3
#
#
#
# Elastic Constant Matrix: (Units=GPa)
#
#
# Indices 1 2 3 4 5 6 
#
# 1 105.3434 14.6297 24.8991 -2.1530 17.1325 0.8409
# 2 14.6297 47.3550 28.4368 16.9924 12.3245 -2.1101
# 3 24.8991 28.4368 129.2934 4.1436 -1.2633 15.5447
# 4 -2.1530 16.9924 4.1436 29.1363 5.5941 -0.2939
# 5 17.1325 12.3245 -1.2633 5.5941 37.6390 1.7883
# 6 0.8409 -2.1101 15.5447 -0.2939 1.7883 18.7111
#
#
#
# Elastic Compliance Matrix: (Units=1/GPa)
#
#
# Indices 1 2 3 4 5 6 
#
# 1 0.011126 -0.002012 -0.002033 0.003266 -0.005030 0.001494
# 2 -0.002012 0.036303 -0.008526 -0.018239 -0.009110 0.011852
# 3 -0.002033 -0.008526 0.011241 0.002300 0.004256 -0.010580
# 4 0.003266 -0.018239 0.002300 0.045226 -0.002006 -0.003212
# 5 -0.005030 -0.009110 0.004256 -0.002006 0.032637 -0.007488
# 6 0.001494 0.011852 -0.010580 -0.003212 -0.007488 0.064168
#
#
# Mechanical properties :
#
#
# Convention : Reuss Voigt Hill
#
# Bulk Modulus (GPa) = 29.82812 46.43589 38.13200
# Shear Modulus (GPa) = 21.09533 31.36570 26.23052
#
# Velocity S-wave (km/s) = 2.97291 3.62507 3.31507
# Velocity P-wave (km/s) = 4.92760 6.08083 5.53434
#
# Compressibility (1/GPa) = 0.03352542
#
# Stress axis : x y z
#
# Youngs Moduli (GPa) = 89.88204 27.54625 88.95967
#
# Poissons Ratio (x) = 0.05543 0.18090
# Poissons Ratio (y) = 0.18086 0.75850
# Poissons Ratio (z) = 0.18277 0.23487
#
# Static dielectric constant tensor:
#      x y z
#    x 1.896860 0.036800 -0.004990 
#    y 0.036800 1.926860 0.019470 
#    z -0.004990 0.019470 1.967750 
# 
# From -- ./inp_files/335554.got.cif
#   From: 2010.05.17/outbox.cif.g08.bks.cpg/sg2_168_cif.got.tgz:335554.got - 2010.06.03 11:33:40.
