data_PCOD9079046
_publ_section_title
;
Structure prediction by ZEFSAII (Michael W. Deem and Ramdas Pophale) SiO2 
 PCOD9079046
Probable space group: P -1
;
_chemical_formula_sum "Si O2"
_cell_formula_units_Z 16
_cell_length_a 18.244272
_cell_length_b 9.266975
_cell_length_c 9.820402
_cell_angle_alpha 46.030544
_cell_angle_beta 141.686055
_cell_angle_gamma 127.841832
_cell_volume 731.992293
_symmetry_space_group_name_H-M "P -1"
_symmetry_group_IT_number 2
_symmetry_cell_setting 'triclinic'
loop_
_space_group_symop_operation_xyz
x,y,z
-x,-y,-z
loop_
_atom_site_type_symbol
_atom_site_label
_atom_site_fract_x
_atom_site_fract_y
_atom_site_fract_z
Si Si1 0.090647 0.402716 0.103645
Si Si2 0.718630 0.285703 0.113263
Si Si3 0.371476 0.151773 0.828301
Si Si4 0.351880 0.521972 0.365796
Si Si5 0.984978 0.434291 0.365544
Si Si6 0.482251 0.756169 0.631349
Si Si7 0.882820 0.835291 0.453780
Si Si8 0.387630 0.602205 0.859033
O O1 0.217500 0.547620 0.196567
O O2 0.109663 0.210607 0.343269
O O3 0.042067 0.383952 0.892711
O O4 0.000000 0.500000 0.000000
O O5 0.856223 0.287162 0.271415
O O6 0.641333 0.071985 0.104155
O O7 0.657212 0.447760 0.828408
O O8 0.713910 0.343131 0.226241
O O9 0.368118 0.307728 0.594748
O O10 0.256908 0.142246 0.770093
O O11 0.493182 0.241755 0.023557
O O12 0.443963 0.688326 0.467535
O O13 0.000000 0.500000 0.500000
O O14 0.087093 0.333526 0.501887
O O15 0.584441 0.622845 0.915283
O O16 0.500000 0.000000 0.500000
O O17 0.377812 0.653484 0.652043
O O18 0.000000 0.000000 0.500000
#
# Coordination Sequence:
#
# PCOD9079046 Si02
#       8
#     2   2   2   2   2   2   2   2
#     4   8  17  33  55  79 108 143 193 234 279 344
#     4  11  21  37  60  83 117 150 193 237 294 345
#     4  10  20  36  60  85 112 149 201 238 281 346
#     4   9  20  35  57  82 109 150 191 234 276 345
#     4  10  21  36  57  85 117 151 188 249 301 334
#     4  10  21  39  56  80 117 154 191 230 287 346
#     4  10  18  36  62  81 107 152 202 234 280 351
#     4  10  23  36  57  87 117 150 188 239 290 345
#
# _framework density 21.858153999999999
#
# number of rings (size 3 to 8) (size 9 to 14) (size 15 to 20)
#    0.000    2.250    1.250    1.125    0.000    8.000 
#    0.000    0.625    0.000    0.000    0.000    0.000 
#    0.000    0.000    0.000    0.000    0.000    0.000 
#
# Total GULP energy -89077.399920 kJ/mol
# GULP energy per Si atom -5567.337495 kJ/mol
# Density = 2.180840 g / cm^3
# Si number density = 21.858154 Si / 1000 Ang^3
#
#
#
# Elastic Constant Matrix: (Units=GPa)
#
#
# Indices 1 2 3 4 5 6 
#
# 1 101.2819 2.9073 13.3443 -4.9671 3.8548 -9.1053
# 2 2.9073 70.6748 21.4263 -10.6219 -6.7157 6.0403
# 3 13.3443 21.4263 47.5856 11.0892 -16.7274 -7.7567
# 4 -4.9671 -10.6219 11.0892 27.6083 -6.3538 -4.8172
# 5 3.8548 -6.7157 -16.7274 -6.3538 29.3917 9.8552
# 6 -9.1053 6.0403 -7.7567 -4.8172 9.8552 30.4572
#
#
#
# Elastic Compliance Matrix: (Units=1/GPa)
#
#
# Indices 1 2 3 4 5 6 
#
# 1 0.011364 0.001142 -0.005802 0.004376 -0.004919 0.003977
# 2 0.001142 0.020542 -0.012775 0.012700 0.001893 -0.005590
# 3 -0.005802 -0.012775 0.038120 -0.017347 0.014788 0.002978
# 4 0.004376 0.012700 -0.017347 0.049731 0.002755 0.001346
# 5 -0.004919 0.001893 0.014788 0.002755 0.048595 -0.013369
# 6 0.003977 -0.005590 0.002978 0.001346 -0.013369 0.040428
#
#
# Mechanical properties :
#
#
# Convention : Reuss Voigt Hill
#
# Bulk Modulus (GPa) = 28.44373 32.76646 30.60510
# Shear Modulus (GPa) = 19.57960 29.61571 24.59766
#
# Velocity S-wave (km/s) = 2.99617 3.68490 3.35823
# Velocity P-wave (km/s) = 5.00105 5.75566 5.39157
#
# Compressibility (1/GPa) = 0.03515713
#
# Stress axis : x y z
#
# Youngs Moduli (GPa) = 87.99382 48.68189 26.23296
#
# Poissons Ratio (x) = -0.05558 0.15219
# Poissons Ratio (y) = -0.10046 0.33511
# Poissons Ratio (z) = 0.51050 0.62189
#
# Static dielectric constant tensor:
#      x y z
#    x 1.923550 0.052880 0.074160 
#    y 0.052880 1.856800 0.092470 
#    z 0.074160 0.092470 2.141580 
# 
# From -- ./inp_files/224197.got.cif
#   From: 2010.05.17/outbox.cif.g08.bks.cpg/sg2_113_cif.got.tgz:224197.got - 2010.06.03 11:33:40.
