data_PCOD9079185
_publ_section_title
;
Structure prediction by ZEFSAII (Michael W. Deem and Ramdas Pophale) SiO2 
 PCOD9079185
Probable space group: P -1
;
_chemical_formula_sum "Si O2"
_cell_formula_units_Z 16
_cell_length_a 12.061385
_cell_length_b 25.887446
_cell_length_c 19.184705
_cell_angle_alpha 17.826982
_cell_angle_beta 22.960068
_cell_angle_gamma 24.415780
_cell_volume 685.759211
_symmetry_space_group_name_H-M "P -1"
_symmetry_group_IT_number 2
_symmetry_cell_setting 'triclinic'
loop_
_space_group_symop_operation_xyz
x,y,z
-x,-y,-z
loop_
_atom_site_type_symbol
_atom_site_label
_atom_site_fract_x
_atom_site_fract_y
_atom_site_fract_z
Si Si1 0.421586 0.787699 0.489550
Si Si2 0.518955 0.686937 0.715088
Si Si3 0.017791 0.614805 0.208685
Si Si4 0.271573 0.629741 0.517388
Si Si5 0.292546 0.103547 0.548774
Si Si6 0.353388 0.102562 0.023111
Si Si7 0.561898 0.465402 0.306954
Si Si8 0.114178 0.763556 0.104486
O O1 0.356109 0.759373 0.644334
O O2 0.295752 0.654165 0.687484
O O3 0.784195 0.747040 0.330218
O O4 0.318078 0.973614 0.270634
O O5 0.523962 0.840721 0.567499
O O6 0.859972 0.588476 0.620775
O O7 0.500000 0.500000 0.000000
O O8 0.688752 0.628697 0.406344
O O9 0.180816 0.678858 0.096406
O O10 0.958072 0.756516 0.998913
O O11 0.500000 0.500000 0.500000
O O12 0.266429 0.547450 0.703373
O O13 0.938640 0.714440 0.575633
O O14 0.415040 0.791512 0.228340
O O15 0.500000 0.000000 0.500000
O O16 0.117148 0.964046 0.850979
O O17 0.500000 0.000000 0.000000
O O18 0.376690 0.652932 0.143986
#
# Coordination Sequence:
#
# PCOD9079185 Si02
#       8
#     2   2   2   2   2   2   2   2
#     4  11  20  37  68 100 127 166 231 278 322 381
#     4  12  26  44  63  88 127 179 228 269 325 405
#     4  10  18  36  63  96 131 166 216 269 330 390
#     4  11  23  40  65 102 139 171 215 276 334 391
#     4  12  27  44  65  95 138 182 213 272 349 396
#     4  11  18  34  63 101 131 164 212 279 328 385
#     4  10  19  35  67 101 128 167 215 277 333 385
#     4  11  19  37  67 101 131 167 221 278 329 394
#
# _framework density 23.331806
#
# number of rings (size 3 to 8) (size 9 to 14) (size 15 to 20)
#    0.000    1.000    7.500    3.000    0.000    1.500 
#    0.000    1.250    0.000    0.000    0.000    0.000 
#    0.000    0.000    0.000    0.000    0.000    0.000 
#
# Total GULP energy -89222.295824 kJ/mol
# GULP energy per Si atom -5576.393489 kJ/mol
# Density = 2.327870 g / cm^3
# Si number density = 23.331806 Si / 1000 Ang^3
#
#
#
# Elastic Constant Matrix: (Units=GPa)
#
#
# Indices 1 2 3 4 5 6 
#
# 1 140.2566 30.8843 36.8516 -13.4950 41.3653 17.5885
# 2 30.8843 60.0607 8.9944 -20.0968 13.0923 18.3300
# 3 36.8516 8.9944 63.7161 -10.7688 18.8373 12.4804
# 4 -13.4950 -20.0968 -10.7688 33.3666 -6.8791 4.2754
# 5 41.3653 13.0923 18.8373 -6.8791 52.4988 -12.8144
# 6 17.5885 18.3300 12.4804 4.2754 -12.8144 46.1572
#
#
#
# Elastic Compliance Matrix: (Units=1/GPa)
#
#
# Indices 1 2 3 4 5 6 
#
# 1 0.011724 -0.000917 -0.002218 0.002337 -0.009456 -0.006345
# 2 -0.000917 0.031358 0.006717 0.020764 -0.011429 -0.019016
# 3 -0.002218 0.006717 0.022848 0.010021 -0.009645 -0.011606
# 4 0.002337 0.020764 0.010021 0.047199 -0.009000 -0.018717
# 5 -0.009456 -0.011429 -0.009645 -0.009000 0.036962 0.021845
# 6 -0.006345 -0.019016 -0.011606 -0.018717 0.021845 0.042571
#
#
# Mechanical properties :
#
#
# Convention : Reuss Voigt Hill
#
# Bulk Modulus (GPa) = 13.68104 46.38822 30.03463
# Shear Modulus (GPa) = 23.82516 38.89140 31.35828
#
# Velocity S-wave (km/s) = 3.19900 4.08718 3.67006
# Velocity P-wave (km/s) = 4.41829 6.49604 5.55517
#
# Compressibility (1/GPa) = 0.07309385
#
# Stress axis : x y z
#
# Youngs Moduli (GPa) = 85.29785 31.88975 43.76779
#
# Poissons Ratio (x) = 0.02923 0.09707
# Poissons Ratio (y) = 0.07818 -0.29397
# Poissons Ratio (z) = 0.18917 -0.21419
#
# Static dielectric constant tensor:
#      x y z
#    x 1.987120 -0.000790 0.066160 
#    y -0.000790 2.436900 0.167830 
#    z 0.066160 0.167830 1.946310 
# 
# From -- ./inp_files/570897.got.cif
#   From: 2010.05.17/outbox.cif.g08.bks.cpg/sg2_286_cif.got.tgz:570897.got - 2010.06.03 11:33:40.
