data_PCOD9079277
_publ_section_title
;
Structure prediction by ZEFSAII (Michael W. Deem and Ramdas Pophale) SiO2 
 PCOD9079277
Probable space group: P -1
;
_chemical_formula_sum "Si O2"
_cell_formula_units_Z 16
_cell_length_a 8.248621
_cell_length_b 14.600919
_cell_length_c 12.145141
_cell_angle_alpha 135.450885
_cell_angle_beta 134.344586
_cell_angle_gamma 71.820731
_cell_volume 681.465447
_symmetry_space_group_name_H-M "P -1"
_symmetry_group_IT_number 2
_symmetry_cell_setting 'triclinic'
loop_
_space_group_symop_operation_xyz
x,y,z
-x,-y,-z
loop_
_atom_site_type_symbol
_atom_site_label
_atom_site_fract_x
_atom_site_fract_y
_atom_site_fract_z
Si Si1 0.953517 0.563499 0.355078
Si Si2 0.339784 0.527425 0.649136
Si Si3 0.082626 0.158913 0.526330
Si Si4 0.997583 0.786959 0.847929
Si Si5 0.212830 0.007648 0.952593
Si Si6 0.465012 0.921910 0.301125
Si Si7 0.630634 0.154511 0.403616
Si Si8 0.181991 0.520604 0.206203
O O1 0.740838 0.474605 0.263172
O O2 0.207755 0.612173 0.588115
O O3 0.884998 0.693682 0.391483
O O4 0.022748 0.494146 0.219902
O O5 0.623176 0.555711 0.783551
O O6 0.183262 0.368403 0.398158
O O7 0.901578 0.153804 0.535067
O O8 0.325044 0.140250 0.662919
O O9 0.935523 0.033234 0.265299
O O10 0.116476 0.866838 0.860345
O O11 0.211772 0.800407 0.046722
O O12 0.863243 0.878360 0.920185
O O13 0.505156 0.086736 0.170415
O O14 0.500000 0.000000 0.500000
O O15 0.482581 0.046977 0.332835
O O16 0.655456 0.312766 0.567624
O O17 0.000000 0.500000 0.000000
#
# Coordination Sequence:
#
# PCOD9079277 Si02
#       8
#     2   2   2   2   2   2   2   2
#     4  10  25  44  68  99 125 180 224 266 327 385
#     4  11  22  47  70  91 137 173 226 272 319 391
#     4  11  21  41  61  95 135 160 214 269 314 388
#     4  10  20  36  63  96 121 169 214 255 318 388
#     4  10  18  36  65  92 123 164 212 257 315 387
#     4  11  23  37  61  94 133 163 209 260 325 393
#     4  10  23  40  61  93 127 170 206 262 333 377
#     4  11  25  46  69  97 134 171 221 278 327 391
#
# _framework density 23.478812999999999
#
# number of rings (size 3 to 8) (size 9 to 14) (size 15 to 20)
#    0.000    1.500    3.750    1.125    1.750    1.500 
#    9.000    1.250    0.000    0.000    0.000    0.000 
#    0.000    0.000    0.000    0.000    0.000    0.000 
#
# Total GULP energy -89375.014684 kJ/mol
# GULP energy per Si atom -5585.938418 kJ/mol
# Density = 2.342537 g / cm^3
# Si number density = 23.478813 Si / 1000 Ang^3
#
#
#
# Elastic Constant Matrix: (Units=GPa)
#
#
# Indices 1 2 3 4 5 6 
#
# 1 90.9092 8.8325 19.3200 -10.2388 -12.0257 -17.3502
# 2 8.8325 71.2666 13.2973 4.5552 2.8123 -8.4859
# 3 19.3200 13.2973 88.7110 -11.8771 0.8932 -3.5441
# 4 -10.2388 4.5552 -11.8771 34.8647 -7.2778 6.7561
# 5 -12.0257 2.8123 0.8932 -7.2778 32.8986 -14.3713
# 6 -17.3502 -8.4859 -3.5441 6.7561 -14.3713 44.8013
#
#
#
# Elastic Compliance Matrix: (Units=1/GPa)
#
#
# Indices 1 2 3 4 5 6 
#
# 1 0.014931 -0.001149 -0.002286 0.004312 0.010048 0.007957
# 2 -0.001149 0.015222 -0.002448 -0.003929 -0.001494 0.002358
# 3 -0.002286 -0.002448 0.012641 0.004057 -0.000572 -0.001144
# 4 0.004312 -0.003929 0.004057 0.033890 0.008851 -0.001025
# 5 0.010048 -0.001494 -0.000572 0.008851 0.043197 0.016085
# 6 0.007957 0.002358 -0.001144 -0.001025 0.016085 0.031073
#
#
# Mechanical properties :
#
#
# Convention : Reuss Voigt Hill
#
# Bulk Modulus (GPa) = 32.22893 37.08738 34.65815
# Shear Modulus (GPa) = 28.89165 36.47537 32.68351
#
# Velocity S-wave (km/s) = 3.51171 3.94578 3.73506
# Velocity P-wave (km/s) = 5.49540 6.04891 5.77879
#
# Compressibility (1/GPa) = 0.03102803
#
# Stress axis : x y z
#
# Youngs Moduli (GPa) = 66.97668 65.69506 79.11051
#
# Poissons Ratio (x) = 0.07546 0.18081
# Poissons Ratio (y) = 0.07693 0.19369
# Poissons Ratio (z) = 0.15308 0.16084
#
# Static dielectric constant tensor:
#      x y z
#    x 1.943440 -0.011090 0.010250 
#    y -0.011090 1.904480 -0.007880 
#    z 0.010250 -0.007880 1.901980 
# 
# From -- ./inp_files/343546.got.cif
#   From: 2010.05.17/outbox.cif.g08.bks.cpg/sg2_172_cif.got.tgz:343546.got - 2010.06.03 11:33:40.
