data_PCOD9079354
_publ_section_title
;
Structure prediction by ZEFSAII (Michael W. Deem and Ramdas Pophale) SiO2 
 PCOD9079354
Probable space group: P -1
;
_chemical_formula_sum "Si O2"
_cell_formula_units_Z 16
_cell_length_a 13.981941
_cell_length_b 8.711584
_cell_length_c 8.385860
_cell_angle_alpha 79.641117
_cell_angle_beta 65.726116
_cell_angle_gamma 55.625277
_cell_volume 766.664566
_symmetry_space_group_name_H-M "P -1"
_symmetry_group_IT_number 2
_symmetry_cell_setting 'triclinic'
loop_
_space_group_symop_operation_xyz
x,y,z
-x,-y,-z
loop_
_atom_site_type_symbol
_atom_site_label
_atom_site_fract_x
_atom_site_fract_y
_atom_site_fract_z
Si Si1 0.719721 0.544030 0.954582
Si Si2 0.501372 0.776069 0.842855
Si Si3 0.964145 0.693558 0.906571
Si Si4 0.875734 0.660331 0.635039
Si Si5 0.653942 0.922123 0.529581
Si Si6 0.865900 0.186236 0.115586
Si Si7 0.594871 0.297820 0.394606
Si Si8 0.292646 0.155231 0.859891
O O1 0.583275 0.635340 0.952900
O O2 0.800897 0.570262 0.764297
O O3 0.793869 0.329360 0.992140
O O4 0.714418 0.671344 0.082190
O O5 0.581309 0.847624 0.688133
O O6 0.456481 0.697393 0.749005
O O7 0.381117 0.974008 0.941345
O O8 0.916147 0.716972 0.755702
O O9 0.077514 0.719047 0.835440
O O10 0.837635 0.834178 0.063173
O O11 0.000000 0.500000 0.000000
O O12 0.788506 0.822637 0.541336
O O13 0.000000 0.500000 0.500000
O O14 0.664546 0.865183 0.347690
O O15 0.588636 0.143219 0.529448
O O16 0.745339 0.210034 0.286591
O O17 0.000000 0.000000 0.000000
O O18 0.500000 0.500000 0.500000
#
# Coordination Sequence:
#
# PCOD9079354 Si02
#       8
#     2   2   2   2   2   2   2   2
#     4  10  23  38  65  99 120 169 218 272 320 378
#     4  10  22  42  66  95 125 165 224 272 316 375
#     4  11  21  40  65  93 122 169 219 258 320 380
#     4  10  21  36  66  97 122 156 221 279 309 369
#     4  10  22  39  67  95 123 167 217 268 317 379
#     4  12  26  43  65  92 138 173 213 262 330 394
#     4  11  26  43  65  95 135 178 209 260 334 393
#     4  10  18  36  68  94 124 156 218 273 313 375
#
# _framework density 20.869622
#
# number of rings (size 3 to 8) (size 9 to 14) (size 15 to 20)
#    0.000    1.500    2.500    4.125    5.250    1.500 
#    2.250    0.625    0.000    0.000    0.000    0.000 
#    0.000    0.000    0.000    0.000    0.000    0.000 
#
# Total GULP energy -89183.533847 kJ/mol
# GULP energy per Si atom -5573.970865 kJ/mol
# Density = 2.082212 g / cm^3
# Si number density = 20.869622 Si / 1000 Ang^3
#
#
#
# Elastic Constant Matrix: (Units=GPa)
#
#
# Indices 1 2 3 4 5 6 
#
# 1 127.0621 40.1075 13.6621 -3.5623 -4.4233 -22.0992
# 2 40.1075 136.7454 41.5897 4.9567 7.2231 -29.0165
# 3 13.6621 41.5897 42.9558 0.3211 -7.6863 -4.2567
# 4 -3.5623 4.9567 0.3211 32.3123 -10.8548 5.9527
# 5 -4.4233 7.2231 -7.6863 -10.8548 31.5073 -6.5850
# 6 -22.0992 -29.0165 -4.2567 5.9527 -6.5850 37.6068
#
#
#
# Elastic Compliance Matrix: (Units=1/GPa)
#
#
# Indices 1 2 3 4 5 6 
#
# 1 0.009430 -0.002119 0.000046 0.001691 0.003285 0.004219
# 2 -0.002119 0.014473 -0.013833 -0.006312 -0.007483 0.008044
# 3 0.000046 -0.013833 0.038635 0.007400 0.014113 -0.004973
# 4 0.001691 -0.006312 0.007400 0.038375 0.015368 -0.006423
# 5 0.003285 -0.007483 0.014113 0.015368 0.043258 0.002896
# 6 0.004219 0.008044 -0.004973 -0.006423 0.002896 0.036238
#
#
# Mechanical properties :
#
#
# Convention : Reuss Voigt Hill
#
# Bulk Modulus (GPa) = 32.54664 55.27579 43.91122
# Shear Modulus (GPa) = 22.47560 34.37888 28.42724
#
# Velocity S-wave (km/s) = 3.28526 4.06312 3.69471
# Velocity P-wave (km/s) = 5.47902 6.96819 6.26798
#
# Compressibility (1/GPa) = 0.03072513
#
# Stress axis : x y z
#
# Youngs Moduli (GPa) = 106.04776 69.09548 25.88297
#
# Poissons Ratio (x) = 0.14644 -0.00119
# Poissons Ratio (y) = 0.22475 0.35804
# Poissons Ratio (z) = -0.00489 0.95580
#
# Static dielectric constant tensor:
#      x y z
#    x 1.813490 -0.008520 0.042560 
#    y -0.008520 1.810290 -0.022820 
#    z 0.042560 -0.022820 1.245640 
# 
# From -- ./inp_files/217307.got.cif
#   From: 2010.05.17/outbox.cif.g08.bks.cpg/sg2_109_cif.got.tgz:217307.got - 2010.06.03 11:33:40.
