data_PCOD9079567
_publ_section_title
;
Structure prediction by ZEFSAII (Michael W. Deem and Ramdas Pophale) SiO2 
 PCOD9079567
Probable space group: P -1
;
_chemical_formula_sum "Si O2"
_cell_formula_units_Z 14
_cell_length_a 9.704978
_cell_length_b 17.547335
_cell_length_c 5.260732
_cell_angle_alpha 110.974427
_cell_angle_beta 107.938891
_cell_angle_gamma 122.227971
_cell_volume 548.627814
_symmetry_space_group_name_H-M "P -1"
_symmetry_group_IT_number 2
_symmetry_cell_setting 'triclinic'
loop_
_space_group_symop_operation_xyz
x,y,z
-x,-y,-z
loop_
_atom_site_type_symbol
_atom_site_label
_atom_site_fract_x
_atom_site_fract_y
_atom_site_fract_z
Si Si1 0.861789 0.709692 0.340788
Si Si2 0.898576 0.227522 0.959672
Si Si3 0.530200 0.870556 0.314061
Si Si4 0.597196 0.731290 0.480568
Si Si5 0.008547 0.947303 0.195647
Si Si6 0.131081 0.454980 0.656751
Si Si7 0.708396 0.352740 0.403172
O O1 0.686736 0.706089 0.289916
O O2 0.767154 0.581184 0.190887
O O3 0.986971 0.759063 0.208736
O O4 0.035627 0.789946 0.760266
O O5 0.651353 0.144378 0.707275
O O6 0.006950 0.360586 0.236866
O O7 0.565179 0.808437 0.445795
O O8 0.763647 0.002648 0.584630
O O9 0.437813 0.785585 0.911771
O O10 0.391066 0.633554 0.415785
O O11 0.789315 0.810974 0.886955
O O12 0.000000 0.000000 0.500000
O O13 0.000000 0.000000 0.000000
O O14 0.264873 0.580324 0.752751
O O15 0.938617 0.411752 0.658684
#
# Coordination Sequence:
#
# PCOD9079567 Si02
#       7
#     2   2   2   2   2   2   2
#     4  10  22  39  58  85 128 153 187 243 298 343
#     4   9  21  40  60  80 122 161 189 235 290 348
#     4  10  21  37  64  85 114 155 205 239 285 349
#     4  11  23  35  62  89 120 151 196 244 301 339
#     4  10  21  37  58  89 119 145 193 248 291 337
#     4   8  20  36  60  85 121 151 199 238 287 344
#     4  10  18  37  61  89 108 159 200 240 282 351
#
# _framework density 25.518211999999998
#
# number of rings (size 3 to 8) (size 9 to 14) (size 15 to 20)
#    0.857    1.429    1.429    0.857    2.000    1.714 
#    0.000    7.143    0.000    0.000    0.000    0.000 
#    0.000    0.000    0.000    0.000    0.000    0.000 
#
# Total GULP energy -78213.032168 kJ/mol
# GULP energy per Si atom -5586.645155 kJ/mol
# Density = 2.546013 g / cm^3
# Si number density = 25.518212 Si / 1000 Ang^3
#
#
#
# Elastic Constant Matrix: (Units=GPa)
#
#
# Indices 1 2 3 4 5 6 
#
# 1 208.9716 56.2614 45.9742 -16.5862 15.9728 46.2081
# 2 56.2614 86.8202 23.8270 -13.4671 -3.5539 25.8782
# 3 45.9742 23.8270 89.2525 -6.0914 -6.0393 25.5784
# 4 -16.5862 -13.4671 -6.0914 46.9093 9.8536 -1.7911
# 5 15.9728 -3.5539 -6.0393 9.8536 46.8738 -5.4535
# 6 46.2081 25.8782 25.5784 -1.7911 -5.4535 49.8230
#
#
#
# Elastic Compliance Matrix: (Units=1/GPa)
#
#
# Indices 1 2 3 4 5 6 
#
# 1 0.007509 -0.002683 -0.001840 0.002310 -0.004065 -0.004989
# 2 -0.002683 0.015491 -0.001124 0.003012 0.000753 -0.004790
# 3 -0.001840 -0.001124 0.013924 0.000293 0.001732 -0.004658
# 4 0.002310 0.003012 0.000293 0.024163 -0.006025 -0.003648
# 5 -0.004065 0.000753 0.001732 -0.006025 0.024847 0.004993
# 6 -0.004989 -0.004790 -0.004658 -0.003648 0.004993 0.029993
#
#
# Mechanical properties :
#
#
# Convention : Reuss Voigt Hill
#
# Bulk Modulus (GPa) = 39.01540 70.79661 54.90600
# Shear Modulus (GPa) = 36.82857 45.98666 41.40761
#
# Velocity S-wave (km/s) = 3.80310 4.24973 4.03261
# Velocity P-wave (km/s) = 5.88279 7.20306 6.57614
#
# Compressibility (1/GPa) = 0.02563091
#
# Stress axis : x y z
#
# Youngs Moduli (GPa) = 133.16470 64.55479 71.81777
#
# Poissons Ratio (x) = 0.17317 0.13213
# Poissons Ratio (y) = 0.35723 0.08075
# Poissons Ratio (z) = 0.24499 0.07258
#
# Static dielectric constant tensor:
#      x y z
#    x 2.038710 -0.051070 -0.008940 
#    y -0.051070 1.999160 0.075720 
#    z -0.008940 0.075720 2.124410 
# 
# From -- ./inp_files/45056.got.cif
#   From: 2010.05.17/outbox.cif.g08.bks.cpg/sg2_23_cif.got.tgz:45056.got - 2010.06.03 11:33:40.
