data_PCOD9079255
_publ_section_title
;
Structure prediction by ZEFSAII (Michael W. Deem and Ramdas Pophale) SiO2 
 PCOD9079255
Probable space group: P -1
;
_chemical_formula_sum "Si O2"
_cell_formula_units_Z 16
_cell_length_a 8.295432
_cell_length_b 9.323984
_cell_length_c 14.459051
_cell_angle_alpha 47.398906
_cell_angle_beta 90.437125
_cell_angle_gamma 67.599816
_cell_volume 700.745677
_symmetry_space_group_name_H-M "P -1"
_symmetry_group_IT_number 2
_symmetry_cell_setting 'triclinic'
loop_
_space_group_symop_operation_xyz
x,y,z
-x,-y,-z
loop_
_atom_site_type_symbol
_atom_site_label
_atom_site_fract_x
_atom_site_fract_y
_atom_site_fract_z
Si Si1 0.864460 0.952224 0.079305
Si Si2 0.481746 0.698830 0.667194
Si Si3 0.590133 0.008077 0.887005
Si Si4 0.534453 0.348645 0.978235
Si Si5 0.649856 0.219556 0.628946
Si Si6 0.159571 0.357702 0.664115
Si Si7 0.122819 0.805964 0.512221
Si Si8 0.657032 0.818163 0.457121
O O1 0.955770 0.729150 0.240956
O O2 0.698491 0.977977 0.997069
O O3 0.749708 0.143559 0.071602
O O4 0.000000 0.000000 0.000000
O O5 0.528424 0.496274 0.825840
O O6 0.335510 0.691154 0.600512
O O7 0.643770 0.697167 0.604751
O O8 0.368929 0.942512 0.614900
O O9 0.690735 0.099949 0.779984
O O10 0.371988 0.207491 0.775544
O O11 0.590720 0.772177 0.972398
O O12 0.500000 0.500000 0.000000
O O13 0.500000 0.500000 0.500000
O O14 0.847930 0.137657 0.615881
O O15 0.543002 0.113511 0.621124
O O16 0.072003 0.615378 0.584767
O O17 0.201887 0.311344 0.573915
O O18 0.000000 0.000000 0.500000
#
# Coordination Sequence:
#
# PCOD9079255 Si02
#       8
#     2   2   2   2   2   2   2   2
#     4  11  24  41  60  93 127 162 202 258 306 367
#     4  10  20  37  62  93 120 151 207 254 300 355
#     4  10  20  39  69  89 112 172 213 239 303 376
#     4  11  22  40  70  90 120 164 211 252 299 373
#     4  10  18  36  65  86 113 150 211 251 288 366
#     4  10  19  41  64  86 120 164 213 242 301 380
#     4  11  22  37  58  90 121 157 193 258 309 354
#     4   9  19  35  64  88 117 150 205 257 289 354
#
# _framework density 22.832820999999999
#
# number of rings (size 3 to 8) (size 9 to 14) (size 15 to 20)
#    0.000    1.750    2.500    5.250    1.750    0.000 
#   13.500    1.250    0.000    0.000    0.000    0.000 
#    0.000    0.000    0.000    0.000    0.000    0.000 
#
# Total GULP energy -89129.049318 kJ/mol
# GULP energy per Si atom -5570.565582 kJ/mol
# Density = 2.278085 g / cm^3
# Si number density = 22.832821 Si / 1000 Ang^3
#
#
#
# Elastic Constant Matrix: (Units=GPa)
#
#
# Indices 1 2 3 4 5 6 
#
# 1 67.2663 48.3176 28.1951 -7.1705 -23.7597 1.2929
# 2 48.3176 179.9259 68.4734 -7.0239 -26.2269 -8.8174
# 3 28.1951 68.4734 138.6546 6.0771 -50.2297 -5.8665
# 4 -7.1705 -7.0239 6.0771 36.2504 1.3531 -8.7859
# 5 -23.7597 -26.2269 -50.2297 1.3531 47.6822 10.8657
# 6 1.2929 -8.8174 -5.8665 -8.7859 10.8657 43.0308
#
#
#
# Elastic Compliance Matrix: (Units=1/GPa)
#
#
# Indices 1 2 3 4 5 6 
#
# 1 0.021833 -0.005071 0.001707 0.001726 0.010708 -0.003814
# 2 -0.005071 0.008243 -0.004069 0.001970 -0.002887 0.002418
# 3 0.001707 -0.004069 0.014130 -0.004194 0.014403 -0.003452
# 4 0.001726 0.001970 -0.004194 0.030988 -0.005035 0.007379
# 5 0.010708 -0.002887 0.014403 -0.005035 0.042474 -0.010703
# 6 -0.003814 0.002418 -0.003452 0.007379 -0.010703 0.027588
#
#
# Mechanical properties :
#
#
# Convention : Reuss Voigt Hill
#
# Bulk Modulus (GPa) = 34.08461 75.09098 54.58780
# Shear Modulus (GPa) = 29.42846 41.45006 35.43926
#
# Velocity S-wave (km/s) = 3.59397 4.26534 3.94397
# Velocity P-wave (km/s) = 5.67296 7.56414 6.68576
#
# Compressibility (1/GPa) = 0.02933876
#
# Stress axis : x y z
#
# Youngs Moduli (GPa) = 45.80181 121.31606 70.77130
#
# Poissons Ratio (x) = 0.61524 -0.12080
# Poissons Ratio (y) = 0.23228 0.28798
# Poissons Ratio (z) = -0.07818 0.49366
#
# Static dielectric constant tensor:
#      x y z
#    x 2.042930 -0.067620 -0.126560 
#    y -0.067620 1.916940 0.050860 
#    z -0.126560 0.050860 2.051200 
# 
# From -- ./inp_files/492045.got.cif
#   From: 2010.05.17/outbox.cif.g08.bks.cpg/sg2_247_cif.got.tgz:492045.got - 2010.06.03 11:33:40.
