data_PCOD9079439
_publ_section_title
;
Structure prediction by ZEFSAII (Michael W. Deem and Ramdas Pophale) SiO2 
 PCOD9079439
Probable space group: P -1
;
_chemical_formula_sum "Si O2"
_cell_formula_units_Z 16
_cell_length_a 11.208950
_cell_length_b 11.539112
_cell_length_c 13.119059
_cell_angle_alpha 142.724067
_cell_angle_beta 142.737716
_cell_angle_gamma 50.473382
_cell_volume 622.210901
_symmetry_space_group_name_H-M "P -1"
_symmetry_group_IT_number 2
_symmetry_cell_setting 'triclinic'
loop_
_space_group_symop_operation_xyz
x,y,z
-x,-y,-z
loop_
_atom_site_type_symbol
_atom_site_label
_atom_site_fract_x
_atom_site_fract_y
_atom_site_fract_z
Si Si1 0.295072 0.125256 0.806747
Si Si2 0.782454 0.266621 0.739484
Si Si3 0.327431 0.737056 0.113241
Si Si4 0.211230 0.095378 0.945477
Si Si5 0.595869 0.952261 0.751493
Si Si6 0.735284 0.593851 0.325168
Si Si7 0.175734 0.650298 0.603777
Si Si8 0.883419 0.306141 0.624955
O O1 0.471854 0.120518 0.844397
O O2 0.114513 0.257372 0.741883
O O3 0.331057 0.172738 0.983182
O O4 0.218606 0.904300 0.595185
O O5 0.763550 0.324842 0.884584
O O6 0.825552 0.393691 0.756408
O O7 0.574406 0.169288 0.502771
O O8 0.982956 0.137530 0.791500
O O9 0.270833 0.940832 0.166871
O O10 0.562741 0.745188 0.297023
O O11 0.284927 0.573463 0.888633
O O12 0.240752 0.867805 0.803722
O O13 0.285729 0.150375 0.147395
O O14 0.711534 0.497744 0.352027
O O15 0.954936 0.665642 0.510214
O O16 0.176476 0.586457 0.442426
#
# Coordination Sequence:
#
# PCOD9079439 Si02
#       8
#     2   2   2   2   2   2   2   2
#     4   8  15  28  52  84 112 136 171 219 269 330
#     4  10  22  37  54  83 119 142 166 224 282 334
#     4  11  22  39  52  78 111 147 185 219 267 324
#     4  10  19  34  57  87 112 137 178 222 277 329
#     4  11  19  33  56  86 110 146 173 218 281 325
#     4  10  22  37  58  75 103 146 193 230 256 303
#     4  10  18  37  58  83 102 138 189 234 259 309
#     4   8  15  31  56  78 108 142 172 219 278 318
#
# _framework density 25.714753000000002
#
# number of rings (size 3 to 8) (size 9 to 14) (size 15 to 20)
#    0.000    2.250    1.250    4.500    0.000    0.500 
#    4.500    1.250    0.000    0.000    0.000    0.000 
#    0.000    0.000    0.000    0.000    0.000    0.000 
#
# Total GULP energy -89441.700536 kJ/mol
# GULP energy per Si atom -5590.106284 kJ/mol
# Density = 2.565622 g / cm^3
# Si number density = 25.714753 Si / 1000 Ang^3
#
#
#
# Elastic Constant Matrix: (Units=GPa)
#
#
# Indices 1 2 3 4 5 6 
#
# 1 87.6570 32.3176 25.2584 -12.9246 -41.5340 23.2896
# 2 32.3176 63.5929 40.0912 -28.0221 -27.9683 21.1738
# 3 25.2584 40.0912 93.0925 -28.4954 -25.7672 10.2052
# 4 -12.9246 -28.0221 -28.4954 39.0176 14.3422 -12.7570
# 5 -41.5340 -27.9683 -25.7672 14.3422 38.9283 -27.7841
# 6 23.2896 21.1738 10.2052 -12.7570 -27.7841 33.4895
#
#
#
# Elastic Compliance Matrix: (Units=1/GPa)
#
#
# Indices 1 2 3 4 5 6 
#
# 1 0.025533 -0.003774 0.003056 -0.001025 0.036820 0.013855
# 2 -0.003774 0.031883 -0.006621 0.012820 0.005358 -0.006187
# 3 0.003056 -0.006621 0.018680 0.007925 0.018416 0.014666
# 4 -0.001025 0.012820 0.007925 0.041723 0.005723 0.010834
# 5 0.036820 0.005358 0.018416 0.005723 0.136713 0.080998
# 6 0.013855 -0.006187 0.014666 0.010834 0.080998 0.090993
#
#
# Mechanical properties :
#
#
# Convention : Reuss Voigt Hill
#
# Bulk Modulus (GPa) = 16.28193 48.85295 32.56744
# Shear Modulus (GPa) = 13.13459 32.06542 22.60000
#
# Velocity S-wave (km/s) = 2.26250 3.53507 2.96780
# Velocity P-wave (km/s) = 3.62914 5.97508 4.94329
#
# Compressibility (1/GPa) = 0.06141779
#
# Stress axis : x y z
#
# Youngs Moduli (GPa) = 39.16575 31.36505 53.53413
#
# Poissons Ratio (x) = 0.11836 -0.16362
# Poissons Ratio (y) = 0.14780 0.35446
# Poissons Ratio (z) = -0.11971 0.20767
#
# Static dielectric constant tensor:
#      x y z
#    x 2.059300 0.033290 -0.034200 
#    y 0.033290 1.955960 -0.022220 
#    z -0.034200 -0.022220 2.077820 
# 
# From -- ./inp_files/251896.got.cif
#   From: 2010.05.17/outbox.cif.g08.bks.cpg/sg2_126_cif.got.tgz:251896.got - 2010.06.03 11:33:40.
