data_PCOD9079941
_publ_section_title
;
Structure prediction by ZEFSAII (Michael W. Deem and Ramdas Pophale) SiO2 
 PCOD9079941
Probable space group: P -1
;
_chemical_formula_sum "Si O2"
_cell_formula_units_Z 14
_cell_length_a 10.021325
_cell_length_b 18.404841
_cell_length_c 9.341587
_cell_angle_alpha 46.999110
_cell_angle_beta 109.251129
_cell_angle_gamma 145.328998
_cell_volume 595.939390
_symmetry_space_group_name_H-M "P -1"
_symmetry_group_IT_number 2
_symmetry_cell_setting 'triclinic'
loop_
_space_group_symop_operation_xyz
x,y,z
-x,-y,-z
loop_
_atom_site_type_symbol
_atom_site_label
_atom_site_fract_x
_atom_site_fract_y
_atom_site_fract_z
Si Si1 0.737718 0.594445 0.859423
Si Si2 0.658168 0.749240 0.300602
Si Si3 0.705515 0.628633 0.220991
Si Si4 0.194107 0.946921 0.736107
Si Si5 0.368414 0.688350 0.761497
Si Si6 0.237935 0.042606 0.183991
Si Si7 0.345085 0.887065 0.445840
O O1 0.787855 0.510568 0.030650
O O2 0.500000 0.500000 0.000000
O O3 0.583404 0.506273 0.772466
O O4 0.014062 0.822202 0.693869
O O5 0.735779 0.711570 0.261491
O O6 0.374274 0.534908 0.559289
O O7 0.641191 0.838132 0.081841
O O8 0.938517 0.916070 0.273026
O O9 0.973009 0.807264 0.972977
O O10 0.417963 0.992752 0.751087
O O11 0.395618 0.162845 0.482570
O O12 0.541870 0.800873 0.820825
O O13 0.200367 0.690321 0.678785
O O14 0.193745 0.897477 0.347693
O O15 0.500000 0.000000 0.500000
#
# Coordination Sequence:
#
# PCOD9079941 Si02
#       7
#     2   2   2   2   2   2   2
#     4  10  19  33  55  88 114 142 180 236 292 328
#     4  10  21  34  57  78 115 153 191 225 276 330
#     4  10  20  36  49  82 117 145 187 233 276 337
#     4   9  20  36  58  83 116 141 184 240 286 328
#     4   9  18  36  58  83 112 141 184 235 289 327
#     4  10  18  38  58  83 107 155 190 228 277 337
#     4   8  18  36  59  80 114 143 187 235 282 338
#
# _framework density 23.492322999999999
#
# number of rings (size 3 to 8) (size 9 to 14) (size 15 to 20)
#    0.857    1.714    1.429    0.857    0.000    2.286 
#   10.286    7.143    0.000    0.000    0.000    0.000 
#    0.000    0.000    0.000    0.000    0.000    0.000 
#
# Total GULP energy -78034.087842 kJ/mol
# GULP energy per Si atom -5573.863417 kJ/mol
# Density = 2.343885 g / cm^3
# Si number density = 23.492323 Si / 1000 Ang^3
#
#
#
# Elastic Constant Matrix: (Units=GPa)
#
#
# Indices 1 2 3 4 5 6 
#
# 1 74.6826 7.3789 31.6552 9.0088 8.4081 3.3661
# 2 7.3789 35.3581 3.0349 7.6771 1.0435 -1.1616
# 3 31.6552 3.0349 110.2196 10.8372 8.3319 3.4012
# 4 9.0088 7.6771 10.8372 24.1456 5.9062 8.6411
# 5 8.4081 1.0435 8.3319 5.9062 49.0022 -3.2217
# 6 3.3661 -1.1616 3.4012 8.6411 -3.2217 20.1120
#
#
#
# Elastic Compliance Matrix: (Units=1/GPa)
#
#
# Indices 1 2 3 4 5 6 
#
# 1 0.015917 -0.002442 -0.004091 -0.002400 -0.001784 -0.001368
# 2 -0.002442 0.031697 0.000709 -0.012701 0.001670 0.007844
# 3 -0.004091 0.000709 0.010605 -0.003390 -0.000689 0.000278
# 4 -0.002400 -0.012701 -0.003390 0.059182 -0.007611 -0.026405
# 5 -0.001784 0.001670 -0.000689 -0.007611 0.022195 0.007337
# 6 -0.001368 0.007844 0.000278 -0.026405 0.007337 0.062877
#
#
# Mechanical properties :
#
#
# Convention : Reuss Voigt Hill
#
# Bulk Modulus (GPa) = 21.47236 33.82204 27.64720
# Shear Modulus (GPa) = 21.77277 30.53136 26.15207
#
# Velocity S-wave (km/s) = 3.04765 3.60895 3.34011
# Velocity P-wave (km/s) = 4.64157 5.63865 5.16423
#
# Compressibility (1/GPa) = 0.04657151
#
# Stress axis : x y z
#
# Youngs Moduli (GPa) = 62.82421 31.54886 94.29432
#
# Poissons Ratio (x) = 0.07703 0.38578
# Poissons Ratio (y) = 0.15340 -0.06685
# Poissons Ratio (z) = 0.25703 -0.02237
#
# Static dielectric constant tensor:
#      x y z
#    x 1.892520 0.007010 -0.002200 
#    y 0.007010 1.950850 -0.010750 
#    z -0.002200 -0.010750 2.004820 
# 
# From -- ./inp_files/438813.got.cif
#   From: 2010.05.17/outbox.cif.g08.bks.cpg/sg2_220_cif.got.tgz:438813.got - 2010.06.03 11:33:40.
