data_PCOD9079940
_publ_section_title
;
Structure prediction by ZEFSAII (Michael W. Deem and Ramdas Pophale) SiO2 
 PCOD9079940
Probable space group: P -1
;
_chemical_formula_sum "Si O2"
_cell_formula_units_Z 12
_cell_length_a 12.456376
_cell_length_b 7.387760
_cell_length_c 12.294317
_cell_angle_alpha 71.636659
_cell_angle_beta 150.973748
_cell_angle_gamma 97.153064
_cell_volume 492.217166
_symmetry_space_group_name_H-M "P -1"
_symmetry_group_IT_number 2
_symmetry_cell_setting 'triclinic'
loop_
_space_group_symop_operation_xyz
x,y,z
-x,-y,-z
loop_
_atom_site_type_symbol
_atom_site_label
_atom_site_fract_x
_atom_site_fract_y
_atom_site_fract_z
Si Si1 0.861060 0.406136 0.636336
Si Si2 0.193090 0.296397 0.148855
Si Si3 0.450221 0.034260 0.604182
Si Si4 0.788362 0.368721 0.160333
Si Si5 0.322057 0.767524 0.687981
Si Si6 0.334283 0.674710 0.173382
O O1 0.840178 0.259844 0.549115
O O2 0.994677 0.550660 0.677065
O O3 0.394814 0.460224 0.577537
O O4 0.004752 0.300879 0.889193
O O5 0.226810 0.175255 0.314076
O O6 0.207766 0.520665 0.135382
O O7 0.434952 0.167364 0.325680
O O8 0.642084 0.147073 0.765038
O O9 0.387203 0.964936 0.678102
O O10 0.789689 0.240471 0.292922
O O11 0.559146 0.571905 0.928286
O O12 0.762678 0.261761 0.045320
#
# Coordination Sequence:
#
# PCOD9079940 Si02
#       6
#     2   2   2   2   2   2
#     4  10  18  38  58  82 116 149 184 230 284 328
#     4  10  22  41  57  82 116 151 187 230 280 332
#     4  11  21  39  60  83 114 150 190 230 278 334
#     4   9  19  37  59  81 116 149 182 231 285 329
#     4  10  19  36  59  85 111 149 189 229 278 333
#     4  10  21  39  58  85 116 146 185 235 280 330
#
# _framework density 24.379486
#
# number of rings (size 3 to 8) (size 9 to 14) (size 15 to 20)
#    0.000    2.000    5.000    1.000    0.000    2.000 
#    6.000    0.833    0.000    0.000    0.000    0.000 
#    0.000    0.000    0.000    0.000    0.000    0.000 
#
# Total GULP energy -67179.940762 kJ/mol
# GULP energy per Si atom -5598.328397 kJ/mol
# Density = 2.432400 g / cm^3
# Si number density = 24.379486 Si / 1000 Ang^3
#
#
#
# Elastic Constant Matrix: (Units=GPa)
#
#
# Indices 1 2 3 4 5 6 
#
# 1 75.3324 17.2647 36.2293 -14.3606 -21.0578 20.5875
# 2 17.2647 95.9007 40.5560 2.6502 -18.0568 11.5184
# 3 36.2293 40.5560 109.7242 0.6804 -20.4303 21.4117
# 4 -14.3606 2.6502 0.6804 32.4718 8.6418 -0.8182
# 5 -21.0578 -18.0568 -20.4303 8.6418 43.3263 -8.4336
# 6 20.5875 11.5184 21.4117 -0.8182 -8.4336 39.4956
#
#
#
# Elastic Compliance Matrix: (Units=1/GPa)
#
#
# Indices 1 2 3 4 5 6 
#
# 1 0.020069 -0.000262 -0.004354 0.007551 0.004752 -0.006853
# 2 -0.000262 0.012954 -0.003837 -0.002104 0.003724 -0.000809
# 3 -0.004354 -0.003837 0.013051 -0.002586 0.002323 -0.003244
# 4 0.007551 -0.002104 -0.002586 0.035915 -0.006071 -0.002473
# 5 0.004752 0.003724 0.002323 -0.006071 0.029512 0.001354
# 6 -0.006853 -0.000809 -0.003244 -0.002473 0.001354 0.031124
#
#
# Mechanical properties :
#
#
# Convention : Reuss Voigt Hill
#
# Bulk Modulus (GPa) = 34.28527 52.11748 43.20137
# Shear Modulus (GPa) = 29.54113 35.51923 32.53018
#
# Velocity S-wave (km/s) = 3.48475 3.82112 3.65681
# Velocity P-wave (km/s) = 5.50318 6.39468 5.96561
#
# Compressibility (1/GPa) = 0.02916705
#
# Stress axis : x y z
#
# Youngs Moduli (GPa) = 49.82724 77.19703 76.62016
#
# Poissons Ratio (x) = 0.02026 0.33363
# Poissons Ratio (y) = 0.01308 0.29399
# Poissons Ratio (z) = 0.21697 0.29620
#
# Static dielectric constant tensor:
#      x y z
#    x 1.956930 -0.005960 0.043620 
#    y -0.005960 1.926820 -0.011070 
#    z 0.043620 -0.011070 1.918510 
# 
# From -- ./inp_files/105572.got.cif
#   From: 2010.05.17/outbox.cif.g08.bks.cpg/sg2_53_cif.got.tgz:105572.got - 2010.06.03 11:33:40.
