data_PCOD9079602
_publ_section_title
;
Structure prediction by ZEFSAII (Michael W. Deem and Ramdas Pophale) SiO2 
 PCOD9079602
Probable space group: P -1
;
_chemical_formula_sum "Si O2"
_cell_formula_units_Z 16
_cell_length_a 17.885256
_cell_length_b 9.070701
_cell_length_c 11.483166
_cell_angle_alpha 126.789589
_cell_angle_beta 30.651259
_cell_angle_gamma 131.402691
_cell_volume 710.199410
_symmetry_space_group_name_H-M "P -1"
_symmetry_group_IT_number 2
_symmetry_cell_setting 'triclinic'
loop_
_space_group_symop_operation_xyz
x,y,z
-x,-y,-z
loop_
_atom_site_type_symbol
_atom_site_label
_atom_site_fract_x
_atom_site_fract_y
_atom_site_fract_z
Si Si1 0.707476 0.073509 0.957555
Si Si2 0.788510 0.559603 0.899839
Si Si3 0.326275 0.789831 0.555628
Si Si4 0.128131 0.623446 0.520836
Si Si5 0.455923 0.767471 0.593054
Si Si6 0.174560 0.026606 0.026243
Si Si7 0.478977 0.231772 0.256396
Si Si8 0.839157 0.013819 0.522567
O O1 0.731164 0.931699 0.957731
O O2 0.830820 0.096907 0.701687
O O3 0.703143 0.254193 0.130848
O O4 0.542710 0.047801 0.100775
O O5 0.831059 0.521050 0.691750
O O6 0.780700 0.775424 0.015657
O O7 0.941584 0.555029 0.761627
O O8 0.625627 0.399014 0.081195
O O9 0.233505 0.664156 0.513267
O O10 0.408304 0.687908 0.490006
O O11 0.454158 0.997174 0.438058
O O12 0.211846 0.866361 0.822780
O O13 0.162581 0.824791 0.495079
O O14 0.552150 0.715474 0.543227
O O15 0.993005 0.964033 0.272801
O O16 0.320839 0.169246 0.367560
#
# Coordination Sequence:
#
# PCOD9079602 Si02
#       8
#     2   2   2   2   2   2   2   2
#     4   9  18  35  61  84 111 153 204 238 273 349
#     4  10  22  35  57  91 123 145 188 258 300 322
#     4  10  18  37  62  84 114 158 203 227 283 366
#     4  10  19  36  59  86 114 160 198 229 286 364
#     4   8  18  32  62  84 105 152 210 233 264 347
#     4  10  23  38  58  90 124 147 188 253 302 330
#     4  10  19  36  62  84 112 157 205 236 277 354
#     4  11  19  33  63  87 110 155 209 231 281 354
#
# _framework density 22.528884999999999
#
# number of rings (size 3 to 8) (size 9 to 14) (size 15 to 20)
#    0.750    1.500    2.500    0.750    1.750    2.000 
#    0.000    1.875    0.000    0.000    0.000    0.000 
#    0.000    0.000    0.000    0.000    0.000    0.000 
#
# Total GULP energy -89090.587325 kJ/mol
# GULP energy per Si atom -5568.161708 kJ/mol
# Density = 2.247761 g / cm^3
# Si number density = 22.528885 Si / 1000 Ang^3
#
#
#
# Elastic Constant Matrix: (Units=GPa)
#
#
# Indices 1 2 3 4 5 6 
#
# 1 83.4494 9.9287 19.1890 -1.1643 9.9439 30.2418
# 2 9.9287 36.8770 2.9743 -13.8678 -4.5381 14.6608
# 3 19.1890 2.9743 90.6234 -19.3632 -5.9042 8.3275
# 4 -1.1643 -13.8678 -19.3632 34.7309 1.7841 -2.4951
# 5 9.9439 -4.5381 -5.9042 1.7841 34.3502 1.0094
# 6 30.2418 14.6608 8.3275 -2.4951 1.0094 25.9498
#
#
#
# Elastic Compliance Matrix: (Units=1/GPa)
#
#
# Indices 1 2 3 4 5 6 
#
# 1 0.023035 0.004123 -0.003019 -0.000985 -0.005766 -0.028076
# 2 0.004123 0.045291 0.004720 0.018389 0.005538 -0.030355
# 3 -0.003019 0.004720 0.013976 0.009188 0.003507 -0.002886
# 4 -0.000985 0.018389 0.009188 0.040497 0.002437 -0.008390
# 5 -0.005766 0.005538 0.003507 0.002437 0.031946 0.001457
# 6 -0.028076 -0.030355 -0.002886 -0.008390 0.001457 0.088468
#
#
# Mechanical properties :
#
#
# Convention : Reuss Voigt Hill
#
# Bulk Modulus (GPa) = 10.64406 30.57043 20.60724
# Shear Modulus (GPa) = 19.01999 30.93004 24.97501
#
# Velocity S-wave (km/s) = 2.90875 3.70929 3.33314
# Velocity P-wave (km/s) = 4.00200 5.65191 4.89694
#
# Compressibility (1/GPa) = 0.09394915
#
# Stress axis : x y z
#
# Youngs Moduli (GPa) = 43.41219 22.07948 71.55200
#
# Poissons Ratio (x) = -0.09104 0.21603
# Poissons Ratio (y) = -0.17900 -0.33770
# Poissons Ratio (z) = 0.13107 -0.10421
#
# Static dielectric constant tensor:
#      x y z
#    x 1.919900 -0.001670 0.013850 
#    y -0.001670 1.866950 0.029650 
#    z 0.013850 0.029650 1.905250 
# 
# From -- ./inp_files/471073.got.cif
#   From: 2010.05.17/outbox.cif.g08.bks.cpg/sg2_236_cif.got.tgz:471073.got - 2010.06.03 11:33:40.
