data_PCOD9079282
_publ_section_title
;
Structure prediction by ZEFSAII (Michael W. Deem and Ramdas Pophale) SiO2 
 PCOD9079282
Probable space group: P -1
;
_chemical_formula_sum "Si O2"
_cell_formula_units_Z 15
_cell_length_a 7.915035
_cell_length_b 11.774104
_cell_length_c 12.367161
_cell_angle_alpha 114.998933
_cell_angle_beta 97.205287
_cell_angle_gamma 132.477499
_cell_volume 607.740378
_symmetry_space_group_name_H-M "P -1"
_symmetry_group_IT_number 2
_symmetry_cell_setting 'triclinic'
loop_
_space_group_symop_operation_xyz
x,y,z
-x,-y,-z
loop_
_atom_site_type_symbol
_atom_site_label
_atom_site_fract_x
_atom_site_fract_y
_atom_site_fract_z
Si Si1 0.031812 0.313388 0.371736
Si Si2 0.024224 0.397194 0.171324
Si Si3 0.500000 0.000000 0.000000
Si Si4 0.291347 0.211960 0.370133
Si Si5 0.053302 0.903231 0.401978
Si Si6 0.426639 0.448503 0.098554
Si Si7 0.111682 0.684642 0.419838
Si Si8 0.579239 0.777116 0.849777
O O1 0.899085 0.250495 0.214585
O O2 0.077493 0.200719 0.375174
O O3 0.371106 0.555789 0.481655
O O4 0.853530 0.286676 0.435216
O O5 0.217072 0.428823 0.122982
O O6 0.196415 0.619069 0.322112
O O7 0.703872 0.223888 0.029411
O O8 0.635732 0.957108 0.930524
O O9 0.275283 0.192553 0.233092
O O10 0.201494 0.034831 0.355571
O O11 0.733472 0.660657 0.262167
O O12 0.204219 0.874195 0.457892
O O13 0.000000 0.000000 0.500000
O O14 0.332349 0.255829 0.055168
O O15 0.500000 0.500000 0.000000
O O16 0.763142 0.452632 0.292247
#
# Coordination Sequence:
#
# PCOD9079282 Si02
#       8
#     2   2   1   2   2   2   2   2
#     4  10  18  36  65  94 120 159 198 264 318 363
#     4  11  22  41  63  90 127 165 210 257 312 371
#     4  10  24  40  64  88 118 162 218 258 296 366
#     4  10  19  34  67  93 119 156 207 255 310 373
#     4  11  21  39  63  92 127 164 208 253 312 381
#     4  11  25  42  63  90 129 171 208 257 317 370
#     4   9  20  38  61  90 127 156 194 262 326 365
#     4   9  20  42  60  87 120 160 209 257 307 364
#
# _framework density 24.681594
#
# number of rings (size 3 to 8) (size 9 to 14) (size 15 to 20)
#    0.000    1.867    2.667    1.200    1.867    1.600 
#    2.400    4.667    0.000    0.000    0.000    0.000 
#    0.000    0.000    0.000    0.000    0.000    0.000 
#
# Total GULP energy -83576.141350 kJ/mol
# GULP energy per Si atom -5571.742757 kJ/mol
# Density = 2.462542 g / cm^3
# Si number density = 24.681594 Si / 1000 Ang^3
#
#
#
# Elastic Constant Matrix: (Units=GPa)
#
#
# Indices 1 2 3 4 5 6 
#
# 1 98.7487 29.8400 30.8870 -15.9109 -37.3356 4.0828
# 2 29.8400 123.8889 26.0729 -8.2893 -18.1119 -22.8158
# 3 30.8870 26.0729 78.1008 2.2047 -27.4735 -7.1498
# 4 -15.9109 -8.2893 2.2047 41.6988 9.1474 -2.6076
# 5 -37.3356 -18.1119 -27.4735 9.1474 42.7141 9.6491
# 6 4.0828 -22.8158 -7.1498 -2.6076 9.6491 45.4629
#
#
#
# Elastic Compliance Matrix: (Units=1/GPa)
#
#
# Indices 1 2 3 4 5 6 
#
# 1 0.017347 -0.002716 -0.001795 0.002822 0.013591 -0.005926
# 2 -0.002716 0.010128 -0.002249 0.001664 -0.001079 0.005298
# 3 -0.001795 -0.002249 0.017857 -0.004304 0.010004 -0.000529
# 4 0.002822 0.001664 -0.004304 0.027108 -0.006020 0.002737
# 5 0.013591 -0.001079 0.010004 -0.006020 0.044827 -0.010048
# 6 -0.005926 0.005298 -0.000529 0.002737 -0.010048 0.027393
#
#
# Mechanical properties :
#
#
# Convention : Reuss Voigt Hill
#
# Bulk Modulus (GPa) = 31.43350 52.70424 42.06887
# Shear Modulus (GPa) = 29.62353 40.23772 34.93062
#
# Velocity S-wave (km/s) = 3.46819 4.04204 3.76606
# Velocity P-wave (km/s) = 5.36666 6.57147 5.99938
#
# Compressibility (1/GPa) = 0.03181320
#
# Stress axis : x y z
#
# Youngs Moduli (GPa) = 57.64615 98.73193 56.00150
#
# Poissons Ratio (x) = 0.26817 0.10052
# Poissons Ratio (y) = 0.15657 0.12592
# Poissons Ratio (z) = 0.10347 0.22200
#
# Static dielectric constant tensor:
#      x y z
#    x 1.980460 -0.108800 -0.375620 
#    y -0.108800 1.928240 -0.130340 
#    z -0.375620 -0.130340 1.483780 
# 
# From -- ./inp_files/154292.got.cif
#   From: 2010.05.17/outbox.cif.g08.bks.cpg/sg2_78_cif.got.tgz:154292.got - 2010.06.03 11:33:40.
