data_PCOD9079153
_publ_section_title
;
Structure prediction by ZEFSAII (Michael W. Deem and Ramdas Pophale) SiO2 
 PCOD9079153
Probable space group: P -1
;
_chemical_formula_sum "Si O2"
_cell_formula_units_Z 16
_cell_length_a 9.763305
_cell_length_b 16.646888
_cell_length_c 9.778935
_cell_angle_alpha 84.313751
_cell_angle_beta 61.459317
_cell_angle_gamma 131.568886
_cell_volume 808.585981
_symmetry_space_group_name_H-M "P -1"
_symmetry_group_IT_number 2
_symmetry_cell_setting 'triclinic'
loop_
_space_group_symop_operation_xyz
x,y,z
-x,-y,-z
loop_
_atom_site_type_symbol
_atom_site_label
_atom_site_fract_x
_atom_site_fract_y
_atom_site_fract_z
Si Si1 0.535348 0.238045 0.327690
Si Si2 0.064113 0.489782 0.746227
Si Si3 0.117918 0.742042 0.949440
Si Si4 0.692669 0.540695 0.516218
Si Si5 0.174807 0.858733 0.174587
Si Si6 0.526981 0.724335 0.945654
Si Si7 0.973841 0.029754 0.661822
Si Si8 0.658208 0.613212 0.020461
O O1 0.785713 0.376266 0.269356
O O2 0.599492 0.176474 0.247586
O O3 0.499661 0.283629 0.206583
O O4 0.265077 0.128039 0.562005
O O5 0.251917 0.528277 0.538577
O O6 0.007834 0.390026 0.892568
O O7 0.778740 0.397289 0.841137
O O8 0.126091 0.817564 0.043272
O O9 0.940543 0.694463 0.915063
O O10 0.500000 0.500000 0.500000
O O11 0.526049 0.472394 0.744325
O O12 0.982534 0.707546 0.356345
O O13 0.066057 0.893184 0.296557
O O14 0.500000 0.000000 0.000000
O O15 0.708193 0.876649 0.872224
O O16 0.674128 0.709981 0.939526
O O17 0.000000 0.000000 0.500000
O O18 0.500000 0.500000 0.000000
#
# Coordination Sequence:
#
# PCOD9079153 Si02
#       8
#     2   2   2   2   2   2   2   2
#     4  10  19  36  65  90 119 165 217 253 304 378
#     4  10  18  36  63  87 118 156 215 258 301 370
#     4  10  21  38  61  92 124 168 211 256 312 374
#     4  11  22  38  66  96 121 166 221 259 309 380
#     4  11  21  38  67  94 124 162 220 266 302 368
#     4  10  22  37  57  91 125 159 201 261 318 369
#     4  10  21  35  60  88 120 162 213 251 307 379
#     4  12  24  39  63  94 135 163 204 267 327 367
#
# _framework density 19.78763
#
# number of rings (size 3 to 8) (size 9 to 14) (size 15 to 20)
#    0.000    1.500    2.500    6.750    3.500    0.500 
#    0.000    1.250    2.750    0.000    0.000    0.000 
#    0.000    0.000    0.000    0.000    0.000    0.000 
#
# Total GULP energy -89091.394896 kJ/mol
# GULP energy per Si atom -5568.212181 kJ/mol
# Density = 1.974259 g / cm^3
# Si number density = 19.787630 Si / 1000 Ang^3
#
#
#
# Elastic Constant Matrix: (Units=GPa)
#
#
# Indices 1 2 3 4 5 6 
#
# 1 91.9472 18.5230 9.9032 5.8533 -10.3568 5.7536
# 2 18.5230 96.2984 14.8445 9.0340 -3.8227 -7.2750
# 3 9.9032 14.8445 46.4509 8.7968 -22.9243 7.3421
# 4 5.8533 9.0340 8.7968 32.4964 -0.2438 -11.5352
# 5 -10.3568 -3.8227 -22.9243 -0.2438 34.4705 0.3613
# 6 5.7536 -7.2750 7.3421 -11.5352 0.3613 29.0516
#
#
#
# Elastic Compliance Matrix: (Units=1/GPa)
#
#
# Indices 1 2 3 4 5 6 
#
# 1 0.012277 -0.002529 0.002163 -0.003912 0.004874 -0.005225
# 2 -0.002529 0.011993 -0.005921 0.000569 -0.003419 0.005269
# 3 0.002163 -0.005921 0.044031 -0.017694 0.029365 -0.020430
# 4 -0.003912 0.000569 -0.017694 0.044214 -0.012809 0.023104
# 5 0.004874 -0.003419 0.029365 -0.012809 0.049690 -0.014946
# 6 -0.005225 0.005269 -0.020430 0.023104 -0.014946 0.051298
#
#
# Mechanical properties :
#
#
# Convention : Reuss Voigt Hill
#
# Bulk Modulus (GPa) = 17.94498 35.69312 26.81905
# Shear Modulus (GPa) = 20.43700 31.96542 26.20121
#
# Velocity S-wave (km/s) = 3.21723 4.02359 3.64279
# Velocity P-wave (km/s) = 4.78427 6.29786 5.59251
#
# Compressibility (1/GPa) = 0.05572588
#
# Stress axis : x y z
#
# Youngs Moduli (GPa) = 81.45074 83.38483 22.71112
#
# Poissons Ratio (x) = 0.21090 -0.04912
# Poissons Ratio (y) = 0.20601 0.13448
# Poissons Ratio (z) = -0.17616 0.49374
#
# Static dielectric constant tensor:
#      x y z
#    x 1.534970 0.044940 -0.098980 
#    y 0.044940 1.424540 -0.048740 
#    z -0.098980 -0.048740 1.720500 
# 
# From -- ./inp_files/206868.got.cif
#   From: 2010.05.17/outbox.cif.g08.bks.cpg/sg2_104_cif.got.tgz:206868.got - 2010.06.03 11:33:40.
