data_PCOD9079140
_publ_section_title
;
Structure prediction by ZEFSAII (Michael W. Deem and Ramdas Pophale) SiO2 
 PCOD9079140
Probable space group: P -1
;
_chemical_formula_sum "Si O2"
_cell_formula_units_Z 14
_cell_length_a 17.064572
_cell_length_b 26.188286
_cell_length_c 7.944595
_cell_angle_alpha 141.257433
_cell_angle_beta 43.620070
_cell_angle_gamma 163.687533
_cell_volume 617.917998
_symmetry_space_group_name_H-M "P -1"
_symmetry_group_IT_number 2
_symmetry_cell_setting 'triclinic'
loop_
_space_group_symop_operation_xyz
x,y,z
-x,-y,-z
loop_
_atom_site_type_symbol
_atom_site_label
_atom_site_fract_x
_atom_site_fract_y
_atom_site_fract_z
Si Si1 0.213884 0.740637 0.192254
Si Si2 0.292514 0.517050 0.478733
Si Si3 0.822494 0.410663 0.705260
Si Si4 0.346762 0.994441 0.529282
Si Si5 0.536530 0.355635 0.829030
Si Si6 0.821793 0.719235 0.799685
Si Si7 0.791407 0.939238 0.682369
O O1 0.960324 0.443597 0.103170
O O2 0.486691 0.892888 0.260856
O O3 0.999327 0.644093 0.405852
O O4 0.301775 0.868407 0.250701
O O5 0.286096 0.501948 0.247195
O O6 0.363964 0.480111 0.368738
O O7 0.542826 0.747470 0.702790
O O8 0.562351 0.180371 0.550080
O O9 0.708754 0.427756 0.895326
O O10 0.000000 0.500000 0.500000
O O11 0.045701 0.840470 0.620958
O O12 0.356328 0.161095 0.528000
O O13 0.349593 0.311197 0.051735
O O14 0.015875 0.864556 0.036789
O O15 0.000000 0.000000 0.500000
#
# Coordination Sequence:
#
# PCOD9079140 Si02
#       7
#     2   2   2   2   2   2   2
#     4  10  22  42  62  86 113 152 206 240 274 359
#     4   9  18  36  60  85 114 150 198 236 280 338
#     4  12  25  40  58  85 122 154 187 248 307 335
#     4  10  23  40  64  86 110 159 202 233 289 345
#     4   9  21  36  54  92 119 144 193 235 290 350
#     4  10  18  36  63  83 115 155 194 238 280 337
#     4   8  17  30  52  86 112 143 189 227 269 338
#
# _framework density 22.656728999999999
#
# number of rings (size 3 to 8) (size 9 to 14) (size 15 to 20)
#    0.857    1.429    0.000    2.571    2.000    1.143 
#    2.571    2.857    0.000    0.000    0.000    0.000 
#    0.000    0.000    0.000    0.000    0.000    0.000 
#
# Total GULP energy -78089.205227 kJ/mol
# GULP energy per Si atom -5577.800373 kJ/mol
# Density = 2.260516 g / cm^3
# Si number density = 22.656729 Si / 1000 Ang^3
#
#
#
# Elastic Constant Matrix: (Units=GPa)
#
#
# Indices 1 2 3 4 5 6 
#
# 1 59.7295 19.9715 9.4243 4.2298 -20.9268 7.1450
# 2 19.9715 101.1894 21.4571 -1.6642 -26.4990 -11.0770
# 3 9.4243 21.4571 57.5010 7.3379 -23.5715 -0.6856
# 4 4.2298 -1.6642 7.3379 36.0138 4.2068 -4.4084
# 5 -20.9268 -26.4990 -23.5715 4.2068 33.6428 3.1623
# 6 7.1450 -11.0770 -0.6856 -4.4084 3.1623 28.4935
#
#
#
# Elastic Compliance Matrix: (Units=1/GPa)
#
#
# Indices 1 2 3 4 5 6 
#
# 1 0.025453 -0.002283 0.005796 -0.007917 0.020080 -0.010584
# 2 -0.002283 0.013123 -0.001651 0.000985 0.007167 0.004991
# 3 0.005796 -0.001651 0.027948 -0.009897 0.023648 -0.005578
# 4 -0.007917 0.000985 -0.009897 0.033767 -0.016165 0.009148
# 5 0.020080 0.007167 0.023648 -0.016165 0.067547 -0.011678
# 6 -0.010584 0.004991 -0.005578 0.009148 -0.011678 0.042267
#
#
# Mechanical properties :
#
#
# Convention : Reuss Voigt Hill
#
# Bulk Modulus (GPa) = 14.23550 35.56952 24.90251
# Shear Modulus (GPa) = 21.75843 30.80116 26.27979
#
# Velocity S-wave (km/s) = 3.10232 3.69110 3.40944
# Velocity P-wave (km/s) = 4.37370 5.82229 5.14919
#
# Compressibility (1/GPa) = 0.07024692
#
# Stress axis : x y z
#
# Youngs Moduli (GPa) = 39.28831 76.20479 35.78132
#
# Poissons Ratio (x) = 0.17397 -0.20738
# Poissons Ratio (y) = 0.08969 0.05907
# Poissons Ratio (z) = -0.22770 0.12579
#
# Static dielectric constant tensor:
#      x y z
#    x 1.854650 0.013240 0.009850 
#    y 0.013240 1.830120 0.006090 
#    z 0.009850 0.006090 1.876270 
# 
# From -- ./inp_files/467537.got.cif
#   From: 2010.05.17/outbox.cif.g08.bks.cpg/sg2_234_cif.got.tgz:467537.got - 2010.06.03 11:33:40.
