data_PCOD9079868
_publ_section_title
;
Structure prediction by ZEFSAII (Michael W. Deem and Ramdas Pophale) SiO2 
 PCOD9079868
Probable space group: P -1
;
_chemical_formula_sum "Si O2"
_cell_formula_units_Z 16
_cell_length_a 12.345813
_cell_length_b 18.839247
_cell_length_c 9.269050
_cell_angle_alpha 27.281844
_cell_angle_beta 135.820511
_cell_angle_gamma 134.512046
_cell_volume 674.845740
_symmetry_space_group_name_H-M "P -1"
_symmetry_group_IT_number 2
_symmetry_cell_setting 'triclinic'
loop_
_space_group_symop_operation_xyz
x,y,z
-x,-y,-z
loop_
_atom_site_type_symbol
_atom_site_label
_atom_site_fract_x
_atom_site_fract_y
_atom_site_fract_z
Si Si1 0.291524 0.798877 0.669089
Si Si2 0.414055 0.087365 0.446432
Si Si3 0.512260 0.682867 0.650141
Si Si4 0.000020 0.331316 0.583115
Si Si5 0.903396 0.319447 0.068145
Si Si6 0.183025 0.807518 0.083284
Si Si7 0.348927 0.116067 0.835722
Si Si8 0.116906 0.162610 0.773400
O O1 0.458718 0.817163 0.717575
O O2 0.161485 0.754273 0.499680
O O3 0.243826 0.673195 0.978839
O O4 0.292053 0.965049 0.453541
O O5 0.388165 0.208341 0.326890
O O6 0.505497 0.967065 0.836007
O O7 0.336762 0.727009 0.399243
O O8 0.592691 0.735503 0.478587
O O9 0.500000 0.500000 0.000000
O O10 0.963687 0.287488 0.792449
O O11 0.138466 0.261155 0.764397
O O12 0.030010 0.514408 0.242698
O O13 0.025425 0.261268 0.397587
O O14 0.855365 0.198296 0.111031
O O15 0.228212 0.983964 0.869294
O O16 0.266151 0.146336 0.849896
O O17 0.000000 0.000000 0.000000
#
# Coordination Sequence:
#
# PCOD9079868 Si02
#       8
#     2   2   2   2   2   2   2   2
#     4  10  18  37  67  93 116 165 225 257 313 383
#     4  10  20  39  68  90 124 173 213 265 326 386
#     4  11  24  39  65  96 132 167 211 278 327 379
#     4  11  22  42  66  90 132 178 209 272 320 385
#     4  11  24  38  66  96 129 176 216 263 325 388
#     4  11  22  45  64  91 132 173 225 252 328 391
#     4  11  21  40  65  91 133 168 209 270 323 382
#     4  11  22  41  64  95 128 166 219 264 317 381
#
# _framework density 23.709122000000001
#
# number of rings (size 3 to 8) (size 9 to 14) (size 15 to 20)
#    0.000    1.250    3.750    5.625    1.750    1.500 
#    0.000    5.000    0.000    6.000    0.000    0.000 
#    0.000    0.000    0.000    0.000    0.000    0.000 
#
# Total GULP energy -89489.920949 kJ/mol
# GULP energy per Si atom -5593.120059 kJ/mol
# Density = 2.365516 g / cm^3
# Si number density = 23.709122 Si / 1000 Ang^3
#
#
#
# Elastic Constant Matrix: (Units=GPa)
#
#
# Indices 1 2 3 4 5 6 
#
# 1 123.1253 21.0098 49.4212 -2.0886 -39.8316 -22.1164
# 2 21.0098 62.3101 -3.7952 11.9547 -3.3979 -8.9994
# 3 49.4212 -3.7952 95.4118 -10.6977 -35.7141 -2.9520
# 4 -2.0886 11.9547 -10.6977 30.1502 -4.0792 -12.2419
# 5 -39.8316 -3.3979 -35.7141 -4.0792 45.3591 2.3804
# 6 -22.1164 -8.9994 -2.9520 -12.2419 2.3804 30.8443
#
#
#
# Elastic Compliance Matrix: (Units=1/GPa)
#
#
# Indices 1 2 3 4 5 6 
#
# 1 0.016359 -0.004908 -0.002842 0.008795 0.011889 0.012599
# 2 -0.004908 0.019088 0.001478 -0.008039 -0.002397 -0.000814
# 3 -0.002842 0.001478 0.017447 0.007957 0.011947 0.002299
# 4 0.008795 -0.008039 0.007957 0.051797 0.016786 0.023985
# 5 0.011889 -0.002397 0.011947 0.016786 0.042575 0.012345
# 6 0.012599 -0.000814 0.002299 0.023985 0.012345 0.050004
#
#
# Mechanical properties :
#
#
# Convention : Reuss Voigt Hill
#
# Bulk Modulus (GPa) = 24.78440 46.01320 35.39880
# Shear Modulus (GPa) = 22.39490 35.55148 28.97319
#
# Velocity S-wave (km/s) = 3.07672 3.87652 3.49954
# Velocity P-wave (km/s) = 4.80602 6.28379 5.59392
#
# Compressibility (1/GPa) = 0.04034796
#
# Stress axis : x y z
#
# Youngs Moduli (GPa) = 61.12924 52.38943 57.31555
#
# Poissons Ratio (x) = 0.25715 0.16292
# Poissons Ratio (y) = 0.30005 -0.08471
# Poissons Ratio (z) = 0.17376 -0.07743
#
# Static dielectric constant tensor:
#      x y z
#    x 1.941310 0.035500 0.058350 
#    y 0.035500 1.919560 0.017330 
#    z 0.058350 0.017330 1.937080 
# 
# From -- ./inp_files/277253.got.cif
#   From: 2010.05.17/outbox.cif.g08.bks.cpg/sg2_139_cif.got.tgz:277253.got - 2010.06.03 11:33:40.
