data_PCOD9079891
_publ_section_title
;
Structure prediction by ZEFSAII (Michael W. Deem and Ramdas Pophale) SiO2 
 PCOD9079891
Probable space group: P -1
;
_chemical_formula_sum "Si O2"
_cell_formula_units_Z 14
_cell_length_a 12.289271
_cell_length_b 15.033476
_cell_length_c 7.785723
_cell_angle_alpha 150.657951
_cell_angle_beta 120.949899
_cell_angle_gamma 52.218237
_cell_volume 556.356645
_symmetry_space_group_name_H-M "P -1"
_symmetry_group_IT_number 2
_symmetry_cell_setting 'triclinic'
loop_
_space_group_symop_operation_xyz
x,y,z
-x,-y,-z
loop_
_atom_site_type_symbol
_atom_site_label
_atom_site_fract_x
_atom_site_fract_y
_atom_site_fract_z
Si Si1 0.982823 0.961794 0.722688
Si Si2 0.225462 0.028674 0.876092
Si Si3 0.641134 0.421376 0.315951
Si Si4 0.807410 0.465603 0.847776
Si Si5 0.663632 0.403137 0.935593
Si Si6 0.748499 0.853666 0.260676
Si Si7 0.538996 0.158478 0.988006
O O1 0.069609 0.066660 0.868628
O O2 0.060784 0.731918 0.344897
O O3 0.826047 0.993902 0.613623
O O4 0.000000 0.000000 0.000000
O O5 0.327043 0.996646 0.068127
O O6 0.231171 0.174238 0.975817
O O7 0.287742 0.814695 0.471988
O O8 0.732518 0.397682 0.519326
O O9 0.720367 0.402461 0.171459
O O10 0.573556 0.262565 0.025475
O O11 0.528960 0.645448 0.616861
O O12 0.716750 0.517224 0.032580
O O13 0.818559 0.657176 0.100238
O O14 0.500000 0.500000 0.000000
O O15 0.585349 0.913208 0.258268
#
# Coordination Sequence:
#
# PCOD9079891 Si02
#       7
#     2   2   2   2   2   2   2
#     4  11  25  48  67  88 133 184 224 268 332 401
#     4  11  23  42  67  96 136 175 218 272 336 400
#     4  10  18  37  68  98 130 177 211 267 339 387
#     4  10  23  45  68  97 135 169 230 274 320 397
#     4  11  19  36  69  99 130 176 219 260 335 402
#     4  11  24  42  68  98 135 172 217 285 330 378
#     4  10  19  40  65 101 133 165 219 278 321 391
#
# _framework density 25.163713000000001
#
# number of rings (size 3 to 8) (size 9 to 14) (size 15 to 20)
#    0.000    1.429    4.286    3.000    2.000    0.000 
#    5.143    5.714    0.000    0.000    0.000    0.000 
#    0.000    0.000    0.000    0.000    0.000    0.000 
#
# Total GULP energy -78272.022599 kJ/mol
# GULP energy per Si atom -5590.858757 kJ/mol
# Density = 2.510644 g / cm^3
# Si number density = 25.163713 Si / 1000 Ang^3
#
#
#
# Elastic Constant Matrix: (Units=GPa)
#
#
# Indices 1 2 3 4 5 6 
#
# 1 196.1744 49.0962 47.6675 -8.9680 17.0049 17.0258
# 2 49.0962 82.0718 17.0167 -4.9833 13.5158 22.3731
# 3 47.6675 17.0167 68.4015 -8.2867 8.3767 -6.4746
# 4 -8.9680 -4.9833 -8.2867 36.3522 -8.0680 5.8172
# 5 17.0049 13.5158 8.3767 -8.0680 46.8236 -8.3890
# 6 17.0258 22.3731 -6.4746 5.8172 -8.3890 46.0225
#
#
#
# Elastic Compliance Matrix: (Units=1/GPa)
#
#
# Indices 1 2 3 4 5 6 
#
# 1 0.007118 -0.002440 -0.004342 0.000492 -0.001446 -0.002384
# 2 -0.002440 0.017652 -0.002751 0.001529 -0.005100 -0.009188
# 3 -0.004342 -0.002751 0.019061 0.002095 0.000292 0.005414
# 4 0.000492 0.001529 0.002095 0.029683 0.003447 -0.003754
# 5 -0.001446 -0.005100 0.000292 0.003447 0.025188 0.007211
# 6 -0.002384 -0.009188 0.005414 -0.003754 0.007211 0.029628
#
#
# Mechanical properties :
#
#
# Convention : Reuss Voigt Hill
#
# Bulk Modulus (GPa) = 40.38119 63.80095 52.09107
# Shear Modulus (GPa) = 32.12336 41.36415 36.74376
#
# Velocity S-wave (km/s) = 3.57679 4.05878 3.82539
# Velocity P-wave (km/s) = 5.75675 6.88290 6.34486
#
# Compressibility (1/GPa) = 0.02476400
#
# Stress axis : x y z
#
# Youngs Moduli (GPa) = 140.48910 56.65119 52.46448
#
# Poissons Ratio (x) = 0.13822 0.22782
# Poissons Ratio (y) = 0.34276 0.14433
# Poissons Ratio (z) = 0.61005 0.15585
#
# Static dielectric constant tensor:
#      x y z
#    x 2.024770 -0.001500 -0.012830 
#    y -0.001500 2.110040 -0.033070 
#    z -0.012830 -0.033070 2.038180 
# 
# From -- ./inp_files/278612.got.cif
#   From: 2010.05.17/outbox.cif.g08.bks.cpg/sg2_140_cif.got.tgz:278612.got - 2010.06.03 11:33:40.
