data_PCOD9079247
_publ_section_title
;
Structure prediction by ZEFSAII (Michael W. Deem and Ramdas Pophale) SiO2 
 PCOD9079247
Probable space group: P -1
;
_chemical_formula_sum "Si O2"
_cell_formula_units_Z 16
_cell_length_a 11.528217
_cell_length_b 13.896638
_cell_length_c 9.245732
_cell_angle_alpha 112.918990
_cell_angle_beta 68.118240
_cell_angle_gamma 148.926627
_cell_volume 701.755403
_symmetry_space_group_name_H-M "P -1"
_symmetry_group_IT_number 2
_symmetry_cell_setting 'triclinic'
loop_
_space_group_symop_operation_xyz
x,y,z
-x,-y,-z
loop_
_atom_site_type_symbol
_atom_site_label
_atom_site_fract_x
_atom_site_fract_y
_atom_site_fract_z
Si Si1 0.325409 0.492456 0.093477
Si Si2 0.618740 0.829313 0.347103
Si Si3 0.903542 0.466601 0.179976
Si Si4 0.791101 0.297627 0.557843
Si Si5 0.750474 0.784019 0.512927
Si Si6 0.985255 0.105116 0.130713
Si Si7 0.153896 0.777248 0.785599
Si Si8 0.618561 0.473803 0.252675
O O1 0.654588 0.510369 0.086626
O O2 0.541335 0.692553 0.181334
O O3 0.115990 0.424444 0.182779
O O4 0.256409 0.545265 0.771042
O O5 0.435966 0.793667 0.402475
O O6 0.604393 0.759308 0.463464
O O7 0.874188 0.030985 0.297557
O O8 0.109444 0.647150 0.295703
O O9 0.766630 0.269376 0.190473
O O10 0.000000 0.500000 0.000000
O O11 0.769954 0.184959 0.392887
O O12 0.000000 0.500000 0.500000
O O13 0.723606 0.647970 0.385460
O O14 0.638573 0.711876 0.680320
O O15 0.000000 0.000000 0.500000
O O16 0.829350 0.086379 0.108118
O O17 0.230752 0.326891 0.126161
O O18 0.000000 0.000000 0.000000
#
# Coordination Sequence:
#
# PCOD9079247 Si02
#       8
#     2   2   2   2   2   2   2   2
#     4  10  22  43  65 105 126 171 230 270 336 399
#     4  12  23  42  73  96 134 180 218 283 340 390
#     4  11  18  37  68  97 134 171 217 272 335 405
#     4  10  18  36  64  97 128 165 219 272 328 394
#     4  11  28  46  65 101 137 179 232 271 334 407
#     4  10  23  39  62  97 134 172 223 280 323 392
#     4   9  20  38  60  96 132 162 220 276 321 395
#     4  11  24  45  73  95 137 186 214 277 347 398
#
# _framework density 22.799966000000001
#
# number of rings (size 3 to 8) (size 9 to 14) (size 15 to 20)
#    0.750    0.750    3.750    2.250    0.000    7.500 
#    0.000    1.250    0.000    3.000    0.000    0.000 
#    0.000    0.000    0.000    0.000    0.000    0.000 
#
# Total GULP energy -89202.013974 kJ/mol
# GULP energy per Si atom -5575.125873 kJ/mol
# Density = 2.274807 g / cm^3
# Si number density = 22.799966 Si / 1000 Ang^3
#
#
#
# Elastic Constant Matrix: (Units=GPa)
#
#
# Indices 1 2 3 4 5 6 
#
# 1 127.8711 62.8029 54.2115 -13.9921 -22.0448 -3.2408
# 2 62.8029 89.9911 41.9374 -17.8867 -21.1063 -15.3275
# 3 54.2115 41.9374 156.0012 -32.2879 -13.7818 1.5552
# 4 -13.9921 -17.8867 -32.2879 26.4376 -2.0137 -1.3338
# 5 -22.0448 -21.1063 -13.7818 -2.0137 38.0255 -5.9120
# 6 -3.2408 -15.3275 1.5552 -1.3338 -5.9120 35.3589
#
#
#
# Elastic Compliance Matrix: (Units=1/GPa)
#
#
# Indices 1 2 3 4 5 6 
#
# 1 0.012930 -0.008155 -0.002481 -0.001680 0.001666 -0.002026
# 2 -0.008155 0.024222 0.000008 0.013557 0.011328 0.012157
# 3 -0.002481 0.000008 0.009744 0.010809 0.002702 0.000207
# 4 -0.001680 0.013557 0.010809 0.060981 0.015268 0.010101
# 5 0.001666 0.011328 0.002702 0.015268 0.037164 0.011734
# 6 -0.002026 0.012157 0.000207 0.010101 0.011734 0.035700
#
#
# Mechanical properties :
#
#
# Convention : Reuss Voigt Hill
#
# Bulk Modulus (GPa) = 39.00324 76.86300 57.93312
# Shear Modulus (GPa) = 23.74802 34.29184 29.01993
#
# Velocity S-wave (km/s) = 3.23086 3.88239 3.57151
# Velocity P-wave (km/s) = 5.57331 7.34046 6.51706
#
# Compressibility (1/GPa) = 0.02563890
#
# Stress axis : x y z
#
# Youngs Moduli (GPa) = 77.34101 41.28468 102.62675
#
# Poissons Ratio (x) = 0.33669 0.25463
# Poissons Ratio (y) = 0.63075 -0.00083
# Poissons Ratio (z) = 0.19189 -0.00033
#
# Static dielectric constant tensor:
#      x y z
#    x 1.937210 -0.035120 0.009030 
#    y -0.035120 1.897160 0.032550 
#    z 0.009030 0.032550 1.859200 
# 
# From -- ./inp_files/273695.got.cif
#   From: 2010.05.17/outbox.cif.g08.bks.cpg/sg2_137_cif.got.tgz:273695.got - 2010.06.03 11:33:40.
