data_PCOD9079259
_publ_section_title
;
Structure prediction by ZEFSAII (Michael W. Deem and Ramdas Pophale) SiO2 
 PCOD9079259
Probable space group: P -1
;
_chemical_formula_sum "Si O2"
_cell_formula_units_Z 14
_cell_length_a 14.383639
_cell_length_b 7.378858
_cell_length_c 6.627043
_cell_angle_alpha 108.038738
_cell_angle_beta 66.524229
_cell_angle_gamma 69.919184
_cell_volume 518.212371
_symmetry_space_group_name_H-M "P -1"
_symmetry_group_IT_number 2
_symmetry_cell_setting 'triclinic'
loop_
_space_group_symop_operation_xyz
x,y,z
-x,-y,-z
loop_
_atom_site_type_symbol
_atom_site_label
_atom_site_fract_x
_atom_site_fract_y
_atom_site_fract_z
Si Si1 0.448111 0.040639 0.329665
Si Si2 0.845216 0.098566 0.953883
Si Si3 0.335188 0.425271 0.116195
Si Si4 0.255425 0.902295 0.411484
Si Si5 0.622963 0.484068 0.358301
Si Si6 0.058287 0.646193 0.494818
Si Si7 0.000211 0.727460 0.117177
O O1 0.340611 0.998290 0.383801
O O2 0.500000 0.000000 0.500000
O O3 0.392433 0.305383 0.432292
O O4 0.563233 0.837872 0.043002
O O5 0.801877 0.078981 0.757092
O O6 0.886705 0.266996 0.059066
O O7 0.719099 0.218506 0.216523
O O8 0.968486 0.856115 0.787147
O O9 0.339567 0.632525 0.279684
O O10 0.201951 0.493344 0.325198
O O11 0.344900 0.470641 0.881618
O O12 0.135580 0.058536 0.702390
O O13 0.500000 0.500000 0.500000
O O14 0.034651 0.740998 0.323765
O O15 0.000000 0.500000 0.500000
O O16 0.000000 0.500000 0.000000
#
# Coordination Sequence:
#
# PCOD9079259 Si02
#       7
#     2   2   2   2   2   2   2
#     4  10  22  36  60  90 120 160 202 255 309 357
#     4  10  20  41  63  89 122 165 207 253 305 379
#     4  10  20  40  61  87 125 162 202 251 310 365
#     4  10  18  36  65  87 116 165 211 241 309 372
#     4  10  21  37  60  87 122 159 204 248 304 361
#     4  11  22  39  67  94 124 165 206 257 312 368
#     4  11  20  37  68  91 123 164 205 258 310 364
#
# _framework density 27.015948999999999
#
# number of rings (size 3 to 8) (size 9 to 14) (size 15 to 20)
#    0.000    1.714    4.286    2.143    4.000    0.000 
#    0.000    3.571   25.143    0.000    0.000    0.000 
#    0.000    0.000    0.000    0.000    0.000    0.000 
#
# Total GULP energy -78114.563783 kJ/mol
# GULP energy per Si atom -5579.611699 kJ/mol
# Density = 2.695446 g / cm^3
# Si number density = 27.015949 Si / 1000 Ang^3
#
#
#
# Elastic Constant Matrix: (Units=GPa)
#
#
# Indices 1 2 3 4 5 6 
#
# 1 194.1719 60.3050 70.2522 11.3722 -29.3240 30.7566
# 2 60.3050 80.2420 28.8539 40.9164 -17.5002 18.3277
# 3 70.2522 28.8539 254.9114 28.0461 -31.4994 10.7816
# 4 11.3722 40.9164 28.0461 49.4129 -4.2198 1.5059
# 5 -29.3240 -17.5002 -31.4994 -4.2198 68.9940 -0.3421
# 6 30.7566 18.3277 10.7816 1.5059 -0.3421 76.3541
#
#
#
# Elastic Compliance Matrix: (Units=1/GPa)
#
#
# Indices 1 2 3 4 5 6 
#
# 1 0.008364 -0.008194 -0.001867 0.006043 0.000987 -0.001253
# 2 -0.008194 0.033235 0.002110 -0.026331 0.004278 -0.004436
# 3 -0.001867 0.002110 0.004857 -0.003916 0.001718 -0.000355
# 4 0.006043 -0.026331 -0.003916 0.042484 -0.003282 0.003587
# 5 0.000987 0.004278 0.001718 -0.003282 0.016575 -0.001528
# 6 -0.001253 -0.004436 -0.000355 0.003587 -0.001528 0.014639
#
#
# Mechanical properties :
#
#
# Convention : Reuss Voigt Hill
#
# Bulk Modulus (GPa) = 32.73105 94.23862 63.48484
# Shear Modulus (GPa) = 34.18989 63.61315 48.90152
#
# Velocity S-wave (km/s) = 3.56131 4.85774 4.25914
# Velocity P-wave (km/s) = 5.39002 8.14996 6.90920
#
# Compressibility (1/GPa) = 0.03055203
#
# Stress axis : x y z
#
# Youngs Moduli (GPa) = 119.55372 30.08886 205.89069
#
# Poissons Ratio (x) = 0.24656 0.38450
# Poissons Ratio (y) = 0.97966 -0.43436
# Poissons Ratio (z) = 0.22326 -0.06348
#
# Static dielectric constant tensor:
#      x y z
#    x 2.103620 -0.263630 0.115230 
#    y -0.263630 2.422010 -0.122740 
#    z 0.115230 -0.122740 2.091310 
# 
# From -- ./inp_files/245333.got.cif
#   From: 2010.05.17/outbox.cif.g08.bks.cpg/sg2_123_cif.got.tgz:245333.got - 2010.06.03 11:33:40.
