data_PCOD9079947
_publ_section_title
;
Structure prediction by ZEFSAII (Michael W. Deem and Ramdas Pophale) SiO2 
 PCOD9079947
Probable space group: P -1
;
_chemical_formula_sum "Si O2"
_cell_formula_units_Z 12
_cell_length_a 16.159356
_cell_length_b 9.364416
_cell_length_c 5.209741
_cell_angle_alpha 55.391293
_cell_angle_beta 94.425599
_cell_angle_gamma 125.274190
_cell_volume 491.430485
_symmetry_space_group_name_H-M "P -1"
_symmetry_group_IT_number 2
_symmetry_cell_setting 'triclinic'
loop_
_space_group_symop_operation_xyz
x,y,z
-x,-y,-z
loop_
_atom_site_type_symbol
_atom_site_label
_atom_site_fract_x
_atom_site_fract_y
_atom_site_fract_z
Si Si1 0.711505 0.437626 0.212191
Si Si2 0.100677 0.770721 0.764375
Si Si3 0.509931 0.397962 0.355826
Si Si4 0.046420 0.203846 0.995406
Si Si5 0.174390 0.706328 0.354113
Si Si6 0.426155 0.935033 0.801537
O O1 0.624769 0.450733 0.300569
O O2 0.725020 0.279480 0.547985
O O3 0.674796 0.324388 0.035042
O O4 0.833623 0.678016 0.989353
O O5 0.172817 0.795521 0.990382
O O6 0.159805 0.829732 0.447340
O O7 0.000000 0.500000 0.000000
O O8 0.924164 0.571849 0.371246
O O9 0.500000 0.500000 0.500000
O O10 0.414145 0.124744 0.610195
O O11 0.500000 0.500000 0.000000
O O12 0.957340 0.131584 0.262161
O O13 0.000000 0.000000 0.000000
O O14 0.500000 0.000000 0.500000
O O15 0.500000 0.000000 0.000000
#
# Coordination Sequence:
#
# PCOD9079947 Si02
#       6
#     2   2   2   2   2   2
#     4   9  22  41  62  96 121 179 214 259 327 399
#     4  10  18  38  58  85 119 166 202 260 295 372
#     4  11  23  43  63  96 131 162 214 285 328 381
#     4   9  19  39  61  92 133 163 208 259 320 372
#     4   9  21  37  61  84 123 161 215 248 305 378
#     4  10  21  42  68  90 123 168 216 267 326 392
#
# _framework density 24.418512
#
# number of rings (size 3 to 8) (size 9 to 14) (size 15 to 20)
#    1.000    1.333    0.000    4.000    0.000    4.000 
#    6.000    7.500    0.000    0.000    0.000    0.000 
#    0.000    0.000    0.000    0.000    0.000    0.000 
#
# Total GULP energy -67057.718791 kJ/mol
# GULP energy per Si atom -5588.143233 kJ/mol
# Density = 2.436293 g / cm^3
# Si number density = 24.418512 Si / 1000 Ang^3
#
#
#
# Elastic Constant Matrix: (Units=GPa)
#
#
# Indices 1 2 3 4 5 6 
#
# 1 202.0965 87.9210 54.7337 27.1176 -4.9870 -9.9190
# 2 87.9210 200.1743 66.3400 40.1020 -12.3625 -16.2105
# 3 54.7337 66.3400 125.9655 41.7323 8.2872 5.1198
# 4 27.1176 40.1020 41.7323 51.0662 -2.4662 -7.2728
# 5 -4.9870 -12.3625 8.2872 -2.4662 27.6788 13.1938
# 6 -9.9190 -16.2105 5.1198 -7.2728 13.1938 48.6437
#
#
#
# Elastic Compliance Matrix: (Units=1/GPa)
#
#
# Indices 1 2 3 4 5 6 
#
# 1 0.006394 -0.002148 -0.001596 -0.000300 0.000350 0.000616
# 2 -0.002148 0.007519 -0.002455 -0.002450 0.002933 0.001164
# 3 -0.001596 -0.002455 0.013200 -0.008603 -0.004918 -0.002485
# 4 -0.000300 -0.002450 -0.008603 0.029347 0.002225 0.003812
# 5 0.000350 0.002933 -0.004918 0.002225 0.043950 -0.010021
# 6 0.000616 0.001164 -0.002485 0.003812 -0.010021 0.024621
#
#
# Mechanical properties :
#
#
# Convention : Reuss Voigt Hill
#
# Bulk Modulus (GPa) = 67.95716 105.13616 86.54666
# Shear Modulus (GPa) = 35.12889 46.76051 40.94470
#
# Velocity S-wave (km/s) = 3.79703 4.38077 4.09930
# Velocity P-wave (km/s) = 6.86395 8.29082 7.61090
#
# Compressibility (1/GPa) = 0.01471515
#
# Stress axis : x y z
#
# Youngs Moduli (GPa) = 156.40034 132.99644 75.75809
#
# Poissons Ratio (x) = 0.28566 0.12089
# Poissons Ratio (y) = 0.33593 0.18600
# Poissons Ratio (z) = 0.24958 0.32653
#
# Static dielectric constant tensor:
#      x y z
#    x 2.047150 0.062480 -0.018030 
#    y 0.062480 1.981380 -0.073690 
#    z -0.018030 -0.073690 1.996360 
# 
# From -- ./inp_files/87438.got.cif
#   From: 2010.05.17/outbox.cif.g08.bks.cpg/sg2_44_cif.got.tgz:87438.got - 2010.06.03 11:33:40.
