data_PCOD9079123
_publ_section_title
;
Structure prediction by ZEFSAII (Michael W. Deem and Ramdas Pophale) SiO2 
 PCOD9079123
Probable space group: P -1
;
_chemical_formula_sum "Si O2"
_cell_formula_units_Z 15
_cell_length_a 11.218572
_cell_length_b 10.805635
_cell_length_c 9.780949
_cell_angle_alpha 125.240093
_cell_angle_beta 126.536841
_cell_angle_gamma 38.858823
_cell_volume 582.382155
_symmetry_space_group_name_H-M "P -1"
_symmetry_group_IT_number 2
_symmetry_cell_setting 'triclinic'
loop_
_space_group_symop_operation_xyz
x,y,z
-x,-y,-z
loop_
_atom_site_type_symbol
_atom_site_label
_atom_site_fract_x
_atom_site_fract_y
_atom_site_fract_z
Si Si1 0.458496 0.384371 0.559819
Si Si2 0.000000 0.000000 0.500000
Si Si3 0.955216 0.769568 0.117861
Si Si4 0.429245 0.379690 0.837243
Si Si5 0.697538 0.753648 0.135811
Si Si6 0.404547 0.377733 0.224251
Si Si7 0.139947 0.056713 0.131486
Si Si8 0.179095 0.077281 0.474660
O O1 0.362701 0.413908 0.657443
O O2 0.385575 0.351896 0.353612
O O3 0.460417 0.564076 0.655237
O O4 0.686620 0.167901 0.587274
O O5 0.999342 0.846184 0.499082
O O6 0.082724 0.046346 0.713480
O O7 0.850931 0.712397 0.102537
O O8 0.189385 0.581252 0.163856
O O9 0.894190 0.826198 0.954704
O O10 0.273000 0.413825 0.855165
O O11 0.630293 0.147799 0.842424
O O12 0.500000 0.500000 0.000000
O O13 0.690606 0.887071 0.332808
O O14 0.531825 0.800461 0.946357
O O15 0.117961 0.150909 0.325137
O O16 0.000000 0.000000 0.000000
#
# Coordination Sequence:
#
# PCOD9079123 Si02
#       8
#     2   1   2   2   2   2   2   2
#     4  10  22  41  71  88 133 176 224 262 332 401
#     4  10  18  36  62  94 126 162 216 266 310 392
#     4  11  23  41  67  97 139 170 221 269 334 399
#     4  11  24  45  68  98 134 174 223 278 328 394
#     4  11  26  42  66 102 134 169 223 281 329 384
#     4  11  22  43  64  98 130 180 215 274 335 390
#     4  11  23  43  73  96 133 182 218 268 332 400
#     4  10  22  42  65  99 127 174 220 271 327 392
#
# _framework density 25.756284999999998
#
# number of rings (size 3 to 8) (size 9 to 14) (size 15 to 20)
#    0.000    1.333    4.000    1.200    0.000    8.533 
#    0.000    1.333    0.000    0.000    0.000    0.000 
#    0.000    0.000    0.000    0.000    0.000    0.000 
#
# Total GULP energy -83582.068882 kJ/mol
# GULP energy per Si atom -5572.137925 kJ/mol
# Density = 2.569766 g / cm^3
# Si number density = 25.756285 Si / 1000 Ang^3
#
#
#
# Elastic Constant Matrix: (Units=GPa)
#
#
# Indices 1 2 3 4 5 6 
#
# 1 133.5683 38.1526 81.9649 -0.6387 -29.3386 34.6498
# 2 38.1526 63.0465 39.6937 -13.4780 -10.0926 5.7974
# 3 81.9649 39.6937 244.8717 -5.9969 -45.5899 28.7013
# 4 -0.6387 -13.4780 -5.9969 39.6742 29.1286 2.9769
# 5 -29.3386 -10.0926 -45.5899 29.1286 55.8687 -10.4063
# 6 34.6498 5.7974 28.7013 2.9769 -10.4063 33.7136
#
#
#
# Elastic Compliance Matrix: (Units=1/GPa)
#
#
# Indices 1 2 3 4 5 6 
#
# 1 0.014399 -0.007292 -0.001403 -0.006735 0.006813 -0.009653
# 2 -0.007292 0.023418 -0.002873 0.013608 -0.008658 0.002039
# 3 -0.001403 -0.002873 0.006110 -0.004167 0.005691 -0.001142
# 4 -0.006735 0.013608 -0.004167 0.054993 -0.034526 -0.007383
# 5 0.006813 -0.008658 0.005691 -0.034526 0.043709 0.006182
# 6 -0.009653 0.002039 -0.001142 -0.007383 0.006182 0.042764
#
#
# Mechanical properties :
#
#
# Convention : Reuss Voigt Hill
#
# Bulk Modulus (GPa) = 48.09523 84.56766 66.33144
# Shear Modulus (GPa) = 23.20620 44.62963 33.91792
#
# Velocity S-wave (km/s) = 3.00491 4.16717 3.63282
# Velocity P-wave (km/s) = 5.54554 7.48724 6.58832
#
# Compressibility (1/GPa) = 0.02079208
#
# Stress axis : x y z
#
# Youngs Moduli (GPa) = 69.44980 42.70155 163.65968
#
# Poissons Ratio (x) = 0.31137 0.22958
# Poissons Ratio (y) = 0.50642 0.47020
# Poissons Ratio (z) = 0.09742 0.12268
#
# Static dielectric constant tensor:
#      x y z
#    x 2.208400 -0.142650 -0.054040 
#    y -0.142650 2.157160 0.069490 
#    z -0.054040 0.069490 2.070030 
# 
# From -- ./inp_files/202638.got.cif
#   From: 2010.05.17/outbox.cif.g08.bks.cpg/sg2_102_cif.got.tgz:202638.got - 2010.06.03 11:33:40.
