data_PCOD9079154
_publ_section_title
;
Structure prediction by ZEFSAII (Michael W. Deem and Ramdas Pophale) SiO2 
 PCOD9079154
Probable space group: P -1
;
_chemical_formula_sum "Si O2"
_cell_formula_units_Z 16
_cell_length_a 11.454029
_cell_length_b 15.651729
_cell_length_c 12.322560
_cell_angle_alpha 151.988354
_cell_angle_beta 55.944590
_cell_angle_gamma 138.936529
_cell_volume 640.324429
_symmetry_space_group_name_H-M "P -1"
_symmetry_group_IT_number 2
_symmetry_cell_setting 'triclinic'
loop_
_space_group_symop_operation_xyz
x,y,z
-x,-y,-z
loop_
_atom_site_type_symbol
_atom_site_label
_atom_site_fract_x
_atom_site_fract_y
_atom_site_fract_z
Si Si1 0.456947 0.364672 0.079975
Si Si2 0.268040 0.312929 0.928308
Si Si3 0.259212 0.065884 0.467865
Si Si4 0.399222 0.881048 0.304532
Si Si5 0.753868 0.349926 0.548758
Si Si6 0.089625 0.396012 0.479180
Si Si7 0.687052 0.751236 0.738301
Si Si8 0.291283 0.897439 0.032361
O O1 0.557953 0.647886 0.339176
O O2 0.382370 0.260137 0.119542
O O3 0.278794 0.203066 0.909332
O O4 0.612710 0.343504 0.951330
O O5 0.167886 0.143969 0.684947
O O6 0.500000 0.500000 0.000000
O O7 0.219015 0.472225 0.173148
O O8 0.235861 0.879536 0.359059
O O9 0.238799 0.946612 0.229509
O O10 0.544776 0.090274 0.374986
O O11 0.500000 0.000000 0.500000
O O12 0.802280 0.477598 0.550633
O O13 0.882913 0.287578 0.436240
O O14 0.147251 0.252220 0.334849
O O15 0.165984 0.611735 0.764391
O O16 0.500000 0.500000 0.500000
O O17 0.751206 0.981724 0.897454
O O18 0.500000 0.000000 0.000000
#
# Coordination Sequence:
#
# PCOD9079154 Si02
#       8
#     2   2   2   2   2   2   2   2
#     4  11  19  34  58  91 124 151 209 265 314 357
#     4  10  18  36  63  87 121 163 207 260 307 361
#     4  11  21  37  57  95 125 158 211 264 316 363
#     4  12  21  35  63  97 119 162 214 267 315 370
#     4  11  22  45  64  92 139 160 214 274 322 383
#     4  11  25  43  64  94 132 176 202 268 333 377
#     4  12  21  37  62  93 126 164 214 262 310 383
#     4  12  23  39  64  92 130 169 217 258 316 390
#
# _framework density 24.987334000000001
#
# number of rings (size 3 to 8) (size 9 to 14) (size 15 to 20)
#    0.000    0.750    7.500    3.000    0.000    0.000 
#    2.250    2.500    0.000    1.500    0.000    0.000 
#    0.000    0.000    0.000    0.000    0.000    0.000 
#
# Total GULP energy -89175.182122 kJ/mol
# GULP energy per Si atom -5573.448883 kJ/mol
# Density = 2.493046 g / cm^3
# Si number density = 24.987334 Si / 1000 Ang^3
#
#
#
# Elastic Constant Matrix: (Units=GPa)
#
#
# Indices 1 2 3 4 5 6 
#
# 1 81.9571 20.0453 23.5227 -0.6490 -42.0247 -27.2947
# 2 20.0453 44.8448 28.8746 -21.9671 0.8549 -27.6521
# 3 23.5227 28.8746 136.9302 -31.2934 -21.5850 -12.8070
# 4 -0.6490 -21.9671 -31.2934 45.4824 -19.9828 3.1033
# 5 -42.0247 0.8549 -21.5850 -19.9828 54.1582 4.5282
# 6 -27.2947 -27.6521 -12.8070 3.1033 4.5282 40.2948
#
#
#
# Elastic Compliance Matrix: (Units=1/GPa)
#
#
# Indices 1 2 3 4 5 6 
#
# 1 0.035412 0.003961 0.005252 0.019800 0.034898 0.022928
# 2 0.003961 0.061000 -0.001531 0.029653 0.009034 0.040758
# 3 0.005252 -0.001531 0.012354 0.013602 0.013721 0.003844
# 4 0.019800 0.029653 0.013602 0.061892 0.040750 0.028738
# 5 0.034898 0.009034 0.013721 0.040750 0.063909 0.023879
# 6 0.022928 0.040758 0.003844 0.028738 0.023879 0.064643
#
#
# Mechanical properties :
#
#
# Convention : Reuss Voigt Hill
#
# Bulk Modulus (GPa) = 8.05603 45.40194 26.72898
# Shear Modulus (GPa) = 15.37406 40.73972 28.05689
#
# Velocity S-wave (km/s) = 2.48316 4.04222 3.35452
# Velocity P-wave (km/s) = 3.38416 6.32420 5.07188
#
# Compressibility (1/GPa) = 0.12413060
#
# Stress axis : x y z
#
# Youngs Moduli (GPa) = 28.23871 16.39354 80.94266
#
# Poissons Ratio (x) = -0.06493 -0.42510
# Poissons Ratio (y) = -0.11185 0.12389
# Poissons Ratio (z) = -0.14831 0.02509
#
# Static dielectric constant tensor:
#      x y z
#    x 3.339010 0.097630 0.101700 
#    y 0.097630 2.124190 -0.080340 
#    z 0.101700 -0.080340 2.043130 
# 
# From -- ./inp_files/433489.got.cif
#   From: 2010.05.17/outbox.cif.g08.bks.cpg/sg2_217_cif.got.tgz:433489.got - 2010.06.03 11:33:40.
