data_PCOD9079156
_publ_section_title
;
Structure prediction by ZEFSAII (Michael W. Deem and Ramdas Pophale) SiO2 
 PCOD9079156
Probable space group: P -1
;
_chemical_formula_sum "Si O2"
_cell_formula_units_Z 15
_cell_length_a 13.084705
_cell_length_b 7.983469
_cell_length_c 7.942669
_cell_angle_alpha 68.615001
_cell_angle_beta 57.708046
_cell_angle_gamma 102.120906
_cell_volume 560.120319
_symmetry_space_group_name_H-M "P -1"
_symmetry_group_IT_number 2
_symmetry_cell_setting 'triclinic'
loop_
_space_group_symop_operation_xyz
x,y,z
-x,-y,-z
loop_
_atom_site_type_symbol
_atom_site_label
_atom_site_fract_x
_atom_site_fract_y
_atom_site_fract_z
Si Si1 0.838258 0.856104 0.886623
Si Si2 0.779971 0.049767 0.134149
Si Si3 0.500000 0.000000 0.500000
Si Si4 0.609805 0.336613 0.595095
Si Si5 0.031195 0.309124 0.394322
Si Si6 0.445849 0.502123 0.862023
Si Si7 0.062905 0.438286 0.814240
Si Si8 0.313470 0.693250 0.093458
O O1 0.927695 0.750463 0.798909
O O2 0.697318 0.717735 0.955518
O O3 0.935193 0.093107 0.651741
O O4 0.781706 0.857267 0.119509
O O5 0.659625 0.019890 0.379172
O O6 0.747768 0.168358 0.968931
O O7 0.943343 0.197351 0.985380
O O8 0.470776 0.842993 0.408760
O O9 0.545616 0.484972 0.643492
O O10 0.772704 0.474242 0.346125
O O11 0.612694 0.248494 0.812979
O O12 0.180854 0.456192 0.299630
O O13 0.955427 0.436757 0.372657
O O14 0.500000 0.500000 0.000000
O O15 0.408882 0.690528 0.848858
O O16 0.000000 0.500000 0.000000
#
# Coordination Sequence:
#
# PCOD9079156 Si02
#       8
#     2   2   1   2   2   2   2   2
#     4  10  18  36  63  88 123 151 205 265 300 350
#     4  11  22  40  63  90 119 163 201 260 306 358
#     4  12  24  38  56  92 124 162 200 242 318 366
#     4  11  21  39  62  85 122 162 201 250 302 367
#     4   9  20  37  63  95 116 158 206 259 309 352
#     4   9  19  37  57  89 121 155 198 255 304 356
#     4  11  22  40  60  86 128 166 203 244 308 378
#     4   9  20  39  65  92 117 153 215 254 305 358
#
# _framework density 26.779962000000001
#
# number of rings (size 3 to 8) (size 9 to 14) (size 15 to 20)
#    0.000    1.867    2.667    1.600    0.000    3.733 
#    4.800    2.667    0.000    0.000    0.000    0.000 
#    0.000    0.000    0.000    0.000    0.000    0.000 
#
# Total GULP energy -83650.923866 kJ/mol
# GULP energy per Si atom -5576.728258 kJ/mol
# Density = 2.671901 g / cm^3
# Si number density = 26.779962 Si / 1000 Ang^3
#
#
#
# Elastic Constant Matrix: (Units=GPa)
#
#
# Indices 1 2 3 4 5 6 
#
# 1 83.1979 49.9114 29.5274 -3.2478 -13.1498 15.8085
# 2 49.9114 179.7630 74.9008 35.5775 -28.1784 20.7272
# 3 29.5274 74.9008 168.2253 14.5997 -42.2474 0.4871
# 4 -3.2478 35.5775 14.5997 63.9931 -0.6779 -16.6559
# 5 -13.1498 -28.1784 -42.2474 -0.6779 54.5068 15.1409
# 6 15.8085 20.7272 0.4871 -16.6559 15.1409 39.6723
#
#
#
# Elastic Compliance Matrix: (Units=1/GPa)
#
#
# Indices 1 2 3 4 5 6 
#
# 1 0.015746 -0.003376 -0.000638 0.001557 0.002962 -0.004980
# 2 -0.003376 0.011256 -0.002084 -0.008619 0.006197 -0.010493
# 3 -0.000638 -0.002084 0.008536 -0.001135 0.005771 -0.001441
# 4 0.001557 -0.008619 -0.001135 0.025410 -0.009720 0.018274
# 5 0.002962 0.006197 0.005771 -0.009720 0.032436 -0.020948
# 6 -0.004980 -0.010493 -0.001441 0.018274 -0.020948 0.048358
#
#
# Mechanical properties :
#
#
# Convention : Reuss Voigt Hill
#
# Bulk Modulus (GPa) = 42.84009 82.20726 62.52367
# Shear Modulus (GPa) = 30.91791 50.09088 40.50439
#
# Velocity S-wave (km/s) = 3.40150 4.32957 3.89329
# Velocity P-wave (km/s) = 5.60881 7.46710 6.60365
#
# Compressibility (1/GPa) = 0.02334262
#
# Stress axis : x y z
#
# Youngs Moduli (GPa) = 63.50742 88.84331 117.14560
#
# Poissons Ratio (x) = 0.29993 0.07468
# Poissons Ratio (y) = 0.21440 0.24418
# Poissons Ratio (z) = 0.04049 0.18519
#
# Static dielectric constant tensor:
#      x y z
#    x 2.158190 0.096690 0.105150 
#    y 0.096690 2.220400 0.156310 
#    z 0.105150 0.156310 2.235980 
# 
# From -- ./inp_files/298150.got.cif
#   From: 2010.05.17/outbox.cif.g08.bks.cpg/sg2_150_cif.got.tgz:298150.got - 2010.06.03 11:33:40.
