data_PCOD9079309
_publ_section_title
;
Structure prediction by ZEFSAII (Michael W. Deem and Ramdas Pophale) SiO2 
 PCOD9079309
Probable space group: P -1
;
_chemical_formula_sum "Si O2"
_cell_formula_units_Z 16
_cell_length_a 10.605949
_cell_length_b 8.443580
_cell_length_c 9.630456
_cell_angle_alpha 134.347870
_cell_angle_beta 83.455494
_cell_angle_gamma 97.052170
_cell_volume 611.582681
_symmetry_space_group_name_H-M "P -1"
_symmetry_group_IT_number 2
_symmetry_cell_setting 'triclinic'
loop_
_space_group_symop_operation_xyz
x,y,z
-x,-y,-z
loop_
_atom_site_type_symbol
_atom_site_label
_atom_site_fract_x
_atom_site_fract_y
_atom_site_fract_z
Si Si1 0.051078 0.732598 0.707887
Si Si2 0.346751 0.369767 0.007117
Si Si3 0.590160 0.198533 0.919667
Si Si4 0.698571 0.829319 0.497490
Si Si5 0.332833 0.668806 0.709305
Si Si6 0.582519 0.273942 0.558327
Si Si7 0.066455 0.435087 0.097227
Si Si8 0.859777 0.104692 0.471222
O O1 0.200330 0.758472 0.735804
O O2 0.047655 0.898199 0.675629
O O3 0.000000 0.500000 0.500000
O O4 0.994979 0.716466 0.861436
O O5 0.373578 0.559871 0.004037
O O6 0.380489 0.497303 0.225345
O O7 0.198361 0.320046 0.982448
O O8 0.442027 0.173206 0.878550
O O9 0.676005 0.021795 0.729823
O O10 0.612169 0.212781 0.088264
O O11 0.705177 0.587459 0.411443
O O12 0.558873 0.807824 0.426508
O O13 0.830725 0.889436 0.437764
O O14 0.426567 0.686726 0.579577
O O15 0.709112 0.143693 0.486353
O O16 0.098990 0.675963 0.311541
O O17 0.000000 0.500000 0.000000
#
# Coordination Sequence:
#
# PCOD9079309 Si02
#       8
#     2   2   2   2   2   2   2   2
#     4   9  20  40  66  92 123 183 224 260 329 389
#     4  10  21  39  62  98 135 167 224 256 330 415
#     4  11  23  38  64 100 134 167 217 262 339 400
#     4  12  22  38  68  98 140 167 211 284 325 391
#     4  11  24  41  66 100 132 173 220 269 334 398
#     4  10  20  40  62  91 137 175 202 266 337 394
#     4  10  18  36  66  92 128 176 218 277 321 377
#     4   9  20  36  62  94 123 172 227 257 323 400
#
# _framework density 26.161629000000001
#
# number of rings (size 3 to 8) (size 9 to 14) (size 15 to 20)
#    0.000    1.750    3.750    2.250    0.000    0.500 
#    0.000    2.500    0.000    2.250    0.000    0.000 
#    0.000    0.000    0.000    0.000    0.000    0.000 
#
# Total GULP energy -89412.245711 kJ/mol
# GULP energy per Si atom -5588.265357 kJ/mol
# Density = 2.610208 g / cm^3
# Si number density = 26.161629 Si / 1000 Ang^3
#
#
#
# Elastic Constant Matrix: (Units=GPa)
#
#
# Indices 1 2 3 4 5 6 
#
# 1 101.0387 31.3992 20.6310 -26.5324 4.7464 15.2988
# 2 31.3992 124.3034 55.5086 -14.9402 -2.3074 35.2896
# 3 20.6310 55.5086 166.3588 -38.8051 11.1065 13.0448
# 4 -26.5324 -14.9402 -38.8051 36.3212 -2.8445 -1.4076
# 5 4.7464 -2.3074 11.1065 -2.8445 36.1501 -4.0905
# 6 15.2988 35.2896 13.0448 -1.4076 -4.0905 45.1269
#
#
#
# Elastic Compliance Matrix: (Units=1/GPa)
#
#
# Indices 1 2 3 4 5 6 
#
# 1 0.013611 -0.002071 0.001943 0.010875 -0.002046 -0.003403
# 2 -0.002071 0.012286 -0.003371 -0.000271 0.001184 -0.007833
# 3 0.001943 -0.003371 0.009429 0.009871 -0.002668 -0.000682
# 4 0.010875 -0.000271 0.009871 0.045601 -0.001460 -0.005038
# 5 -0.002046 0.001184 -0.002668 -0.001460 0.029065 0.003128
# 6 -0.003403 -0.007833 -0.000682 -0.005038 0.003128 0.029762
#
#
# Mechanical properties :
#
#
# Convention : Reuss Voigt Hill
#
# Bulk Modulus (GPa) = 35.29895 67.41983 51.35939
# Shear Modulus (GPa) = 32.01124 42.46379 37.23751
#
# Velocity S-wave (km/s) = 3.50179 4.03318 3.77684
# Velocity P-wave (km/s) = 5.46552 6.89313 6.22042
#
# Compressibility (1/GPa) = 0.02832945
#
# Stress axis : x y z
#
# Youngs Moduli (GPa) = 73.47015 81.39188 106.05491
#
# Poissons Ratio (x) = 0.16853 -0.20607
# Poissons Ratio (y) = 0.15213 0.35749
# Poissons Ratio (z) = -0.14275 0.27436
#
# Static dielectric constant tensor:
#      x y z
#    x 2.051650 -0.018780 0.053680 
#    y -0.018780 2.182420 -0.107250 
#    z 0.053680 -0.107250 2.368080 
# 
# From -- ./inp_files/241041.got.cif
#   From: 2010.05.17/outbox.cif.g08.bks.cpg/sg2_121_cif.got.tgz:241041.got - 2010.06.03 11:33:40.
