data_PCOD9079049
_publ_section_title
;
Structure prediction by ZEFSAII (Michael W. Deem and Ramdas Pophale) SiO2 
 PCOD9079049
Probable space group: P -1
;
_chemical_formula_sum "Si O2"
_cell_formula_units_Z 13
_cell_length_a 9.489704
_cell_length_b 10.210567
_cell_length_c 6.050759
_cell_angle_alpha 120.696886
_cell_angle_beta 104.333328
_cell_angle_gamma 91.086173
_cell_volume 480.956302
_symmetry_space_group_name_H-M "P -1"
_symmetry_group_IT_number 2
_symmetry_cell_setting 'triclinic'
loop_
_space_group_symop_operation_xyz
x,y,z
-x,-y,-z
loop_
_atom_site_type_symbol
_atom_site_label
_atom_site_fract_x
_atom_site_fract_y
_atom_site_fract_z
Si Si1 0.126272 0.209889 0.001213
Si Si2 0.638720 0.695952 0.448474
Si Si3 0.635244 0.923238 0.266066
Si Si4 0.099629 0.687651 0.431536
Si Si5 0.000000 0.000000 0.500000
Si Si6 0.598737 0.244092 0.310783
Si Si7 0.811674 0.506616 0.063139
O O1 0.226070 0.241886 0.280759
O O2 0.197311 0.097953 0.752348
O O3 0.156441 0.370418 0.022061
O O4 0.970861 0.100532 0.821316
O O5 0.617941 0.847973 0.432781
O O6 0.486777 0.647762 0.481753
O O7 0.680132 0.560135 0.194678
O O8 0.618624 0.092467 0.330276
O O9 0.516126 0.813267 0.976304
O O10 0.030286 0.841015 0.515752
O O11 0.236843 0.693043 0.655188
O O12 0.960793 0.553594 0.302450
O O13 0.180960 0.649159 0.199690
#
# Coordination Sequence:
#
# PCOD9079049 Si02
#       7
#     2   2   2   2   1   2   2
#     4   9  18  36  62  82 119 156 187 242 291 340
#     4  10  20  37  60  88 119 153 192 242 292 347
#     4   9  18  35  56  87 125 150 189 241 299 341
#     4  10  20  39  62  84 116 159 193 239 295 346
#     4  10  18  36  62  82 110 150 200 232 284 346
#     4  10  19  34  61  87 119 155 191 243 292 343
#     4   9  21  40  59  83 123 156 189 238 296 351
#
# _framework density 27.029478999999998
#
# number of rings (size 3 to 8) (size 9 to 14) (size 15 to 20)
#    0.000    2.462    1.538    0.462    0.000    0.615 
#    0.000   25.385    0.000    0.000    0.000    0.000 
#    0.000    0.000    0.000    0.000    0.000    0.000 
#
# Total GULP energy -72410.741455 kJ/mol
# GULP energy per Si atom -5570.057035 kJ/mol
# Density = 2.696796 g / cm^3
# Si number density = 27.029479 Si / 1000 Ang^3
#
#
#
# Elastic Constant Matrix: (Units=GPa)
#
#
# Indices 1 2 3 4 5 6 
#
# 1 126.1081 13.4348 39.1898 1.5140 16.4276 -18.0611
# 2 13.4348 110.8619 56.4482 -13.9733 6.5802 -16.9847
# 3 39.1898 56.4482 97.8767 0.2339 16.2058 -21.8877
# 4 1.5140 -13.9733 0.2339 39.3296 -6.2094 4.1398
# 5 16.4276 6.5802 16.2058 -6.2094 30.0067 0.2617
# 6 -18.0611 -16.9847 -21.8877 4.1398 0.2617 23.5280
#
#
#
# Elastic Compliance Matrix: (Units=1/GPa)
#
#
# Indices 1 2 3 4 5 6 
#
# 1 0.010169 0.001130 -0.002421 -0.001447 -0.004865 0.006679
# 2 0.001130 0.014002 -0.008320 0.005023 0.001824 0.002331
# 3 -0.002421 -0.008320 0.020177 -0.005671 -0.009025 0.012004
# 4 -0.001447 0.005023 -0.005671 0.029560 0.008941 -0.008061
# 5 -0.004865 0.001824 -0.009025 0.008941 0.042426 -0.012860
# 6 0.006679 0.002331 0.012004 -0.008061 -0.012860 0.062040
#
#
# Mechanical properties :
#
#
# Convention : Reuss Voigt Hill
#
# Bulk Modulus (GPa) = 39.80015 61.44357 50.62186
# Shear Modulus (GPa) = 24.27501 33.62448 28.94974
#
# Velocity S-wave (km/s) = 3.00007 3.53085 3.27623
# Velocity P-wave (km/s) = 5.17274 6.27726 5.75158
#
# Compressibility (1/GPa) = 0.02512553
#
# Stress axis : x y z
#
# Youngs Moduli (GPa) = 98.33496 71.41912 49.56087
#
# Poissons Ratio (x) = -0.08070 0.11998
# Poissons Ratio (y) = -0.11111 0.41237
# Poissons Ratio (z) = 0.23806 0.59424
#
# Static dielectric constant tensor:
#      x y z
#    x 2.355250 0.057700 0.059550 
#    y 0.057700 2.123890 -0.037140 
#    z 0.059550 -0.037140 2.307840 
# 
# From -- ./inp_files/67979.got.cif
#   From: 2010.05.17/outbox.cif.g08.bks.cpg/sg2_34_cif.got.tgz:67979.got - 2010.06.03 11:33:40.
