data_PCOD9079116
_publ_section_title
;
Structure prediction by ZEFSAII (Michael W. Deem and Ramdas Pophale) SiO2 
 PCOD9079116
Probable space group: P -1
;
_chemical_formula_sum "Si O2"
_cell_formula_units_Z 14
_cell_length_a 10.008993
_cell_length_b 10.717767
_cell_length_c 9.004234
_cell_angle_alpha 134.871879
_cell_angle_beta 46.763475
_cell_angle_gamma 109.856756
_cell_volume 479.021670
_symmetry_space_group_name_H-M "P -1"
_symmetry_group_IT_number 2
_symmetry_cell_setting 'triclinic'
loop_
_space_group_symop_operation_xyz
x,y,z
-x,-y,-z
loop_
_atom_site_type_symbol
_atom_site_label
_atom_site_fract_x
_atom_site_fract_y
_atom_site_fract_z
Si Si1 0.663234 0.511503 0.233412
Si Si2 0.686162 0.084298 0.411845
Si Si3 0.496006 0.744934 0.060372
Si Si4 0.710851 0.950783 0.727386
Si Si5 0.002486 0.390836 0.646805
Si Si6 0.287330 0.770130 0.806226
Si Si7 0.075472 0.254271 0.178853
O O1 0.520912 0.704600 0.548811
O O2 0.744505 0.404696 0.231963
O O3 0.529206 0.396724 0.162162
O O4 0.825816 0.487813 0.968363
O O5 0.589197 0.274697 0.731629
O O6 0.756020 0.153617 0.260771
O O7 0.500000 0.000000 0.500000
O O8 0.861150 0.898826 0.127024
O O9 0.340085 0.940130 0.296966
O O10 0.712070 0.750701 0.918711
O O11 0.845501 0.748003 0.478873
O O12 0.500000 0.000000 0.000000
O O13 0.796520 0.075778 0.877859
O O14 0.027892 0.560607 0.673230
O O15 0.970542 0.260158 0.423349
#
# Coordination Sequence:
#
# PCOD9079116 Si02
#       7
#     2   2   2   2   2   2   2
#     4  10  23  40  63  92 123 172 202 250 307 375
#     4  10  18  36  62  93 118 162 205 253 302 364
#     4  10  21  37  67  91 121 162 214 242 306 377
#     4  11  20  40  66  91 121 165 207 256 302 370
#     4  11  22  39  66  90 128 160 206 255 314 359
#     4  10  21  39  62  87 130 164 202 246 316 371
#     4  10  21  39  64  94 124 161 200 267 306 356
#
# _framework density 29.226234999999999
#
# number of rings (size 3 to 8) (size 9 to 14) (size 15 to 20)
#    0.000    1.714    2.857    2.571    0.000    4.571 
#    0.000    3.571    9.429    0.000    0.000    0.000 
#    0.000    0.000    0.000    0.000    0.000    0.000 
#
# Total GULP energy -78099.088157 kJ/mol
# GULP energy per Si atom -5578.506297 kJ/mol
# Density = 2.915972 g / cm^3
# Si number density = 29.226235 Si / 1000 Ang^3
#
#
#
# Elastic Constant Matrix: (Units=GPa)
#
#
# Indices 1 2 3 4 5 6 
#
# 1 87.8314 -19.7763 17.2681 0.5396 9.8704 -16.6043
# 2 -19.7763 52.7492 31.4174 28.9914 -13.3296 -3.8579
# 3 17.2681 31.4174 188.9314 5.9788 2.1712 3.7617
# 4 0.5396 28.9914 5.9788 71.6403 2.7845 -9.9558
# 5 9.8704 -13.3296 2.1712 2.7845 49.5211 -4.7603
# 6 -16.6043 -3.8579 3.7617 -9.9558 -4.7603 33.1490
#
#
#
# Elastic Compliance Matrix: (Units=1/GPa)
#
#
# Indices 1 2 3 4 5 6 
#
# 1 0.015950 0.010312 -0.003267 -0.002824 0.000746 0.008819
# 2 0.010312 0.037881 -0.007059 -0.014156 0.009973 0.007555
# 3 -0.003267 -0.007059 0.006783 0.001986 -0.001937 -0.002910
# 4 -0.002824 -0.014156 0.001986 0.020001 -0.004256 0.002109
# 5 0.000746 0.009973 -0.001937 -0.004256 0.023422 0.003839
# 6 0.008819 0.007555 -0.002910 0.002109 0.003839 0.036979
#
#
# Mechanical properties :
#
#
# Convention : Reuss Voigt Hill
#
# Bulk Modulus (GPa) = 16.50583 43.03669 29.77126
# Shear Modulus (GPa) = 31.00977 50.90228 40.95603
#
# Velocity S-wave (km/s) = 3.26087 4.17785 3.74751
# Velocity P-wave (km/s) = 4.45394 6.16684 5.37901
#
# Compressibility (1/GPa) = 0.06058465
#
# Stress axis : x y z
#
# Youngs Moduli (GPa) = 62.69441 26.39880 147.43401
#
# Poissons Ratio (x) = -0.27221 0.48172
# Poissons Ratio (y) = -0.64648 1.04069
# Poissons Ratio (z) = 0.20485 0.18634
#
# Static dielectric constant tensor:
#      x y z
#    x 2.869730 0.050980 0.187770 
#    y 0.050980 2.519920 -0.076360 
#    z 0.187770 -0.076360 2.265730 
# 
# From -- ./inp_files/262904.got.cif
#   From: 2010.05.17/outbox.cif.g08.bks.cpg/sg2_132_cif.got.tgz:262904.got - 2010.06.03 11:33:40.
