data_PCOD9079547
_publ_section_title
;
Structure prediction by ZEFSAII (Michael W. Deem and Ramdas Pophale) SiO2 
 PCOD9079547
Probable space group: P -1
;
_chemical_formula_sum "Si O2"
_cell_formula_units_Z 16
_cell_length_a 10.096112
_cell_length_b 15.501572
_cell_length_c 9.673371
_cell_angle_alpha 54.406309
_cell_angle_beta 60.933559
_cell_angle_gamma 47.200314
_cell_volume 892.863988
_symmetry_space_group_name_H-M "P -1"
_symmetry_group_IT_number 2
_symmetry_cell_setting 'triclinic'
loop_
_space_group_symop_operation_xyz
x,y,z
-x,-y,-z
loop_
_atom_site_type_symbol
_atom_site_label
_atom_site_fract_x
_atom_site_fract_y
_atom_site_fract_z
Si Si1 0.062358 0.634929 0.128728
Si Si2 0.717168 0.785659 0.349865
Si Si3 0.970356 0.599938 0.626249
Si Si4 0.525351 0.943058 0.887052
Si Si5 0.563730 0.690294 0.119302
Si Si6 0.611893 0.601582 0.479113
Si Si7 0.895713 0.699156 0.877568
Si Si8 0.574760 0.441246 0.866919
O O1 0.100365 0.494257 0.256128
O O2 0.208329 0.642363 0.135822
O O3 0.861228 0.735312 0.197090
O O4 0.050751 0.661209 0.946776
O O5 0.839112 0.720362 0.483779
O O6 0.607408 0.719930 0.438922
O O7 0.589194 0.937543 0.267256
O O8 0.963889 0.648543 0.737882
O O9 0.175310 0.513462 0.544299
O O10 0.738281 0.850490 0.822427
O O11 0.465924 0.842853 0.016239
O O12 0.500000 0.000000 0.000000
O O13 0.532382 0.646297 0.323482
O O14 0.503343 0.637694 0.076800
O O15 0.777400 0.642074 0.042502
O O16 0.530769 0.546913 0.674714
O O17 0.500000 0.500000 0.000000
#
# Coordination Sequence:
#
# PCOD9079547 Si02
#       8
#     2   2   2   2   2   2   2   2
#     4  11  19  36  59  82 114 152 184 236 293 332
#     4  11  18  35  63  87 111 150 190 243 279 330
#     4  11  19  32  57  91 114 137 199 238 287 331
#     4  10  18  37  61  85 112 150 198 234 273 333
#     4  10  22  38  56  88 115 156 188 225 292 339
#     4  11  20  36  60  83 118 150 186 235 292 342
#     4  10  21  34  61  83 112 152 191 240 275 335
#     4  12  25  37  54  89 125 149 184 233 297 349
#
# _framework density 17.919862999999999
#
# number of rings (size 3 to 8) (size 9 to 14) (size 15 to 20)
#    0.750    0.500    7.500    2.250    1.750    0.500 
#    0.000    0.625    0.000    0.000    0.000    3.500 
#    0.000    0.000    0.000    0.000    0.000    0.000 
#
# Total GULP energy -89230.469623 kJ/mol
# GULP energy per Si atom -5576.904351 kJ/mol
# Density = 1.787908 g / cm^3
# Si number density = 17.919863 Si / 1000 Ang^3
#
#
#
# Elastic Constant Matrix: (Units=GPa)
#
#
# Indices 1 2 3 4 5 6 
#
# 1 54.0513 24.3710 15.0711 -11.5590 12.0922 17.8464
# 2 24.3710 90.8069 50.0179 -20.5550 10.3773 8.5263
# 3 15.0711 50.0179 96.7418 -8.1045 22.9217 5.1348
# 4 -11.5590 -20.5550 -8.1045 31.6847 -4.8180 9.7722
# 5 12.0922 10.3773 22.9217 -4.8180 29.6554 0.1318
# 6 17.8464 8.5263 5.1348 9.7722 0.1318 26.4665
#
#
#
# Elastic Compliance Matrix: (Units=1/GPa)
#
#
# Indices 1 2 3 4 5 6 
#
# 1 0.036418 -0.001455 0.001318 0.020727 -0.011850 -0.031938
# 2 -0.001455 0.019899 -0.009204 0.013085 0.002908 -0.008489
# 3 0.001318 -0.009204 0.017317 -0.002680 -0.011136 -0.000238
# 4 0.020727 0.013085 -0.002680 0.058896 -0.001215 -0.039412
# 5 -0.011850 0.002908 -0.011136 -0.001215 0.045903 0.009434
# 6 -0.031938 -0.008489 -0.000238 -0.039412 0.009434 0.076605
#
#
# Mechanical properties :
#
#
# Convention : Reuss Voigt Hill
#
# Bulk Modulus (GPa) = 18.19756 46.72445 32.46101
# Shear Modulus (GPa) = 17.12103 27.70399 22.41251
#
# Velocity S-wave (km/s) = 3.09434 3.93618 3.54037
# Velocity P-wave (km/s) = 4.78995 6.84023 5.90476
#
# Compressibility (1/GPa) = 0.05495243
#
# Stress axis : x y z
#
# Youngs Moduli (GPa) = 27.45869 50.25311 57.74783
#
# Poissons Ratio (x) = 0.07313 -0.07613
# Poissons Ratio (y) = 0.03996 0.53150
# Poissons Ratio (z) = -0.03620 0.46252
#
# Static dielectric constant tensor:
#      x y z
#    x 1.651810 -0.021330 0.003180 
#    y -0.021330 1.606640 0.006800 
#    z 0.003180 0.006800 1.651360 
# 
# From -- ./inp_files/267097.got.cif
#   From: 2010.05.17/outbox.cif.g08.bks.cpg/sg2_134_cif.got.tgz:267097.got - 2010.06.03 11:33:40.
