data_PCOD9079000
_publ_section_title
;
Structure prediction by ZEFSAII (Michael W. Deem and Ramdas Pophale) SiO2 
 PCOD9079000
Probable space group: P -1
;
_chemical_formula_sum "Si O2"
_cell_formula_units_Z 12
_cell_length_a 7.353382
_cell_length_b 9.781677
_cell_length_c 13.532758
_cell_angle_alpha 138.756822
_cell_angle_beta 71.106307
_cell_angle_gamma 130.035090
_cell_volume 466.035605
_symmetry_space_group_name_H-M "P -1"
_symmetry_group_IT_number 2
_symmetry_cell_setting 'triclinic'
loop_
_space_group_symop_operation_xyz
x,y,z
-x,-y,-z
loop_
_atom_site_type_symbol
_atom_site_label
_atom_site_fract_x
_atom_site_fract_y
_atom_site_fract_z
Si Si1 0.343717 0.076026 0.121557
Si Si2 0.574609 0.873092 0.231794
Si Si3 0.549599 0.451154 0.113488
Si Si4 0.010271 0.492870 0.849984
Si Si5 0.380088 0.657584 0.571856
Si Si6 0.163706 0.263807 0.545864
O O1 0.389738 0.292903 0.153989
O O2 0.453766 0.180465 0.268774
O O3 0.500000 0.000000 0.000000
O O4 0.074118 0.780464 0.005319
O O5 0.612952 0.735023 0.237747
O O6 0.283031 0.738371 0.217236
O O7 0.710862 0.185921 0.367158
O O8 0.595712 0.752508 0.062831
O O9 0.814200 0.510894 0.106249
O O10 0.107015 0.445250 0.707918
O O11 0.168915 0.348518 0.477265
O O12 0.574184 0.682147 0.477465
O O13 0.000000 0.000000 0.500000
#
# Coordination Sequence:
#
# PCOD9079000 Si02
#       6
#     2   2   2   2   2   2
#     4  10  18  36  61  87 120 157 202 249 302 354
#     4  11  21  35  62  92 125 156 201 253 308 356
#     4  10  21  36  58  95 122 158 198 257 304 357
#     4  11  20  38  64  88 120 162 204 246 301 364
#     4  11  21  38  62  91 123 163 199 258 305 357
#     4  11  22  36  64  90 119 165 210 242 307 370
#
# _framework density 25.749105
#
# number of rings (size 3 to 8) (size 9 to 14) (size 15 to 20)
#    0.000    1.333    8.333    0.500    0.000    0.667 
#    0.000    0.833    0.000    2.000    0.000    0.000 
#    0.000    0.000    0.000    0.000    0.000    0.000 
#
# Total GULP energy -66894.871840 kJ/mol
# GULP energy per Si atom -5574.572653 kJ/mol
# Density = 2.569050 g / cm^3
# Si number density = 25.749105 Si / 1000 Ang^3
#
#
#
# Elastic Constant Matrix: (Units=GPa)
#
#
# Indices 1 2 3 4 5 6 
#
# 1 86.8239 48.6824 27.0602 10.8010 -20.0186 -19.9079
# 2 48.6824 222.2228 53.7424 36.0253 -18.8636 -15.5630
# 3 27.0602 53.7424 87.7545 5.3689 -20.3376 -4.8779
# 4 10.8010 36.0253 5.3689 66.3878 -14.2550 -18.2798
# 5 -20.0186 -18.8636 -20.3376 -14.2550 23.1611 12.3325
# 6 -19.9079 -15.5630 -4.8779 -18.2798 12.3325 38.2851
#
#
#
# Elastic Compliance Matrix: (Units=1/GPa)
#
#
# Indices 1 2 3 4 5 6 
#
# 1 0.016472 -0.002513 -0.001114 0.002357 0.009804 0.005369
# 2 -0.002513 0.006176 -0.003254 -0.003105 -0.001860 -0.000094
# 3 -0.001114 -0.003254 0.016742 0.002857 0.014481 -0.003069
# 4 0.002357 -0.003105 0.002857 0.020285 0.011070 0.006447
# 5 0.009804 -0.001860 0.014481 0.011070 0.076714 -0.013239
# 6 0.005369 -0.000094 -0.003069 0.006447 -0.013239 0.035825
#
#
# Mechanical properties :
#
#
# Convention : Reuss Voigt Hill
#
# Bulk Modulus (GPa) = 39.01803 72.86347 55.94075
# Shear Modulus (GPa) = 25.70429 43.38787 34.54608
#
# Velocity S-wave (km/s) = 3.16295 4.10936 3.66682
# Velocity P-wave (km/s) = 5.34089 7.13265 6.30078
#
# Compressibility (1/GPa) = 0.02562918
#
# Stress axis : x y z
#
# Youngs Moduli (GPa) = 60.70825 161.90904 59.72879
#
# Poissons Ratio (x) = 0.40689 0.06653
# Poissons Ratio (y) = 0.15256 0.19435
# Poissons Ratio (z) = 0.06763 0.52683
#
# Static dielectric constant tensor:
#      x y z
#    x 2.075890 0.033870 0.099380 
#    y 0.033870 2.173080 0.104920 
#    z 0.099380 0.104920 2.134310 
# 
# From -- ./inp_files/171849.got.cif
#   From: 2010.05.17/outbox.cif.g08.bks.cpg/sg2_86_cif.got.tgz:171849.got - 2010.06.03 11:33:40.
