data_PCOD9079243
_publ_section_title
;
Structure prediction by ZEFSAII (Michael W. Deem and Ramdas Pophale) SiO2 
 PCOD9079243
Probable space group: P -1
;
_chemical_formula_sum "Si O2"
_cell_formula_units_Z 15
_cell_length_a 8.857960
_cell_length_b 11.429278
_cell_length_c 11.539899
_cell_angle_alpha 40.884065
_cell_angle_beta 123.234333
_cell_angle_gamma 124.378155
_cell_volume 615.038560
_symmetry_space_group_name_H-M "P -1"
_symmetry_group_IT_number 2
_symmetry_cell_setting 'triclinic'
loop_
_space_group_symop_operation_xyz
x,y,z
-x,-y,-z
loop_
_atom_site_type_symbol
_atom_site_label
_atom_site_fract_x
_atom_site_fract_y
_atom_site_fract_z
Si Si1 0.706759 0.835379 0.270971
Si Si2 0.510918 0.319445 0.488175
Si Si3 0.000000 0.000000 0.000000
Si Si4 0.419184 0.078956 0.215247
Si Si5 0.609632 0.635649 0.844573
Si Si6 0.657025 0.233992 0.991161
Si Si7 0.998641 0.637615 0.099695
Si Si8 0.085715 0.422121 0.486681
O O1 0.654081 0.729897 0.449872
O O2 0.886388 0.783172 0.330568
O O3 0.729057 0.049299 0.142408
O O4 0.524811 0.778130 0.155573
O O5 0.464786 0.406859 0.284272
O O6 0.699900 0.450281 0.524975
O O7 0.550404 0.123556 0.622823
O O8 0.220596 0.062750 0.081483
O O9 0.965787 0.185600 0.928081
O O10 0.411117 0.164637 0.273171
O O11 0.582512 0.215152 0.104361
O O12 0.500000 0.500000 0.000000
O O13 0.824961 0.641798 0.944204
O O14 0.830892 0.378377 0.898776
O O15 0.964940 0.455840 0.303258
O O16 0.000000 0.500000 0.500000
#
# Coordination Sequence:
#
# PCOD9079243 Si02
#       8
#     2   2   1   2   2   2   2   2
#     4  10  22  39  67  97 133 163 214 271 329 382
#     4  11  22  44  62  92 128 174 216 259 333 381
#     4  10  18  36  64  96 124 162 216 272 304 380
#     4  10  22  40  69  93 131 169 222 264 325 387
#     4  11  26  43  62  92 135 180 210 264 329 395
#     4  10  21  40  68 100 122 172 216 272 324 381
#     4  11  23  41  62  96 127 169 223 262 330 377
#     4  12  25  37  64 100 129 166 221 278 317 375
#
# _framework density 24.388715999999999
#
# number of rings (size 3 to 8) (size 9 to 14) (size 15 to 20)
#    0.000    1.333    2.667    3.200    7.467    0.000 
#    0.000    8.000    0.000    0.000    0.000    0.000 
#    0.000    0.000    0.000    0.000    0.000    0.000 
#
# Total GULP energy -83700.176455 kJ/mol
# GULP energy per Si atom -5580.011764 kJ/mol
# Density = 2.433321 g / cm^3
# Si number density = 24.388716 Si / 1000 Ang^3
#
#
#
# Elastic Constant Matrix: (Units=GPa)
#
#
# Indices 1 2 3 4 5 6 
#
# 1 103.4140 5.6075 22.4770 4.6821 19.7667 -20.0507
# 2 5.6075 57.6815 7.0438 -1.2064 7.7411 -24.4860
# 3 22.4770 7.0438 109.5943 5.6114 9.2161 -22.1169
# 4 4.6821 -1.2064 5.6114 31.4422 -12.1800 4.3619
# 5 19.7667 7.7411 9.2161 -12.1800 34.1624 -14.0646
# 6 -20.0507 -24.4860 -22.1169 4.3619 -14.0646 27.9398
#
#
#
# Elastic Compliance Matrix: (Units=1/GPa)
#
#
# Indices 1 2 3 4 5 6 
#
# 1 0.012896 0.003910 0.000021 -0.005559 -0.005992 0.010549
# 2 0.003910 0.031002 0.004327 -0.004038 0.002670 0.035375
# 3 0.000021 0.004327 0.011815 -0.003803 0.000159 0.013834
# 4 -0.005559 -0.004038 -0.003803 0.040575 0.015991 -0.008824
# 5 -0.005992 0.002670 0.000159 0.015991 0.045423 0.018535
# 6 0.010549 0.035375 0.013834 -0.008824 0.018535 0.096022
#
#
# Mechanical properties :
#
#
# Convention : Reuss Voigt Hill
#
# Bulk Modulus (GPa) = 13.84488 37.88295 25.86392
# Shear Modulus (GPa) = 20.38377 34.41297 27.39837
#
# Velocity S-wave (km/s) = 2.89413 3.76043 3.35536
# Velocity P-wave (km/s) = 4.10574 5.86695 5.06351
#
# Compressibility (1/GPa) = 0.07222885
#
# Stress axis : x y z
#
# Youngs Moduli (GPa) = 77.54585 32.25581 84.63660
#
# Poissons Ratio (x) = -0.12612 -0.00181
# Poissons Ratio (y) = -0.30319 -0.36620
# Poissons Ratio (z) = -0.00165 -0.13956
#
# Static dielectric constant tensor:
#      x y z
#    x 1.974160 -0.065430 -0.032810 
#    y -0.065430 1.979550 -0.100320 
#    z -0.032810 -0.100320 2.001600 
# 
# From -- ./inp_files/181641.got.cif
#   From: 2010.05.17/outbox.cif.g08.bks.cpg/sg2_91_cif.got.tgz:181641.got - 2010.06.03 11:33:40.
