data_PCOD9079634
_publ_section_title
;
Structure prediction by ZEFSAII (Michael W. Deem and Ramdas Pophale) SiO2 
 PCOD9079634
Probable space group: P -1
;
_chemical_formula_sum "Si O2"
_cell_formula_units_Z 16
_cell_length_a 15.662532
_cell_length_b 15.880270
_cell_length_c 10.785908
_cell_angle_alpha 156.777230
_cell_angle_beta 136.653666
_cell_angle_gamma 43.386074
_cell_volume 708.963598
_symmetry_space_group_name_H-M "P -1"
_symmetry_group_IT_number 2
_symmetry_cell_setting 'triclinic'
loop_
_space_group_symop_operation_xyz
x,y,z
-x,-y,-z
loop_
_atom_site_type_symbol
_atom_site_label
_atom_site_fract_x
_atom_site_fract_y
_atom_site_fract_z
Si Si1 0.325777 0.781316 0.714650
Si Si2 0.308152 0.998673 0.236957
Si Si3 0.976568 0.750434 0.764205
Si Si4 0.526588 0.239984 0.695094
Si Si5 0.197922 0.422222 0.070424
Si Si6 0.030025 0.601410 0.363580
Si Si7 0.068760 0.106218 0.825461
Si Si8 0.569948 0.923137 0.094602
O O1 0.289683 0.577012 0.331949
O O2 0.217380 0.987066 0.831668
O O3 0.308885 0.805026 0.876768
O O4 0.472263 0.785922 0.860473
O O5 0.360055 0.874832 0.249271
O O6 0.169993 0.156288 0.301597
O O7 0.405332 0.148725 0.495087
O O8 0.048311 0.742838 0.695936
O O9 0.000000 0.500000 0.500000
O O10 0.993694 0.888660 0.094247
O O11 0.563470 0.131007 0.454533
O O12 0.500000 0.500000 0.000000
O O13 0.111896 0.578029 0.292105
O O14 0.113362 0.350962 0.777663
O O15 0.288357 0.217415 0.953028
O O16 0.057073 0.354879 0.109869
O O17 0.000000 0.000000 0.500000
O O18 0.500000 0.000000 0.000000
#
# Coordination Sequence:
#
# PCOD9079634 Si02
#       8
#     2   2   2   2   2   2   2   2
#     4  10  21  39  65  90 122 171 207 263 327 379
#     4   9  20  41  66  91 131 162 216 266 321 389
#     4   9  19  37  62  91 123 169 207 265 325 374
#     4  10  22  42  67  94 125 169 209 269 331 385
#     4  11  22  38  63  89 128 172 212 261 322 377
#     4  10  21  38  62  88 127 167 213 263 314 377
#     4  10  18  37  62  89 123 162 214 257 320 382
#     4  11  24  41  62  95 127 159 215 266 316 396
#
# _framework density 22.568154
#
# number of rings (size 3 to 8) (size 9 to 14) (size 15 to 20)
#    0.000    2.000    1.250    1.875    1.750    1.000 
#    4.500    3.750    2.750    0.000    0.000    0.000 
#    0.000    0.000    0.000    0.000    0.000    0.000 
#
# Total GULP energy -89255.106918 kJ/mol
# GULP energy per Si atom -5578.444182 kJ/mol
# Density = 2.251679 g / cm^3
# Si number density = 22.568154 Si / 1000 Ang^3
#
#
#
# Elastic Constant Matrix: (Units=GPa)
#
#
# Indices 1 2 3 4 5 6 
#
# 1 45.8219 19.0250 22.4270 -8.8578 -28.8327 3.4099
# 2 19.0250 166.7193 45.2014 -2.6679 -22.0139 3.2654
# 3 22.4270 45.2014 106.2172 -10.0768 -12.5509 5.7576
# 4 -8.8578 -2.6679 -10.0768 37.6933 11.5806 -7.9633
# 5 -28.8327 -22.0139 -12.5509 11.5806 27.4816 -5.7358
# 6 3.4099 3.2654 5.7576 -7.9633 -5.7358 32.2331
#
#
#
# Elastic Compliance Matrix: (Units=1/GPa)
#
#
# Indices 1 2 3 4 5 6 
#
# 1 0.073521 0.004553 -0.008957 -0.008631 0.081526 0.005736
# 2 0.004553 0.007709 -0.003248 -0.002379 0.010600 0.000616
# 3 -0.008957 -0.003248 0.012108 0.003054 -0.008085 -0.001570
# 4 -0.008631 -0.002379 0.003054 0.033073 -0.022506 0.004774
# 5 0.081526 0.010600 -0.008085 -0.022506 0.138464 0.010825
# 6 0.005736 0.000616 -0.001570 0.004774 0.010825 0.033741
#
#
# Mechanical properties :
#
#
# Convention : Reuss Voigt Hill
#
# Bulk Modulus (GPa) = 12.81522 54.67392 33.74457
# Shear Modulus (GPa) = 14.70880 34.95525 24.83203
#
# Velocity S-wave (km/s) = 2.55571 3.93984 3.32069
# Velocity P-wave (km/s) = 3.79469 6.70636 5.44862
#
# Compressibility (1/GPa) = 0.07803224
#
# Stress axis : x y z
#
# Youngs Moduli (GPa) = 13.60151 129.72329 82.59062
#
# Poissons Ratio (x) = -0.59065 0.73980
# Poissons Ratio (y) = -0.06193 0.26830
# Poissons Ratio (z) = 0.12184 0.42141
#
# Static dielectric constant tensor:
#      x y z
#    x 1.966390 -0.020600 0.080730 
#    y -0.020600 1.805550 0.001690 
#    z 0.080730 0.001690 1.880080 
# 
# From -- ./inp_files/466690.got.cif
#   From: 2010.05.17/outbox.cif.g08.bks.cpg/sg2_234_cif.got.tgz:466690.got - 2010.06.03 11:33:40.
