data_PCOD9079286
_publ_section_title
;
Structure prediction by ZEFSAII (Michael W. Deem and Ramdas Pophale) SiO2 
 PCOD9079286
Probable space group: P -1
;
_chemical_formula_sum "Si O2"
_cell_formula_units_Z 16
_cell_length_a 10.840225
_cell_length_b 17.224856
_cell_length_c 8.636900
_cell_angle_alpha 121.864846
_cell_angle_beta 92.878951
_cell_angle_gamma 135.635315
_cell_volume 664.503168
_symmetry_space_group_name_H-M "P -1"
_symmetry_group_IT_number 2
_symmetry_cell_setting 'triclinic'
loop_
_space_group_symop_operation_xyz
x,y,z
-x,-y,-z
loop_
_atom_site_type_symbol
_atom_site_label
_atom_site_fract_x
_atom_site_fract_y
_atom_site_fract_z
Si Si1 0.320679 0.831285 0.690494
Si Si2 0.888341 0.788069 0.841568
Si Si3 0.073653 0.399675 0.329375
Si Si4 0.840615 0.645728 0.155061
Si Si5 0.573650 0.822482 0.808430
Si Si6 0.482900 0.521858 0.772569
Si Si7 0.656744 0.979660 0.305979
Si Si8 0.879111 0.349384 0.951732
O O1 0.441889 0.810497 0.670195
O O2 0.049869 0.653756 0.570616
O O3 0.321719 0.899788 0.619649
O O4 0.500000 0.000000 0.000000
O O5 0.972527 0.738348 0.842145
O O6 0.706442 0.709156 0.880026
O O7 0.714680 0.656466 0.541507
O O8 0.142692 0.007769 0.055028
O O9 0.372822 0.611336 0.573938
O O10 0.945352 0.381348 0.173092
O O11 0.683536 0.522677 0.171944
O O12 0.991588 0.660596 0.105996
O O13 0.633880 0.549718 0.921512
O O14 0.065226 0.862543 0.442057
O O15 0.600105 0.884846 0.046977
O O16 0.422549 0.826778 0.248066
O O17 0.000000 0.500000 0.000000
#
# Coordination Sequence:
#
# PCOD9079286 Si02
#       8
#     2   2   2   2   2   2   2   2
#     4  10  18  36  65  96 131 174 221 281 339 394
#     4  11  21  45  70 100 128 178 242 288 333 391
#     4  12  22  40  67 104 141 174 226 287 341 412
#     4  11  23  44  69  95 134 190 226 274 349 411
#     4  11  22  36  68 102 138 168 225 287 346 396
#     4  10  23  41  75  93 128 186 242 282 330 404
#     4  11  22  41  66 101 131 183 227 276 347 416
#     4  12  27  41  62 102 148 179 221 274 348 430
#
# _framework density 24.078139
#
# number of rings (size 3 to 8) (size 9 to 14) (size 15 to 20)
#    0.000    1.000    7.500    0.750    1.750    2.000 
#    0.000    2.500    5.500    3.000    0.000    0.000 
#    0.000    0.000    0.000    0.000    0.000    0.000 
#
# Total GULP energy -89456.959232 kJ/mol
# GULP energy per Si atom -5591.059952 kJ/mol
# Density = 2.402334 g / cm^3
# Si number density = 24.078139 Si / 1000 Ang^3
#
#
#
# Elastic Constant Matrix: (Units=GPa)
#
#
# Indices 1 2 3 4 5 6 
#
# 1 47.6161 20.0030 -2.8823 3.3382 13.1886 3.0519
# 2 20.0030 173.1769 35.2686 30.9238 17.5363 31.6606
# 3 -2.8823 35.2686 58.3696 16.6747 26.3392 -6.9891
# 4 3.3382 30.9238 16.6747 51.2157 -0.3237 15.8522
# 5 13.1886 17.5363 26.3392 -0.3237 30.6098 -1.6394
# 6 3.0519 31.6606 -6.9891 15.8522 -1.6394 47.8395
#
#
#
# Elastic Compliance Matrix: (Units=1/GPa)
#
#
# Indices 1 2 3 4 5 6 
#
# 1 0.032067 -0.004520 0.019824 -0.007671 -0.028076 0.005421
# 2 -0.004520 0.008772 -0.007457 -0.000604 0.002994 -0.006304
# 3 0.019824 -0.007457 0.051477 -0.018729 -0.047918 0.015755
# 4 -0.007671 -0.000604 -0.018729 0.030059 0.019488 -0.011139
# 5 -0.028076 0.002994 -0.047918 0.019488 0.083913 -0.010773
# 6 0.005421 -0.006304 0.015755 -0.011139 -0.010773 0.030353
#
#
# Mechanical properties :
#
#
# Convention : Reuss Voigt Hill
#
# Bulk Modulus (GPa) = 9.25831 42.66012 25.95922
# Shear Modulus (GPa) = 19.45912 41.05123 30.25517
#
# Velocity S-wave (km/s) = 2.84591 4.13354 3.54862
# Velocity P-wave (km/s) = 3.82784 6.36690 5.25308
#
# Compressibility (1/GPa) = 0.10801102
#
# Stress axis : x y z
#
# Youngs Moduli (GPa) = 31.18502 113.99473 19.42621
#
# Poissons Ratio (x) = 0.51520 -0.38511
# Poissons Ratio (y) = 0.14094 0.14486
# Poissons Ratio (z) = -0.61822 0.85007
#
# Static dielectric constant tensor:
#      x y z
#    x 1.981660 -0.008300 0.000730 
#    y -0.008300 1.938000 -0.036500 
#    z 0.000730 -0.036500 1.972100 
# 
# From -- ./inp_files/278160.got.cif
#   From: 2010.05.17/outbox.cif.g08.bks.cpg/sg2_140_cif.got.tgz:278160.got - 2010.06.03 11:33:40.
