data_PCOD9079785
_publ_section_title
;
Structure prediction by ZEFSAII (Michael W. Deem and Ramdas Pophale) SiO2 
 PCOD9079785
Probable space group: P -1
;
_chemical_formula_sum "Si O2"
_cell_formula_units_Z 14
_cell_length_a 9.364443
_cell_length_b 11.082596
_cell_length_c 12.056287
_cell_angle_alpha 59.347329
_cell_angle_beta 148.221553
_cell_angle_gamma 111.346930
_cell_volume 560.182685
_symmetry_space_group_name_H-M "P -1"
_symmetry_group_IT_number 2
_symmetry_cell_setting 'triclinic'
loop_
_space_group_symop_operation_xyz
x,y,z
-x,-y,-z
loop_
_atom_site_type_symbol
_atom_site_label
_atom_site_fract_x
_atom_site_fract_y
_atom_site_fract_z
Si Si1 0.979703 0.696485 0.498084
Si Si2 0.263121 0.040195 0.913970
Si Si3 0.676604 0.982771 0.794101
Si Si4 0.414598 0.688406 0.421669
Si Si5 0.981888 0.626761 0.771895
Si Si6 0.419044 0.516252 0.729207
Si Si7 0.946374 0.788936 0.900259
O O1 0.948505 0.835184 0.337397
O O2 0.708484 0.623803 0.326056
O O3 0.008450 0.722730 0.635541
O O4 0.235371 0.585696 0.676395
O O5 0.109415 0.908141 0.900332
O O6 0.379835 0.077152 0.094075
O O7 0.500000 0.000000 0.000000
O O8 0.677180 0.870635 0.747579
O O9 0.530416 0.145021 0.611735
O O10 0.000000 0.000000 0.000000
O O11 0.380664 0.622578 0.549797
O O12 0.668903 0.601187 0.563792
O O13 0.136159 0.705952 0.159349
O O14 0.947808 0.685185 0.846990
O O15 0.262930 0.518443 0.011900
#
# Coordination Sequence:
#
# PCOD9079785 Si02
#       7
#     2   2   2   2   2   2   2
#     4  11  24  42  63  87 124 164 200 248 302 360
#     4  10  18  37  65  90 117 153 198 247 300 358
#     4   8  17  37  63  87 115 154 197 244 301 357
#     4  10  21  41  65  88 120 157 202 255 299 350
#     4  12  24  38  59  93 125 158 204 248 299 363
#     4  11  24  43  63  86 120 166 208 246 298 356
#     4  10  22  40  62  90 122 156 199 249 307 361
#
# _framework density 24.991847
#
# number of rings (size 3 to 8) (size 9 to 14) (size 15 to 20)
#    0.000    2.000    0.000    6.857    0.000    4.571 
#    0.000    5.714    0.000    1.714    0.000    0.000 
#    0.000    0.000    0.000    0.000    0.000    0.000 
#
# Total GULP energy -78268.303403 kJ/mol
# GULP energy per Si atom -5590.593100 kJ/mol
# Density = 2.493496 g / cm^3
# Si number density = 24.991847 Si / 1000 Ang^3
#
#
#
# Elastic Constant Matrix: (Units=GPa)
#
#
# Indices 1 2 3 4 5 6 
#
# 1 139.4521 16.7211 25.6439 9.0444 -9.7151 -6.8231
# 2 16.7211 37.3983 20.0765 -4.2840 3.6531 0.4513
# 3 25.6439 20.0765 129.5609 -17.7873 3.8950 7.7816
# 4 9.0444 -4.2840 -17.7873 29.9762 2.2126 -7.7672
# 5 -9.7151 3.6531 3.8950 2.2126 55.2689 -2.9768
# 6 -6.8231 0.4513 7.7816 -7.7672 -2.9768 36.4963
#
#
#
# Elastic Compliance Matrix: (Units=1/GPa)
#
#
# Indices 1 2 3 4 5 6 
#
# 1 0.008375 -0.003441 -0.001801 -0.003894 0.002054 0.001331
# 2 -0.003441 0.030836 -0.003544 0.003604 -0.002522 0.000292
# 3 -0.001801 -0.003544 0.009473 0.005411 -0.001034 -0.001245
# 4 -0.003894 0.003604 0.005411 0.040109 -0.002565 0.006400
# 5 0.002054 -0.002522 -0.001034 -0.002565 0.018884 0.001630
# 6 0.001331 0.000292 -0.001245 0.006400 0.001630 0.029406
#
#
# Mechanical properties :
#
#
# Convention : Reuss Voigt Hill
#
# Bulk Modulus (GPa) = 32.14154 47.92160 40.03157
# Shear Modulus (GPa) = 30.29837 40.61295 35.45566
#
# Velocity S-wave (km/s) = 3.48563 4.03556 3.77064
# Velocity P-wave (km/s) = 5.39335 6.39772 5.91689
#
# Compressibility (1/GPa) = 0.03111239
#
# Stress axis : x y z
#
# Youngs Moduli (GPa) = 119.39668 32.42980 105.56501
#
# Poissons Ratio (x) = 0.11158 0.19011
# Poissons Ratio (y) = 0.41081 0.37415
# Poissons Ratio (z) = 0.21502 0.11494
#
# Static dielectric constant tensor:
#      x y z
#    x 1.919470 -0.051170 -0.000720 
#    y -0.051170 2.230420 0.108370 
#    z -0.000720 0.108370 2.051070 
# 
# From -- ./inp_files/398676.got.cif
#   From: 2010.05.17/outbox.cif.g08.bks.cpg/sg2_200_cif.got.tgz:398676.got - 2010.06.03 11:33:40.
