data_PCOD9079161
_publ_section_title
;
Structure prediction by ZEFSAII (Michael W. Deem and Ramdas Pophale) SiO2 
 PCOD9079161
Probable space group: P -1
;
_chemical_formula_sum "Si O2"
_cell_formula_units_Z 15
_cell_length_a 16.625737
_cell_length_b 11.748315
_cell_length_c 9.255751
_cell_angle_alpha 76.809941
_cell_angle_beta 73.757885
_cell_angle_gamma 23.515952
_cell_volume 690.668858
_symmetry_space_group_name_H-M "P -1"
_symmetry_group_IT_number 2
_symmetry_cell_setting 'triclinic'
loop_
_space_group_symop_operation_xyz
x,y,z
-x,-y,-z
loop_
_atom_site_type_symbol
_atom_site_label
_atom_site_fract_x
_atom_site_fract_y
_atom_site_fract_z
Si Si1 0.447062 0.039768 0.179157
Si Si2 0.257380 0.611513 0.423339
Si Si3 0.983031 0.113177 0.247517
Si Si4 0.444966 0.360175 0.795108
Si Si5 0.500000 0.500000 0.500000
Si Si6 0.000758 0.547027 0.219990
Si Si7 0.591900 0.993568 0.373209
Si Si8 0.814461 0.901152 0.932464
O O1 0.201935 0.356268 0.233504
O O2 0.512651 0.822938 0.238000
O O3 0.577904 0.964545 0.225635
O O4 0.500000 0.000000 0.000000
O O5 0.120437 0.732620 0.586690
O O6 0.351546 0.609620 0.441268
O O7 0.440372 0.293358 0.384070
O O8 0.122037 0.823166 0.293736
O O9 0.799903 0.318218 0.169343
O O10 0.099815 0.079770 0.149481
O O11 0.517621 0.366292 0.645680
O O12 0.574523 0.204435 0.922387
O O13 0.824560 0.732480 0.365763
O O14 0.085432 0.323771 0.159602
O O15 0.884233 0.775018 0.093715
O O16 0.500000 0.000000 0.500000
#
# Coordination Sequence:
#
# PCOD9079161 Si02
#       8
#     2   2   2   2   1   2   2   2
#     4  11  23  43  70  98 128 173 220 271 325 399
#     4  10  22  37  60  90 127 168 213 265 323 384
#     4  10  19  37  57  90 118 171 210 261 323 378
#     4  10  19  32  62  91 117 160 210 261 313 375
#     4  10  18  38  56  90 120 164 212 256 312 392
#     4  10  22  37  62  95 123 171 211 266 333 377
#     4  12  24  43  62  98 138 165 213 279 329 383
#     4  10  18  36  63  89 120 162 222 261 311 398
#
# _framework density 21.718078999999999
#
# number of rings (size 3 to 8) (size 9 to 14) (size 15 to 20)
#    0.000    1.600    1.333    6.400    0.000    0.533 
#    7.200    0.667    0.000    4.000    0.000    0.000 
#    0.000    0.000    0.000    0.000    0.000    0.000 
#
# Total GULP energy -83557.282968 kJ/mol
# GULP energy per Si atom -5570.485531 kJ/mol
# Density = 2.166865 g / cm^3
# Si number density = 21.718079 Si / 1000 Ang^3
#
#
#
# Elastic Constant Matrix: (Units=GPa)
#
#
# Indices 1 2 3 4 5 6 
#
# 1 78.7752 25.3883 9.9974 -5.1670 -23.1136 -25.5738
# 2 25.3883 94.9634 10.1331 -18.4963 -6.3703 -38.4034
# 3 9.9974 10.1331 48.5513 -16.5999 -20.4851 -1.0506
# 4 -5.1670 -18.4963 -16.5999 33.9998 -1.5821 5.6463
# 5 -23.1136 -6.3703 -20.4851 -1.5821 29.0991 -2.5269
# 6 -25.5738 -38.4034 -1.0506 5.6463 -2.5269 26.1496
#
#
#
# Elastic Compliance Matrix: (Units=1/GPa)
#
#
# Indices 1 2 3 4 5 6 
#
# 1 0.095524 0.070616 0.048486 0.049773 0.145751 0.202413
# 2 0.070616 0.084514 0.041200 0.050021 0.123332 0.195952
# 3 0.048486 0.041200 0.065695 0.048464 0.105997 0.110343
# 4 0.049773 0.050021 0.048464 0.072868 0.098804 0.117899
# 5 0.145751 0.123332 0.105997 0.098804 0.286154 0.334245
# 6 0.202413 0.195952 0.110343 0.117899 0.334245 0.535248
#
#
# Mechanical properties :
#
#
# Convention : Reuss Voigt Hill
#
# Bulk Modulus (GPa) = 1.76573 34.81416 18.28994
# Shear Modulus (GPa) = 4.95944 29.63443 17.29694
#
# Velocity S-wave (km/s) = 1.51278 3.69793 2.82517
# Velocity P-wave (km/s) = 1.96625 5.85643 4.36829
#
# Compressibility (1/GPa) = 0.56633820
#
# Stress axis : x y z
#
# Youngs Moduli (GPa) = 10.46856 11.83230 15.22184
#
# Poissons Ratio (x) = -0.83555 -0.73805
# Poissons Ratio (y) = -0.73925 -0.62714
# Poissons Ratio (z) = -0.50758 -0.48749
#
# Static dielectric constant tensor:
#      x y z
#    x 1.756100 -0.032690 0.058390 
#    y -0.032690 1.843810 -0.015210 
#    z 0.058390 -0.015210 1.973680 
# 
# From -- ./inp_files/462940.got.cif
#   From: 2010.05.17/outbox.cif.g08.bks.cpg/sg2_232_cif.got.tgz:462940.got - 2010.06.03 11:33:40.
