data_PCOD9079480
_publ_section_title
;
Structure prediction by ZEFSAII (Michael W. Deem and Ramdas Pophale) SiO2 
 PCOD9079480
Probable space group: P -1
;
_chemical_formula_sum "Si O2"
_cell_formula_units_Z 16
_cell_length_a 14.333423
_cell_length_b 9.253803
_cell_length_c 8.429781
_cell_angle_alpha 75.645461
_cell_angle_beta 46.201325
_cell_angle_gamma 86.057394
_cell_volume 773.332232
_symmetry_space_group_name_H-M "P -1"
_symmetry_group_IT_number 2
_symmetry_cell_setting 'triclinic'
loop_
_space_group_symop_operation_xyz
x,y,z
-x,-y,-z
loop_
_atom_site_type_symbol
_atom_site_label
_atom_site_fract_x
_atom_site_fract_y
_atom_site_fract_z
Si Si1 0.395220 0.863803 0.233679
Si Si2 0.042908 0.171877 0.346365
Si Si3 0.718735 0.638462 0.786889
Si Si4 0.870319 0.393782 0.623072
Si Si5 0.549028 0.621098 0.276135
Si Si6 0.764772 0.862960 0.119060
Si Si7 0.369998 0.125959 0.403724
Si Si8 0.325574 0.828223 0.969378
O O1 0.448888 0.726918 0.295416
O O2 0.333308 0.961243 0.411931
O O3 0.328542 0.808422 0.162829
O O4 0.500000 0.000000 0.000000
O O5 0.164145 0.252792 0.290014
O O6 0.929852 0.274542 0.473996
O O7 0.096609 0.162701 0.107176
O O8 0.000000 0.000000 0.500000
O O9 0.777835 0.515366 0.645921
O O10 0.642546 0.746817 0.745130
O O11 0.618133 0.559151 0.058673
O O12 0.000000 0.500000 0.500000
O O13 0.789992 0.308767 0.890177
O O14 0.500000 0.500000 0.500000
O O15 0.660182 0.735875 0.198858
O O16 0.732936 0.858897 0.341946
O O17 0.729074 0.020288 0.052440
O O18 0.523390 0.152918 0.271278
#
# Coordination Sequence:
#
# PCOD9079480 Si02
#       8
#     2   2   2   2   2   2   2   2
#     4  10  18  37  59  90 128 172 205 246 313 399
#     4  10  20  42  68  84 115 171 232 254 311 378
#     4  10  22  41  61  92 132 166 206 270 319 379
#     4  10  23  39  65  93 118 166 223 266 306 374
#     4  11  22  36  58  92 139 165 202 255 324 384
#     4  11  22  37  61  97 123 168 214 269 306 386
#     4  11  22  36  63  98 133 155 213 262 330 384
#     4  11  20  37  69  88 128 169 209 255 322 389
#
# _framework density 20.689685000000001
#
# number of rings (size 3 to 8) (size 9 to 14) (size 15 to 20)
#    0.000    1.500    6.250    1.125    1.750    1.500 
#    0.000    1.250    0.000    0.000    0.000    0.000 
#    0.000    0.000    0.000    0.000    0.000    0.000 
#
# Total GULP energy -89147.435199 kJ/mol
# GULP energy per Si atom -5571.714700 kJ/mol
# Density = 2.064259 g / cm^3
# Si number density = 20.689685 Si / 1000 Ang^3
#
#
#
# Elastic Constant Matrix: (Units=GPa)
#
#
# Indices 1 2 3 4 5 6 
#
# 1 20.5169 11.3068 22.9506 -0.1937 9.9926 -14.9481
# 2 11.3068 110.2666 50.9478 6.3995 -3.0295 -27.6084
# 3 22.9506 50.9478 124.1181 6.9322 10.2575 -11.0864
# 4 -0.1937 6.3995 6.9322 48.7292 2.4685 -0.8722
# 5 9.9926 -3.0295 10.2575 2.4685 27.7854 -0.0670
# 6 -14.9481 -27.6084 -11.0864 -0.8722 -0.0670 31.5547
#
#
#
# Elastic Compliance Matrix: (Units=1/GPa)
#
#
# Indices 1 2 3 4 5 6 
#
# 1 0.131088 0.010478 -0.019857 0.005096 -0.038969 0.064349
# 2 0.010478 0.015116 -0.006728 -0.000727 0.000466 0.015806
# 3 -0.019857 -0.006728 0.013496 -0.001382 0.001523 -0.010587
# 4 0.005096 -0.000727 -0.001382 0.021033 -0.003266 0.001867
# 5 -0.038969 0.000466 0.001523 -0.003266 0.049741 -0.017502
# 6 0.064349 0.015806 -0.010587 0.001867 -0.017502 0.072299
#
#
# Mechanical properties :
#
#
# Convention : Reuss Voigt Hill
#
# Bulk Modulus (GPa) = 7.84400 47.25688 27.55044
# Shear Modulus (GPa) = 13.24565 32.92697 23.08631
#
# Velocity S-wave (km/s) = 2.53297 3.99365 3.34404
# Velocity P-wave (km/s) = 3.51484 6.64500 5.31555
#
# Compressibility (1/GPa) = 0.12748599
#
# Stress axis : x y z
#
# Youngs Moduli (GPa) = 7.62844 66.15613 74.09538
#
# Poissons Ratio (x) = -0.69319 1.47130
# Poissons Ratio (y) = -0.07993 0.49854
# Poissons Ratio (z) = 0.15148 0.44512
#
# Static dielectric constant tensor:
#      x y z
#    x 1.742640 0.317380 -0.238300 
#    y 0.317380 1.665120 0.146530 
#    z -0.238300 0.146530 1.690950 
# 
# From -- ./inp_files/216670.got.cif
#   From: 2010.05.17/outbox.cif.g08.bks.cpg/sg2_109_cif.got.tgz:216670.got - 2010.06.03 11:33:40.
