data_PCOD9079890
_publ_section_title
;
Structure prediction by ZEFSAII (Michael W. Deem and Ramdas Pophale) SiO2 
 PCOD9079890
Probable space group: P -1
;
_chemical_formula_sum "Si O2"
_cell_formula_units_Z 16
_cell_length_a 12.020049
_cell_length_b 14.243893
_cell_length_c 20.403120
_cell_angle_alpha 153.045822
_cell_angle_beta 22.864526
_cell_angle_gamma 147.633783
_cell_volume 609.829580
_symmetry_space_group_name_H-M "P -1"
_symmetry_group_IT_number 2
_symmetry_cell_setting 'triclinic'
loop_
_space_group_symop_operation_xyz
x,y,z
-x,-y,-z
loop_
_atom_site_type_symbol
_atom_site_label
_atom_site_fract_x
_atom_site_fract_y
_atom_site_fract_z
Si Si1 0.113038 0.421018 0.302708
Si Si2 0.147821 0.791692 0.806085
Si Si3 0.983050 0.945655 0.116692
Si Si4 0.709801 0.281926 0.106159
Si Si5 0.622257 0.989159 0.500616
Si Si6 0.516932 0.482664 0.729591
Si Si7 0.812268 0.726863 0.396192
Si Si8 0.127740 0.125283 0.401675
O O1 0.042183 0.386514 0.243686
O O2 0.833178 0.507090 0.538572
O O3 0.111585 0.873541 0.524598
O O4 0.109844 0.185923 0.187308
O O5 0.486207 0.791578 0.606805
O O6 0.123393 0.791142 0.896702
O O7 0.000000 0.000000 0.000000
O O8 0.656291 0.940157 0.268640
O O9 0.053053 0.871283 0.104922
O O10 0.645146 0.337111 0.100559
O O11 0.807268 0.506300 0.226035
O O12 0.424852 0.173705 0.230823
O O13 0.590554 0.470826 0.759414
O O14 0.500000 0.000000 0.500000
O O15 0.629650 0.743367 0.354585
O O16 0.868908 0.724284 0.442554
O O17 0.044161 0.900896 0.343917
#
# Coordination Sequence:
#
# PCOD9079890 Si02
#       8
#     2   2   2   2   2   2   2   2
#     4   9  19  36  63  96 126 179 229 269 334 409
#     4  10  18  37  68  97 137 179 232 284 341 405
#     4  10  23  41  67 103 135 178 229 293 351 403
#     4  12  23  42  71 104 139 181 234 285 341 417
#     4  11  25  49  69  95 141 183 229 288 349 419
#     4  10  21  40  68  94 133 186 235 267 336 423
#     4  11  22  43  67 102 146 181 230 281 344 415
#     4  11  24  40  71  99 133 189 228 275 348 402
#
# _framework density 26.236837999999999
#
# number of rings (size 3 to 8) (size 9 to 14) (size 15 to 20)
#    0.000    1.500    3.750    1.875    5.250    0.500 
#    0.000    2.500    5.500    0.000    0.000    0.000 
#    0.000    0.000    0.000    0.000    0.000    0.000 
#
# Total GULP energy -89482.281528 kJ/mol
# GULP energy per Si atom -5592.642595 kJ/mol
# Density = 2.617712 g / cm^3
# Si number density = 26.236838 Si / 1000 Ang^3
#
#
#
# Elastic Constant Matrix: (Units=GPa)
#
#
# Indices 1 2 3 4 5 6 
#
# 1 179.7262 26.3486 26.4902 6.0281 -13.9426 8.0871
# 2 26.3486 98.8887 30.4153 3.8581 -11.2984 1.6879
# 3 26.4902 30.4153 26.7563 6.8740 -8.5655 3.5034
# 4 6.0281 3.8581 6.8740 37.9878 -8.4437 -6.2668
# 5 -13.9426 -11.2984 -8.5655 -8.4437 41.5543 4.2353
# 6 8.0871 1.6879 3.5034 -6.2668 4.2353 53.3785
#
#
#
# Elastic Compliance Matrix: (Units=1/GPa)
#
#
# Indices 1 2 3 4 5 6 
#
# 1 0.006583 0.000404 -0.006614 0.000245 0.001069 -0.000632
# 2 0.000404 0.015750 -0.018650 0.002050 0.000905 0.000834
# 3 -0.006614 -0.018650 0.069904 -0.009182 0.005715 -0.004528
# 4 0.000245 0.002050 -0.009182 0.029295 0.004333 0.003596
# 5 0.001069 0.000905 0.005715 0.004333 0.026952 -0.002196
# 6 -0.000632 0.000834 -0.004528 0.003596 -0.002196 0.019697
#
#
# Mechanical properties :
#
#
# Convention : Reuss Voigt Hill
#
# Bulk Modulus (GPa) = 23.52000 52.43105 37.97553
# Shear Modulus (GPa) = 21.54483 41.39192 31.46837
#
# Velocity S-wave (km/s) = 2.86871 3.97624 3.46699
# Velocity P-wave (km/s) = 4.46728 6.41154 5.52560
#
# Compressibility (1/GPa) = 0.04251700
#
# Stress axis : x y z
#
# Youngs Moduli (GPa) = 151.90880 63.49150 14.30527
#
# Poissons Ratio (x) = -0.02563 0.09462
# Poissons Ratio (y) = -0.06133 0.26679
# Poissons Ratio (z) = 1.00475 1.18410
#
# Static dielectric constant tensor:
#      x y z
#    x 2.147930 -0.070110 0.043910 
#    y -0.070110 2.174470 -0.046100 
#    z 0.043910 -0.046100 2.040100 
# 
# From -- ./inp_files/623865.got.cif
#   From: 2010.05.17/outbox.cif.g08.bks.cpg/sg2_312_cif.got.tgz:623865.got - 2010.06.03 11:33:40.
