data_PCOD9079074
_publ_section_title
;
Structure prediction by ZEFSAII (Michael W. Deem and Ramdas Pophale) SiO2 
 PCOD9079074
Probable space group: P -1
;
_chemical_formula_sum "Si O2"
_cell_formula_units_Z 15
_cell_length_a 10.034658
_cell_length_b 10.258202
_cell_length_c 16.948596
_cell_angle_alpha 143.401582
_cell_angle_beta 141.406167
_cell_angle_gamma 40.390416
_cell_volume 605.160214
_symmetry_space_group_name_H-M "P -1"
_symmetry_group_IT_number 2
_symmetry_cell_setting 'triclinic'
loop_
_space_group_symop_operation_xyz
x,y,z
-x,-y,-z
loop_
_atom_site_type_symbol
_atom_site_label
_atom_site_fract_x
_atom_site_fract_y
_atom_site_fract_z
Si Si1 0.742104 0.007075 0.892956
Si Si2 0.915680 0.806953 0.255994
Si Si3 0.370075 0.757995 0.374896
Si Si4 0.362319 0.926806 0.285842
Si Si5 0.662371 0.280957 0.320038
Si Si6 0.236185 0.509383 0.392610
Si Si7 0.000000 0.500000 0.000000
Si Si8 0.842230 0.032943 0.121442
O O1 0.758126 0.743729 0.752579
O O2 0.593100 0.159321 0.825430
O O3 0.691898 0.083606 0.997296
O O4 0.000000 0.000000 0.000000
O O5 0.106310 0.885196 0.335922
O O6 0.040272 0.698875 0.342147
O O7 0.890278 0.612905 0.091523
O O8 0.700309 0.048921 0.276925
O O9 0.419329 0.750878 0.301105
O O10 0.421518 0.494075 0.299924
O O11 0.509961 0.894846 0.548725
O O12 0.088433 0.052627 0.228313
O O13 0.807771 0.411008 0.497627
O O14 0.727205 0.195424 0.220158
O O15 0.500000 0.500000 0.500000
O O16 0.104607 0.235450 0.958718
#
# Coordination Sequence:
#
# PCOD9079074 Si02
#       8
#     2   2   2   2   2   2   1   2
#     4  10  21  40  64  94 128 177 210 253 327 390
#     4  11  22  41  64  93 128 163 211 265 319 378
#     4  11  21  39  63  94 126 161 204 274 315 364
#     4  10  20  39  63  88 126 170 206 251 324 374
#     4  11  23  39  63 103 119 163 219 264 317 377
#     4  12  22  41  69  94 131 165 212 273 321 374
#     4  10  18  36  62  86 122 170 200 252 322 368
#     4  10  21  39  64  91 127 167 213 257 316 388
#
# _framework density 24.786825
#
# number of rings (size 3 to 8) (size 9 to 14) (size 15 to 20)
#    0.000    1.333    6.667    0.400    0.000    0.533 
#    0.000    6.667    0.000    1.600    0.000    0.000 
#    0.000    0.000    0.000    0.000    0.000    0.000 
#
# Total GULP energy -83509.019508 kJ/mol
# GULP energy per Si atom -5567.267967 kJ/mol
# Density = 2.473041 g / cm^3
# Si number density = 24.786825 Si / 1000 Ang^3
#
#
#
# Elastic Constant Matrix: (Units=GPa)
#
#
# Indices 1 2 3 4 5 6 
#
# 1 57.0718 29.9744 49.9678 -9.1930 -14.3486 14.3799
# 2 29.9744 90.8647 34.2741 -0.7734 -12.0029 6.9912
# 3 49.9678 34.2741 158.9605 -18.4886 -25.9045 3.5032
# 4 -9.1930 -0.7734 -18.4886 35.7620 4.4749 -14.2746
# 5 -14.3486 -12.0029 -25.9045 4.4749 58.8326 -14.1589
# 6 14.3799 6.9912 3.5032 -14.2746 -14.1589 33.6798
#
#
#
# Elastic Compliance Matrix: (Units=1/GPa)
#
#
# Indices 1 2 3 4 5 6 
#
# 1 0.030596 -0.006151 -0.008169 -0.001034 -0.000054 -0.011398
# 2 -0.006151 0.013593 -0.001115 -0.002241 0.000784 -0.000700
# 3 -0.008169 -0.001115 0.010110 0.005188 0.003347 0.006274
# 4 -0.001034 -0.002241 0.005188 0.036832 0.002913 0.017203
# 5 -0.000054 0.000784 0.003347 0.002913 0.020667 0.009435
# 6 -0.011398 -0.000700 0.006274 0.017203 0.009435 0.045308
#
#
# Mechanical properties :
#
#
# Convention : Reuss Voigt Hill
#
# Bulk Modulus (GPa) = 42.68134 59.48108 51.08121
# Shear Modulus (GPa) = 25.53800 38.50025 32.01913
#
# Velocity S-wave (km/s) = 3.21332 3.94541 3.59803
# Velocity P-wave (km/s) = 5.56992 6.69359 6.15744
#
# Compressibility (1/GPa) = 0.02342944
#
# Stress axis : x y z
#
# Youngs Moduli (GPa) = 32.68363 73.56592 98.91394
#
# Poissons Ratio (x) = 0.45247 0.80807
# Poissons Ratio (y) = 0.20102 0.11028
# Poissons Ratio (z) = 0.26701 0.08202
#
# Static dielectric constant tensor:
#      x y z
#    x 2.051020 0.067490 -0.016020 
#    y 0.067490 1.990050 -0.059700 
#    z -0.016020 -0.059700 2.015210 
# 
# From -- ./inp_files/568383.got.cif
#   From: 2010.05.17/outbox.cif.g08.bks.cpg/sg2_285_cif.got.tgz:568383.got - 2010.06.03 11:33:40.
