data_PCOD9079732
_publ_section_title
;
Structure prediction by ZEFSAII (Michael W. Deem and Ramdas Pophale) SiO2 
 PCOD9079732
Probable space group: P -1
;
_chemical_formula_sum "Si O2"
_cell_formula_units_Z 12
_cell_length_a 16.685830
_cell_length_b 7.406135
_cell_length_c 10.478900
_cell_angle_alpha 60.675231
_cell_angle_beta 32.462705
_cell_angle_gamma 43.833616
_cell_volume 456.103406
_symmetry_space_group_name_H-M "P -1"
_symmetry_group_IT_number 2
_symmetry_cell_setting 'triclinic'
loop_
_space_group_symop_operation_xyz
x,y,z
-x,-y,-z
loop_
_atom_site_type_symbol
_atom_site_label
_atom_site_fract_x
_atom_site_fract_y
_atom_site_fract_z
Si Si1 0.397481 0.921087 0.251770
Si Si2 0.044044 0.356711 0.730715
Si Si3 0.837841 0.971844 0.707371
Si Si4 0.275446 0.668416 0.861817
Si Si5 0.240966 0.459338 0.746222
Si Si6 0.561498 0.147069 0.245208
O O1 0.566863 0.622241 0.181195
O O2 0.250065 0.943641 0.344544
O O3 0.268987 0.139734 0.461356
O O4 0.500000 0.000000 0.000000
O O5 0.942612 0.654325 0.705789
O O6 0.934418 0.251424 0.858242
O O7 0.976448 0.398846 0.955338
O O8 0.000000 0.000000 0.500000
O O9 0.652712 0.155900 0.990806
O O10 0.290516 0.621936 0.704861
O O11 0.315045 0.851537 0.807518
O O12 0.330574 0.394182 0.507196
O O13 0.374828 0.150354 0.730574
#
# Coordination Sequence:
#
# PCOD9079732 Si02
#       6
#     2   2   2   2   2   2
#     4  12  22  38  61  89 123 164 201 245 304 362
#     4   9  21  40  59  88 118 162 198 249 301 352
#     4  11  23  38  60  91 126 162 198 251 304 363
#     4  10  21  38  64  90 117 161 203 251 301 352
#     4   8  19  39  64  85 118 159 202 252 302 354
#     4  10  18  37  64  87 117 162 204 240 307 363
#
# _framework density 26.309823000000002
#
# number of rings (size 3 to 8) (size 9 to 14) (size 15 to 20)
#    1.000    1.000    1.667    2.000    2.333    0.667 
#    3.000    0.833    0.000    6.000    0.000    0.000 
#    0.000    0.000    0.000    0.000    0.000    0.000 
#
# Total GULP energy -67145.804499 kJ/mol
# GULP energy per Si atom -5595.483708 kJ/mol
# Density = 2.624994 g / cm^3
# Si number density = 26.309823 Si / 1000 Ang^3
#
#
#
# Elastic Constant Matrix: (Units=GPa)
#
#
# Indices 1 2 3 4 5 6 
#
# 1 132.5454 26.0975 40.1131 10.7459 12.9443 16.4695
# 2 26.0975 87.1878 34.9866 3.4414 -8.8679 -9.4376
# 3 40.1131 34.9866 219.5712 6.9265 36.2985 -3.9586
# 4 10.7459 3.4414 6.9265 42.5092 12.3351 -12.4849
# 5 12.9443 -8.8679 36.2985 12.3351 45.4501 -3.3232
# 6 16.4695 -9.4376 -3.9586 -12.4849 -3.3232 38.6409
#
#
#
# Elastic Compliance Matrix: (Units=1/GPa)
#
#
# Indices 1 2 3 4 5 6 
#
# 1 0.009741 -0.003355 -0.000874 -0.003227 -0.002316 -0.006303
# 2 -0.003355 0.014795 -0.002709 -0.000241 0.006455 0.005243
# 3 -0.000874 -0.002709 0.006000 0.001077 -0.005348 0.000213
# 4 -0.003227 -0.000241 0.001077 0.029286 -0.007185 0.010271
# 5 -0.002316 0.006455 -0.005348 -0.007185 0.030311 0.002301
# 6 -0.006303 0.005243 0.000213 0.010271 0.002301 0.033385
#
#
# Mechanical properties :
#
#
# Convention : Reuss Voigt Hill
#
# Bulk Modulus (GPa) = 60.03164 71.29987 65.66575
# Shear Modulus (GPa) = 34.97827 47.86052 41.41940
#
# Velocity S-wave (km/s) = 3.65015 4.26973 3.97204
# Velocity P-wave (km/s) = 6.37429 7.17401 6.78594
#
# Compressibility (1/GPa) = 0.01665788
#
# Stress axis : x y z
#
# Youngs Moduli (GPa) = 102.66270 67.59204 166.67574
#
# Poissons Ratio (x) = 0.22680 0.14565
# Poissons Ratio (y) = 0.34447 0.45158
# Poissons Ratio (z) = 0.08971 0.18313
#
# Static dielectric constant tensor:
#      x y z
#    x 2.119980 0.062410 -0.018670 
#    y 0.062410 1.988930 -0.017450 
#    z -0.018670 -0.017450 2.134640 
# 
# From -- ./inp_files/372486.got.cif
#   From: 2010.05.17/outbox.cif.g08.bks.cpg/sg2_187_cif.got.tgz:372486.got - 2010.06.03 11:33:40.
