data_PCOD9079421
_publ_section_title
;
Structure prediction by ZEFSAII (Michael W. Deem and Ramdas Pophale) SiO2 
 PCOD9079421
Probable space group: P -1
;
_chemical_formula_sum "Si O2"
_cell_formula_units_Z 12
_cell_length_a 5.374323
_cell_length_b 9.288339
_cell_length_c 14.019448
_cell_angle_alpha 124.842972
_cell_angle_beta 122.512925
_cell_angle_gamma 54.219125
_cell_volume 443.674942
_symmetry_space_group_name_H-M "P -1"
_symmetry_group_IT_number 2
_symmetry_cell_setting 'triclinic'
loop_
_space_group_symop_operation_xyz
x,y,z
-x,-y,-z
loop_
_atom_site_type_symbol
_atom_site_label
_atom_site_fract_x
_atom_site_fract_y
_atom_site_fract_z
Si Si1 0.714373 0.003165 0.636594
Si Si2 0.140728 0.656450 0.497307
Si Si3 0.689450 0.679307 0.969911
Si Si4 0.084089 0.210700 0.695476
Si Si5 0.896136 0.431291 0.245256
Si Si6 0.293295 0.059522 0.106613
O O1 0.456533 0.079653 0.696816
O O2 0.881529 0.149606 0.706274
O O3 0.500000 0.000000 0.500000
O O4 0.017428 0.796551 0.614696
O O5 0.500000 0.500000 0.500000
O O6 0.901104 0.549405 0.385735
O O7 0.095431 0.786254 0.442705
O O8 0.417438 0.601073 0.859738
O O9 0.691446 0.810214 0.929885
O O10 0.000000 0.500000 0.000000
O O11 0.579438 0.849532 0.091693
O O12 0.050248 0.430290 0.771494
O O13 0.183725 0.222210 0.226286
O O14 0.000000 0.000000 0.000000
#
# Coordination Sequence:
#
# PCOD9079421 Si02
#       6
#     2   2   2   2   2   2
#     4  10  18  37  57  81 121 167 205 254 302 358
#     4   9  19  36  56  85 123 165 205 250 310 365
#     4  10  21  41  65  92 119 164 206 265 332 392
#     4   9  21  36  60  82 120 165 205 255 305 363
#     4   9  21  35  60  87 119 160 202 262 315 382
#     4   9  20  40  62  87 130 154 202 269 324 378
#
# _framework density 27.04683
#
# number of rings (size 3 to 8) (size 9 to 14) (size 15 to 20)
#    1.000    1.667    0.000    2.000    2.333    2.667 
#    3.000   12.500    0.000    0.000    0.000    0.000 
#    0.000    0.000    0.000    0.000    0.000    0.000 
#
# Total GULP energy -67046.293755 kJ/mol
# GULP energy per Si atom -5587.191146 kJ/mol
# Density = 2.698527 g / cm^3
# Si number density = 27.046830 Si / 1000 Ang^3
#
#
#
# Elastic Constant Matrix: (Units=GPa)
#
#
# Indices 1 2 3 4 5 6 
#
# 1 152.9617 79.4311 58.4127 8.4709 28.0511 -5.2711
# 2 79.4311 257.8475 43.8943 37.7313 18.3955 -33.6437
# 3 58.4127 43.8943 84.7233 30.2401 -0.1425 4.0968
# 4 8.4709 37.7313 30.2401 45.9332 -3.8524 0.2871
# 5 28.0511 18.3955 -0.1425 -3.8524 51.6967 20.3251
# 6 -5.2711 -33.6437 4.0968 0.2871 20.3251 62.3546
#
#
#
# Elastic Compliance Matrix: (Units=1/GPa)
#
#
# Indices 1 2 3 4 5 6 
#
# 1 0.012155 -0.002101 -0.009207 0.004982 -0.006525 0.002603
# 2 -0.002101 0.005974 -0.000179 -0.004672 -0.002919 0.004030
# 3 -0.009207 -0.000179 0.023026 -0.012799 0.005832 -0.004230
# 4 0.004982 -0.004672 -0.012799 0.033318 0.002250 -0.002146
# 5 -0.006525 -0.002919 0.005832 0.002250 0.028786 -0.011903
# 6 0.002603 0.004030 -0.004230 -0.002146 -0.011903 0.022600
#
#
# Mechanical properties :
#
#
# Convention : Reuss Voigt Hill
#
# Bulk Modulus (GPa) = 55.00032 95.44542 75.22287
# Shear Modulus (GPa) = 32.28066 52.91652 42.59859
#
# Velocity S-wave (km/s) = 3.45847 4.42801 3.97292
# Velocity P-wave (km/s) = 6.02722 7.84274 6.99414
#
# Compressibility (1/GPa) = 0.01818171
#
# Stress axis : x y z
#
# Youngs Moduli (GPa) = 82.27157 167.40345 43.42936
#
# Poissons Ratio (x) = 0.35170 0.39984
# Poissons Ratio (y) = 0.17285 0.00776
# Poissons Ratio (z) = 0.75745 0.02990
#
# Static dielectric constant tensor:
#      x y z
#    x 2.112220 -0.043910 -0.110750 
#    y -0.043910 2.199340 -0.056720 
#    z -0.110750 -0.056720 2.203410 
# 
# From -- ./inp_files/547404.got.cif
#   From: 2010.05.17/outbox.cif.g08.bks.cpg/sg2_274_cif.got.tgz:547404.got - 2010.06.03 11:33:40.
