data_PCOD9079850
_publ_section_title
;
Structure prediction by ZEFSAII (Michael W. Deem and Ramdas Pophale) SiO2 
 PCOD9079850
Probable space group: P -1
;
_chemical_formula_sum "Si O2"
_cell_formula_units_Z 16
_cell_length_a 11.633669
_cell_length_b 16.700238
_cell_length_c 16.178252
_cell_angle_alpha 154.346029
_cell_angle_beta 40.112633
_cell_angle_gamma 155.554392
_cell_volume 535.090502
_symmetry_space_group_name_H-M "P -1"
_symmetry_group_IT_number 2
_symmetry_cell_setting 'triclinic'
loop_
_space_group_symop_operation_xyz
x,y,z
-x,-y,-z
loop_
_atom_site_type_symbol
_atom_site_label
_atom_site_fract_x
_atom_site_fract_y
_atom_site_fract_z
Si Si1 0.635217 0.065083 0.397095
Si Si2 0.889849 0.738151 0.607389
Si Si3 0.421626 0.261510 0.676722
Si Si4 0.894499 0.998305 0.652988
Si Si5 0.958679 0.096634 0.033452
Si Si6 0.716528 0.443697 0.271305
Si Si7 0.142764 0.492147 0.064079
Si Si8 0.420964 0.899152 0.133729
O O1 0.538292 0.160257 0.483855
O O2 0.973012 0.299408 0.441240
O O3 0.500000 0.000000 0.500000
O O4 0.460257 0.740817 0.160689
O O5 0.829242 0.863449 0.814423
O O6 0.646093 0.461917 0.420250
O O7 0.161382 0.015652 0.656813
O O8 0.257526 0.256531 0.694560
O O9 0.710742 0.565485 0.847816
O O10 0.711621 0.000077 0.702170
O O11 0.797802 0.705122 0.425788
O O12 0.921223 0.140102 0.856029
O O13 0.744450 0.094289 0.163365
O O14 0.000000 0.000000 0.000000
O O15 0.987478 0.534614 0.233511
O O16 0.591321 0.199934 0.044838
O O17 0.211525 0.615060 0.047577
#
# Coordination Sequence:
#
# PCOD9079850 Si02
#       8
#     2   2   2   2   2   2   2   2
#     4  10  18  37  67 101 131 164 231 299 326 383
#     4  10  21  42  74  98 134 183 234 296 326 409
#     4  10  21  42  73 102 130 179 245 281 333 408
#     4  10  20  40  70  98 132 179 229 286 329 412
#     4  12  26  47  65 102 149 182 225 284 359 412
#     4  10  21  42  66 102 127 179 246 271 340 410
#     4  11  20  38  64  99 135 176 231 286 343 395
#     4  11  26  41  64  98 148 181 212 288 359 414
#
# _framework density 29.901485000000001
#
# number of rings (size 3 to 8) (size 9 to 14) (size 15 to 20)
#    0.000    1.500    3.750    4.125    0.000    5.500 
#    4.500    3.750    0.000    0.000    0.000    0.000 
#    0.000    0.000    0.000    0.000    0.000    0.000 
#
# Total GULP energy -89251.486793 kJ/mol
# GULP energy per Si atom -5578.217925 kJ/mol
# Density = 2.983343 g / cm^3
# Si number density = 29.901485 Si / 1000 Ang^3
#
#
#
# Elastic Constant Matrix: (Units=GPa)
#
#
# Indices 1 2 3 4 5 6 
#
# 1 169.7152 42.7989 46.4598 -10.5151 -17.3380 40.5156
# 2 42.7989 92.1386 44.4379 -21.4018 -21.5636 24.3607
# 3 46.4598 44.4379 169.3931 -15.8386 -12.8520 18.2720
# 4 -10.5151 -21.4018 -15.8386 64.2483 16.5026 -13.6875
# 5 -17.3380 -21.5636 -12.8520 16.5026 64.1811 -27.6081
# 6 40.5156 24.3607 18.2720 -13.6875 -27.6081 71.6931
#
#
#
# Elastic Compliance Matrix: (Units=1/GPa)
#
#
# Indices 1 2 3 4 5 6 
#
# 1 0.007525 -0.002196 -0.001184 -0.000442 -0.000292 -0.003401
# 2 -0.002196 0.014834 -0.002654 0.002965 0.002394 -0.001636
# 3 -0.001184 -0.002654 0.006993 0.000629 -0.000015 -0.000097
# 4 -0.000442 0.002965 0.000629 0.017679 -0.002980 0.001310
# 5 -0.000292 0.002394 -0.000015 -0.002980 0.019833 0.006424
# 6 -0.003401 -0.001636 -0.000097 0.001310 0.006424 0.019175
#
#
# Mechanical properties :
#
#
# Convention : Reuss Voigt Hill
#
# Bulk Modulus (GPa) = 57.85849 77.62667 67.74258
# Shear Modulus (GPa) = 48.13777 59.86118 53.99947
#
# Velocity S-wave (km/s) = 4.01668 4.47917 4.25421
# Velocity P-wave (km/s) = 6.39557 7.26414 6.84365
#
# Compressibility (1/GPa) = 0.01728355
#
# Stress axis : x y z
#
# Youngs Moduli (GPa) = 132.89053 67.41062 143.00670
#
# Poissons Ratio (x) = 0.14801 0.16938
# Poissons Ratio (y) = 0.29179 0.37956
# Poissons Ratio (z) = 0.15740 0.17892
#
# Static dielectric constant tensor:
#      x y z
#    x 2.479800 0.003070 -0.007470 
#    y 0.003070 2.458670 0.112280 
#    z -0.007470 0.112280 2.409490 
# 
# From -- ./inp_files/596269.got.cif
#   From: 2010.05.17/outbox.cif.g08.bks.cpg/sg2_299_cif.got.tgz:596269.got - 2010.06.03 11:33:40.
