data_PCOD9079487
_publ_section_title
;
Structure prediction by ZEFSAII (Michael W. Deem and Ramdas Pophale) SiO2 
 PCOD9079487
Probable space group: P -1
;
_chemical_formula_sum "Si O2"
_cell_formula_units_Z 12
_cell_length_a 8.394869
_cell_length_b 8.281254
_cell_length_c 8.885659
_cell_angle_alpha 86.209047
_cell_angle_beta 131.536192
_cell_angle_gamma 109.215074
_cell_volume 426.403476
_symmetry_space_group_name_H-M "P -1"
_symmetry_group_IT_number 2
_symmetry_cell_setting 'triclinic'
loop_
_space_group_symop_operation_xyz
x,y,z
-x,-y,-z
loop_
_atom_site_type_symbol
_atom_site_label
_atom_site_fract_x
_atom_site_fract_y
_atom_site_fract_z
Si Si1 0.973953 0.147755 0.140580
Si Si2 0.682975 0.149447 0.700294
Si Si3 0.665184 0.173736 0.177483
Si Si4 0.743470 0.499035 0.369684
Si Si5 0.216458 0.500433 0.245583
Si Si6 0.995705 0.173952 0.643881
O O1 0.861473 0.255463 0.168619
O O2 0.197320 0.302952 0.207816
O O3 0.791635 0.067527 0.899623
O O4 0.992371 0.998162 0.264554
O O5 0.609367 0.303051 0.704162
O O6 0.895670 0.250996 0.714199
O O7 0.500000 0.000000 0.500000
O O8 0.590164 0.323008 0.193312
O O9 0.793889 0.118016 0.396858
O O10 0.500000 0.000000 0.000000
O O11 0.715537 0.494584 0.531409
O O12 0.000000 0.500000 0.500000
O O13 0.778830 0.682710 0.299163
O O14 0.000000 0.500000 0.000000
#
# Coordination Sequence:
#
# PCOD9079487 Si02
#       6
#     2   2   2   2   2   2
#     4  11  22  36  60  89 114 155 197 239 290 343
#     4  11  22  39  60  84 116 156 197 242 288 343
#     4  11  21  36  58  87 117 151 195 238 286 343
#     4  10  18  37  60  81 116 157 194 233 282 358
#     4  10  20  37  60  84 113 158 200 227 284 363
#     4  11  21  39  60  86 119 151 198 242 287 346
#
# _framework density 28.142355999999999
#
# number of rings (size 3 to 8) (size 9 to 14) (size 15 to 20)
#    0.000    1.333    6.667    2.000    0.000    0.000 
#    0.000    3.333    0.000    0.000    0.000    0.000 
#    0.000    0.000    0.000    0.000    0.000    0.000 
#
# Total GULP energy -66910.556464 kJ/mol
# GULP energy per Si atom -5575.879705 kJ/mol
# Density = 2.807830 g / cm^3
# Si number density = 28.142356 Si / 1000 Ang^3
#
#
#
# Elastic Constant Matrix: (Units=GPa)
#
#
# Indices 1 2 3 4 5 6 
#
# 1 77.5830 0.8875 23.0962 -4.6400 -19.5959 8.1667
# 2 0.8875 265.9080 112.9003 -1.4797 8.6127 -15.8766
# 3 23.0962 112.9003 245.9411 4.3668 -14.4655 -4.6954
# 4 -4.6400 -1.4797 4.3668 76.7638 0.6897 -6.4678
# 5 -19.5959 8.6127 -14.4655 0.6897 32.2448 -3.0425
# 6 8.1667 -15.8766 -4.6954 -6.4678 -3.0425 26.1252
#
#
#
# Elastic Compliance Matrix: (Units=1/GPa)
#
#
# Indices 1 2 3 4 5 6 
#
# 1 0.015885 -0.000161 -0.000985 0.000591 0.008859 -0.004062
# 2 -0.000161 0.004993 -0.002371 0.000453 -0.002268 0.002507
# 3 -0.000985 -0.002371 0.005400 -0.000433 0.002468 0.000018
# 4 0.000591 0.000453 -0.000433 0.013376 0.000072 0.003333
# 5 0.008859 -0.002268 0.002468 0.000072 0.038180 0.000760
# 6 -0.004062 0.002507 0.000018 0.003333 0.000760 0.041987
#
#
# Mechanical properties :
#
#
# Convention : Reuss Voigt Hill
#
# Bulk Modulus (GPa) = 51.96099 95.91112 73.93605
# Shear Modulus (GPa) = 37.51770 57.19663 47.35716
#
# Velocity S-wave (km/s) = 3.65518 4.51311 4.10661
# Velocity P-wave (km/s) = 6.02640 7.83021 6.98676
#
# Compressibility (1/GPa) = 0.01924521
#
# Stress axis : x y z
#
# Youngs Moduli (GPa) = 62.95240 200.26070 185.18498
#
# Poissons Ratio (x) = 0.03226 0.18237
# Poissons Ratio (y) = 0.01014 0.43903
# Poissons Ratio (z) = 0.06200 0.47477
#
# Static dielectric constant tensor:
#      x y z
#    x 2.849850 0.065540 0.060950 
#    y 0.065540 2.336780 0.037320 
#    z 0.060950 0.037320 2.162690 
# 
# From -- ./inp_files/147695.got.cif
#   From: 2010.05.17/outbox.cif.g08.bks.cpg/sg2_74_cif.got.tgz:147695.got - 2010.06.03 11:33:40.
