data_PCOD9079364
_publ_section_title
;
Structure prediction by ZEFSAII (Michael W. Deem and Ramdas Pophale) SiO2 
 PCOD9079364
Probable space group: P -1
;
_chemical_formula_sum "Si O2"
_cell_formula_units_Z 14
_cell_length_a 19.269011
_cell_length_b 8.754525
_cell_length_c 12.838395
_cell_angle_alpha 43.705298
_cell_angle_beta 155.511984
_cell_angle_gamma 145.301698
_cell_volume 508.072682
_symmetry_space_group_name_H-M "P -1"
_symmetry_group_IT_number 2
_symmetry_cell_setting 'triclinic'
loop_
_space_group_symop_operation_xyz
x,y,z
-x,-y,-z
loop_
_atom_site_type_symbol
_atom_site_label
_atom_site_fract_x
_atom_site_fract_y
_atom_site_fract_z
Si Si1 0.848349 0.968832 0.608505
Si Si2 0.269716 0.316283 0.733271
Si Si3 0.492811 0.505436 0.735449
Si Si4 0.199576 0.874569 0.130672
Si Si5 0.723014 0.159421 0.966535
Si Si6 0.767327 0.233755 0.540044
Si Si7 0.725636 0.268187 0.150825
O O1 0.628976 0.674817 0.442806
O O2 0.862233 0.102541 0.672317
O O3 0.854788 0.186054 0.431921
O O4 0.019165 0.915172 0.854431
O O5 0.316632 0.342668 0.661704
O O6 0.173736 0.474067 0.557129
O O7 0.500000 0.500000 0.000000
O O8 0.187077 0.021441 0.805040
O O9 0.590773 0.820619 0.723036
O O10 0.684833 0.486203 0.025827
O O11 0.207319 0.729085 0.109915
O O12 0.182504 0.742111 0.282345
O O13 0.476226 0.965018 0.716118
O O14 0.763520 0.306667 0.059434
O O15 0.500000 0.000000 0.000000
#
# Coordination Sequence:
#
# PCOD9079364 Si02
#       7
#     2   2   2   2   2   2   2
#     4  11  24  43  66  93 136 165 213 269 317 377
#     4  10  18  36  69  93 119 175 213 253 323 374
#     4  11  21  40  67  93 127 169 211 261 322 372
#     4  12  27  40  65 102 128 168 218 259 317 389
#     4  11  20  40  70  96 125 168 221 264 315 379
#     4  11  22  43  65  90 137 174 204 263 326 382
#     4  10  18  39  67  94 124 169 210 265 321 365
#
# _framework density 27.555112000000001
#
# number of rings (size 3 to 8) (size 9 to 14) (size 15 to 20)
#    0.000    1.143    8.571    1.714    0.000    1.714 
#    0.000    0.714    0.000    0.000    0.000    0.000 
#    0.000    0.000    0.000    0.000    0.000    0.000 
#
# Total GULP energy -78430.261979 kJ/mol
# GULP energy per Si atom -5602.161570 kJ/mol
# Density = 2.749240 g / cm^3
# Si number density = 27.555112 Si / 1000 Ang^3
#
#
#
# Elastic Constant Matrix: (Units=GPa)
#
#
# Indices 1 2 3 4 5 6 
#
# 1 162.1060 19.5064 35.3760 -8.4379 -8.3703 -2.6929
# 2 19.5064 88.7275 26.9444 5.3231 -4.0399 -17.1950
# 3 35.3760 26.9444 125.8351 3.8775 9.4957 0.5597
# 4 -8.4379 5.3231 3.8775 42.6667 -2.1210 1.8806
# 5 -8.3703 -4.0399 9.4957 -2.1210 51.9889 -4.6508
# 6 -2.6929 -17.1950 0.5597 1.8806 -4.6508 34.0128
#
#
#
# Elastic Compliance Matrix: (Units=1/GPa)
#
#
# Indices 1 2 3 4 5 6 
#
# 1 0.006862 -0.000928 -0.001895 0.001709 0.001467 0.000212
# 2 -0.000928 0.013991 -0.002864 -0.001895 0.002049 0.007432
# 3 -0.001895 -0.002864 0.009314 -0.000896 -0.002448 -0.002036
# 4 0.001709 -0.001895 -0.000896 0.024236 0.001102 -0.001997
# 5 0.001467 0.002049 -0.002448 0.001102 0.020474 0.003931
# 6 0.000212 0.007432 -0.002036 -0.001997 0.003931 0.033856
#
#
# Mechanical properties :
#
#
# Convention : Reuss Voigt Hill
#
# Bulk Modulus (GPa) = 53.20887 60.03579 56.62233
# Shear Modulus (GPa) = 39.56557 45.38979 42.47768
#
# Velocity S-wave (km/s) = 3.79340 4.06302 3.93052
# Velocity P-wave (km/s) = 6.20793 6.62161 6.41810
#
# Compressibility (1/GPa) = 0.01879386
#
# Stress axis : x y z
#
# Youngs Moduli (GPa) = 145.72618 71.47218 107.36208
#
# Poissons Ratio (x) = 0.06632 0.20343
# Poissons Ratio (y) = 0.13522 0.30752
# Poissons Ratio (z) = 0.27612 0.20472
#
# Static dielectric constant tensor:
#      x y z
#    x 2.225860 0.004710 -0.050090 
#    y 0.004710 2.174070 0.046030 
#    z -0.050090 0.046030 2.178010 
# 
# From -- ./inp_files/461961.got.cif
#   From: 2010.05.17/outbox.cif.g08.bks.cpg/sg2_231_cif.got.tgz:461961.got - 2010.06.03 11:33:40.
