data_PCOD9079620
_publ_section_title
;
Structure prediction by ZEFSAII (Michael W. Deem and Ramdas Pophale) SiO2 
 PCOD9079620
Probable space group: P -1
;
_chemical_formula_sum "Si O2"
_cell_formula_units_Z 15
_cell_length_a 16.163804
_cell_length_b 9.206708
_cell_length_c 9.403221
_cell_angle_alpha 116.059655
_cell_angle_beta 107.359758
_cell_angle_gamma 34.153376
_cell_volume 699.821814
_symmetry_space_group_name_H-M "P -1"
_symmetry_group_IT_number 2
_symmetry_cell_setting 'triclinic'
loop_
_space_group_symop_operation_xyz
x,y,z
-x,-y,-z
loop_
_atom_site_type_symbol
_atom_site_label
_atom_site_fract_x
_atom_site_fract_y
_atom_site_fract_z
Si Si1 0.212169 0.487990 0.420815
Si Si2 0.260971 0.547787 0.163855
Si Si3 0.339418 0.719809 0.937477
Si Si4 0.231751 0.075521 0.291553
Si Si5 0.517454 0.491946 0.673290
Si Si6 0.500000 0.000000 0.500000
Si Si7 0.300487 0.397996 0.820214
Si Si8 0.999139 0.820026 0.693585
O O1 0.222095 0.517182 0.275515
O O2 0.222231 0.279895 0.359988
O O3 0.358107 0.325170 0.509625
O O4 0.065640 0.762179 0.548525
O O5 0.384304 0.498318 0.237052
O O6 0.312979 0.359038 0.979153
O O7 0.111405 0.871137 0.181003
O O8 0.367266 0.724654 0.790169
O O9 0.299895 0.592696 0.878643
O O10 0.500000 0.500000 0.000000
O O11 0.236520 0.985734 0.099375
O O12 0.101117 0.188233 0.359924
O O13 0.383848 0.804948 0.338425
O O14 0.500000 0.500000 0.500000
O O15 0.433669 0.117550 0.679801
O O16 0.141994 0.576049 0.760023
#
# Coordination Sequence:
#
# PCOD9079620 Si02
#       8
#     2   2   2   2   2   1   2   2
#     4  11  24  39  62  92 135 158 208 263 317 366
#     4  11  23  40  64  96 124 168 212 262 304 374
#     4  10  18  37  62  87 119 163 207 247 313 371
#     4  10  21  41  62  88 122 172 207 254 317 368
#     4  10  22  37  62  93 125 161 216 254 305 377
#     4  10  24  38  60  94 120 168 196 260 324 366
#     4  11  21  41  67  90 126 164 215 257 311 380
#     4  10  22  42  65  89 121 175 215 248 311 375
#
# _framework density 21.434027
#
# number of rings (size 3 to 8) (size 9 to 14) (size 15 to 20)
#    0.000    1.600    4.000    2.800    5.600    0.533 
#    0.000    0.667    0.000    0.000    0.000    0.000 
#    0.000    0.000    0.000    0.000    0.000    0.000 
#
# Total GULP energy -83571.403290 kJ/mol
# GULP energy per Si atom -5571.426886 kJ/mol
# Density = 2.138524 g / cm^3
# Si number density = 21.434027 Si / 1000 Ang^3
#
#
#
# Elastic Constant Matrix: (Units=GPa)
#
#
# Indices 1 2 3 4 5 6 
#
# 1 63.9143 15.5852 24.1180 -1.9324 -19.2905 -9.0679
# 2 15.5852 36.6772 20.3833 7.3707 -7.6009 -6.7647
# 3 24.1180 20.3833 162.4557 4.8115 -46.2932 -11.0874
# 4 -1.9324 7.3707 4.8115 24.8825 2.4763 -0.3781
# 5 -19.2905 -7.6009 -46.2932 2.4763 42.2601 0.8490
# 6 -9.0679 -6.7647 -11.0874 -0.3781 0.8490 22.4670
#
#
#
# Elastic Compliance Matrix: (Units=1/GPa)
#
#
# Indices 1 2 3 4 5 6 
#
# 1 0.020619 -0.006687 0.000561 0.002720 0.008537 0.006308
# 2 -0.006687 0.034920 -0.002299 -0.010439 0.001192 0.006460
# 3 0.000561 -0.002299 0.009678 -0.002132 0.010491 0.003878
# 4 0.002720 -0.010439 -0.002132 0.044423 -0.005532 -0.002141
# 5 0.008537 0.001192 0.010491 -0.005532 0.039442 0.007399
# 6 0.006308 0.006460 0.003878 -0.002141 0.007399 0.050599
#
#
# Mechanical properties :
#
#
# Convention : Reuss Voigt Hill
#
# Bulk Modulus (GPa) = 20.67523 42.57998 31.62761
# Shear Modulus (GPa) = 21.49107 31.45262 26.47185
#
# Velocity S-wave (km/s) = 3.16992 3.83484 3.51812
# Velocity P-wave (km/s) = 4.80258 6.28623 5.59381
#
# Compressibility (1/GPa) = 0.04836706
#
# Stress axis : x y z
#
# Youngs Moduli (GPa) = 48.49910 28.63648 103.32583
#
# Poissons Ratio (x) = 0.19149 -0.05794
# Poissons Ratio (y) = 0.32431 0.23755
# Poissons Ratio (z) = -0.02720 0.06584
#
# Static dielectric constant tensor:
#      x y z
#    x 1.755480 0.019140 -0.043990 
#    y 0.019140 1.700080 -0.026250 
#    z -0.043990 -0.026250 1.746890 
# 
# From -- ./inp_files/244733.got.cif
#   From: 2010.05.17/outbox.cif.g08.bks.cpg/sg2_123_cif.got.tgz:244733.got - 2010.06.03 11:33:40.
