data_PCOD9079083
_publ_section_title
;
Structure prediction by ZEFSAII (Michael W. Deem and Ramdas Pophale) SiO2 
 PCOD9079083
Probable space group: P -1
;
_chemical_formula_sum "Si O2"
_cell_formula_units_Z 14
_cell_length_a 12.722194
_cell_length_b 7.102519
_cell_length_c 9.293192
_cell_angle_alpha 116.712322
_cell_angle_beta 52.411505
_cell_angle_gamma 131.778780
_cell_volume 494.890809
_symmetry_space_group_name_H-M "P -1"
_symmetry_group_IT_number 2
_symmetry_cell_setting 'triclinic'
loop_
_space_group_symop_operation_xyz
x,y,z
-x,-y,-z
loop_
_atom_site_type_symbol
_atom_site_label
_atom_site_fract_x
_atom_site_fract_y
_atom_site_fract_z
Si Si1 0.002851 0.450015 0.745676
Si Si2 0.600732 0.959888 0.199771
Si Si3 0.358947 0.628218 0.912042
Si Si4 0.910596 0.749889 0.144954
Si Si5 0.733836 0.894199 0.674089
Si Si6 0.781587 0.721636 0.849986
Si Si7 0.725088 0.114853 0.474001
O O1 0.102675 0.373749 0.732997
O O2 0.105156 0.624506 0.588945
O O3 0.851890 0.179339 0.731268
O O4 0.971336 0.619647 0.938333
O O5 0.659399 0.186409 0.113491
O O6 0.679127 0.038471 0.319055
O O7 0.651903 0.783289 0.029425
O O8 0.417847 0.862058 0.343753
O O9 0.262909 0.362925 0.814904
O O10 0.546431 0.762033 0.814843
O O11 0.277948 0.536772 0.105308
O O12 0.048847 0.045072 0.148701
O O13 0.741159 0.933594 0.509362
O O14 0.784108 0.742285 0.681999
#
# Coordination Sequence:
#
# PCOD9079083 Si02
#       7
#     2   2   2   2   2   2   2
#     4  10  18  36  62  87 117 154 195 239 290 351
#     4  10  21  38  64  88 112 158 199 236 292 345
#     4  11  21  38  61  90 119 149 200 246 282 345
#     4  10  19  34  61  90 112 152 203 238 285 343
#     4  10  23  35  59  90 120 156 189 241 300 344
#     4  11  22  40  62  88 118 153 200 243 285 344
#     4  10  19  37  60  89 119 151 195 240 295 347
#
# _framework density 28.289065999999998
#
# number of rings (size 3 to 8) (size 9 to 14) (size 15 to 20)
#    0.000    1.714    2.857    3.000    0.000    5.143 
#    0.000    6.429    0.000    1.714    0.000    0.000 
#    0.000    0.000    0.000    0.000    0.000    0.000 
#
# Total GULP energy -78412.350932 kJ/mol
# GULP energy per Si atom -5600.882209 kJ/mol
# Density = 2.822468 g / cm^3
# Si number density = 28.289066 Si / 1000 Ang^3
#
#
#
# Elastic Constant Matrix: (Units=GPa)
#
#
# Indices 1 2 3 4 5 6 
#
# 1 151.0097 82.9429 58.8714 0.7022 54.0000 3.9056
# 2 82.9429 131.9035 80.8216 -35.4735 27.7087 14.2548
# 3 58.8714 80.8216 171.5131 -23.1568 45.1534 4.1199
# 4 0.7022 -35.4735 -23.1568 60.8686 -2.7020 13.3206
# 5 54.0000 27.7087 45.1534 -2.7020 69.8952 -5.2460
# 6 3.9056 14.2548 4.1199 13.3206 -5.2460 69.0743
#
#
#
# Elastic Compliance Matrix: (Units=1/GPa)
#
#
# Indices 1 2 3 4 5 6 
#
# 1 0.014582 -0.009934 0.000881 -0.006370 -0.008008 0.001793
# 2 -0.009934 0.019820 -0.005171 0.010954 0.003199 -0.005090
# 3 0.000881 -0.005171 0.009197 0.000257 -0.004557 0.000073
# 4 -0.006370 0.010954 0.000257 0.024460 0.000866 -0.006567
# 5 -0.008008 0.003199 -0.004557 0.000866 0.022323 0.001593
# 6 0.001793 -0.005090 0.000073 -0.006567 0.001593 0.016809
#
#
# Mechanical properties :
#
#
# Convention : Reuss Voigt Hill
#
# Bulk Modulus (GPa) = 65.99870 99.96645 82.98258
# Shear Modulus (GPa) = 35.53930 55.42032 45.47981
#
# Velocity S-wave (km/s) = 3.54826 4.43094 4.01394
# Velocity P-wave (km/s) = 6.33780 7.84805 7.13301
#
# Compressibility (1/GPa) = 0.01515181
#
# Stress axis : x y z
#
# Youngs Moduli (GPa) = 68.57862 50.45345 108.72596
#
# Poissons Ratio (x) = 0.50119 -0.09580
# Poissons Ratio (y) = 0.68125 0.56224
# Poissons Ratio (z) = -0.06043 0.26090
#
# Static dielectric constant tensor:
#      x y z
#    x 2.226030 0.000860 -0.014060 
#    y 0.000860 2.184660 0.026010 
#    z -0.014060 0.026010 2.199280 
# 
# From -- ./inp_files/206291.got.cif
#   From: 2010.05.17/outbox.cif.g08.bks.cpg/sg2_104_cif.got.tgz:206291.got - 2010.06.03 11:33:40.
