data_PCOD9079933
_publ_section_title
;
Structure prediction by ZEFSAII (Michael W. Deem and Ramdas Pophale) SiO2 
 PCOD9079933
Probable space group: P -1
;
_chemical_formula_sum "Si O2"
_cell_formula_units_Z 16
_cell_length_a 18.522092
_cell_length_b 23.030184
_cell_length_c 7.238048
_cell_angle_alpha 102.101641
_cell_angle_beta 62.192400
_cell_angle_gamma 156.840007
_cell_volume 833.889750
_symmetry_space_group_name_H-M "P -1"
_symmetry_group_IT_number 2
_symmetry_cell_setting 'triclinic'
loop_
_space_group_symop_operation_xyz
x,y,z
-x,-y,-z
loop_
_atom_site_type_symbol
_atom_site_label
_atom_site_fract_x
_atom_site_fract_y
_atom_site_fract_z
Si Si1 0.738316 0.958599 0.853258
Si Si2 0.349922 0.719744 0.441171
Si Si3 0.493932 0.016299 0.228134
Si Si4 0.655882 0.613603 0.580122
Si Si5 0.689897 0.419627 0.811877
Si Si6 0.738997 0.011866 0.487720
Si Si7 0.124703 0.689792 0.732737
Si Si8 0.686053 0.553362 0.856763
O O1 0.712652 0.958336 0.672453
O O2 0.039058 0.170241 0.686987
O O3 0.545709 0.869409 0.136524
O O4 0.610607 0.806809 0.950849
O O5 0.213677 0.564525 0.437078
O O6 0.159857 0.642951 0.656154
O O7 0.555878 0.854463 0.450306
O O8 0.368926 0.995582 0.373443
O O9 0.318465 0.851785 0.454930
O O10 0.773093 0.214789 0.130741
O O11 0.500000 0.000000 0.000000
O O12 0.500000 0.500000 0.500000
O O13 0.631129 0.543056 0.713279
O O14 0.543640 0.590419 0.820969
O O15 0.729215 0.513211 0.763715
O O16 0.841803 0.513312 0.884060
O O17 0.050229 0.233939 0.234285
#
# Coordination Sequence:
#
# PCOD9079933 Si02
#       8
#     2   2   2   2   2   2   2   2
#     4   9  21  36  58  84 116 147 192 237 294 341
#     4   9  20  35  59  78 126 159 187 227 293 334
#     4  10  20  33  57  85 114 153 208 239 269 326
#     4  10  21  41  65  85 108 151 194 240 298 352
#     4  10  21  40  55  91 122 151 189 242 290 340
#     4  10  18  38  57  81 115 157 194 236 281 344
#     4  10  19  37  55  84 121 162 189 238 279 335
#     4  10  21  39  63  85 116 143 195 247 284 348
#
# _framework density 19.187189
#
# number of rings (size 3 to 8) (size 9 to 14) (size 15 to 20)
#    0.750    1.500    1.250    1.875    0.000    0.500 
#    9.000    1.875    0.000    0.000    0.000    0.000 
#    0.000    0.000    0.000    0.000    0.000    0.000 
#
# Total GULP energy -89152.583267 kJ/mol
# GULP energy per Si atom -5572.036454 kJ/mol
# Density = 1.914352 g / cm^3
# Si number density = 19.187189 Si / 1000 Ang^3
#
#
#
# Elastic Constant Matrix: (Units=GPa)
#
#
# Indices 1 2 3 4 5 6 
#
# 1 48.0378 54.5182 -0.2162 17.2562 -1.7565 23.6834
# 2 54.5182 79.0096 19.5774 10.9692 14.2413 -18.4496
# 3 -0.2162 19.5774 32.3437 12.9780 1.4315 7.5046
# 4 17.2562 10.9692 12.9780 18.3061 6.3512 -18.5514
# 5 -1.7565 14.2413 1.4315 6.3512 15.4218 12.3667
# 6 23.6834 -18.4496 7.5046 -18.5514 12.3667 -33.9025
#
#
#
# Elastic Compliance Matrix: (Units=1/GPa)
#
#
# Indices 1 2 3 4 5 6 
#
# 1 0.023091 -0.011838 0.001160 0.004862 -0.003653 0.018837
# 2 -0.011838 0.020634 -0.004074 -0.012262 -0.003092 -0.014819
# 3 0.001160 -0.004074 0.033879 -0.007811 -0.006115 0.012571
# 4 0.004862 -0.012262 -0.007811 0.045999 0.005535 -0.014811
# 5 -0.003653 -0.003092 -0.006115 0.005535 0.053989 0.014442
# 6 0.018837 -0.014819 0.012571 -0.014811 0.014442 0.007883
#
#
# Mechanical properties :
#
#
# Convention : Reuss Voigt Hill
#
# Bulk Modulus (GPa) = 20.78957 34.12776 27.45866
# Shear Modulus (GPa) = 21.64395 5.66585 13.65490
#
# Velocity S-wave (km/s) = 3.36228 1.72027 2.67060
# Velocity P-wave (km/s) = 5.09233 4.66596 4.88380
#
# Compressibility (1/GPa) = 0.04810105
#
# Stress axis : x y z
#
# Youngs Moduli (GPa) = 43.30756 48.46362 29.51637
#
# Poissons Ratio (x) = 0.57373 -0.03425
# Poissons Ratio (y) = 0.51269 0.12024
# Poissons Ratio (z) = -0.05025 0.19742
#
# Static dielectric constant tensor:
#      x y z
#    x 1.668730 -0.009300 -0.023580 
#    y -0.009300 1.703530 0.001070 
#    z -0.023580 0.001070 1.691010 
# 
# From -- ./inp_files/112864.got.cif
#   From: 2010.05.17/outbox.cif.g08.bks.cpg/sg2_57_cif.got.tgz:112864.got - 2010.06.03 11:33:40.
