data_PCOD9079254
_publ_section_title
;
Structure prediction by ZEFSAII (Michael W. Deem and Ramdas Pophale) SiO2 
 PCOD9079254
Probable space group: P -1
;
_chemical_formula_sum "Si O2"
_cell_formula_units_Z 16
_cell_length_a 8.419193
_cell_length_b 15.745762
_cell_length_c 9.173553
_cell_angle_alpha 118.666294
_cell_angle_beta 120.602792
_cell_angle_gamma 95.506012
_cell_volume 819.988190
_symmetry_space_group_name_H-M "P -1"
_symmetry_group_IT_number 2
_symmetry_cell_setting 'triclinic'
loop_
_space_group_symop_operation_xyz
x,y,z
-x,-y,-z
loop_
_atom_site_type_symbol
_atom_site_label
_atom_site_fract_x
_atom_site_fract_y
_atom_site_fract_z
Si Si1 0.316804 0.494522 0.312782
Si Si2 0.009472 0.555955 0.397495
Si Si3 0.216729 0.570438 0.069551
Si Si4 0.132197 0.777682 0.775914
Si Si5 0.717201 0.025125 0.545230
Si Si6 0.019963 0.971231 0.819408
Si Si7 0.587221 0.933771 0.086000
Si Si8 0.064170 0.733306 0.051529
O O1 0.500000 0.500000 0.500000
O O2 0.379795 0.560097 0.244306
O O3 0.197633 0.548759 0.394703
O O4 0.158199 0.368012 0.104768
O O5 0.000000 0.500000 0.500000
O O6 0.039313 0.674408 0.543760
O O7 0.814300 0.488352 0.147692
O O8 0.223309 0.686019 0.136750
O O9 0.000000 0.500000 0.000000
O O10 0.060286 0.865859 0.759377
O O11 0.381056 0.824051 0.926624
O O12 0.072443 0.751133 0.895811
O O13 0.869157 0.152745 0.744697
O O14 0.500000 0.000000 0.500000
O O15 0.673421 0.991433 0.328534
O O16 0.825254 0.961345 0.626930
O O17 0.223075 0.065025 0.914847
O O18 0.000000 0.000000 0.000000
O O19 0.500000 0.000000 0.000000
#
# Coordination Sequence:
#
# PCOD9079254 Si02
#       8
#     2   2   2   2   2   2   2   2
#     4  10  22  40  60  96 126 158 212 260 308 381
#     4  10  18  36  65  85 119 164 202 253 315 371
#     4   8  18  36  60  88 116 155 202 244 305 378
#     4  11  20  40  64  91 125 168 213 259 326 372
#     4  12  22  41  65  92 128 170 212 264 318 378
#     4  11  23  41  60  89 128 164 209 273 309 373
#     4  10  23  39  60  92 122 163 217 259 310 379
#     4  10  19  38  66  85 124 167 204 254 326 366
#
# _framework density 19.512477000000001
#
# number of rings (size 3 to 8) (size 9 to 14) (size 15 to 20)
#    0.000    2.000    5.000    1.125    0.000    7.000 
#    2.250    1.875    0.000    0.000    0.000    0.000 
#    0.000    0.000    0.000    0.000    0.000    0.000 
#
# Total GULP energy -89186.912361 kJ/mol
# GULP energy per Si atom -5574.182023 kJ/mol
# Density = 1.946807 g / cm^3
# Si number density = 19.512477 Si / 1000 Ang^3
#
#
#
# Elastic Constant Matrix: (Units=GPa)
#
#
# Indices 1 2 3 4 5 6 
#
# 1 67.2398 22.0937 29.8713 -12.1288 -3.8811 -8.0266
# 2 22.0937 120.3602 60.3343 -16.6797 0.5451 -17.7320
# 3 29.8713 60.3343 120.0088 -23.5948 -17.6549 -13.7041
# 4 -12.1288 -16.6797 -23.5948 53.1289 -4.6650 -2.1099
# 5 -3.8811 0.5451 -17.6549 -4.6650 31.5631 -8.7145
# 6 -8.0266 -17.7320 -13.7041 -2.1099 -8.7145 26.3965
#
#
#
# Elastic Compliance Matrix: (Units=1/GPa)
#
#
# Indices 1 2 3 4 5 6 
#
# 1 0.017475 -0.000931 -0.002400 0.003032 0.002518 0.004516
# 2 -0.000931 0.011981 -0.005323 0.001197 -0.001886 0.004475
# 3 -0.002400 -0.005323 0.015360 0.005923 0.011451 0.007923
# 4 0.003032 0.001197 0.005923 0.023789 0.009937 0.009983
# 5 0.002518 -0.001886 0.011451 0.009937 0.045795 0.021357
# 6 0.004516 0.004475 0.007923 0.009983 0.021357 0.054225
#
#
# Mechanical properties :
#
#
# Convention : Reuss Voigt Hill
#
# Bulk Modulus (GPa) = 36.35071 59.13416 47.74243
# Shear Modulus (GPa) = 25.62743 35.23832 30.43287
#
# Velocity S-wave (km/s) = 3.62800 4.25424 3.95354
# Velocity P-wave (km/s) = 6.01828 7.38262 6.73509
#
# Compressibility (1/GPa) = 0.02750978
#
# Stress axis : x y z
#
# Youngs Moduli (GPa) = 57.22337 83.46340 65.10428
#
# Poissons Ratio (x) = 0.07769 0.15622
# Poissons Ratio (y) = 0.05326 0.34655
# Poissons Ratio (z) = 0.13731 0.44428
#
# Static dielectric constant tensor:
#      x y z
#    x 1.719760 0.009880 0.035650 
#    y 0.009880 1.725290 -0.020920 
#    z 0.035650 -0.020920 1.695630 
# 
# From -- ./inp_files/208819.got.cif
#   From: 2010.05.17/outbox.cif.g08.bks.cpg/sg2_105_cif.got.tgz:208819.got - 2010.06.03 11:33:40.
