data_PCOD9079802
_publ_section_title
;
Structure prediction by ZEFSAII (Michael W. Deem and Ramdas Pophale) SiO2 
 PCOD9079802
Probable space group: P -1
;
_chemical_formula_sum "Si O2"
_cell_formula_units_Z 14
_cell_length_a 8.924533
_cell_length_b 7.281779
_cell_length_c 16.482245
_cell_angle_alpha 135.702144
_cell_angle_beta 132.624650
_cell_angle_gamma 66.432479
_cell_volume 542.871746
_symmetry_space_group_name_H-M "P -1"
_symmetry_group_IT_number 2
_symmetry_cell_setting 'triclinic'
loop_
_space_group_symop_operation_xyz
x,y,z
-x,-y,-z
loop_
_atom_site_type_symbol
_atom_site_label
_atom_site_fract_x
_atom_site_fract_y
_atom_site_fract_z
Si Si1 0.210575 0.425088 0.271785
Si Si2 0.543218 0.156828 0.381314
Si Si3 0.325075 0.682474 0.230012
Si Si4 0.320258 0.293680 0.974677
Si Si5 0.779083 0.229480 0.119977
Si Si6 0.848691 0.054179 0.341852
Si Si7 0.221607 0.436424 0.620273
O O1 0.387215 0.237637 0.281434
O O2 0.303519 0.618252 0.442128
O O3 0.208439 0.584665 0.237671
O O4 0.980066 0.267425 0.150273
O O5 0.693896 0.982144 0.336651
O O6 0.386055 0.996856 0.338401
O O7 0.542390 0.582658 0.290841
O O8 0.255460 0.549216 0.075430
O O9 0.277720 0.066742 0.957772
O O10 0.193100 0.167794 0.811615
O O11 0.559665 0.309732 0.039809
O O12 0.851027 0.426019 0.283297
O O13 0.798856 0.344680 0.386842
O O14 0.090415 0.143730 0.471456
#
# Coordination Sequence:
#
# PCOD9079802 Si02
#       7
#     2   2   2   2   2   2   2
#     4  11  23  42  65  92 126 170 208 257 309 375
#     4  11  24  39  66  96 126 165 211 259 311 369
#     4  11  23  42  64  95 130 162 208 260 312 374
#     4   9  21  38  66  96 124 162 210 260 313 374
#     4   9  18  38  66  90 121 170 211 248 316 370
#     4  10  18  37  65  96 122 163 209 259 315 362
#     4   9  18  36  67  93 120 160 214 265 301 360
#
# _framework density 25.788779999999999
#
# number of rings (size 3 to 8) (size 9 to 14) (size 15 to 20)
#    0.000    2.000    2.857    1.286    0.000    1.714 
#    0.000    0.714    0.000    0.000    0.000    0.000 
#    0.000    0.000    0.000    0.000    0.000    0.000 
#
# Total GULP energy -78287.770890 kJ/mol
# GULP energy per Si atom -5591.983635 kJ/mol
# Density = 2.573008 g / cm^3
# Si number density = 25.788780 Si / 1000 Ang^3
#
#
#
# Elastic Constant Matrix: (Units=GPa)
#
#
# Indices 1 2 3 4 5 6 
#
# 1 136.5451 25.5208 39.1429 -7.7091 39.3459 12.7693
# 2 25.5208 64.3024 10.7130 -3.2544 10.7445 10.6499
# 3 39.1429 10.7130 133.1807 -6.5454 19.9352 -0.9225
# 4 -7.7091 -3.2544 -6.5454 24.9397 8.5163 -0.8758
# 5 39.3459 10.7445 19.9352 8.5163 28.0098 8.5823
# 6 12.7693 10.6499 -0.9225 -0.8758 8.5823 23.4776
#
#
#
# Elastic Compliance Matrix: (Units=1/GPa)
#
#
# Indices 1 2 3 4 5 6 
#
# 1 0.015835 -0.001532 0.000178 0.013964 -0.026761 0.002393
# 2 -0.001532 0.017925 -0.000379 0.002741 -0.003466 -0.005943
# 3 0.000178 -0.000379 0.009278 0.005942 -0.009816 0.004250
# 4 0.013964 0.002741 0.005942 0.062910 -0.047416 0.011075
# 5 -0.026761 -0.003466 -0.009816 -0.047416 0.103317 -0.023795
# 6 0.002393 -0.005943 0.004250 0.011075 -0.023795 0.053267
#
#
# Mechanical properties :
#
#
# Convention : Reuss Voigt Hill
#
# Bulk Modulus (GPa) = 25.27149 53.86463 39.56806
# Shear Modulus (GPa) = 17.90899 32.52886 25.21892
#
# Velocity S-wave (km/s) = 2.63810 3.55541 3.13054
# Velocity P-wave (km/s) = 4.37037 6.14710 5.33324
#
# Compressibility (1/GPa) = 0.03957028
#
# Stress axis : x y z
#
# Youngs Moduli (GPa) = 63.15149 55.78790 107.78660
#
# Poissons Ratio (x) = 0.08548 -0.01917
# Poissons Ratio (y) = 0.09677 0.04087
# Poissons Ratio (z) = -0.01123 0.02116
#
# Static dielectric constant tensor:
#      x y z
#    x 2.018810 0.033380 0.013400 
#    y 0.033380 2.101310 0.006180 
#    z 0.013400 0.006180 2.041370 
# 
# From -- ./inp_files/555764.got.cif
#   From: 2010.05.17/outbox.cif.g08.bks.cpg/sg2_278_cif.got.tgz:555764.got - 2010.06.03 11:33:40.
