data_PCOD9079377
_publ_section_title
;
Structure prediction by ZEFSAII (Michael W. Deem and Ramdas Pophale) SiO2 
 PCOD9079377
Probable space group: P -1
;
_chemical_formula_sum "Si O2"
_cell_formula_units_Z 14
_cell_length_a 9.056413
_cell_length_b 13.548676
_cell_length_c 11.475024
_cell_angle_alpha 33.639048
_cell_angle_beta 123.190037
_cell_angle_gamma 128.517161
_cell_volume 608.911506
_symmetry_space_group_name_H-M "P -1"
_symmetry_group_IT_number 2
_symmetry_cell_setting 'triclinic'
loop_
_space_group_symop_operation_xyz
x,y,z
-x,-y,-z
loop_
_atom_site_type_symbol
_atom_site_label
_atom_site_fract_x
_atom_site_fract_y
_atom_site_fract_z
Si Si1 0.371285 0.202349 0.177453
Si Si2 0.216669 0.601575 0.526396
Si Si3 0.411158 0.022348 0.141816
Si Si4 0.754134 0.006610 0.442954
Si Si5 0.499958 0.575404 0.296454
Si Si6 0.782512 0.484734 0.125510
Si Si7 0.888458 0.659888 0.765439
O O1 0.321308 0.080419 0.160337
O O2 0.582678 0.357204 0.106913
O O3 0.359872 0.073144 0.411290
O O4 0.237253 0.321047 0.025151
O O5 0.356709 0.490600 0.657268
O O6 0.209886 0.620635 0.646093
O O7 0.000000 0.500000 0.500000
O O8 0.295315 0.800403 0.293497
O O9 0.620169 0.036332 0.256791
O O10 0.431990 0.194343 0.894901
O O11 0.918624 0.207571 0.343801
O O12 0.819026 0.834243 0.602014
O O13 0.500000 0.500000 0.500000
O O14 0.287642 0.482173 0.243509
O O15 0.920494 0.564028 0.995557
#
# Coordination Sequence:
#
# PCOD9079377 Si02
#       7
#     2   2   2   2   2   2   2
#     4  10  18  36  71 100 130 172 218 290 337 403
#     4  12  27  47  69 101 139 184 238 285 341 418
#     4  12  23  43  73  95 133 184 236 279 349 412
#     4  10  21  36  69 106 132 172 222 282 348 408
#     4  12  27  49  67  97 146 185 226 288 348 413
#     4  10  18  41  71  94 138 169 223 289 341 385
#     4  10  21  43  67 101 140 172 221 287 344 401
#
# _framework density 22.991847
#
# number of rings (size 3 to 8) (size 9 to 14) (size 15 to 20)
#    0.000    1.143    5.714    1.286    0.000    4.000 
#    7.714    0.000    0.000    0.000    0.000    0.000 
#    0.000    0.000    0.000    0.000    0.000    0.000 
#
# Total GULP energy -78192.460074 kJ/mol
# GULP energy per Si atom -5585.175720 kJ/mol
# Density = 2.293952 g / cm^3
# Si number density = 22.991847 Si / 1000 Ang^3
#
#
#
# Elastic Constant Matrix: (Units=GPa)
#
#
# Indices 1 2 3 4 5 6 
#
# 1 17.9634 5.6434 6.8950 -5.1850 -20.7274 13.1956
# 2 5.6434 69.6724 32.9213 -4.8200 -6.0408 25.7484
# 3 6.8950 32.9213 176.7547 -12.1395 -12.7320 4.6690
# 4 -5.1850 -4.8200 -12.1395 36.8968 -16.2763 -6.3315
# 5 -20.7274 -6.0408 -12.7320 -16.2763 40.0131 -3.1673
# 6 13.1956 25.7484 4.6690 -6.3315 -3.1673 32.1245
#
#
#
# Elastic Compliance Matrix: (Units=1/GPa)
#
#
# Indices 1 2 3 4 5 6 
#
# 1 -0.450938 -0.060278 -0.010083 -0.180457 -0.305907 0.169281
# 2 -0.060278 0.014636 -0.005165 -0.025342 -0.040589 0.004783
# 3 -0.010083 -0.005165 0.006560 -0.000280 -0.003481 0.006930
# 4 -0.180457 -0.025342 -0.000280 -0.034954 -0.105503 0.077187
# 5 -0.305907 -0.040589 -0.003481 -0.105503 -0.174066 0.120738
# 6 0.169281 0.004783 0.006930 0.077187 0.120738 -0.016130
#
#
# Mechanical properties :
#
#
# Convention : Reuss Voigt Hill
#
# Bulk Modulus (GPa) = -1.72178 39.47887 18.87855
# Shear Modulus (GPa) = -7.16909 36.40226 14.61659
#
# Velocity S-wave (km/s) = -1.76773 3.98335 2.52410
# Velocity P-wave (km/s) = 2.21743 6.19388 4.08945
#
# Compressibility (1/GPa) = -0.58079332
#
# Stress axis : x y z
#
# Youngs Moduli (GPa) = -2.21760 68.32509 152.44081
#
# Poissons Ratio (x) = 4.11847 1.53704
# Poissons Ratio (y) = -0.13367 0.78738
# Poissons Ratio (z) = -0.02236 0.35291
#
# Static dielectric constant tensor:
#      x y z
#    x 1.954930 -0.037400 0.049700 
#    y -0.037400 1.818080 -0.013470 
#    z 0.049700 -0.013470 1.893940 
# 
# From -- ./inp_files/398300.got.cif
#   From: 2010.05.17/outbox.cif.g08.bks.cpg/sg2_200_cif.got.tgz:398300.got - 2010.06.03 11:33:40.
