data_PCOD9079008
_publ_section_title
;
Structure prediction by ZEFSAII (Michael W. Deem and Ramdas Pophale) SiO2 
 PCOD9079008
Probable space group: P -1
;
_chemical_formula_sum "Si O2"
_cell_formula_units_Z 16
_cell_length_a 6.491375
_cell_length_b 5.404752
_cell_length_c 21.507003
_cell_angle_alpha 92.841465
_cell_angle_beta 115.835942
_cell_angle_gamma 78.632426
_cell_volume 665.249101
_symmetry_space_group_name_H-M "P -1"
_symmetry_group_IT_number 2
_symmetry_cell_setting 'triclinic'
loop_
_space_group_symop_operation_xyz
x,y,z
-x,-y,-z
loop_
_atom_site_type_symbol
_atom_site_label
_atom_site_fract_x
_atom_site_fract_y
_atom_site_fract_z
Si Si1 0.054264 0.208504 0.366565
Si Si2 0.332832 0.842655 0.194265
Si Si3 0.886827 0.696953 0.165468
Si Si4 0.245596 0.406931 0.992472
Si Si5 0.844780 0.784429 0.488713
Si Si6 0.750105 0.776926 0.344069
Si Si7 0.978638 0.189252 0.220299
Si Si8 0.278371 0.912101 0.045562
O O1 0.898218 0.491836 0.353003
O O2 0.229522 0.188953 0.448234
O O3 0.122523 0.175737 0.302991
O O4 0.905000 0.989646 0.355321
O O5 0.548392 0.817915 0.267577
O O6 0.354620 0.820038 0.123366
O O7 0.168974 0.659061 0.197478
O O8 0.157409 0.111602 0.186121
O O9 0.830629 0.465095 0.193635
O O10 0.808927 0.685896 0.084290
O O11 0.827666 0.969535 0.193831
O O12 0.341854 0.665470 0.008477
O O13 0.373231 0.161193 0.043659
O O14 0.000000 0.500000 0.000000
O O15 0.673330 0.805696 0.407241
O O16 0.000000 0.500000 0.500000
O O17 0.000000 0.000000 0.500000
O O18 0.000000 0.000000 0.000000
#
# Coordination Sequence:
#
# PCOD9079008 Si02
#       8
#     2   2   2   2   2   2   2   2
#     4  10  20  37  56  76 102 143 177 201 248 321
#     4  10  22  31  53  81 111 126 168 224 269 288
#     4  10  19  30  50  75 108 131 166 216 257 297
#     4  10  15  27  43  70  97 128 169 205 249 292
#     4   8  16  33  54  74  98 134 175 207 243 302
#     4  10  21  34  56  81 105 130 171 223 259 287
#     4  10  20  33  51  75 107 139 170 205 255 316
#     4  10  17  27  46  71 103 127 167 210 256 296
#
# _framework density 24.051138000000002
#
# number of rings (size 3 to 8) (size 9 to 14) (size 15 to 20)
#    0.750    1.500    2.500    3.000    1.750    0.000 
#    0.000    0.625    0.000    0.750    0.000   29.750 
#    0.000    0.000    0.000    0.000    0.000    0.000 
#
# Total GULP energy -89245.970677 kJ/mol
# GULP energy per Si atom -5577.873167 kJ/mol
# Density = 2.399640 g / cm^3
# Si number density = 24.051138 Si / 1000 Ang^3
#
#
#
# Elastic Constant Matrix: (Units=GPa)
#
#
# Indices 1 2 3 4 5 6 
#
# 1 27.5002 18.4157 18.9471 -0.4039 3.5146 0.4834
# 2 18.4157 204.0706 28.5459 0.7223 -0.4485 11.2773
# 3 18.9471 28.5459 178.0696 12.6968 -3.8760 -8.9021
# 4 -0.4039 0.7223 12.6968 36.5342 -4.8067 -4.5289
# 5 3.5146 -0.4485 -3.8760 -4.8067 35.7386 2.0302
# 6 0.4834 11.2773 -8.9021 -4.5289 2.0302 27.0683
#
#
#
# Elastic Compliance Matrix: (Units=1/GPa)
#
#
# Indices 1 2 3 4 5 6 
#
# 1 0.041963 -0.003208 -0.004155 0.001362 -0.004422 -0.000220
# 2 -0.003208 0.005416 -0.000628 -0.000173 0.000432 -0.002467
# 3 -0.004155 -0.000628 0.006414 -0.001911 0.000722 0.002072
# 4 0.001362 -0.000173 -0.001911 0.028990 0.003327 0.004020
# 5 -0.004422 0.000432 0.000722 0.003327 0.029031 -0.001485
# 6 -0.000220 -0.002467 0.002072 0.004020 -0.001485 0.039441
#
#
# Mechanical properties :
#
#
# Convention : Reuss Voigt Hill
#
# Bulk Modulus (GPa) = 26.44801 60.16196 43.30498
# Shear Modulus (GPa) = 27.80222 42.78368 35.29295
#
# Velocity S-wave (km/s) = 3.40363 4.22223 3.83484
# Velocity P-wave (km/s) = 5.14458 6.98843 6.13616
#
# Compressibility (1/GPa) = 0.03781003
#
# Stress axis : x y z
#
# Youngs Moduli (GPa) = 23.83031 184.65320 155.90511
#
# Poissons Ratio (x) = 0.59237 0.64780
# Poissons Ratio (y) = 0.07645 0.09797
# Poissons Ratio (z) = 0.09902 0.11604
#
# Static dielectric constant tensor:
#      x y z
#    x 2.261280 0.126700 0.028470 
#    y 0.126700 2.002820 0.049060 
#    z 0.028470 0.049060 1.904000 
# 
# From -- ./inp_files/585280.got.cif
#   From: 2010.05.17/outbox.cif.g08.bks.cpg/sg2_293_cif.got.tgz:585280.got - 2010.06.03 11:33:40.
