data_PCOD9079149
_publ_section_title
;
Structure prediction by ZEFSAII (Michael W. Deem and Ramdas Pophale) SiO2 
 PCOD9079149
Probable space group: P -1
;
_chemical_formula_sum "Si O2"
_cell_formula_units_Z 16
_cell_length_a 11.725471
_cell_length_b 7.795320
_cell_length_c 17.706683
_cell_angle_alpha 87.037772
_cell_angle_beta 57.210620
_cell_angle_gamma 133.161915
_cell_volume 719.841936
_symmetry_space_group_name_H-M "P -1"
_symmetry_group_IT_number 2
_symmetry_cell_setting 'triclinic'
loop_
_space_group_symop_operation_xyz
x,y,z
-x,-y,-z
loop_
_atom_site_type_symbol
_atom_site_label
_atom_site_fract_x
_atom_site_fract_y
_atom_site_fract_z
Si Si1 0.198339 0.567680 0.982065
Si Si2 0.373557 0.494373 0.688631
Si Si3 0.211495 0.884722 0.557160
Si Si4 0.465018 0.396894 0.098765
Si Si5 0.238745 0.138832 0.887550
Si Si6 0.379542 0.710101 0.462564
Si Si7 0.916453 0.901608 0.350277
Si Si8 0.212565 0.675171 0.806345
O O1 0.088382 0.589370 0.079239
O O2 0.377433 0.611036 0.948373
O O3 0.302458 0.729951 0.858831
O O4 0.910687 0.189948 0.074351
O O5 0.366295 0.357710 0.763680
O O6 0.258296 0.287645 0.658673
O O7 0.213007 0.491892 0.767694
O O8 0.651960 0.871293 0.566204
O O9 0.176718 0.649701 0.550081
O O10 0.430629 0.100636 0.537854
O O11 0.027851 0.838654 0.654947
O O12 0.580071 0.658262 0.110773
O O13 0.500000 0.500000 0.000000
O O14 0.169811 0.070670 0.233806
O O15 0.000000 0.000000 0.000000
O O16 0.229665 0.368024 0.527068
O O17 0.575628 0.978337 0.319816
#
# Coordination Sequence:
#
# PCOD9079149 Si02
#       8
#     2   2   2   2   2   2   2   2
#     4  10  22  39  62  89 117 162 206 250 304 360
#     4  10  18  36  63  86 117 155 205 253 290 354
#     4   9  20  35  58  94 122 157 208 251 299 363
#     4  11  24  40  60  91 125 158 199 256 309 377
#     4  10  19  37  62  82 112 159 209 246 291 358
#     4   9  19  36  61  92 120 158 207 258 296 356
#     4  11  22  38  62  93 128 161 197 251 324 358
#     4  10  20  36  65  89 118 152 216 254 292 356
#
# _framework density 22.227101999999999
#
# number of rings (size 3 to 8) (size 9 to 14) (size 15 to 20)
#    0.000    2.000    2.500    3.750    5.250    0.000 
#    0.000    4.375    0.000    0.000    0.000    0.000 
#    0.000    0.000    0.000    0.000    0.000    0.000 
#
# Total GULP energy -89114.204291 kJ/mol
# GULP energy per Si atom -5569.637768 kJ/mol
# Density = 2.217651 g / cm^3
# Si number density = 22.227102 Si / 1000 Ang^3
#
#
#
# Elastic Constant Matrix: (Units=GPa)
#
#
# Indices 1 2 3 4 5 6 
#
# 1 115.5750 26.1965 52.2037 10.5064 7.5779 -14.9481
# 2 26.1965 27.2307 13.4743 8.2450 0.0770 -10.8806
# 3 52.2037 13.4743 106.9762 13.1551 20.2280 -1.9817
# 4 10.5064 8.2450 13.1551 26.4320 -10.0477 -8.9541
# 5 7.5779 0.0770 20.2280 -10.0477 55.5846 13.6844
# 6 -14.9481 -10.8806 -1.9817 -8.9541 13.6844 30.4212
#
#
#
# Elastic Compliance Matrix: (Units=1/GPa)
#
#
# Indices 1 2 3 4 5 6 
#
# 1 0.013621 -0.009340 -0.005458 0.001236 -0.000519 0.003594
# 2 -0.009340 0.054230 -0.000031 -0.010082 -0.003967 0.013622
# 3 -0.005458 -0.000031 0.013864 -0.007238 -0.005223 -0.001571
# 4 0.001236 -0.010082 -0.007238 0.050160 0.009858 0.006859
# 5 -0.000519 -0.003967 -0.005223 0.009858 0.024212 -0.010004
# 6 0.003594 0.013622 -0.001571 0.006859 -0.010004 0.045927
#
#
# Mechanical properties :
#
#
# Convention : Reuss Voigt Hill
#
# Bulk Modulus (GPa) = 19.20915 48.17008 33.68962
# Shear Modulus (GPa) = 20.07843 33.01475 26.54659
#
# Velocity S-wave (km/s) = 3.00881 3.85819 3.45966
# Velocity P-wave (km/s) = 4.55319 6.44719 5.58112
#
# Compressibility (1/GPa) = 0.05205852
#
# Stress axis : x y z
#
# Youngs Moduli (GPa) = 73.41503 18.43996 72.13082
#
# Poissons Ratio (x) = 0.17222 0.39368
# Poissons Ratio (y) = 0.68567 0.00222
# Poissons Ratio (z) = 0.40068 0.00057
#
# Static dielectric constant tensor:
#      x y z
#    x 1.891720 -0.163360 -0.087030 
#    y -0.163360 2.128200 0.195660 
#    z -0.087030 0.195660 1.987760 
# 
# From -- ./inp_files/565928.got.cif
#   From: 2010.05.17/outbox.cif.g08.bks.cpg/sg2_283_cif.got.tgz:565928.got - 2010.06.03 11:33:40.
