data_PCOD9079157
_publ_section_title
;
Structure prediction by ZEFSAII (Michael W. Deem and Ramdas Pophale) SiO2 
 PCOD9079157
Probable space group: P -1
;
_chemical_formula_sum "Si O2"
_cell_formula_units_Z 16
_cell_length_a 11.886098
_cell_length_b 7.969329
_cell_length_c 12.293134
_cell_angle_alpha 142.082257
_cell_angle_beta 124.734785
_cell_angle_gamma 66.173149
_cell_volume 585.679760
_symmetry_space_group_name_H-M "P -1"
_symmetry_group_IT_number 2
_symmetry_cell_setting 'triclinic'
loop_
_space_group_symop_operation_xyz
x,y,z
-x,-y,-z
loop_
_atom_site_type_symbol
_atom_site_label
_atom_site_fract_x
_atom_site_fract_y
_atom_site_fract_z
Si Si1 0.725889 0.996410 0.716846
Si Si2 0.490478 0.408707 0.572223
Si Si3 0.773911 0.572380 0.941181
Si Si4 0.154614 0.952473 0.600576
Si Si5 0.716429 0.731274 0.341884
Si Si6 0.610099 0.233803 0.134477
Si Si7 0.840064 0.917008 0.973419
Si Si8 0.008724 0.541227 0.653742
O O1 0.782039 0.309949 0.888325
O O2 0.561667 0.909702 0.599486
O O3 0.754865 0.863234 0.547748
O O4 0.775987 0.888051 0.804489
O O5 0.500000 0.500000 0.500000
O O6 0.626920 0.496320 0.761593
O O7 0.376578 0.582149 0.655509
O O8 0.801137 0.835440 0.169712
O O9 0.867059 0.653726 0.927060
O O10 0.273954 0.019605 0.611077
O O11 0.000000 0.000000 0.500000
O O12 0.117142 0.640443 0.456265
O O13 0.595952 0.484725 0.167746
O O14 0.846469 0.573071 0.293272
O O15 0.727682 0.070838 0.061196
O O16 0.500000 0.000000 0.000000
O O17 0.971006 0.135935 0.152836
O O18 0.000000 0.500000 0.500000
#
# Coordination Sequence:
#
# PCOD9079157 Si02
#       8
#     2   2   2   2   2   2   2   2
#     4  11  23  43  59  89 141 165 203 263 319 383
#     4  11  22  40  63  94 132 171 206 262 320 377
#     4  12  22  39  67  93 121 173 215 247 323 388
#     4  10  21  42  66  89 123 160 217 270 310 366
#     4   9  22  39  60  91 124 168 203 268 324 366
#     4  10  18  36  63  88 125 167 209 259 309 373
#     4  11  22  41  66  94 124 171 214 262 316 382
#     4  10  19  39  66  90 118 160 218 271 313 372
#
# _framework density 27.318681999999999
#
# number of rings (size 3 to 8) (size 9 to 14) (size 15 to 20)
#    0.000    1.500    3.750    2.625    0.000    0.000 
#    4.500   11.875    0.000    0.000    0.000    0.000 
#    0.000    0.000    0.000    0.000    0.000    0.000 
#
# Total GULP energy -89288.438746 kJ/mol
# GULP energy per Si atom -5580.527422 kJ/mol
# Density = 2.725650 g / cm^3
# Si number density = 27.318682 Si / 1000 Ang^3
#
#
#
# Elastic Constant Matrix: (Units=GPa)
#
#
# Indices 1 2 3 4 5 6 
#
# 1 102.2130 46.4888 38.4221 8.7190 5.6957 35.4742
# 2 46.4888 193.8874 80.0356 17.3418 12.7283 74.9257
# 3 38.4221 80.0356 161.1381 7.3478 16.6909 40.4456
# 4 8.7190 17.3418 7.3478 72.0383 23.0506 18.9476
# 5 5.6957 12.7283 16.6909 23.0506 53.5664 9.7708
# 6 35.4742 74.9257 40.4456 18.9476 9.7708 59.2388
#
#
#
# Elastic Compliance Matrix: (Units=1/GPa)
#
#
# Indices 1 2 3 4 5 6 
#
# 1 0.012601 0.000221 -0.001386 0.000356 0.000167 -0.007021
# 2 0.000221 0.010823 -0.002330 0.000888 0.000032 -0.012520
# 3 -0.001386 -0.002330 0.008332 0.001016 -0.001984 -0.001910
# 4 0.000356 0.000888 0.001016 0.017425 -0.006884 -0.006468
# 5 0.000167 0.000032 -0.001984 -0.006884 0.022270 -0.000257
# 6 -0.007021 -0.012520 -0.001910 -0.006468 -0.000257 0.040336
#
#
# Mechanical properties :
#
#
# Convention : Reuss Voigt Hill
#
# Bulk Modulus (GPa) = 40.37629 87.45906 63.91768
# Shear Modulus (GPa) = 39.36022 56.45483 47.90752
#
# Velocity S-wave (km/s) = 3.79988 4.55084 4.19221
# Velocity P-wave (km/s) = 5.83643 7.72641 6.84695
#
# Compressibility (1/GPa) = 0.02476701
#
# Stress axis : x y z
#
# Youngs Moduli (GPa) = 79.36020 92.39519 120.01958
#
# Poissons Ratio (x) = -0.02041 0.16630
# Poissons Ratio (y) = -0.01753 0.27960
# Poissons Ratio (z) = 0.10996 0.21525
#
# Static dielectric constant tensor:
#      x y z
#    x 2.221610 -0.063470 0.001300 
#    y -0.063470 2.435590 0.124200 
#    z 0.001300 0.124200 2.158150 
# 
# From -- ./inp_files/448379.got.cif
#   From: 2010.05.17/outbox.cif.g08.bks.cpg/sg2_225_cif.got.tgz:448379.got - 2010.06.03 11:33:40.
