data_PCOD9079110
_publ_section_title
;
Structure prediction by ZEFSAII (Michael W. Deem and Ramdas Pophale) SiO2 
 PCOD9079110
Probable space group: P -1
;
_chemical_formula_sum "Si O2"
_cell_formula_units_Z 12
_cell_length_a 11.787905
_cell_length_b 17.727779
_cell_length_c 7.046764
_cell_angle_alpha 146.058244
_cell_angle_beta 50.590694
_cell_angle_gamma 146.388389
_cell_volume 447.601678
_symmetry_space_group_name_H-M "P -1"
_symmetry_group_IT_number 2
_symmetry_cell_setting 'triclinic'
loop_
_space_group_symop_operation_xyz
x,y,z
-x,-y,-z
loop_
_atom_site_type_symbol
_atom_site_label
_atom_site_fract_x
_atom_site_fract_y
_atom_site_fract_z
Si Si1 0.062842 0.729063 0.287798
Si Si2 0.584864 0.250929 0.126253
Si Si3 0.208132 0.837488 0.791642
Si Si4 0.606678 0.310079 0.799534
Si Si5 0.503822 0.489241 0.703094
Si Si6 0.043031 0.157204 0.654465
O O1 0.106844 0.760465 0.529590
O O2 0.075459 0.885430 0.505659
O O3 0.223931 0.727548 0.023612
O O4 0.829883 0.523610 0.064227
O O5 0.634180 0.440470 0.509451
O O6 0.520014 0.203928 0.872504
O O7 0.387033 0.067096 0.065179
O O8 0.328091 0.775460 0.570930
O O9 0.036717 0.769242 0.981266
O O10 0.462914 0.331981 0.906019
O O11 0.500000 0.500000 0.500000
O O12 0.282251 0.312143 0.662528
O O13 0.000000 0.000000 0.500000
#
# Coordination Sequence:
#
# PCOD9079110 Si02
#       6
#     2   2   2   2   2   2
#     4  10  22  38  64  88 124 166 201 247 311 364
#     4  10  18  36  62  91 122 161 203 249 303 364
#     4  11  21  37  66  91 122 159 209 251 301 366
#     4   9  19  37  62  89 122 165 201 244 308 365
#     4   9  19  37  61  85 123 164 192 247 310 353
#     4  11  23  41  60  93 124 160 206 258 305 358
#
# _framework density 26.809553000000001
#
# number of rings (size 3 to 8) (size 9 to 14) (size 15 to 20)
#    0.000    2.000    1.667    4.000    0.000    4.000 
#    0.000    0.000    3.667   19.000    0.000    0.000 
#    0.000    0.000    0.000    0.000    0.000    0.000 
#
# Total GULP energy -67178.387154 kJ/mol
# GULP energy per Si atom -5598.198930 kJ/mol
# Density = 2.674853 g / cm^3
# Si number density = 26.809553 Si / 1000 Ang^3
#
#
#
# Elastic Constant Matrix: (Units=GPa)
#
#
# Indices 1 2 3 4 5 6 
#
# 1 127.1725 34.5289 45.0751 4.4056 -15.4117 -5.3896
# 2 34.5289 158.5133 27.4719 -16.6247 2.3865 -2.1709
# 3 45.0751 27.4719 105.9523 -18.5181 -34.3225 1.0836
# 4 4.4056 -16.6247 -18.5181 52.4983 -5.0190 -6.3578
# 5 -15.4117 2.3865 -34.3225 -5.0190 56.0999 -4.6276
# 6 -5.3896 -2.1709 1.0836 -6.3578 -4.6276 33.0589
#
#
#
# Elastic Compliance Matrix: (Units=1/GPa)
#
#
# Indices 1 2 3 4 5 6 
#
# 1 0.009995 -0.001708 -0.004288 -0.002751 0.000043 0.001135
# 2 -0.001708 0.007115 -0.001218 0.001891 -0.001314 0.000408
# 3 -0.004288 -0.001218 0.015669 0.006526 0.009147 0.001243
# 4 -0.002751 0.001891 0.006526 0.023291 0.005631 0.004729
# 5 0.000043 -0.001314 0.009147 0.005631 0.024332 0.004110
# 6 0.001135 0.000408 0.001243 0.004729 0.004110 0.031905
#
#
# Mechanical properties :
#
#
# Convention : Reuss Voigt Hill
#
# Bulk Modulus (GPa) = 54.48756 67.30998 60.89877
# Shear Modulus (GPa) = 37.63573 47.30223 42.46898
#
# Velocity S-wave (km/s) = 3.75082 4.20501 3.98439
# Velocity P-wave (km/s) = 6.25510 6.98121 6.62811
#
# Compressibility (1/GPa) = 0.01835281
#
# Stress axis : x y z
#
# Youngs Moduli (GPa) = 100.04572 140.54133 63.81947
#
# Poissons Ratio (x) = 0.24000 0.27366
# Poissons Ratio (y) = 0.17085 0.07772
# Poissons Ratio (z) = 0.42901 0.17115
#
# Static dielectric constant tensor:
#      x y z
#    x 2.129160 -0.034500 -0.027110 
#    y -0.034500 2.064590 0.043510 
#    z -0.027110 0.043510 2.121430 
# 
# From -- ./inp_files/281549.got.cif
#   From: 2010.05.17/outbox.cif.g08.bks.cpg/sg2_141_cif.got.tgz:281549.got - 2010.06.03 11:33:40.
