data_PCOD9079410
_publ_section_title
;
Structure prediction by ZEFSAII (Michael W. Deem and Ramdas Pophale) SiO2 
 PCOD9079410
Probable space group: P -1
;
_chemical_formula_sum "Si O2"
_cell_formula_units_Z 16
_cell_length_a 12.239619
_cell_length_b 17.765559
_cell_length_c 8.991064
_cell_angle_alpha 79.219603
_cell_angle_beta 38.504455
_cell_angle_gamma 49.311126
_cell_volume 672.808447
_symmetry_space_group_name_H-M "P -1"
_symmetry_group_IT_number 2
_symmetry_cell_setting 'triclinic'
loop_
_space_group_symop_operation_xyz
x,y,z
-x,-y,-z
loop_
_atom_site_type_symbol
_atom_site_label
_atom_site_fract_x
_atom_site_fract_y
_atom_site_fract_z
Si Si1 0.786718 0.367107 0.839958
Si Si2 0.632654 0.740729 0.723993
Si Si3 0.670346 0.365472 0.300219
Si Si4 0.818799 0.206700 0.687894
Si Si5 0.655008 0.224650 0.524075
Si Si6 0.564512 0.107714 0.825902
Si Si7 0.707210 0.042128 0.206453
Si Si8 0.357969 0.092952 0.806351
O O1 0.916906 0.249204 0.647940
O O2 0.014661 0.357441 0.626975
O O3 0.500000 0.500000 0.000000
O O4 0.689296 0.368685 0.102669
O O5 0.462596 0.821583 0.720932
O O6 0.512234 0.702063 0.922802
O O7 0.501266 0.844350 0.954715
O O8 0.500000 0.500000 0.500000
O O9 0.509709 0.345047 0.537141
O O10 0.026360 0.231367 0.032636
O O11 0.780702 0.219472 0.544958
O O12 0.077070 0.048526 0.506403
O O13 0.481399 0.213639 0.778696
O O14 0.935719 0.090150 0.173262
O O15 0.369692 0.109880 0.959240
O O16 0.621973 0.048523 0.460356
O O17 0.563787 0.022379 0.272681
#
# Coordination Sequence:
#
# PCOD9079410 Si02
#       8
#     2   2   2   2   2   2   2   2
#     4  12  28  45  69  94 121 179 227 262 322 378
#     4  11  22  42  66  97 136 162 214 269 319 385
#     4  11  25  46  63  86 128 171 220 270 313 375
#     4  11  23  42  68 101 135 167 210 266 323 386
#     4  10  21  40  64  93 135 164 201 268 317 382
#     4  11  22  37  66 103 130 168 207 255 338 387
#     4  10  18  37  56  91 131 161 199 264 320 375
#     4  10  23  34  60  92 128 168 212 259 323 380
#
# _framework density 23.780916000000001
#
# number of rings (size 3 to 8) (size 9 to 14) (size 15 to 20)
#    0.000    1.250    3.750    2.250    8.750    3.000 
#    0.000    0.625    0.000    0.000    0.000    0.000 
#    0.000    0.000    0.000    0.000    0.000    0.000 
#
# Total GULP energy -89446.315775 kJ/mol
# GULP energy per Si atom -5590.394736 kJ/mol
# Density = 2.372679 g / cm^3
# Si number density = 23.780916 Si / 1000 Ang^3
#
#
#
# Elastic Constant Matrix: (Units=GPa)
#
#
# Indices 1 2 3 4 5 6 
#
# 1 95.6532 9.3405 6.1037 -5.8801 6.5504 -6.1624
# 2 9.3405 109.5667 35.4025 -13.6973 3.2877 -17.4757
# 3 6.1037 35.4025 49.7047 -20.1471 9.3161 -6.4818
# 4 -5.8801 -13.6973 -20.1471 29.4251 1.3371 5.5520
# 5 6.5504 3.2877 9.3161 1.3371 32.7531 -4.5591
# 6 -6.1624 -17.4757 -6.4818 5.5520 -4.5591 34.7989
#
#
#
# Elastic Compliance Matrix: (Units=1/GPa)
#
#
# Indices 1 2 3 4 5 6 
#
# 1 0.010830 -0.000577 0.000496 0.002127 -0.002183 0.001095
# 2 -0.000577 0.012777 -0.009505 -0.001748 0.002321 0.005127
# 3 0.000496 -0.009505 0.037684 0.022496 -0.011160 -0.002718
# 4 0.002127 -0.001748 0.022496 0.050489 -0.009491 -0.005610
# 5 -0.002183 0.002321 -0.011160 -0.009491 0.034964 0.004795
# 6 0.001095 0.005127 -0.002718 -0.005610 0.004795 0.032522
#
#
# Mechanical properties :
#
#
# Convention : Reuss Voigt Hill
#
# Bulk Modulus (GPa) = 23.74301 39.62423 31.68362
# Shear Modulus (GPa) = 23.53195 33.00060 28.26627
#
# Velocity S-wave (km/s) = 3.14909 3.72922 3.45136
# Velocity P-wave (km/s) = 4.81956 5.93642 5.40690
#
# Compressibility (1/GPa) = 0.04211767
#
# Stress axis : x y z
#
# Youngs Moduli (GPa) = 92.33595 78.26795 26.53676
#
# Poissons Ratio (x) = 0.04518 -0.01315
# Poissons Ratio (y) = 0.05331 0.25222
# Poissons Ratio (z) = -0.04576 0.74390
#
# Static dielectric constant tensor:
#      x y z
#    x 1.911440 0.035700 -0.050810 
#    y 0.035700 1.884310 -0.044670 
#    z -0.050810 -0.044670 1.962630 
# 
# From -- ./inp_files/259244.got.cif
#   From: 2010.05.17/outbox.cif.g08.bks.cpg/sg2_130_cif.got.tgz:259244.got - 2010.06.03 11:33:40.
