data_PCOD9079496
_publ_section_title
;
Structure prediction by ZEFSAII (Michael W. Deem and Ramdas Pophale) SiO2 
 PCOD9079496
Probable space group: P -1
;
_chemical_formula_sum "Si O2"
_cell_formula_units_Z 14
_cell_length_a 8.460017
_cell_length_b 8.987298
_cell_length_c 10.708124
_cell_angle_alpha 89.990045
_cell_angle_beta 58.080396
_cell_angle_gamma 110.461194
_cell_volume 629.694443
_symmetry_space_group_name_H-M "P -1"
_symmetry_group_IT_number 2
_symmetry_cell_setting 'triclinic'
loop_
_space_group_symop_operation_xyz
x,y,z
-x,-y,-z
loop_
_atom_site_type_symbol
_atom_site_label
_atom_site_fract_x
_atom_site_fract_y
_atom_site_fract_z
Si Si1 0.070277 0.237716 0.577550
Si Si2 0.693988 0.519499 0.333334
Si Si3 0.699730 0.137854 0.549944
Si Si4 0.055284 0.940294 0.757580
Si Si5 0.533424 0.778522 0.717334
Si Si6 0.407005 0.303567 0.034636
Si Si7 0.636960 0.791932 0.215467
O O1 0.121106 0.388755 0.650171
O O2 0.891971 0.223456 0.559554
O O3 0.020991 0.075085 0.682555
O O4 0.732959 0.749675 0.586378
O O5 0.500000 0.500000 0.500000
O O6 0.654181 0.353360 0.280256
O O7 0.703721 0.647552 0.221202
O O8 0.788649 0.111885 0.382929
O O9 0.544441 0.222411 0.614039
O O10 0.575998 0.960266 0.662042
O O11 0.840869 0.787373 0.863081
O O12 0.173432 0.039167 0.830100
O O13 0.517312 0.752216 0.871787
O O14 0.500000 0.500000 0.000000
O O15 0.454940 0.236711 0.884412
#
# Coordination Sequence:
#
# PCOD9079496 Si02
#       7
#     2   2   2   2   2   2   2
#     4   9  17  35  64  84 109 157 204 234 281 351
#     4   9  19  36  58  84 115 155 197 235 282 351
#     4  11  20  38  65  92 114 146 202 253 287 327
#     4  10  20  40  60  85 117 159 199 234 286 357
#     4  10  18  37  60  83 116 162 192 234 289 352
#     4  12  22  38  60  85 123 159 197 230 289 365
#     4  11  24  36  60  96 117 148 196 250 295 333
#
# _framework density 22.233007000000001
#
# number of rings (size 3 to 8) (size 9 to 14) (size 15 to 20)
#    0.000    1.714    4.286    2.571    0.000    0.571 
#    0.000    7.857    0.000    1.714    0.000    0.000 
#    0.000    0.000    0.000    0.000    0.000    0.000 
#
# Total GULP energy -78245.717254 kJ/mol
# GULP energy per Si atom -5588.979804 kJ/mol
# Density = 2.218240 g / cm^3
# Si number density = 22.233007 Si / 1000 Ang^3
#
#
#
# Elastic Constant Matrix: (Units=GPa)
#
#
# Indices 1 2 3 4 5 6 
#
# 1 67.2140 40.8603 1.8939 6.1939 15.7382 20.2245
# 2 40.8603 118.1321 27.9163 -0.1015 18.0735 36.8948
# 3 1.8939 27.9163 66.2174 3.2254 11.3899 10.3689
# 4 6.1939 -0.1015 3.2254 26.0037 10.7490 6.5192
# 5 15.7382 18.0735 11.3899 10.7490 23.1846 10.1859
# 6 20.2245 36.8948 10.3689 6.5192 10.1859 32.1464
#
#
#
# Elastic Compliance Matrix: (Units=1/GPa)
#
#
# Indices 1 2 3 4 5 6 
#
# 1 0.022192 -0.005196 0.004306 0.000008 -0.010465 -0.006074
# 2 -0.005196 0.016348 -0.004129 0.007139 -0.004229 -0.014270
# 3 0.004306 -0.004129 0.018341 0.000468 -0.008344 -0.001337
# 4 0.000008 0.007139 0.000468 0.051432 -0.024855 -0.010904
# 5 -0.010465 -0.004229 -0.008344 -0.024855 0.070556 -0.003186
# 6 -0.006074 -0.014270 -0.001337 -0.010904 -0.003186 0.054959
#
#
# Mechanical properties :
#
#
# Convention : Reuss Voigt Hill
#
# Bulk Modulus (GPa) = 21.34715 43.65606 32.50160
# Shear Modulus (GPa) = 19.26934 28.32647 23.79790
#
# Velocity S-wave (km/s) = 2.94717 3.57329 3.27522
# Velocity P-wave (km/s) = 4.60472 6.05829 5.38081
#
# Compressibility (1/GPa) = 0.04684467
#
# Stress axis : x y z
#
# Youngs Moduli (GPa) = 45.06077 61.17003 54.52171
#
# Poissons Ratio (x) = 0.31782 -0.23480
# Poissons Ratio (y) = 0.23412 0.22513
# Poissons Ratio (z) = -0.19405 0.25259
#
# Static dielectric constant tensor:
#      x y z
#    x 1.790670 0.026970 0.009900 
#    y 0.026970 1.833790 -0.012350 
#    z 0.009900 -0.012350 1.826640 
# 
# From -- ./inp_files/379452.got.cif
#   From: 2010.05.17/outbox.cif.g08.bks.cpg/sg2_190_cif.got.tgz:379452.got - 2010.06.03 11:33:40.
