data_PCOD9079059
_publ_section_title
;
Structure prediction by ZEFSAII (Michael W. Deem and Ramdas Pophale) SiO2 
 PCOD9079059
Probable space group: P -1
;
_chemical_formula_sum "Si O2"
_cell_formula_units_Z 16
_cell_length_a 11.472311
_cell_length_b 11.840279
_cell_length_c 9.751372
_cell_angle_alpha 114.625151
_cell_angle_beta 56.321103
_cell_angle_gamma 130.698156
_cell_volume 832.494494
_symmetry_space_group_name_H-M "P -1"
_symmetry_group_IT_number 2
_symmetry_cell_setting 'triclinic'
loop_
_space_group_symop_operation_xyz
x,y,z
-x,-y,-z
loop_
_atom_site_type_symbol
_atom_site_label
_atom_site_fract_x
_atom_site_fract_y
_atom_site_fract_z
Si Si1 0.115494 0.585948 0.340860
Si Si2 0.460502 0.837643 0.926686
Si Si3 0.482643 0.695369 0.575243
Si Si4 0.942505 0.354378 0.873840
Si Si5 0.265558 0.385152 0.723435
Si Si6 0.601016 0.753982 0.047473
Si Si7 0.550124 0.162485 0.598865
Si Si8 0.286059 0.432709 0.054557
O O1 0.030063 0.621438 0.294492
O O2 0.284365 0.739966 0.362823
O O3 0.145809 0.466635 0.189308
O O4 0.000000 0.500000 0.500000
O O5 0.513392 0.811173 0.731826
O O6 0.258438 0.737557 0.024043
O O7 0.553805 0.800622 0.962328
O O8 0.500000 0.000000 0.000000
O O9 0.348568 0.533818 0.649441
O O10 0.648309 0.698120 0.428042
O O11 0.420979 0.735670 0.500357
O O12 0.063154 0.300228 0.811581
O O13 0.000000 0.500000 0.000000
O O14 0.317867 0.432774 0.871690
O O15 0.601390 0.853897 0.219108
O O16 0.442417 0.584402 0.096999
O O17 0.743853 0.718426 0.938138
O O18 0.500000 0.000000 0.500000
#
# Coordination Sequence:
#
# PCOD9079059 Si02
#       8
#     2   2   2   2   2   2   2   2
#     4  11  23  37  61  94 118 156 205 254 305 360
#     4  12  24  41  64  90 126 165 208 247 304 377
#     4  11  22  36  63  95 117 160 215 250 300 366
#     4  12  21  41  61  90 127 162 200 255 317 355
#     4  11  21  36  63  93 123 154 204 265 304 357
#     4  10  19  37  59  85 113 162 196 246 306 350
#     4  11  22  38  60  86 121 159 200 248 298 364
#     4  10  18  36  62  84 122 152 198 257 309 347
#
# _framework density 19.219348
#
# number of rings (size 3 to 8) (size 9 to 14) (size 15 to 20)
#    0.000    1.000    7.500    1.500    0.000    1.000 
#    0.000    0.625    2.750    1.500    0.000    0.000 
#    0.000    0.000    0.000    0.000    0.000    0.000 
#
# Total GULP energy -89145.313909 kJ/mol
# GULP energy per Si atom -5571.582119 kJ/mol
# Density = 1.917560 g / cm^3
# Si number density = 19.219348 Si / 1000 Ang^3
#
#
#
# Elastic Constant Matrix: (Units=GPa)
#
#
# Indices 1 2 3 4 5 6 
#
# 1 98.4602 30.9540 33.3191 9.8928 13.4572 -16.9135
# 2 30.9540 54.2055 20.7878 17.9216 6.2048 -6.2437
# 3 33.3191 20.7878 125.7576 20.0154 4.7057 -0.8543
# 4 9.8928 17.9216 20.0154 29.1467 -4.9239 -6.5900
# 5 13.4572 6.2048 4.7057 -4.9239 36.8415 0.8715
# 6 -16.9135 -6.2437 -0.8543 -6.5900 0.8715 14.5464
#
#
#
# Elastic Compliance Matrix: (Units=1/GPa)
#
#
# Indices 1 2 3 4 5 6 
#
# 1 0.017080 -0.007196 -0.003808 0.004800 -0.004348 0.018982
# 2 -0.007196 0.028019 -0.000002 -0.016274 -0.004183 -0.003463
# 3 -0.003808 -0.000002 0.010115 -0.007388 -0.000719 -0.007138
# 4 0.004800 -0.016274 -0.007388 0.054246 0.008656 0.022218
# 5 -0.004348 -0.004183 -0.000719 0.008656 0.030799 -0.004817
# 6 0.018982 -0.003463 -0.007138 0.022218 -0.004817 0.099265
#
#
# Mechanical properties :
#
#
# Convention : Reuss Voigt Hill
#
# Bulk Modulus (GPa) = 30.11801 49.83833 39.97817
# Shear Modulus (GPa) = 18.34165 28.99776 23.66971
#
# Velocity S-wave (km/s) = 3.09258 3.88852 3.51316
# Velocity P-wave (km/s) = 5.33449 6.79326 6.10758
#
# Compressibility (1/GPa) = 0.03320272
#
# Stress axis : x y z
#
# Youngs Moduli (GPa) = 58.54767 35.69027 98.85953
#
# Poissons Ratio (x) = 0.25682 0.37647
# Poissons Ratio (y) = 0.42130 0.00018
# Poissons Ratio (z) = 0.22295 0.00006
#
# Static dielectric constant tensor:
#      x y z
#    x 1.720130 -0.041220 -0.035590 
#    y -0.041220 1.663160 -0.006090 
#    z -0.035590 -0.006090 1.685500 
# 
# From -- ./inp_files/259919.got.cif
#   From: 2010.05.17/outbox.cif.g08.bks.cpg/sg2_130_cif.got.tgz:259919.got - 2010.06.03 11:33:40.
