data_PCOD9079454
_publ_section_title
;
Structure prediction by ZEFSAII (Michael W. Deem and Ramdas Pophale) SiO2 
 PCOD9079454
Probable space group: P -1
;
_chemical_formula_sum "Si O2"
_cell_formula_units_Z 16
_cell_length_a 13.116950
_cell_length_b 17.168889
_cell_length_c 14.723787
_cell_angle_alpha 141.863751
_cell_angle_beta 52.111572
_cell_angle_gamma 156.457516
_cell_volume 737.008266
_symmetry_space_group_name_H-M "P -1"
_symmetry_group_IT_number 2
_symmetry_cell_setting 'triclinic'
loop_
_space_group_symop_operation_xyz
x,y,z
-x,-y,-z
loop_
_atom_site_type_symbol
_atom_site_label
_atom_site_fract_x
_atom_site_fract_y
_atom_site_fract_z
Si Si1 0.055234 0.634070 0.407564
Si Si2 0.957165 0.648838 0.778160
Si Si3 0.902428 0.894246 0.691985
Si Si4 0.677132 0.525049 0.984418
Si Si5 0.675160 0.461670 0.339074
Si Si6 0.921329 0.495611 0.902689
Si Si7 0.911341 0.100897 0.251139
Si Si8 0.403263 0.796012 0.002722
O O1 0.165222 0.669675 0.285512
O O2 0.185479 0.868590 0.600934
O O3 0.077221 0.533061 0.369865
O O4 0.756393 0.433229 0.348975
O O5 0.977955 0.735188 0.749274
O O6 0.732395 0.526074 0.851823
O O7 0.262462 0.923454 0.913483
O O8 0.887363 0.763640 0.512161
O O9 0.640189 0.756357 0.685229
O O10 0.871816 0.798781 0.719562
O O11 0.190152 0.223340 0.841244
O O12 0.864938 0.589412 0.995790
O O13 0.360897 0.223183 0.913752
O O14 0.706728 0.424494 0.190089
O O15 0.727104 0.295813 0.911467
O O16 0.250269 0.766097 0.996196
#
# Coordination Sequence:
#
# PCOD9079454 Si02
#       8
#     2   2   2   2   2   2   2   2
#     4   9  21  38  62  90 117 157 192 245 304 347
#     4  11  22  36  62  91 116 161 192 243 301 357
#     4  10  21  38  62  86 115 164 201 241 293 342
#     4  11  22  38  60  89 118 163 198 238 295 353
#     4   9  19  38  64  87 118 151 203 252 288 347
#     4   9  20  34  61  88 119 154 188 249 299 349
#     4  11  23  42  57  87 128 156 199 242 284 358
#     4  10  18  37  58  91 120 149 194 247 302 345
#
# _framework density 21.709389999999999
#
# number of rings (size 3 to 8) (size 9 to 14) (size 15 to 20)
#    0.000    2.000    2.500    0.750    1.750    4.000 
#    2.250    0.625    0.000    0.000    0.000    0.000 
#    0.000    0.000    0.000    0.000    0.000    0.000 
#
# Total GULP energy -89178.691778 kJ/mol
# GULP energy per Si atom -5573.668236 kJ/mol
# Density = 2.165998 g / cm^3
# Si number density = 21.709390 Si / 1000 Ang^3
#
#
#
# Elastic Constant Matrix: (Units=GPa)
#
#
# Indices 1 2 3 4 5 6 
#
# 1 87.4831 -11.2064 -17.0014 9.3673 3.2020 15.8324
# 2 -11.2064 24.2930 -20.2114 10.4274 9.6649 4.4741
# 3 -17.0014 -20.2114 65.6852 15.7790 -5.7028 4.5617
# 4 9.3673 10.4274 15.7790 14.3928 -6.6472 -3.5605
# 5 3.2020 9.6649 -5.7028 -6.6472 17.8187 -8.3306
# 6 15.8324 4.4741 4.5617 -3.5605 -8.3306 18.9138
#
#
#
# Elastic Compliance Matrix: (Units=1/GPa)
#
#
# Indices 1 2 3 4 5 6 
#
# 1 0.006880 -0.010184 -0.003855 0.012718 0.009805 0.004293
# 2 -0.010184 0.002363 -0.009310 0.031082 0.020998 0.025311
# 3 -0.003855 -0.009310 0.009324 0.011513 0.019547 0.013958
# 4 0.012718 0.031082 0.011513 0.004545 -0.029061 -0.032720
# 5 0.009805 0.020998 0.019547 -0.029061 0.034585 -0.008127
# 6 0.004293 0.025311 0.013958 -0.032720 -0.008127 0.030185
#
#
# Mechanical properties :
#
#
# Convention : Reuss Voigt Hill
#
# Bulk Modulus (GPa) = -35.54541 8.95811 -13.29365
# Shear Modulus (GPa) = 39.93527 25.28374 32.60951
#
# Velocity S-wave (km/s) = 4.29364 3.41639 3.87989
# Velocity P-wave (km/s) = 2.85860 4.43820 3.73291
#
# Compressibility (1/GPa) = -0.02813303
#
# Stress axis : x y z
#
# Youngs Moduli (GPa) = 145.35925 423.21283 107.25493
#
# Poissons Ratio (x) = 4.31006 0.41346
# Poissons Ratio (y) = 1.48036 0.99859
# Poissons Ratio (z) = 0.56035 3.94028
#
# Static dielectric constant tensor:
#      x y z
#    x 1.847990 0.007940 0.000240 
#    y 0.007940 1.791910 0.007330 
#    z 0.000240 0.007330 1.810750 
# 
# From -- ./inp_files/522507.got.cif
#   From: 2010.05.17/outbox.cif.g08.bks.cpg/sg2_262_cif.got.tgz:522507.got - 2010.06.03 11:33:40.
