data_PCOD9079184
_publ_section_title
;
Structure prediction by ZEFSAII (Michael W. Deem and Ramdas Pophale) SiO2 
 PCOD9079184
Probable space group: P -1
;
_chemical_formula_sum "Si O2"
_cell_formula_units_Z 14
_cell_length_a 10.831961
_cell_length_b 13.532361
_cell_length_c 9.505408
_cell_angle_alpha 131.793952
_cell_angle_beta 57.409251
_cell_angle_gamma 147.529936
_cell_volume 556.708436
_symmetry_space_group_name_H-M "P -1"
_symmetry_group_IT_number 2
_symmetry_cell_setting 'triclinic'
loop_
_space_group_symop_operation_xyz
x,y,z
-x,-y,-z
loop_
_atom_site_type_symbol
_atom_site_label
_atom_site_fract_x
_atom_site_fract_y
_atom_site_fract_z
Si Si1 0.795324 0.391781 0.340688
Si Si2 0.303752 0.345590 0.682658
Si Si3 0.077195 0.938405 0.578316
Si Si4 0.556981 0.020890 0.647223
Si Si5 0.040804 0.297180 0.027215
Si Si6 0.829586 0.690159 0.738791
Si Si7 0.527405 0.877002 0.946680
O O1 0.889029 0.586192 0.541718
O O2 0.638339 0.326052 0.240675
O O3 0.974559 0.404500 0.195197
O O4 0.633013 0.206111 0.378528
O O5 0.575880 0.552496 0.712714
O O6 0.165468 0.228742 0.512852
O O7 0.240209 0.168936 0.642903
O O8 0.183692 0.377303 0.875469
O O9 0.204849 0.892306 0.410694
O O10 0.024214 0.911404 0.751057
O O11 0.500000 0.000000 0.500000
O O12 0.546678 0.144435 0.868681
O O13 0.166329 0.325364 0.112497
O O14 0.799635 0.046539 0.928382
O O15 0.500000 0.000000 0.000000
#
# Coordination Sequence:
#
# PCOD9079184 Si02
#       7
#     2   2   2   2   2   2   2
#     4  10  20  40  66  92 130 167 214 265 315 381
#     4  11  24  43  66  89 133 174 212 260 314 392
#     4  11  23  41  68  92 127 175 215 253 326 381
#     4  10  18  36  63  96 125 163 212 263 316 374
#     4  10  21  39  65  95 130 169 208 270 325 367
#     4  12  24  41  65  98 128 164 220 266 318 378
#     4   8  17  34  61  88 122 166 210 249 310 379
#
# _framework density 25.147815000000001
#
# number of rings (size 3 to 8) (size 9 to 14) (size 15 to 20)
#    0.000    2.000    1.429    5.571    2.000    0.571 
#    0.000    4.286    3.143    0.000    0.000    0.000 
#    0.000    0.000    0.000    0.000    0.000    0.000 
#
# Total GULP energy -78397.758177 kJ/mol
# GULP energy per Si atom -5599.839870 kJ/mol
# Density = 2.509058 g / cm^3
# Si number density = 25.147815 Si / 1000 Ang^3
#
#
#
# Elastic Constant Matrix: (Units=GPa)
#
#
# Indices 1 2 3 4 5 6 
#
# 1 67.3611 18.1698 27.8715 -6.7644 0.6078 18.5347
# 2 18.1698 71.6888 17.2473 -21.9747 -3.0339 5.1765
# 3 27.8715 17.2473 104.7003 -18.1796 12.2301 -6.2930
# 4 -6.7644 -21.9747 -18.1796 39.1484 1.3537 -4.1021
# 5 0.6078 -3.0339 12.2301 1.3537 40.9969 -9.0032
# 6 18.5347 5.1765 -6.2930 -4.1021 -9.0032 24.9037
#
#
#
# Elastic Compliance Matrix: (Units=1/GPa)
#
#
# Indices 1 2 3 4 5 6 
#
# 1 0.024387 -0.004139 -0.007343 -0.003597 -0.002925 -0.020796
# 2 -0.004139 0.017881 -0.000327 0.009259 0.001470 0.001338
# 3 -0.007343 -0.000327 0.013354 0.005775 -0.002091 0.009103
# 4 -0.003597 0.009259 0.005775 0.033612 -0.000426 0.007594
# 5 -0.002925 0.001470 -0.002091 -0.000426 0.027657 0.011272
# 6 -0.020796 0.001338 0.009103 0.007594 0.011272 0.062980
#
#
# Mechanical properties :
#
#
# Convention : Reuss Voigt Hill
#
# Bulk Modulus (GPa) = 31.24729 41.14749 36.19739
# Shear Modulus (GPa) = 23.34726 33.04057 28.19392
#
# Velocity S-wave (km/s) = 3.05027 3.62865 3.35196
# Velocity P-wave (km/s) = 4.98578 5.82699 5.42272
#
# Compressibility (1/GPa) = 0.03200278
#
# Stress axis : x y z
#
# Youngs Moduli (GPa) = 41.00489 55.92588 74.88548
#
# Poissons Ratio (x) = 0.23150 0.54988
# Poissons Ratio (y) = 0.16973 0.02451
# Poissons Ratio (z) = 0.30110 0.01830
#
# Static dielectric constant tensor:
#      x y z
#    x 2.038470 -0.032240 -0.018790 
#    y -0.032240 2.002190 0.070930 
#    z -0.018790 0.070930 1.996360 
# 
# From -- ./inp_files/270849.got.cif
#   From: 2010.05.17/outbox.cif.g08.bks.cpg/sg2_136_cif.got.tgz:270849.got - 2010.06.03 11:33:40.
