data_PCOD9079395
_publ_section_title
;
Structure prediction by ZEFSAII (Michael W. Deem and Ramdas Pophale) SiO2 
 PCOD9079395
Probable space group: P -1
;
_chemical_formula_sum "Si O2"
_cell_formula_units_Z 13
_cell_length_a 14.563143
_cell_length_b 5.031880
_cell_length_c 9.319854
_cell_angle_alpha 118.353404
_cell_angle_beta 76.306302
_cell_angle_gamma 88.388754
_cell_volume 576.000778
_symmetry_space_group_name_H-M "P -1"
_symmetry_group_IT_number 2
_symmetry_cell_setting 'triclinic'
loop_
_space_group_symop_operation_xyz
x,y,z
-x,-y,-z
loop_
_atom_site_type_symbol
_atom_site_label
_atom_site_fract_x
_atom_site_fract_y
_atom_site_fract_z
Si Si1 0.500000 0.000000 0.000000
Si Si2 0.012126 0.139584 0.377337
Si Si3 0.839663 0.185454 0.970857
Si Si4 0.646607 0.077611 0.389696
Si Si5 0.522830 0.252855 0.742502
Si Si6 0.139839 0.155204 0.823717
Si Si7 0.367909 0.751974 0.874613
O O1 0.545667 0.060753 0.826501
O O2 0.386883 0.090780 0.991839
O O3 0.000000 0.500000 0.500000
O O4 0.000000 0.000000 0.500000
O O5 0.933077 0.029780 0.274700
O O6 0.111897 0.995520 0.228799
O O7 0.888530 0.478898 0.067286
O O8 0.726401 0.311491 0.031044
O O9 0.847981 0.963388 0.048115
O O10 0.607896 0.227166 0.590752
O O11 0.636885 0.290063 0.305064
O O12 0.570832 0.850878 0.324486
O O13 0.756499 0.922756 0.311463
O O14 0.475395 0.614448 0.865415
#
# Coordination Sequence:
#
# PCOD9079395 Si02
#       7
#     1   2   2   2   2   2   2
#     4  10  22  34  52  86 124 174 200 256 318 392
#     4  12  26  45  66 100 135 164 210 275 339 389
#     4  11  23  43  72  93 128 174 222 268 317 397
#     4   9  20  34  61  87 116 161 216 271 301 366
#     4  10  18  37  55  86 125 158 216 255 318 364
#     4  11  22  44  69  98 124 174 223 262 327 391
#     4  10  20  37  58  85 123 163 220 256 321 373
#
# _framework density 22.569413999999998
#
# number of rings (size 3 to 8) (size 9 to 14) (size 15 to 20)
#    0.000    1.538    1.538    3.692    0.000    1.231 
#    2.769    0.000    0.000    0.000    0.000    0.000 
#    0.000    0.000    0.000    0.000    0.000    0.000 
#
# Total GULP energy -72432.381091 kJ/mol
# GULP energy per Si atom -5571.721622 kJ/mol
# Density = 2.251804 g / cm^3
# Si number density = 22.569414 Si / 1000 Ang^3
#
#
#
# Elastic Constant Matrix: (Units=GPa)
#
#
# Indices 1 2 3 4 5 6 
#
# 1 60.3535 21.7989 50.0389 -9.9082 -12.2188 14.5239
# 2 21.7989 112.5467 64.7800 -1.2121 -16.8192 9.3512
# 3 50.0389 64.7800 177.6078 -16.1286 -30.7604 2.9346
# 4 -9.9082 -1.2121 -16.1286 36.2520 8.6128 11.0512
# 5 -12.2188 -16.8192 -30.7604 8.6128 38.4901 -0.8885
# 6 14.5239 9.3512 2.9346 11.0512 -0.8885 30.3368
#
#
#
# Elastic Compliance Matrix: (Units=1/GPa)
#
#
# Indices 1 2 3 4 5 6 
#
# 1 0.027465 -0.000033 -0.006431 0.009200 0.001140 -0.015835
# 2 -0.000033 0.011693 -0.003936 -0.001028 0.002120 -0.002771
# 3 -0.006431 -0.003936 0.009525 0.000423 0.003833 0.003329
# 4 0.009200 -0.001028 0.000423 0.037084 -0.005900 -0.017811
# 5 0.001140 0.002120 0.003833 -0.005900 0.031687 0.001507
# 6 -0.015835 -0.002771 0.003329 -0.017811 0.001507 0.047609
#
#
# Mechanical properties :
#
#
# Convention : Reuss Voigt Hill
#
# Bulk Modulus (GPa) = 35.86409 69.30484 52.58447
# Shear Modulus (GPa) = 25.62016 35.27510 30.44763
#
# Velocity S-wave (km/s) = 3.37289 3.95772 3.67695
# Velocity P-wave (km/s) = 5.57616 7.18741 6.43243
#
# Compressibility (1/GPa) = 0.02788304
#
# Stress axis : x y z
#
# Youngs Moduli (GPa) = 36.40981 85.52087 104.98415
#
# Poissons Ratio (x) = 0.00279 0.67520
# Poissons Ratio (y) = 0.00119 0.41323
# Poissons Ratio (z) = 0.23417 0.33662
#
# Static dielectric constant tensor:
#      x y z
#    x 1.898660 0.000200 -0.015800 
#    y 0.000200 1.968920 0.099570 
#    z -0.015800 0.099570 1.847630 
# 
# From -- ./inp_files/287432.got.cif
#   From: 2010.05.17/outbox.cif.g08.bks.cpg/sg2_144_cif.got.tgz:287432.got - 2010.06.03 11:33:40.
