data_PCOD9079490
_publ_section_title
;
Structure prediction by ZEFSAII (Michael W. Deem and Ramdas Pophale) SiO2 
 PCOD9079490
Probable space group: P -1
;
_chemical_formula_sum "Si O2"
_cell_formula_units_Z 16
_cell_length_a 12.231374
_cell_length_b 9.301164
_cell_length_c 19.840028
_cell_angle_alpha 73.056441
_cell_angle_beta 141.509541
_cell_angle_gamma 137.126831
_cell_volume 712.636438
_symmetry_space_group_name_H-M "P -1"
_symmetry_group_IT_number 2
_symmetry_cell_setting 'triclinic'
loop_
_space_group_symop_operation_xyz
x,y,z
-x,-y,-z
loop_
_atom_site_type_symbol
_atom_site_label
_atom_site_fract_x
_atom_site_fract_y
_atom_site_fract_z
Si Si1 0.241781 0.133773 0.357100
Si Si2 0.797880 0.087660 0.284170
Si Si3 0.425432 0.004925 0.388163
Si Si4 0.448787 0.348988 0.570834
Si Si5 0.278736 0.665258 0.863940
Si Si6 0.461643 0.526164 0.900966
Si Si7 0.513383 0.933524 0.303767
Si Si8 0.748397 0.460788 0.988280
O O1 0.446130 0.270950 0.506356
O O2 0.247742 0.315179 0.320850
O O3 0.406787 0.168978 0.369148
O O4 0.895553 0.799540 0.248743
O O5 0.801405 0.226357 0.213405
O O6 0.116614 0.210543 0.428209
O O7 0.738026 0.124056 0.321803
O O8 0.482691 0.758119 0.154803
O O9 0.612629 0.090784 0.399503
O O10 0.061271 0.674304 0.246932
O O11 0.500000 0.000000 0.500000
O O12 0.457209 0.222410 0.644851
O O13 0.472986 0.713507 0.892301
O O14 0.403480 0.733492 0.991360
O O15 0.500000 0.500000 0.000000
O O16 0.715440 0.615429 0.966385
O O17 0.131351 0.693903 0.134254
#
# Coordination Sequence:
#
# PCOD9079490 Si02
#       8
#     2   2   2   2   2   2   2   2
#     4  10  20  36  64  91 116 154 212 258 297 353
#     4  12  23  41  59  92 129 166 202 249 314 372
#     4  10  18  37  60  82 114 156 202 251 299 351
#     4  11  23  38  62  91 128 161 205 251 310 365
#     4   9  21  35  62  93 117 154 210 254 299 361
#     4   9  18  37  62  94 119 152 203 264 303 351
#     4  11  25  40  59  90 130 164 204 254 309 368
#     4  10  21  39  63  88 120 165 209 255 302 360
#
# _framework density 22.451841000000002
#
# number of rings (size 3 to 8) (size 9 to 14) (size 15 to 20)
#    0.000    1.750    2.500    2.625    5.250    2.000 
#    0.000    4.375    0.000    0.000    0.000    0.000 
#    0.000    0.000    0.000    0.000    0.000    0.000 
#
# Total GULP energy -89224.593006 kJ/mol
# GULP energy per Si atom -5576.537063 kJ/mol
# Density = 2.240074 g / cm^3
# Si number density = 22.451841 Si / 1000 Ang^3
#
#
#
# Elastic Constant Matrix: (Units=GPa)
#
#
# Indices 1 2 3 4 5 6 
#
# 1 136.5038 12.2216 34.1926 -4.0857 -2.8187 -17.8682
# 2 12.2216 26.7229 1.7959 -4.8053 3.1725 -17.2719
# 3 34.1926 1.7959 80.1596 0.5017 8.7759 -11.4126
# 4 -4.0857 -4.8053 0.5017 20.6269 -10.9444 0.2355
# 5 -2.8187 3.1725 8.7759 -10.9444 39.5867 -7.1076
# 6 -17.8682 -17.2719 -11.4126 0.2355 -7.1076 30.3016
#
#
#
# Elastic Compliance Matrix: (Units=1/GPa)
#
#
# Indices 1 2 3 4 5 6 
#
# 1 0.009020 -0.001027 -0.003609 0.003266 0.003162 0.004091
# 2 -0.001027 0.065616 0.003845 0.017598 0.005766 0.039459
# 3 -0.003609 0.003845 0.015035 -0.002160 -0.003616 0.004894
# 4 0.003266 0.017598 -0.002160 0.063502 0.019595 0.015246
# 5 0.003162 0.005766 -0.003616 0.019595 0.033298 0.011448
# 6 0.004091 0.039459 0.004894 0.015246 0.011448 0.062316
#
#
# Mechanical properties :
#
#
# Convention : Reuss Voigt Hill
#
# Bulk Modulus (GPa) = 11.35224 37.75627 24.55426
# Shear Modulus (GPa) = 17.87425 31.11479 24.49452
#
# Velocity S-wave (km/s) = 2.82461 3.72673 3.30658
# Velocity P-wave (km/s) = 3.96297 5.94736 5.05353
#
# Compressibility (1/GPa) = 0.08808834
#
# Stress axis : x y z
#
# Youngs Moduli (GPa) = 110.86146 15.24022 66.51313
#
# Poissons Ratio (x) = 0.01565 0.24004
# Poissons Ratio (y) = 0.11384 -0.25571
# Poissons Ratio (z) = 0.40008 -0.05859
#
# Static dielectric constant tensor:
#      x y z
#    x 1.955320 -0.032090 0.019030 
#    y -0.032090 1.842150 -0.036240 
#    z 0.019030 -0.036240 1.926480 
# 
# From -- ./inp_files/593581.got.cif
#   From: 2010.05.17/outbox.cif.g08.bks.cpg/sg2_297_cif.got.tgz:593581.got - 2010.06.03 11:33:40.
