data_PCOD9079168
_publ_section_title
;
Structure prediction by ZEFSAII (Michael W. Deem and Ramdas Pophale) SiO2 
 PCOD9079168
Probable space group: P -1
;
_chemical_formula_sum "Si O2"
_cell_formula_units_Z 16
_cell_length_a 7.652953
_cell_length_b 10.871591
_cell_length_c 12.341414
_cell_angle_alpha 92.669793
_cell_angle_beta 126.387135
_cell_angle_gamma 65.544319
_cell_volume 724.162644
_symmetry_space_group_name_H-M "P -1"
_symmetry_group_IT_number 2
_symmetry_cell_setting 'triclinic'
loop_
_space_group_symop_operation_xyz
x,y,z
-x,-y,-z
loop_
_atom_site_type_symbol
_atom_site_label
_atom_site_fract_x
_atom_site_fract_y
_atom_site_fract_z
Si Si1 0.203406 0.433940 0.476448
Si Si2 0.137739 0.879903 0.723824
Si Si3 0.570181 0.963769 0.201137
Si Si4 0.948018 0.938256 0.087096
Si Si5 0.604419 0.368316 0.780056
Si Si6 0.443920 0.415260 0.068337
Si Si7 0.207828 0.339498 0.797823
Si Si8 0.333177 0.115337 0.528919
O O1 0.446037 0.430621 0.615439
O O2 0.271867 0.272153 0.479746
O O3 0.000000 0.500000 0.500000
O O4 0.058268 0.535495 0.328685
O O5 0.301028 0.718635 0.810771
O O6 0.923540 0.890091 0.567293
O O7 0.316544 0.932573 0.740609
O O8 0.043450 0.974606 0.802034
O O9 0.764509 0.813270 0.216348
O O10 0.532885 0.924179 0.307567
O O11 0.330915 0.030584 0.039596
O O12 0.152842 0.776474 0.160296
O O13 0.000000 0.000000 0.000000
O O14 0.661808 0.480274 0.865680
O O15 0.420033 0.342644 0.795248
O O16 0.500000 0.500000 0.000000
O O17 0.275729 0.360818 0.944679
O O18 0.500000 0.000000 0.500000
#
# Coordination Sequence:
#
# PCOD9079168 Si02
#       8
#     2   2   2   2   2   2   2   2
#     4  10  18  36  63  91 118 161 211 263 298 365
#     4  12  25  40  64  94 130 168 208 261 318 381
#     4  12  24  41  62  95 133 168 205 258 329 374
#     4  12  21  40  65  93 126 167 213 258 310 375
#     4  10  19  35  61  91 119 155 212 266 300 349
#     4  10  20  36  60  94 119 162 217 254 302 376
#     4  10  19  35  62  92 122 161 212 255 302 376
#     4  12  24  41  66  96 125 162 219 265 309 372
#
# _framework density 22.094484000000001
#
# number of rings (size 3 to 8) (size 9 to 14) (size 15 to 20)
#    0.000    1.000    5.000    5.250    0.000    1.000 
#    0.000    0.625    2.750    1.500    0.000    0.000 
#    0.000    0.000    0.000    0.000    0.000    0.000 
#
# Total GULP energy -89466.449815 kJ/mol
# GULP energy per Si atom -5591.653113 kJ/mol
# Density = 2.204420 g / cm^3
# Si number density = 22.094484 Si / 1000 Ang^3
#
#
#
# Elastic Constant Matrix: (Units=GPa)
#
#
# Indices 1 2 3 4 5 6 
#
# 1 30.3246 11.2739 8.7209 -12.4400 3.3494 -3.3640
# 2 11.2739 142.9151 26.2521 -9.9417 -6.2711 -28.6543
# 3 8.7209 26.2521 113.8726 -6.6206 10.3436 -18.3933
# 4 -12.4400 -9.9417 -6.6206 41.7927 -6.0686 4.0991
# 5 3.3494 -6.2711 10.3436 -6.0686 17.7041 3.8415
# 6 -3.3640 -28.6543 -18.3933 4.0991 3.8415 32.7263
#
#
#
# Elastic Compliance Matrix: (Units=1/GPa)
#
#
# Indices 1 2 3 4 5 6 
#
# 1 0.038870 -0.002166 -0.001459 0.010218 -0.003864 0.000452
# 2 -0.002166 0.008870 -0.001061 0.001125 0.003161 0.006435
# 3 -0.001459 -0.001061 0.010789 -0.000722 -0.007955 0.006009
# 4 0.010218 0.001125 -0.000722 0.028794 0.009426 -0.003084
# 5 -0.003864 0.003161 -0.007955 0.009426 0.068675 -0.011342
# 6 0.000452 0.006435 0.006009 -0.003084 -0.011342 0.041332
#
#
# Mechanical properties :
#
#
# Convention : Reuss Voigt Hill
#
# Bulk Modulus (GPa) = 20.34334 42.17844 31.26089
# Shear Modulus (GPa) = 22.41251 34.50232 28.45742
#
# Velocity S-wave (km/s) = 3.18841 3.95597 3.59275
# Velocity P-wave (km/s) = 4.77305 6.32438 5.60267
#
# Compressibility (1/GPa) = 0.04915614
#
# Stress axis : x y z
#
# Youngs Moduli (GPa) = 25.72661 112.73631 92.68389
#
# Poissons Ratio (x) = 0.24422 0.13525
# Poissons Ratio (y) = 0.05573 0.09836
# Poissons Ratio (z) = 0.03754 0.11964
#
# Static dielectric constant tensor:
#      x y z
#    x 1.773380 0.092040 0.030660 
#    y 0.092040 1.704970 0.008790 
#    z 0.030660 0.008790 1.799670 
# 
# From -- ./inp_files/274682.got.cif
#   From: 2010.05.17/outbox.cif.g08.bks.cpg/sg2_138_cif.got.tgz:274682.got - 2010.06.03 11:33:40.
