data_PCOD9079541
_publ_section_title
;
Structure prediction by ZEFSAII (Michael W. Deem and Ramdas Pophale) SiO2 
 PCOD9079541
Probable space group: P -1
;
_chemical_formula_sum "Si O2"
_cell_formula_units_Z 12
_cell_length_a 12.121453
_cell_length_b 7.657550
_cell_length_c 7.995950
_cell_angle_alpha 54.435751
_cell_angle_beta 85.752229
_cell_angle_gamma 119.021518
_cell_volume 456.961081
_symmetry_space_group_name_H-M "P -1"
_symmetry_group_IT_number 2
_symmetry_cell_setting 'triclinic'
loop_
_space_group_symop_operation_xyz
x,y,z
-x,-y,-z
loop_
_atom_site_type_symbol
_atom_site_label
_atom_site_fract_x
_atom_site_fract_y
_atom_site_fract_z
Si Si1 0.696877 0.884912 0.699923
Si Si2 0.146957 0.176121 0.778885
Si Si3 0.709543 0.389420 0.011820
Si Si4 0.343204 0.763786 0.275803
Si Si5 0.032503 0.808325 0.687462
Si Si6 0.427195 0.639525 0.642162
O O1 0.711040 0.652352 0.868148
O O2 0.569166 0.726107 0.663715
O O3 0.652406 0.989909 0.793179
O O4 0.853915 0.162867 0.462058
O O5 0.191100 0.453645 0.523402
O O6 0.288565 0.311934 0.800031
O O7 0.121602 0.971632 0.753369
O O8 0.000000 0.000000 0.000000
O O9 0.643992 0.249189 0.915601
O O10 0.875590 0.516946 0.913134
O O11 0.637444 0.264384 0.272486
O O12 0.450719 0.764158 0.384918
O O13 0.000000 0.000000 0.500000
#
# Coordination Sequence:
#
# PCOD9079541 Si02
#       6
#     2   2   2   2   2   2
#     4  11  22  39  64  95 120 161 210 250 304 368
#     4  10  19  37  64  85 120 164 199 243 311 356
#     4  11  22  42  63  89 126 168 198 253 307 362
#     4  10  23  40  64  89 126 162 203 253 310 358
#     4  10  18  37  61  83 122 158 200 245 302 358
#     4  10  22  40  64  89 129 159 203 258 302 361
#
# _framework density 26.260442999999999
#
# number of rings (size 3 to 8) (size 9 to 14) (size 15 to 20)
#    1.000    0.667    5.000    1.000    0.000    4.000 
#    0.000    6.667    0.000    0.000    0.000    0.000 
#    0.000    0.000    0.000    0.000    0.000    0.000 
#
# Total GULP energy -67086.075170 kJ/mol
# GULP energy per Si atom -5590.506264 kJ/mol
# Density = 2.620067 g / cm^3
# Si number density = 26.260443 Si / 1000 Ang^3
#
#
#
# Elastic Constant Matrix: (Units=GPa)
#
#
# Indices 1 2 3 4 5 6 
#
# 1 93.5859 40.4066 39.9688 -3.0415 -8.5132 5.3941
# 2 40.4066 161.0947 30.3500 37.8110 10.5673 14.9709
# 3 39.9688 30.3500 173.4519 12.1308 -13.3555 13.1346
# 4 -3.0415 37.8110 12.1308 42.8831 -6.0608 -7.2527
# 5 -8.5132 10.5673 -13.3555 -6.0608 38.7412 -9.2811
# 6 5.3941 14.9709 13.1346 -7.2527 -9.2811 37.0897
#
#
#
# Elastic Compliance Matrix: (Units=1/GPa)
#
#
# Indices 1 2 3 4 5 6 
#
# 1 0.015313 -0.006369 -0.002917 0.009301 0.006720 0.004877
# 2 -0.006369 0.012681 0.000272 -0.014632 -0.009326 -0.009483
# 3 -0.002917 0.000272 0.006814 -0.002705 0.000618 -0.002473
# 4 0.009301 -0.014632 -0.002705 0.042959 0.016122 0.017946
# 5 0.006720 -0.009326 0.000618 0.016122 0.036103 0.014755
# 6 0.004877 -0.009483 -0.002473 0.017946 0.014755 0.038157
#
#
# Mechanical properties :
#
#
# Convention : Reuss Voigt Hill
#
# Bulk Modulus (GPa) = 59.58892 72.17594 65.88243
# Shear Modulus (GPa) = 28.46615 44.90326 36.68470
#
# Velocity S-wave (km/s) = 3.29598 4.13960 3.74164
# Velocity P-wave (km/s) = 6.10126 7.09879 6.61884
#
# Compressibility (1/GPa) = 0.01678164
#
# Stress axis : x y z
#
# Youngs Moduli (GPa) = 65.30319 78.85849 146.76044
#
# Poissons Ratio (x) = 0.50221 0.42805
# Poissons Ratio (y) = 0.41589 -0.03992
# Poissons Ratio (z) = 0.19047 -0.02145
#
# Static dielectric constant tensor:
#      x y z
#    x 2.004510 0.017280 0.021590 
#    y 0.017280 2.063060 -0.086790 
#    z 0.021590 -0.086790 2.316080 
# 
# From -- ./inp_files/292328.got.cif
#   From: 2010.05.17/outbox.cif.g08.bks.cpg/sg2_147_cif.got.tgz:292328.got - 2010.06.03 11:33:40.
