data_PCOD9079953
_publ_section_title
;
Structure prediction by ZEFSAII (Michael W. Deem and Ramdas Pophale) SiO2 
 PCOD9079953
Probable space group: P -1
;
_chemical_formula_sum "Si O2"
_cell_formula_units_Z 15
_cell_length_a 11.184201
_cell_length_b 19.242450
_cell_length_c 14.090316
_cell_angle_alpha 20.579756
_cell_angle_beta 46.685680
_cell_angle_gamma 36.317323
_cell_volume 596.326903
_symmetry_space_group_name_H-M "P -1"
_symmetry_group_IT_number 2
_symmetry_cell_setting 'triclinic'
loop_
_space_group_symop_operation_xyz
x,y,z
-x,-y,-z
loop_
_atom_site_type_symbol
_atom_site_label
_atom_site_fract_x
_atom_site_fract_y
_atom_site_fract_z
Si Si1 0.358041 0.401799 0.067446
Si Si2 0.200237 0.073346 0.556482
Si Si3 0.554445 0.160291 0.712160
Si Si4 0.019862 0.763223 0.350140
Si Si5 0.500000 0.500000 0.500000
Si Si6 0.703242 0.436930 0.317623
Si Si7 0.888290 0.374409 0.725561
Si Si8 0.008076 0.697609 0.028487
O O1 0.276538 0.241346 0.295684
O O2 0.186031 0.617751 0.958015
O O3 0.594649 0.205522 0.233931
O O4 0.356800 0.500706 0.838512
O O5 0.167331 0.037192 0.730468
O O6 0.958556 0.255607 0.415020
O O7 0.611184 0.289817 0.593675
O O8 0.357294 0.388281 0.467494
O O9 0.500000 0.000000 0.000000
O O10 0.775804 0.959046 0.794881
O O11 0.249493 0.655715 0.399243
O O12 0.012421 0.812987 0.179147
O O13 0.012131 0.525363 0.667310
O O14 0.552541 0.662808 0.184621
O O15 0.932516 0.266228 0.945483
O O16 0.000000 0.500000 0.500000
#
# Coordination Sequence:
#
# PCOD9079953 Si02
#       8
#     2   2   2   2   1   2   2   2
#     4  10  22  44  64  91 130 166 218 262 312 380
#     4   9  21  42  66  94 123 169 212 263 318 378
#     4  12  22  40  63  95 127 170 210 256 324 379
#     4   9  17  36  63  92 123 157 209 261 322 371
#     4  10  18  38  58  88 128 156 198 276 314 364
#     4  11  23  39  64  93 129 164 213 263 319 378
#     4  10  19  37  60  92 126 162 207 257 311 374
#     4  10  22  39  63  92 127 169 213 261 308 386
#
# _framework density 25.153987000000001
#
# number of rings (size 3 to 8) (size 9 to 14) (size 15 to 20)
#    0.000    1.867    4.000    0.400    0.000    2.667 
#    2.400   13.333    0.000    0.000    0.000    0.000 
#    0.000    0.000    0.000    0.000    0.000    0.000 
#
# Total GULP energy -83667.470733 kJ/mol
# GULP energy per Si atom -5577.831382 kJ/mol
# Density = 2.509674 g / cm^3
# Si number density = 25.153987 Si / 1000 Ang^3
#
#
#
# Elastic Constant Matrix: (Units=GPa)
#
#
# Indices 1 2 3 4 5 6 
#
# 1 126.0507 51.4837 18.4419 7.8741 12.0970 -18.8571
# 2 51.4837 209.1972 40.1130 -13.9422 21.3375 -10.1780
# 3 18.4419 40.1130 58.0474 10.9802 5.3353 -9.6489
# 4 7.8741 -13.9422 10.9802 51.5592 -7.1245 5.5214
# 5 12.0970 21.3375 5.3353 -7.1245 35.3155 9.4475
# 6 -18.8571 -10.1780 -9.6489 5.5214 9.4475 55.4970
#
#
#
# Elastic Compliance Matrix: (Units=1/GPa)
#
#
# Indices 1 2 3 4 5 6 
#
# 1 0.009922 -0.002026 -0.000195 -0.002963 -0.003788 0.003906
# 2 -0.002026 0.006452 -0.004165 0.002683 -0.001992 -0.000157
# 3 -0.000195 -0.004165 0.022482 -0.006810 -0.003344 0.004326
# 4 -0.002963 0.002683 -0.006810 0.023478 0.006536 -0.005147
# 5 -0.003788 -0.001992 -0.003344 0.006536 0.035007 -0.008844
# 6 0.003906 -0.000157 0.004326 -0.005147 -0.008844 0.022087
#
#
# Mechanical properties :
#
#
# Convention : Reuss Voigt Hill
#
# Bulk Modulus (GPa) = 38.33645 68.15250 53.24447
# Shear Modulus (GPa) = 35.48786 47.35813 41.42299
#
# Velocity S-wave (km/s) = 3.76017 4.34375 4.06245
# Velocity P-wave (km/s) = 5.84171 7.23260 6.57404
#
# Compressibility (1/GPa) = 0.02608484
#
# Stress axis : x y z
#
# Youngs Moduli (GPa) = 100.78543 154.99873 44.47999
#
# Poissons Ratio (x) = 0.31397 0.00865
# Poissons Ratio (y) = 0.20415 0.18527
# Poissons Ratio (z) = 0.01961 0.64562
#
# Static dielectric constant tensor:
#      x y z
#    x 2.173320 0.170720 -0.139320 
#    y 0.170720 2.114190 -0.015870 
#    z -0.139320 -0.015870 2.128310 
# 
# From -- ./inp_files/524009.got.cif
#   From: 2010.05.17/outbox.cif.g08.bks.cpg/sg2_263_cif.got.tgz:524009.got - 2010.06.03 11:33:40.
