data_PCOD9079068
_publ_section_title
;
Structure prediction by ZEFSAII (Michael W. Deem and Ramdas Pophale) SiO2 
 PCOD9079068
Probable space group: P -1
;
_chemical_formula_sum "Si O2"
_cell_formula_units_Z 16
_cell_length_a 12.297673
_cell_length_b 23.385074
_cell_length_c 5.292184
_cell_angle_alpha 99.079137
_cell_angle_beta 101.814629
_cell_angle_gamma 28.484774
_cell_volume 709.671936
_symmetry_space_group_name_H-M "P -1"
_symmetry_group_IT_number 2
_symmetry_cell_setting 'triclinic'
loop_
_space_group_symop_operation_xyz
x,y,z
-x,-y,-z
loop_
_atom_site_type_symbol
_atom_site_label
_atom_site_fract_x
_atom_site_fract_y
_atom_site_fract_z
Si Si1 0.393766 0.694262 0.208600
Si Si2 0.137854 0.341746 0.460737
Si Si3 0.394705 0.901719 0.705406
Si Si4 0.321723 0.625327 0.757798
Si Si5 0.263839 0.533124 0.477845
Si Si6 0.827854 0.030332 0.846264
Si Si7 0.191984 0.433980 0.847077
Si Si8 0.014322 0.852405 0.489412
O O1 0.577235 0.592584 0.441769
O O2 0.543066 0.665191 0.064505
O O3 0.175433 0.815374 0.348172
O O4 0.314812 0.670775 0.023422
O O5 0.343029 0.214572 0.335788
O O6 0.216194 0.367958 0.626169
O O7 0.993800 0.371409 0.619045
O O8 0.943011 0.448979 0.243841
O O9 0.286244 0.908631 0.441863
O O10 0.354856 0.898258 0.968034
O O11 0.238965 0.030245 0.674476
O O12 0.257313 0.587813 0.718015
O O13 0.585179 0.509413 0.704700
O O14 0.146385 0.734022 0.545135
O O15 0.976321 0.905103 0.767166
O O16 0.000000 0.000000 0.000000
O O17 0.000000 0.500000 0.000000
#
# Coordination Sequence:
#
# PCOD9079068 Si02
#       8
#     2   2   2   2   2   2   2   2
#     4  10  19  35  58  87 120 154 200 255 311 357
#     4  10  22  39  54  82 123 157 204 239 310 369
#     4  10  23  39  59  86 125 160 199 255 300 371
#     4  10  18  36  62  86 118 150 208 256 306 354
#     4   9  20  36  58  88 114 160 202 253 304 363
#     4  10  22  39  60  88 120 160 212 250 304 355
#     4  10  22  36  56  83 118 160 198 245 303 375
#     4   9  22  35  58  87 120 154 199 256 306 356
#
# _framework density 22.545628000000001
#
# number of rings (size 3 to 8) (size 9 to 14) (size 15 to 20)
#    0.750    1.500    0.000    2.250    3.500    2.000 
#    0.000    0.625    0.000    1.500    0.000    0.000 
#    0.000    0.000    0.000    0.000    0.000    0.000 
#
# Total GULP energy -89076.942110 kJ/mol
# GULP energy per Si atom -5567.308882 kJ/mol
# Density = 2.249431 g / cm^3
# Si number density = 22.545628 Si / 1000 Ang^3
#
#
#
# Elastic Constant Matrix: (Units=GPa)
#
#
# Indices 1 2 3 4 5 6 
#
# 1 58.3357 31.3562 5.6577 7.0988 4.8692 -3.9839
# 2 31.3562 136.1806 8.4122 21.8181 -12.9585 -19.6220
# 3 5.6577 8.4122 76.6144 21.6684 -7.6254 -7.4171
# 4 7.0988 21.8181 21.6684 23.3125 -0.5570 -6.7093
# 5 4.8692 -12.9585 -7.6254 -0.5570 17.2665 -3.0570
# 6 -3.9839 -19.6220 -7.4171 -6.7093 -3.0570 18.5738
#
#
#
# Elastic Compliance Matrix: (Units=1/GPa)
#
#
# Indices 1 2 3 4 5 6 
#
# 1 0.021971 -0.007218 -0.003044 0.000789 -0.014021 -0.006151
# 2 -0.007218 0.014220 0.005333 -0.011551 0.017216 0.014265
# 3 -0.003044 0.005333 0.020819 -0.020681 0.014852 0.008269
# 4 0.000789 -0.011551 -0.020681 0.073411 -0.014991 0.003759
# 5 -0.014021 0.017216 0.014852 -0.014991 0.086155 0.029876
# 6 -0.006151 0.014265 0.008269 0.003759 0.029876 0.077167
#
#
# Mechanical properties :
#
#
# Convention : Reuss Voigt Hill
#
# Bulk Modulus (GPa) = 21.20773 40.22031 30.71402
# Shear Modulus (GPa) = 15.65831 26.87751 21.26791
#
# Velocity S-wave (km/s) = 2.63823 3.45648 3.07470
# Velocity P-wave (km/s) = 4.32520 5.81446 5.12422
#
# Compressibility (1/GPa) = 0.04715261
#
# Stress axis : x y z
#
# Youngs Moduli (GPa) = 45.51399 70.32427 48.03233
#
# Poissons Ratio (x) = 0.50758 0.14621
# Poissons Ratio (y) = 0.32851 -0.25615
# Poissons Ratio (z) = 0.13855 -0.37503
#
# Static dielectric constant tensor:
#      x y z
#    x 1.922510 -0.014310 -0.056830 
#    y -0.014310 1.929800 -0.022120 
#    z -0.056830 -0.022120 1.945030 
# 
# From -- ./inp_files/84401.got.cif
#   From: 2010.05.17/outbox.cif.g08.bks.cpg/sg2_43_cif.got.tgz:84401.got - 2010.06.03 11:33:40.
