data_PCOD9079221
_publ_section_title
;
Structure prediction by ZEFSAII (Michael W. Deem and Ramdas Pophale) SiO2 
 PCOD9079221
Probable space group: P -1
;
_chemical_formula_sum "Si O2"
_cell_formula_units_Z 14
_cell_length_a 14.011770
_cell_length_b 18.142541
_cell_length_c 7.391223
_cell_angle_alpha 112.218351
_cell_angle_beta 75.564177
_cell_angle_gamma 160.664278
_cell_volume 539.332051
_symmetry_space_group_name_H-M "P -1"
_symmetry_group_IT_number 2
_symmetry_cell_setting 'triclinic'
loop_
_space_group_symop_operation_xyz
x,y,z
-x,-y,-z
loop_
_atom_site_type_symbol
_atom_site_label
_atom_site_fract_x
_atom_site_fract_y
_atom_site_fract_z
Si Si1 0.090687 0.747969 0.687959
Si Si2 0.179125 0.602575 0.726563
Si Si3 0.063671 0.978318 0.153901
Si Si4 0.888378 0.005200 0.272329
Si Si5 0.267349 0.433247 0.595849
Si Si6 0.853665 0.136197 0.845379
Si Si7 0.632702 0.273963 0.845089
O O1 0.996405 0.592704 0.500858
O O2 0.853923 0.627127 0.592880
O O3 0.425089 0.034777 0.731611
O O4 0.079774 0.758472 0.914915
O O5 0.946245 0.491318 0.801072
O O6 0.491833 0.869494 0.729775
O O7 0.301751 0.658423 0.910783
O O8 0.387660 0.273258 0.278384
O O9 0.835177 0.873050 0.233675
O O10 0.087491 0.911895 0.177589
O O11 0.003369 0.914822 0.913349
O O12 0.154221 0.255080 0.486706
O O13 0.579582 0.822558 0.241795
O O14 0.066434 0.317618 0.744632
#
# Coordination Sequence:
#
# PCOD9079221 Si02
#       7
#     2   2   2   2   2   2   2
#     4  10  19  39  60  93 131 161 206 261 309 375
#     4  10  18  36  64  91 129 165 202 263 314 363
#     4  11  21  42  65  89 131 164 204 270 308 368
#     4  10  21  40  64  92 126 164 213 259 312 373
#     4  11  22  40  66  93 128 166 209 258 317 371
#     4  11  23  39  64 101 124 162 218 250 312 390
#     4   9  18  34  64  94 119 170 211 247 321 374
#
# _framework density 25.958034999999999
#
# number of rings (size 3 to 8) (size 9 to 14) (size 15 to 20)
#    0.000    1.714    5.714    0.857    0.000    1.714 
#    0.000    5.714    0.000   24.000    0.000    0.000 
#    0.000    0.000    0.000    0.000    0.000    0.000 
#
# Total GULP energy -78422.916209 kJ/mol
# GULP energy per Si atom -5601.636872 kJ/mol
# Density = 2.589895 g / cm^3
# Si number density = 25.958035 Si / 1000 Ang^3
#
#
#
# Elastic Constant Matrix: (Units=GPa)
#
#
# Indices 1 2 3 4 5 6 
#
# 1 77.6809 47.4912 56.1015 22.2150 -32.2292 9.0026
# 2 47.4912 81.0042 48.2957 10.1811 -10.0230 6.8851
# 3 56.1015 48.2957 144.0337 3.5894 1.3706 -15.4610
# 4 22.2150 10.1811 3.5894 19.9135 18.3386 -7.1796
# 5 -32.2292 -10.0230 1.3706 18.3386 10.7700 7.8601
# 6 9.0026 6.8851 -15.4610 -7.1796 7.8601 26.3608
#
#
#
# Elastic Compliance Matrix: (Units=1/GPa)
#
#
# Indices 1 2 3 4 5 6 
#
# 1 0.007066 -0.008704 0.000858 0.012586 -0.014397 0.008084
# 2 -0.008704 0.020385 -0.003941 -0.001556 -0.000272 -0.005006
# 3 0.000858 -0.003941 0.008215 -0.006090 0.006877 0.001845
# 4 0.012586 -0.001556 -0.006090 0.012772 0.023201 -0.010903
# 5 -0.014397 -0.000272 0.006877 0.023201 -0.002635 0.016126
# 6 0.008084 -0.005006 0.001845 -0.010903 0.016126 0.029786
#
#
# Mechanical properties :
#
#
# Convention : Reuss Voigt Hill
#
# Bulk Modulus (GPa) = 82.71096 67.38840 75.04968
# Shear Modulus (GPa) = 48.45204 21.46422 34.95813
#
# Velocity S-wave (km/s) = 4.32505 2.87867 3.67375
# Velocity P-wave (km/s) = 7.54148 6.08818 6.85346
#
# Compressibility (1/GPa) = 0.01209030
#
# Stress axis : x y z
#
# Youngs Moduli (GPa) = 141.52816 49.05500 121.73431
#
# Poissons Ratio (x) = 0.42699 -0.10441
# Poissons Ratio (y) = 1.23191 0.47975
# Poissons Ratio (z) = -0.12138 0.19332
#
# Static dielectric constant tensor:
#      x y z
#    x 2.151020 -0.015960 -0.032020 
#    y -0.015960 2.021850 0.019910 
#    z -0.032020 0.019910 2.025980 
# 
# From -- ./inp_files/318426.got.cif
#   From: 2010.05.17/outbox.cif.g08.bks.cpg/sg2_160_cif.got.tgz:318426.got - 2010.06.03 11:33:40.
