data_PCOD9079407
_publ_section_title
;
Structure prediction by ZEFSAII (Michael W. Deem and Ramdas Pophale) SiO2 
 PCOD9079407
Probable space group: P -1
;
_chemical_formula_sum "Si O2"
_cell_formula_units_Z 16
_cell_length_a 9.284952
_cell_length_b 11.169351
_cell_length_c 21.438728
_cell_angle_alpha 147.034201
_cell_angle_beta 116.271376
_cell_angle_gamma 87.459324
_cell_volume 805.113863
_symmetry_space_group_name_H-M "P -1"
_symmetry_group_IT_number 2
_symmetry_cell_setting 'triclinic'
loop_
_space_group_symop_operation_xyz
x,y,z
-x,-y,-z
loop_
_atom_site_type_symbol
_atom_site_label
_atom_site_fract_x
_atom_site_fract_y
_atom_site_fract_z
Si Si1 0.953906 0.712146 0.787714
Si Si2 0.633895 0.269521 0.911476
Si Si3 0.246395 0.357762 0.467866
Si Si4 0.134903 0.892322 0.033292
Si Si5 0.595773 0.851788 0.998758
Si Si6 0.249514 0.156141 0.854143
Si Si7 0.555213 0.299608 0.224136
Si Si8 0.523201 0.205378 0.414381
O O1 0.740107 0.405423 0.584764
O O2 0.949693 0.972747 0.887378
O O3 0.178475 0.855992 0.860533
O O4 0.979951 0.691478 0.857772
O O5 0.775798 0.224391 0.958669
O O6 0.398435 0.118837 0.829058
O O7 0.589810 0.123313 0.771412
O O8 0.751984 0.612362 0.079560
O O9 0.267098 0.468175 0.590590
O O10 0.348536 0.208719 0.413462
O O11 0.391828 0.624994 0.562673
O O12 0.994236 0.141805 0.309794
O O13 0.339707 0.190456 0.167593
O O14 0.635295 0.715347 0.000683
O O15 0.515165 0.000947 0.081064
O O16 0.443912 0.629926 0.816813
#
# Coordination Sequence:
#
# PCOD9079407 Si02
#       8
#     2   2   2   2   2   2   2   2
#     4  10  20  32  60  88 112 143 187 237 280 327
#     4  11  24  40  58  80 119 154 187 231 284 341
#     4  11  21  36  59  87 115 144 194 237 279 330
#     4  10  18  37  56  83 117 148 183 230 285 330
#     4  10  20  34  56  86 114 147 188 230 284 329
#     4  11  24  40  56  83 117 155 188 228 284 345
#     4  10  19  34  58  84 114 144 186 245 277 320
#     4  11  20  36  58  88 114 144 191 240 277 329
#
# _framework density 19.872964
#
# number of rings (size 3 to 8) (size 9 to 14) (size 15 to 20)
#    0.000    1.500    5.000    0.750    1.750    1.500 
#    0.000    1.250    0.000    4.500    0.000    0.000 
#    0.000    0.000    0.000    0.000    0.000    0.000 
#
# Total GULP energy -89128.305100 kJ/mol
# GULP energy per Si atom -5570.519069 kJ/mol
# Density = 1.982773 g / cm^3
# Si number density = 19.872964 Si / 1000 Ang^3
#
#
#
# Elastic Constant Matrix: (Units=GPa)
#
#
# Indices 1 2 3 4 5 6 
#
# 1 58.5266 18.2257 16.0172 -2.5566 -3.4843 -10.0173
# 2 18.2257 69.6104 33.5230 -25.9331 -6.8920 -21.1296
# 3 16.0172 33.5230 62.4877 -36.0478 -18.6578 -11.2806
# 4 -2.5566 -25.9331 -36.0478 29.4959 3.4379 1.7366
# 5 -3.4843 -6.8920 -18.6578 3.4379 21.2168 -4.1137
# 6 -10.0173 -21.1296 -11.2806 1.7366 -4.1137 27.3933
#
#
#
# Elastic Compliance Matrix: (Units=1/GPa)
#
#
# Indices 1 2 3 4 5 6 
#
# 1 0.006503 0.025502 0.079990 0.108689 0.073551 0.059144
# 2 0.025502 -0.036905 -0.188601 -0.236384 -0.155750 -0.105210
# 3 0.079990 -0.188601 -0.501050 -0.699400 -0.442239 -0.344631
# 4 0.108689 -0.236384 -0.699400 -0.920236 -0.614954 -0.464611
# 5 0.073551 -0.155750 -0.442239 -0.614954 -0.336259 -0.286866
# 6 0.059144 -0.105210 -0.344631 -0.464611 -0.286866 -0.178565
#
#
# Mechanical properties :
#
#
# Convention : Reuss Voigt Hill
#
# Bulk Modulus (GPa) = -1.43334 36.23962 17.40314
# Shear Modulus (GPa) = -2.45960 23.81178 10.67609
#
# Velocity S-wave (km/s) = -1.11371 3.46526 2.32031
# Velocity P-wave (km/s) = 1.54163 5.85542 3.99433
#
# Compressibility (1/GPa) = -0.69766912
#
# Stress axis : x y z
#
# Youngs Moduli (GPa) = 153.77822 -27.09662 -1.99581
#
# Poissons Ratio (x) = 0.69101 0.15965
# Poissons Ratio (y) = -3.92163 -0.37641
# Poissons Ratio (z) = -12.30079 -5.11044
#
# Static dielectric constant tensor:
#      x y z
#    x 1.708940 -0.014180 -0.010220 
#    y -0.014180 1.738100 -0.052690 
#    z -0.010220 -0.052690 1.712530 
# 
# From -- ./inp_files/187674.got.cif
#   From: 2010.05.17/outbox.cif.g08.bks.cpg/sg2_94_cif.got.tgz:187674.got - 2010.06.03 11:33:40.
