data_PCOD9079869
_publ_section_title
;
Structure prediction by ZEFSAII (Michael W. Deem and Ramdas Pophale) SiO2 
 PCOD9079869
Probable space group: P -1
;
_chemical_formula_sum "Si O2"
_cell_formula_units_Z 16
_cell_length_a 10.101875
_cell_length_b 18.163217
_cell_length_c 12.253673
_cell_angle_alpha 26.822473
_cell_angle_beta 50.731762
_cell_angle_gamma 63.757810
_cell_volume 735.395494
_symmetry_space_group_name_H-M "P -1"
_symmetry_group_IT_number 2
_symmetry_cell_setting 'triclinic'
loop_
_space_group_symop_operation_xyz
x,y,z
-x,-y,-z
loop_
_atom_site_type_symbol
_atom_site_label
_atom_site_fract_x
_atom_site_fract_y
_atom_site_fract_z
Si Si1 0.960831 0.732821 0.649437
Si Si2 0.024369 0.894236 0.768572
Si Si3 0.736252 0.267314 0.683936
Si Si4 0.617950 0.872556 0.320991
Si Si5 0.289896 0.391560 0.239738
Si Si6 0.633381 0.833708 0.106413
Si Si7 0.022513 0.543070 0.306029
Si Si8 0.770174 0.170769 0.452213
O O1 0.773858 0.622274 0.834755
O O2 0.107437 0.744434 0.463570
O O3 0.055026 0.687067 0.769166
O O4 0.945372 0.920443 0.437227
O O5 0.136947 0.916694 0.568380
O O6 0.082911 0.750244 0.989591
O O7 0.804180 0.801478 0.003853
O O8 0.563494 0.276104 0.694050
O O9 0.833069 0.432666 0.490334
O O10 0.671532 0.081390 0.026620
O O11 0.727964 0.794493 0.449628
O O12 0.648760 0.829911 0.234342
O O13 0.397812 0.787700 0.565345
O O14 0.170083 0.476003 0.260878
O O15 0.500000 0.500000 0.000000
O O16 0.670474 0.031979 0.782792
O O17 0.000000 0.500000 0.500000
#
# Coordination Sequence:
#
# PCOD9079869 Si02
#       8
#     2   2   2   2   2   2   2   2
#     4  10  20  40  68  86 122 161 207 243 301 372
#     4  11  22  38  63  93 124 163 191 254 315 350
#     4  10  20  38  66  93 113 163 209 247 296 361
#     4  11  19  38  71  88 117 161 210 248 293 367
#     4  11  26  45  60  90 122 165 208 248 297 369
#     4  10  18  37  67  93 118 151 213 251 291 368
#     4  11  26  43  57  89 136 154 201 260 300 355
#     4  10  19  38  62  97 122 149 204 260 297 353
#
# _framework density 21.756999
#
# number of rings (size 3 to 8) (size 9 to 14) (size 15 to 20)
#    0.000    1.500    3.750    3.750    1.750    1.500 
#    9.000    3.125    0.000    0.000    0.000    0.000 
#    0.000    0.000    0.000    0.000    0.000    0.000 
#
# Total GULP energy -89253.041289 kJ/mol
# GULP energy per Si atom -5578.315081 kJ/mol
# Density = 2.170748 g / cm^3
# Si number density = 21.756999 Si / 1000 Ang^3
#
#
#
# Elastic Constant Matrix: (Units=GPa)
#
#
# Indices 1 2 3 4 5 6 
#
# 1 71.5887 20.3652 -1.4314 4.1766 -22.5762 -7.3924
# 2 20.3652 93.3866 16.9413 7.9369 -12.8095 1.9586
# 3 -1.4314 16.9413 36.7884 -0.9856 -7.4805 0.7871
# 4 4.1766 7.9369 -0.9856 28.1696 -3.5128 0.7309
# 5 -22.5762 -12.8095 -7.4805 -3.5128 41.3135 -5.9839
# 6 -7.3924 1.9586 0.7871 0.7309 -5.9839 38.8994
#
#
#
# Elastic Compliance Matrix: (Units=1/GPa)
#
#
# Indices 1 2 3 4 5 6 
#
# 1 0.019083 -0.003554 0.004463 -0.000456 0.010877 0.005397
# 2 -0.003554 0.012955 -0.006056 -0.003239 0.000549 -0.001060
# 3 0.004463 -0.006056 0.031563 0.002951 0.006744 0.001496
# 4 -0.000456 -0.003239 0.002951 0.036887 0.002372 -0.000311
# 5 0.010877 0.000549 0.006744 0.002372 0.032741 0.006895
# 6 0.005397 -0.001060 0.001496 -0.000311 0.006895 0.027823
#
#
# Mechanical properties :
#
#
# Convention : Reuss Voigt Hill
#
# Bulk Modulus (GPa) = 18.75918 30.39043 24.57480
# Shear Modulus (GPa) = 26.43904 32.73574 29.58739
#
# Velocity S-wave (km/s) = 3.48975 3.88314 3.69169
# Velocity P-wave (km/s) = 4.98785 5.83981 5.43057
#
# Compressibility (1/GPa) = 0.05330724
#
# Stress axis : x y z
#
# Youngs Moduli (GPa) = 52.40267 77.19220 31.68218
#
# Poissons Ratio (x) = 0.27431 -0.14140
# Poissons Ratio (y) = 0.18622 0.19188
# Poissons Ratio (z) = -0.23388 0.46751
#
# Static dielectric constant tensor:
#      x y z
#    x 1.881760 -0.003450 0.024860 
#    y -0.003450 1.753580 -0.011400 
#    z 0.024860 -0.011400 1.871750 
# 
# From -- ./inp_files/401642.got.cif
#   From: 2010.05.17/outbox.cif.g08.bks.cpg/sg2_201_cif.got.tgz:401642.got - 2010.06.03 11:33:40.
