data_PCOD9079113
_publ_section_title
;
Structure prediction by ZEFSAII (Michael W. Deem and Ramdas Pophale) SiO2 
 PCOD9079113
Probable space group: P -1
;
_chemical_formula_sum "Si O2"
_cell_formula_units_Z 15
_cell_length_a 9.205760
_cell_length_b 7.144383
_cell_length_c 14.644387
_cell_angle_alpha 111.994388
_cell_angle_beta 43.423351
_cell_angle_gamma 93.453797
_cell_volume 578.997478
_symmetry_space_group_name_H-M "P -1"
_symmetry_group_IT_number 2
_symmetry_cell_setting 'triclinic'
loop_
_space_group_symop_operation_xyz
x,y,z
-x,-y,-z
loop_
_atom_site_type_symbol
_atom_site_label
_atom_site_fract_x
_atom_site_fract_y
_atom_site_fract_z
Si Si1 0.282142 0.845088 0.807932
Si Si2 0.198222 0.083899 0.048523
Si Si3 0.377048 0.448819 0.827847
Si Si4 0.704909 0.797531 0.341189
Si Si5 0.145522 0.762532 0.359895
Si Si6 0.791834 0.251886 0.879823
Si Si7 0.500000 0.500000 0.500000
Si Si8 0.101102 0.526535 0.651266
O O1 0.285730 0.662954 0.847528
O O2 0.453540 0.717682 0.631235
O O3 0.042308 0.925285 0.881064
O O4 0.336868 0.019796 0.879842
O O5 0.121692 0.314307 0.172593
O O6 0.291422 0.913058 0.054838
O O7 0.302015 0.278884 0.772766
O O8 0.644632 0.355224 0.694421
O O9 0.282118 0.531330 0.986652
O O10 0.728751 0.589727 0.360292
O O11 0.939055 0.829387 0.257598
O O12 0.500000 0.000000 0.500000
O O13 0.254905 0.747334 0.205583
O O14 0.973450 0.630180 0.405660
O O15 0.000000 0.000000 0.500000
O O16 0.275157 0.635427 0.558710
#
# Coordination Sequence:
#
# PCOD9079113 Si02
#       8
#     2   2   2   2   2   2   1   2
#     4   9  19  33  63  92 122 161 199 271 304 369
#     4   9  18  39  62  89 126 153 213 257 315 364
#     4  11  20  42  64  88 127 166 214 260 315 379
#     4  11  22  37  62  97 125 164 215 264 316 361
#     4  11  25  45  62  88 133 170 210 260 325 382
#     4  10  23  39  66  93 122 168 213 263 311 382
#     4  10  18  36  62  92 126 150 220 246 316 356
#     4  10  22  40  63  90 125 167 208 262 313 378
#
# _framework density 25.906852000000001
#
# number of rings (size 3 to 8) (size 9 to 14) (size 15 to 20)
#    0.000    1.867    2.667    2.400    3.733    2.133 
#    0.000    6.667    0.000    0.000    0.000    0.000 
#    0.000    0.000    0.000    0.000    0.000    0.000 
#
# Total GULP energy -83667.451306 kJ/mol
# GULP energy per Si atom -5577.830087 kJ/mol
# Density = 2.584789 g / cm^3
# Si number density = 25.906852 Si / 1000 Ang^3
#
#
#
# Elastic Constant Matrix: (Units=GPa)
#
#
# Indices 1 2 3 4 5 6 
#
# 1 96.7579 15.8150 6.5466 8.3191 -0.3523 0.5455
# 2 15.8150 64.4544 7.0923 -1.4398 5.9543 -14.5596
# 3 6.5466 7.0923 145.4070 28.5209 29.2190 -3.1913
# 4 8.3191 -1.4398 28.5209 46.1524 -2.8118 12.4104
# 5 -0.3523 5.9543 29.2190 -2.8118 51.3930 4.2018
# 6 0.5455 -14.5596 -3.1913 12.4104 4.2018 38.8373
#
#
#
# Elastic Compliance Matrix: (Units=1/GPa)
#
#
# Indices 1 2 3 4 5 6 
#
# 1 0.010980 -0.002930 -0.000107 -0.001779 0.000439 -0.000741
# 2 -0.002930 0.018169 0.000263 -0.001294 -0.002967 0.007609
# 3 -0.000107 0.000263 0.009658 -0.007377 -0.006247 0.003927
# 4 -0.001779 -0.001294 -0.007377 0.029992 0.006905 -0.011397
# 5 0.000439 -0.002967 -0.006247 0.006905 0.024262 -0.006463
# 6 -0.000741 0.007609 0.003927 -0.011397 -0.006463 0.033275
#
#
# Mechanical properties :
#
#
# Convention : Reuss Voigt Hill
#
# Bulk Modulus (GPa) = 30.06773 40.61411 35.34092
# Shear Modulus (GPa) = 34.97246 45.75424 40.36335
#
# Velocity S-wave (km/s) = 3.67813 4.20707 3.95146
# Velocity P-wave (km/s) = 5.44697 6.26979 5.87280
#
# Compressibility (1/GPa) = 0.03325825
#
# Stress axis : x y z
#
# Youngs Moduli (GPa) = 91.07556 55.03959 103.54485
#
# Poissons Ratio (x) = 0.16126 0.01108
# Poissons Ratio (y) = 0.26684 -0.02722
# Poissons Ratio (z) = 0.00974 -0.01447
#
# Static dielectric constant tensor:
#      x y z
#    x 2.004980 -0.004030 0.003860 
#    y -0.004030 2.213520 -0.023120 
#    z 0.003860 -0.023120 2.124940 
# 
# From -- ./inp_files/495566.got.cif
#   From: 2010.05.17/outbox.cif.g08.bks.cpg/sg2_248_cif.got.tgz:495566.got - 2010.06.03 11:33:40.
