data_PCOD9079853
_publ_section_title
;
Structure prediction by ZEFSAII (Michael W. Deem and Ramdas Pophale) SiO2 
 PCOD9079853
Probable space group: P -1
;
_chemical_formula_sum "Si O2"
_cell_formula_units_Z 14
_cell_length_a 9.042035
_cell_length_b 16.857249
_cell_length_c 8.828649
_cell_angle_alpha 142.497267
_cell_angle_beta 47.547769
_cell_angle_gamma 138.091729
_cell_volume 535.250529
_symmetry_space_group_name_H-M "P -1"
_symmetry_group_IT_number 2
_symmetry_cell_setting 'triclinic'
loop_
_space_group_symop_operation_xyz
x,y,z
-x,-y,-z
loop_
_atom_site_type_symbol
_atom_site_label
_atom_site_fract_x
_atom_site_fract_y
_atom_site_fract_z
Si Si1 0.982790 0.579696 0.841123
Si Si2 0.692701 0.739115 0.626786
Si Si3 0.888626 0.994374 0.410357
Si Si4 0.622883 0.413132 0.636208
Si Si5 0.681985 0.250399 0.605746
Si Si6 0.645074 0.167507 0.849846
Si Si7 0.953490 0.843903 0.870795
O O1 0.177017 0.595271 0.611930
O O2 0.763240 0.558877 0.862249
O O3 0.878494 0.421083 0.752676
O O4 0.115921 0.708438 0.061443
O O5 0.925770 0.858248 0.576681
O O6 0.564778 0.613609 0.400597
O O7 0.538100 0.818244 0.894726
O O8 0.765278 0.710962 0.699925
O O9 0.666833 0.017778 0.610967
O O10 0.000000 0.000000 0.500000
O O11 0.876072 0.861831 0.116898
O O12 0.542000 0.281234 0.615642
O O13 0.602050 0.195274 0.747864
O O14 0.819814 0.170777 0.319772
O O15 0.000000 0.000000 0.000000
#
# Coordination Sequence:
#
# PCOD9079853 Si02
#       7
#     2   2   2   2   2   2   2
#     4   8  18  35  62  91 122 163 198 246 309 350
#     4  10  22  42  61  91 123 155 213 244 300 369
#     4  11  26  42  62  89 125 161 200 255 312 353
#     4   8  18  35  62  92 120 157 203 246 297 363
#     4  10  18  37  67  84 124 167 196 244 312 349
#     4  11  21  39  65  90 123 163 200 252 301 365
#     4  10  21  42  58  87 126 154 200 260 297 356
#
# _framework density 26.155977
#
# number of rings (size 3 to 8) (size 9 to 14) (size 15 to 20)
#    0.857    1.429    2.857    0.429    4.000    2.286 
#    2.571    3.571    0.000    0.000    0.000    0.000 
#    0.000    0.000    0.000    0.000    0.000    0.000 
#
# Total GULP energy -78177.207388 kJ/mol
# GULP energy per Si atom -5584.086242 kJ/mol
# Density = 2.609644 g / cm^3
# Si number density = 26.155977 Si / 1000 Ang^3
#
#
#
# Elastic Constant Matrix: (Units=GPa)
#
#
# Indices 1 2 3 4 5 6 
#
# 1 131.7802 1.3842 58.0254 5.9279 31.0915 29.1600
# 2 1.3842 44.1730 3.6858 5.0207 -8.5217 -5.2195
# 3 58.0254 3.6858 124.6217 -7.0108 7.3620 -0.5384
# 4 5.9279 5.0207 -7.0108 29.8192 11.1806 3.2466
# 5 31.0915 -8.5217 7.3620 11.1806 70.1180 3.6470
# 6 29.1600 -5.2195 -0.5384 3.2466 3.6470 43.2819
#
#
#
# Elastic Compliance Matrix: (Units=1/GPa)
#
#
# Indices 1 2 3 4 5 6 
#
# 1 0.013404 -0.001804 -0.005989 -0.000962 -0.004921 -0.008836
# 2 -0.001804 0.024831 -0.000494 -0.006138 0.004626 0.004275
# 3 -0.005989 -0.000494 0.010978 0.003162 0.000740 0.003812
# 4 -0.000962 -0.006138 0.003162 0.038246 -0.006627 -0.002363
# 5 -0.004921 0.004626 0.000740 -0.006627 0.017835 0.002877
# 6 -0.008836 0.004275 0.003812 -0.002363 0.002877 0.029555
#
#
# Mechanical properties :
#
#
# Convention : Reuss Voigt Hill
#
# Bulk Modulus (GPa) = 30.63970 47.41840 39.02905
# Shear Modulus (GPa) = 30.80615 44.47579 37.64097
#
# Velocity S-wave (km/s) = 3.43561 4.12807 3.79766
# Velocity P-wave (km/s) = 5.24190 6.39451 5.84668
#
# Compressibility (1/GPa) = 0.03263739
#
# Stress axis : x y z
#
# Youngs Moduli (GPa) = 74.60415 40.27173 91.08935
#
# Poissons Ratio (x) = 0.07267 0.54556
# Poissons Ratio (y) = 0.13461 0.04504
# Poissons Ratio (z) = 0.44683 0.01991
#
# Static dielectric constant tensor:
#      x y z
#    x 2.042400 0.082330 -0.071980 
#    y 0.082330 2.076990 0.067850 
#    z -0.071980 0.067850 1.855630 
# 
# From -- ./inp_files/215754.got.cif
#   From: 2010.05.17/outbox.cif.g08.bks.cpg/sg2_108_cif.got.tgz:215754.got - 2010.06.03 11:33:40.
