data_PCOD9079412
_publ_section_title
;
Structure prediction by ZEFSAII (Michael W. Deem and Ramdas Pophale) SiO2 
 PCOD9079412
Probable space group: P -1
;
_chemical_formula_sum "Si O2"
_cell_formula_units_Z 14
_cell_length_a 7.699102
_cell_length_b 12.141194
_cell_length_c 19.164930
_cell_angle_alpha 39.059618
_cell_angle_beta 83.249937
_cell_angle_gamma 53.104507
_cell_volume 651.867996
_symmetry_space_group_name_H-M "P -1"
_symmetry_group_IT_number 2
_symmetry_cell_setting 'triclinic'
loop_
_space_group_symop_operation_xyz
x,y,z
-x,-y,-z
loop_
_atom_site_type_symbol
_atom_site_label
_atom_site_fract_x
_atom_site_fract_y
_atom_site_fract_z
Si Si1 0.713497 0.309050 0.199718
Si Si2 0.631866 0.976556 0.902879
Si Si3 0.800700 0.398188 0.007631
Si Si4 0.988029 0.153062 0.781003
Si Si5 0.634379 0.156172 0.954961
Si Si6 0.703384 0.772088 0.334980
Si Si7 0.596559 0.277773 0.546959
O O1 0.730262 0.439658 0.071997
O O2 0.554229 0.523220 0.168721
O O3 0.486622 0.354489 0.151751
O O4 0.054442 0.976607 0.361456
O O5 0.931127 0.696048 0.981825
O O6 0.682108 0.080093 0.909145
O O7 0.373241 0.247191 0.727954
O O8 0.545097 0.868399 0.997665
O O9 0.945991 0.089108 0.135833
O O10 0.226119 0.088130 0.762387
O O11 0.652604 0.491306 0.614596
O O12 0.068564 0.086580 0.891583
O O13 0.453221 0.877739 0.342451
O O14 0.000000 0.500000 0.500000
O O15 0.500000 0.500000 0.500000
#
# Coordination Sequence:
#
# PCOD9079412 Si02
#       7
#     2   2   2   2   2   2   2
#     4  10  20  33  49  87 106 137 175 229 257 304
#     4  10  18  37  57  78 104 148 174 212 271 322
#     4  10  19  34  54  80 110 136 179 224 260 307
#     4   9  18  33  51  79 105 142 177 215 260 324
#     4   9  21  35  56  79 109 137 181 218 262 321
#     4   9  18  31  53  81 100 136 179 217 257 314
#     4  11  18  33  54  78 108 142 176 220 267 310
#
# _framework density 21.476738999999998
#
# number of rings (size 3 to 8) (size 9 to 14) (size 15 to 20)
#    0.000    2.286    2.857    0.000    0.000    2.857 
#    5.143    0.000    0.000   21.429    0.000    0.000 
#    0.000    0.000    0.000    0.000    0.000    0.000 
#
# Total GULP energy -77996.824685 kJ/mol
# GULP energy per Si atom -5571.201763 kJ/mol
# Density = 2.142786 g / cm^3
# Si number density = 21.476739 Si / 1000 Ang^3
#
#
#
# Elastic Constant Matrix: (Units=GPa)
#
#
# Indices 1 2 3 4 5 6 
#
# 1 69.8978 1.8643 19.8930 1.5136 15.0560 -6.7245
# 2 1.8643 68.6234 30.2262 2.3212 7.1606 10.2614
# 3 19.8930 30.2262 122.5381 -5.8328 30.4397 6.9188
# 4 1.5136 2.3212 -5.8328 25.3327 -6.8944 5.7265
# 5 15.0560 7.1606 30.4397 -6.8944 29.8865 1.8751
# 6 -6.7245 10.2614 6.9188 5.7265 1.8751 31.1122
#
#
#
# Elastic Compliance Matrix: (Units=1/GPa)
#
#
# Indices 1 2 3 4 5 6 
#
# 1 0.017199 0.000367 -0.001175 -0.004996 -0.009042 0.005322
# 2 0.000367 0.017071 -0.004037 -0.001605 -0.000261 -0.004342
# 3 -0.001175 -0.004037 0.012046 0.000599 -0.010504 -0.001078
# 4 -0.004996 -0.001605 0.000599 0.045992 0.013526 -0.009964
# 5 -0.009042 -0.000261 -0.010504 0.013526 0.052221 -0.005169
# 6 0.005322 -0.004342 -0.001078 -0.009964 -0.005169 0.037109
#
#
# Mechanical properties :
#
#
# Convention : Reuss Voigt Hill
#
# Bulk Modulus (GPa) = 27.30239 40.55848 33.93044
# Shear Modulus (GPa) = 24.56562 31.20467 27.88514
#
# Velocity S-wave (km/s) = 3.38572 3.81590 3.60722
# Velocity P-wave (km/s) = 5.29379 6.19198 5.76042
#
# Compressibility (1/GPa) = 0.03662683
#
# Stress axis : x y z
#
# Youngs Moduli (GPa) = 58.14288 58.57798 83.01581
#
# Poissons Ratio (x) = -0.02149 0.09752
# Poissons Ratio (y) = -0.02133 0.33512
# Poissons Ratio (z) = 0.06830 0.23647
#
# Static dielectric constant tensor:
#      x y z
#    x 1.874210 -0.003990 0.007810 
#    y -0.003990 1.798060 -0.007800 
#    z 0.007810 -0.007800 1.800060 
# 
# From -- ./inp_files/558445.got.cif
#   From: 2010.05.17/outbox.cif.g08.bks.cpg/sg2_280_cif.got.tgz:558445.got - 2010.06.03 11:33:40.
