data_PCOD9079632
_publ_section_title
;
Structure prediction by ZEFSAII (Michael W. Deem and Ramdas Pophale) SiO2 
 PCOD9079632
Probable space group: P -1
;
_chemical_formula_sum "Si O2"
_cell_formula_units_Z 16
_cell_length_a 25.958991
_cell_length_b 10.643968
_cell_length_c 21.925950
_cell_angle_alpha 156.911992
_cell_angle_beta 165.516269
_cell_angle_gamma 25.711680
_cell_volume 590.881724
_symmetry_space_group_name_H-M "P -1"
_symmetry_group_IT_number 2
_symmetry_cell_setting 'triclinic'
loop_
_space_group_symop_operation_xyz
x,y,z
-x,-y,-z
loop_
_atom_site_type_symbol
_atom_site_label
_atom_site_fract_x
_atom_site_fract_y
_atom_site_fract_z
Si Si1 0.225718 0.826278 0.858171
Si Si2 0.533944 0.296149 0.040367
Si Si3 0.303971 0.357493 0.283271
Si Si4 0.786919 0.995984 0.391472
Si Si5 0.085486 0.851788 0.184017
Si Si6 0.808661 0.429040 0.071394
Si Si7 0.994326 0.586678 0.838676
Si Si8 0.422166 0.156021 0.563356
O O1 0.351202 0.511998 0.890732
O O2 0.978546 0.849523 0.587723
O O3 0.292760 0.827929 0.865002
O O4 0.287419 0.126050 0.102323
O O5 0.427300 0.005442 0.818986
O O6 0.598467 0.554099 0.279766
O O7 0.107878 0.303685 0.077158
O O8 0.489249 0.180250 0.455141
O O9 0.274843 0.723572 0.388138
O O10 0.767297 0.758236 0.207125
O O11 0.861438 0.314231 0.591438
O O12 0.122680 0.692998 0.090068
O O13 0.994238 0.215384 0.226586
O O14 0.885588 0.500973 0.124534
O O15 0.598543 0.257845 0.764814
O O16 0.805929 0.861039 0.731329
#
# Coordination Sequence:
#
# PCOD9079632 Si02
#       8
#     2   2   2   2   2   2   2   2
#     4  10  18  37  62  89 122 160 201 251 306 365
#     4   9  20  34  59  92 126 156 197 253 314 359
#     4   9  19  40  65  85 122 165 200 253 312 349
#     4  11  22  37  61  96 121 160 203 254 303 366
#     4  10  21  41  65  90 121 166 209 251 304 369
#     4  10  23  40  62  91 128 164 198 255 314 358
#     4  12  23  39  65  92 123 164 212 247 299 376
#     4   9  21  40  63  90 128 159 197 259 309 360
#
# _framework density 27.078175999999999
#
# number of rings (size 3 to 8) (size 9 to 14) (size 15 to 20)
#    0.000    2.000    1.250    2.625    0.000    5.000 
#    0.000    0.625    0.000    0.000    0.000    0.000 
#    0.000    0.000    0.000    0.000    0.000    0.000 
#
# Total GULP energy -89693.759659 kJ/mol
# GULP energy per Si atom -5605.859979 kJ/mol
# Density = 2.701655 g / cm^3
# Si number density = 27.078176 Si / 1000 Ang^3
#
#
#
# Elastic Constant Matrix: (Units=GPa)
#
#
# Indices 1 2 3 4 5 6 
#
# 1 146.2178 27.8719 23.8540 8.8267 25.7425 -6.5587
# 2 27.8719 80.2674 15.7356 -11.5965 5.4990 18.2586
# 3 23.8540 15.7356 78.7305 -8.6227 30.3058 0.5020
# 4 8.8267 -11.5965 -8.6227 37.2338 3.0302 -4.5075
# 5 25.7425 5.4990 30.3058 3.0302 34.3726 -1.6965
# 6 -6.5587 18.2586 0.5020 -4.5075 -1.6965 33.0224
#
#
#
# Elastic Compliance Matrix: (Units=1/GPa)
#
#
# Indices 1 2 3 4 5 6 
#
# 1 0.008841 -0.003758 -0.000063 -0.002437 -0.005592 0.003215
# 2 -0.003758 0.016876 -0.002128 0.004426 0.001137 -0.009383
# 3 -0.000063 -0.002128 0.020903 0.005783 -0.018519 0.000684
# 4 -0.002437 0.004426 0.005783 0.030796 -0.006655 0.000843
# 5 -0.005592 0.001137 -0.018519 -0.006655 0.050023 0.000204
# 6 0.003215 -0.009383 0.000684 0.000843 0.000204 0.036224
#
#
# Mechanical properties :
#
#
# Convention : Reuss Voigt Hill
#
# Bulk Modulus (GPa) = 28.79829 48.90430 38.85130
# Shear Modulus (GPa) = 26.71859 36.77605 31.74732
#
# Velocity S-wave (km/s) = 3.14462 3.68930 3.42779
# Velocity P-wave (km/s) = 4.88295 6.02059 5.48136
#
# Compressibility (1/GPa) = 0.03472428
#
# Stress axis : x y z
#
# Youngs Moduli (GPa) = 113.10380 59.25510 47.83951
#
# Poissons Ratio (x) = 0.22269 0.00300
# Poissons Ratio (y) = 0.42505 0.10178
# Poissons Ratio (z) = 0.00709 0.12607
#
# Static dielectric constant tensor:
#      x y z
#    x 2.102470 0.040830 0.000750 
#    y 0.040830 2.188470 0.010460 
#    z 0.000750 0.010460 2.062180 
# 
# From -- ./inp_files/601971.got.cif
#   From: 2010.05.17/outbox.cif.g08.bks.cpg/sg2_301_cif.got.tgz:601971.got - 2010.06.03 11:33:40.
