data_PCOD9079560
_publ_section_title
;
Structure prediction by ZEFSAII (Michael W. Deem and Ramdas Pophale) SiO2 
 PCOD9079560
Probable space group: P -1
;
_chemical_formula_sum "Si O2"
_cell_formula_units_Z 14
_cell_length_a 10.981139
_cell_length_b 17.122139
_cell_length_c 13.034566
_cell_angle_alpha 34.791587
_cell_angle_beta 43.623455
_cell_angle_gamma 31.110139
_cell_volume 720.731849
_symmetry_space_group_name_H-M "P -1"
_symmetry_group_IT_number 2
_symmetry_cell_setting 'triclinic'
loop_
_space_group_symop_operation_xyz
x,y,z
-x,-y,-z
loop_
_atom_site_type_symbol
_atom_site_label
_atom_site_fract_x
_atom_site_fract_y
_atom_site_fract_z
Si Si1 0.898299 0.054341 0.770662
Si Si2 0.239399 0.465420 0.394619
Si Si3 0.510877 0.206791 0.699699
Si Si4 0.425018 0.819773 0.676478
Si Si5 0.013268 0.839496 0.206655
Si Si6 0.462018 0.119445 0.028490
Si Si7 0.464578 0.097825 0.277621
O O1 0.172125 0.878228 0.781413
O O2 0.754527 0.150406 0.649679
O O3 0.887048 0.189632 0.707906
O O4 0.740958 0.014807 0.960707
O O5 0.374490 0.355422 0.535162
O O6 0.403915 0.343917 0.329604
O O7 0.168892 0.659639 0.238194
O O8 0.000000 0.500000 0.500000
O O9 0.568120 0.025156 0.818817
O O10 0.367031 0.254051 0.843403
O O11 0.549247 0.787901 0.744155
O O12 0.360263 0.004732 0.472048
O O13 0.746519 0.922610 0.286046
O O14 0.000000 0.000000 0.000000
O O15 0.384410 0.189851 0.115508
#
# Coordination Sequence:
#
# PCOD9079560 Si02
#       7
#     2   2   2   2   2   2   2
#     4   9  20  35  60  90 119 159 196 243 302 361
#     4  12  23  38  60  91 122 157 206 252 295 360
#     4   9  19  35  60  91 116 162 202 243 292 368
#     4  10  21  34  59  96 121 154 201 253 293 352
#     4  11  20  36  64  83 117 164 202 246 296 357
#     4   9  16  36  63  86 116 164 198 236 297 369
#     4  10  18  37  61  88 118 159 202 237 306 357
#
# _framework density 19.424700999999999
#
# number of rings (size 3 to 8) (size 9 to 14) (size 15 to 20)
#    0.857    1.143    4.286    0.000    0.000    1.143 
#    0.000    2.857    0.000    0.857    0.000    0.000 
#    0.000    0.000    0.000    0.000    0.000    0.000 
#
# Total GULP energy -77965.117139 kJ/mol
# GULP energy per Si atom -5568.936939 kJ/mol
# Density = 1.938049 g / cm^3
# Si number density = 19.424701 Si / 1000 Ang^3
#
#
#
# Elastic Constant Matrix: (Units=GPa)
#
#
# Indices 1 2 3 4 5 6 
#
# 1 115.2498 43.1806 23.0139 -3.3519 16.7228 25.6835
# 2 43.1806 86.4119 29.8835 -1.1031 2.6994 30.0376
# 3 23.0139 29.8835 51.5372 -0.7215 8.1931 15.7799
# 4 -3.3519 -1.1031 -0.7215 25.1811 3.1151 -2.4275
# 5 16.7228 2.6994 8.1931 3.1151 32.9101 14.8634
# 6 25.6835 30.0376 15.7799 -2.4275 14.8634 29.6084
#
#
#
# Elastic Compliance Matrix: (Units=1/GPa)
#
#
# Indices 1 2 3 4 5 6 
#
# 1 0.011855 -0.004288 -0.001179 0.001567 -0.004124 -0.003107
# 2 -0.004288 0.023813 -0.006768 -0.003595 0.012913 -0.023610
# 3 -0.001179 -0.006768 0.025637 0.000319 -0.003443 -0.004021
# 4 0.001567 -0.003595 0.000319 0.041877 -0.009119 0.010129
# 5 -0.004124 0.012913 -0.003443 -0.009119 0.047787 -0.032425
# 6 -0.003107 -0.023610 -0.004021 0.010129 -0.032425 0.079672
#
#
# Mechanical properties :
#
#
# Convention : Reuss Voigt Hill
#
# Bulk Modulus (GPa) = 27.14681 49.48387 38.31534
# Shear Modulus (GPa) = 18.69949 28.01465 23.35707
#
# Velocity S-wave (km/s) = 3.10605 3.80177 3.47139
# Velocity P-wave (km/s) = 5.18355 6.69338 5.98625
#
# Compressibility (1/GPa) = 0.03683674
#
# Stress axis : x y z
#
# Youngs Moduli (GPa) = 84.35307 41.99386 39.00640
#
# Poissons Ratio (x) = 0.18005 0.04599
# Poissons Ratio (y) = 0.36167 0.26398
# Poissons Ratio (z) = 0.09945 0.28420
#
# Static dielectric constant tensor:
#      x y z
#    x 1.751210 0.023420 0.028420 
#    y 0.023420 1.663620 0.032900 
#    z 0.028420 0.032900 1.743170 
# 
# From -- ./inp_files/522939.got.cif
#   From: 2010.05.17/outbox.cif.g08.bks.cpg/sg2_262_cif.got.tgz:522939.got - 2010.06.03 11:33:40.
