data_PCOD9079514
_publ_section_title
;
Structure prediction by ZEFSAII (Michael W. Deem and Ramdas Pophale) SiO2 
 PCOD9079514
Probable space group: P -1
;
_chemical_formula_sum "Si O2"
_cell_formula_units_Z 16
_cell_length_a 11.830504
_cell_length_b 11.429620
_cell_length_c 8.877935
_cell_angle_alpha 50.183838
_cell_angle_beta 106.811493
_cell_angle_gamma 112.270959
_cell_volume 851.458680
_symmetry_space_group_name_H-M "P -1"
_symmetry_group_IT_number 2
_symmetry_cell_setting 'triclinic'
loop_
_space_group_symop_operation_xyz
x,y,z
-x,-y,-z
loop_
_atom_site_type_symbol
_atom_site_label
_atom_site_fract_x
_atom_site_fract_y
_atom_site_fract_z
Si Si1 0.639058 0.351796 0.356797
Si Si2 0.505842 0.050538 0.726564
Si Si3 0.335996 0.098415 0.873196
Si Si4 0.668974 0.288373 0.088223
Si Si5 0.490678 0.429948 0.722306
Si Si6 0.921895 0.361063 0.979081
Si Si7 0.075578 0.902653 0.012991
Si Si8 0.125438 0.603180 0.394071
O O1 0.575491 0.171764 0.529660
O O2 0.682024 0.371441 0.185866
O O3 0.540285 0.446569 0.277186
O O4 0.755952 0.413051 0.459843
O O5 0.406559 0.115662 0.727246
O O6 0.428369 0.879443 0.785943
O O7 0.604727 0.020154 0.909886
O O8 0.379540 0.271375 0.817959
O O9 0.191960 0.025288 0.882302
O O10 0.609353 0.377810 0.865962
O O11 0.799023 0.273265 0.092572
O O12 0.500000 0.500000 0.500000
O O13 0.980692 0.228147 0.033162
O O14 0.877350 0.437130 0.750606
O O15 0.000000 0.500000 0.000000
O O16 0.122232 0.786847 0.241205
O O17 0.000000 0.000000 0.000000
O O18 0.000000 0.500000 0.500000
#
# Coordination Sequence:
#
# PCOD9079514 Si02
#       8
#     2   2   2   2   2   2   2   2
#     4  12  22  38  61  94 127 164 211 258 315 385
#     4  10  18  37  60  88 118 160 202 251 311 380
#     4  10  19  36  62  87 120 157 206 255 311 370
#     4  11  23  38  60  90 130 163 205 258 321 379
#     4  11  23  36  61  93 125 160 206 262 317 373
#     4  10  21  40  65  89 120 169 212 257 317 372
#     4  10  22  39  63  92 122 165 218 261 316 370
#     4  10  22  39  62  90 120 166 218 259 313 378
#
# _framework density 18.791281000000001
#
# number of rings (size 3 to 8) (size 9 to 14) (size 15 to 20)
#    0.750    0.750    3.750    2.250    3.500    0.000 
#    0.000    0.000    0.000    1.500    0.000    0.000 
#    0.000    0.000    0.000    0.000    0.000    0.000 
#
# Total GULP energy -89117.120047 kJ/mol
# GULP energy per Si atom -5569.820003 kJ/mol
# Density = 1.874851 g / cm^3
# Si number density = 18.791281 Si / 1000 Ang^3
#
#
#
# Elastic Constant Matrix: (Units=GPa)
#
#
# Indices 1 2 3 4 5 6 
#
# 1 82.4102 40.1904 15.5847 -0.5474 -12.3776 -3.8011
# 2 40.1904 91.1397 24.6929 14.2169 3.0826 -2.3110
# 3 15.5847 24.6929 63.1834 -0.2863 -13.7378 -0.2405
# 4 -0.5474 14.2169 -0.2863 28.0326 -3.9245 -5.4053
# 5 -12.3776 3.0826 -13.7378 -3.9245 30.0216 -2.7683
# 6 -3.8011 -2.3110 -0.2405 -5.4053 -2.7683 36.0993
#
#
#
# Elastic Compliance Matrix: (Units=1/GPa)
#
#
# Indices 1 2 3 4 5 6 
#
# 1 0.018581 -0.010161 0.001790 0.007687 0.010833 0.003300
# 2 -0.010161 0.019863 -0.007868 -0.012496 -0.011704 -0.002619
# 3 0.001790 -0.007868 0.021148 0.006277 0.012201 0.001701
# 4 0.007687 -0.012496 0.006277 0.045728 0.014038 0.007975
# 5 0.010833 -0.011704 0.012201 0.014038 0.046965 0.006176
# 6 0.003300 -0.002619 0.001701 0.007975 0.006176 0.029560
#
#
# Mechanical properties :
#
#
# Convention : Reuss Voigt Hill
#
# Bulk Modulus (GPa) = 36.87879 44.18546 40.53213
# Shear Modulus (GPa) = 22.38532 29.24841 25.81686
#
# Velocity S-wave (km/s) = 3.45521 3.94952 3.71060
# Velocity P-wave (km/s) = 5.96540 6.66056 6.32254
#
# Compressibility (1/GPa) = 0.02711586
#
# Stress axis : x y z
#
# Youngs Moduli (GPa) = 53.81717 50.34409 47.28600
#
# Poissons Ratio (x) = 0.51154 -0.08466
# Poissons Ratio (y) = 0.54683 0.37205
# Poissons Ratio (z) = -0.09636 0.39611
#
# Static dielectric constant tensor:
#      x y z
#    x 1.654140 -0.024640 0.003970 
#    y -0.024640 1.706390 -0.001650 
#    z 0.003970 -0.001650 1.657790 
# 
# From -- ./inp_files/217291.got.cif
#   From: 2010.05.17/outbox.cif.g08.bks.cpg/sg2_109_cif.got.tgz:217291.got - 2010.06.03 11:33:40.
