data_PCOD9079109
_publ_section_title
;
Structure prediction by ZEFSAII (Michael W. Deem and Ramdas Pophale) SiO2 
 PCOD9079109
Probable space group: P -1
;
_chemical_formula_sum "Si O2"
_cell_formula_units_Z 16
_cell_length_a 8.816528
_cell_length_b 15.637134
_cell_length_c 12.502180
_cell_angle_alpha 37.718823
_cell_angle_beta 111.274211
_cell_angle_gamma 129.348176
_cell_volume 779.609901
_symmetry_space_group_name_H-M "P -1"
_symmetry_group_IT_number 2
_symmetry_cell_setting 'triclinic'
loop_
_space_group_symop_operation_xyz
x,y,z
-x,-y,-z
loop_
_atom_site_type_symbol
_atom_site_label
_atom_site_fract_x
_atom_site_fract_y
_atom_site_fract_z
Si Si1 0.168598 0.620543 0.511763
Si Si2 0.527755 0.003199 0.131152
Si Si3 0.549299 0.336986 0.178610
Si Si4 0.860788 0.983643 0.335682
Si Si5 0.508346 0.579983 0.698475
Si Si6 0.944593 0.403776 0.257338
Si Si7 0.590625 0.322722 0.955350
Si Si8 0.197754 0.966579 0.493710
O O1 0.304085 0.556086 0.640229
O O2 0.000000 0.500000 0.500000
O O3 0.052003 0.604429 0.605571
O O4 0.337990 0.818587 0.316586
O O5 0.740909 0.030916 0.183735
O O6 0.529991 0.155098 0.039081
O O7 0.500000 0.000000 0.000000
O O8 0.477390 0.415810 0.170672
O O9 0.792421 0.450178 0.143496
O O10 0.430737 0.139506 0.393466
O O11 0.517515 0.289406 0.092354
O O12 0.702407 0.772004 0.520027
O O13 0.078310 0.020343 0.337562
O O14 0.888906 0.072011 0.370145
O O15 0.511455 0.432375 0.788675
O O16 0.163708 0.539779 0.126192
O O17 0.842717 0.207509 0.385868
#
# Coordination Sequence:
#
# PCOD9079109 Si02
#       8
#     2   2   2   2   2   2   2   2
#     4  10  22  45  65  84 115 163 205 250 297 362
#     4  11  24  43  63  89 123 158 205 257 309 348
#     4  10  21  35  58  94 130 158 190 256 303 354
#     4   9  19  38  62  87 123 162 198 247 293 368
#     4   9  20  40  62  89 123 160 202 241 301 366
#     4  11  21  36  62  90 121 161 207 240 301 368
#     4  12  22  39  59  95 124 158 198 252 305 357
#     4  10  18  36  62  91 119 161 207 237 299 361
#
# _framework density 20.523084999999998
#
# number of rings (size 3 to 8) (size 9 to 14) (size 15 to 20)
#    0.000    1.750    1.250    4.125    0.000    0.000 
#    9.000    2.500    0.000    0.000    0.000    0.000 
#    0.000    0.000    0.000    0.000    0.000    0.000 
#
# Total GULP energy -89215.905018 kJ/mol
# GULP energy per Si atom -5575.994064 kJ/mol
# Density = 2.047637 g / cm^3
# Si number density = 20.523085 Si / 1000 Ang^3
#
#
#
# Elastic Constant Matrix: (Units=GPa)
#
#
# Indices 1 2 3 4 5 6 
#
# 1 90.7619 22.5179 24.0535 -8.3255 5.3752 -1.6553
# 2 22.5179 83.1956 15.6141 6.7187 14.4672 -5.5780
# 3 24.0535 15.6141 29.3537 6.6394 4.7774 -10.7275
# 4 -8.3255 6.7187 6.6394 32.9897 -0.2189 1.4857
# 5 5.3752 14.4672 4.7774 -0.2189 32.5352 -7.7703
# 6 -1.6553 -5.5780 -10.7275 1.4857 -7.7703 33.2349
#
#
#
# Elastic Compliance Matrix: (Units=1/GPa)
#
#
# Indices 1 2 3 4 5 6 
#
# 1 0.016499 -0.002395 -0.015886 0.008079 -0.000513 -0.005189
# 2 -0.002395 0.014666 -0.004411 -0.002729 -0.005558 -0.000259
# 3 -0.015886 -0.004411 0.059790 -0.015977 0.000120 0.018510
# 4 0.008079 -0.002729 -0.015977 0.036427 0.000885 -0.006634
# 5 -0.000513 -0.005558 0.000120 0.000885 0.035006 0.007225
# 6 -0.005189 -0.000259 0.018510 -0.006634 0.007225 0.037747
#
#
# Mechanical properties :
#
#
# Convention : Reuss Voigt Hill
#
# Bulk Modulus (GPa) = 21.94453 36.40915 29.17684
# Shear Modulus (GPa) = 19.17843 29.16036 24.16939
#
# Velocity S-wave (km/s) = 3.06024 3.77351 3.43544
# Velocity P-wave (km/s) = 4.81691 6.06341 5.47575
#
# Compressibility (1/GPa) = 0.04556944
#
# Stress axis : x y z
#
# Youngs Moduli (GPa) = 60.60965 68.18692 16.72523
#
# Poissons Ratio (x) = 0.16333 0.26570
# Poissons Ratio (y) = 0.14518 0.07378
# Poissons Ratio (z) = 0.96285 0.30079
#
# Static dielectric constant tensor:
#      x y z
#    x 1.783530 0.033470 0.038720 
#    y 0.033470 1.707650 0.031680 
#    z 0.038720 0.031680 1.795360 
# 
# From -- ./inp_files/181871.got.cif
#   From: 2010.05.17/outbox.cif.g08.bks.cpg/sg2_91_cif.got.tgz:181871.got - 2010.06.03 11:33:40.
